# generated using pymatgen
data_PH8C2SNO2
_symmetry_space_group_name_H-M   'P 1'
_cell_length_a   5.51366595
_cell_length_b   9.57156136
_cell_length_c   14.03741328
_cell_angle_alpha   90.00000000
_cell_angle_beta   99.54955530
_cell_angle_gamma   90.00000000
_symmetry_Int_Tables_number   1
_chemical_formula_structural   PH8C2SNO2
_chemical_formula_sum   'P4 H32 C8 S4 N4 O8'
_cell_volume   730.55008079
_cell_formula_units_Z   4
loop_
 _symmetry_equiv_pos_site_id
 _symmetry_equiv_pos_as_xyz
  1  'x, y, z'
loop_
 _atom_site_type_symbol
 _atom_site_label
 _atom_site_symmetry_multiplicity
 _atom_site_fract_x
 _atom_site_fract_y
 _atom_site_fract_z
 _atom_site_occupancy
  P  P0  1  0.535391  0.859650  0.633003  1
  P  P1  1  0.964609  0.359650  0.866997  1
  P  P2  1  0.464609  0.140350  0.366997  1
  P  P3  1  0.035391  0.640350  0.133003  1
  H  H4  1  0.816485  0.159955  0.700897  1
  H  H5  1  0.184306  0.699482  0.383742  1
  H  H6  1  0.315694  0.199482  0.116258  1
  H  H7  1  0.684306  0.800518  0.883742  1
  H  H8  1  0.300289  0.989364  0.910465  1
  H  H9  1  0.121630  0.927005  0.614410  1
  H  H10  1  0.878370  0.072995  0.385590  1
  H  H11  1  0.815694  0.300518  0.616258  1
  H  H12  1  0.621630  0.572995  0.114410  1
  H  H13  1  0.800289  0.510636  0.410465  1
  H  H14  1  0.316485  0.340045  0.200897  1
  H  H15  1  0.606114  0.303892  0.700599  1
  H  H16  1  0.273071  0.991947  0.527013  1
  H  H17  1  0.077971  0.663072  0.580501  1
  H  H18  1  0.763269  0.401900  0.305921  1
  H  H19  1  0.773071  0.508053  0.027013  1
  H  H20  1  0.893886  0.803892  0.799401  1
  H  H21  1  0.226929  0.491947  0.972987  1
  H  H22  1  0.726929  0.008053  0.472987  1
  H  H23  1  0.422029  0.163072  0.919499  1
  H  H24  1  0.577971  0.836928  0.080501  1
  H  H25  1  0.683515  0.659955  0.799103  1
  H  H26  1  0.183515  0.840045  0.299103  1
  H  H27  1  0.393886  0.696108  0.299401  1
  H  H28  1  0.736731  0.901900  0.194079  1
  H  H29  1  0.236731  0.598100  0.694079  1
  H  H30  1  0.922029  0.336928  0.419499  1
  H  H31  1  0.378370  0.427005  0.885590  1
  H  H32  1  0.199711  0.489364  0.589535  1
  H  H33  1  0.106114  0.196108  0.200599  1
  H  H34  1  0.699711  0.010636  0.089535  1
  H  H35  1  0.263269  0.098100  0.805921  1
  C  C36  1  0.270741  0.097005  0.884382  1
  C  C37  1  0.208670  0.727120  0.310263  1
  C  C38  1  0.791330  0.272880  0.689737  1
  C  C39  1  0.729259  0.902995  0.115618  1
  C  C40  1  0.708670  0.772880  0.810263  1
  C  C41  1  0.770741  0.402995  0.384382  1
  C  C42  1  0.291330  0.227120  0.189737  1
  C  C43  1  0.229259  0.597005  0.615618  1
  S  S44  1  0.519527  0.652983  0.582641  1
  S  S45  1  0.480473  0.347017  0.417359  1
  S  S46  1  0.019527  0.847017  0.082641  1
  S  S47  1  0.980473  0.152983  0.917359  1
  N  N48  1  0.711186  0.047905  0.404188  1
  N  N49  1  0.211186  0.452095  0.904188  1
  N  N50  1  0.788814  0.547905  0.095812  1
  N  N51  1  0.288814  0.952095  0.595812  1
  O  O52  1  0.023483  0.649071  0.246025  1
  O  O53  1  0.976517  0.350929  0.753975  1
  O  O54  1  0.263623  0.578908  0.105071  1
  O  O55  1  0.236377  0.078908  0.394929  1
  O  O56  1  0.736377  0.421092  0.894929  1
  O  O57  1  0.523483  0.850929  0.746025  1
  O  O58  1  0.763623  0.921092  0.605071  1
  O  O59  1  0.476517  0.149071  0.253975  1
