# generated using pymatgen
data_LaMg2Cu9
_symmetry_space_group_name_H-M   'P 1'
_cell_length_a   5.07055883
_cell_length_b   5.07055910
_cell_length_c   16.24103403
_cell_angle_alpha   90.00000000
_cell_angle_beta   90.00000000
_cell_angle_gamma   119.99999819
_symmetry_Int_Tables_number   1
_chemical_formula_structural   LaMg2Cu9
_chemical_formula_sum   'La2 Mg4 Cu18'
_cell_volume   361.62295495
_cell_formula_units_Z   2
loop_
 _symmetry_equiv_pos_site_id
 _symmetry_equiv_pos_as_xyz
  1  'x, y, z'
loop_
 _atom_site_type_symbol
 _atom_site_label
 _atom_site_symmetry_multiplicity
 _atom_site_fract_x
 _atom_site_fract_y
 _atom_site_fract_z
 _atom_site_occupancy
  La  La0  1  0.666667  0.333333  0.250000  1
  La  La1  1  0.333333  0.666667  0.750000  1
  Mg  Mg2  1  0.333333  0.666667  0.530220  1
  Mg  Mg3  1  0.333333  0.666667  0.969780  1
  Mg  Mg4  1  0.666667  0.333333  0.030220  1
  Mg  Mg5  1  0.666667  0.333333  0.469780  1
  Cu  Cu6  1  0.167984  0.832016  0.378220  1
  Cu  Cu7  1  0.167984  0.832016  0.121780  1
  Cu  Cu8  1  0.832016  0.167984  0.621780  1
  Cu  Cu9  1  0.000000  0.000000  0.250000  1
  Cu  Cu10  1  0.664031  0.832016  0.121780  1
  Cu  Cu11  1  0.167984  0.335969  0.378220  1
  Cu  Cu12  1  0.832016  0.664031  0.878220  1
  Cu  Cu13  1  0.832016  0.664031  0.621780  1
  Cu  Cu14  1  0.000000  0.000000  0.500000  1
  Cu  Cu15  1  0.664031  0.832016  0.378220  1
  Cu  Cu16  1  0.832016  0.167984  0.878220  1
  Cu  Cu17  1  0.167984  0.335969  0.121780  1
  Cu  Cu18  1  0.333333  0.666667  0.250000  1
  Cu  Cu19  1  0.000000  0.000000  0.000000  1
  Cu  Cu20  1  0.666667  0.333333  0.750000  1
  Cu  Cu21  1  0.000000  0.000000  0.750000  1
  Cu  Cu22  1  0.335969  0.167984  0.621780  1
  Cu  Cu23  1  0.335969  0.167984  0.878220  1
