# generated using pymatgen
data_ZnS
_symmetry_space_group_name_H-M   'P 1'
_cell_length_a   3.85326501
_cell_length_b   3.85326497
_cell_length_c   81.88715425
_cell_angle_alpha   90.00000000
_cell_angle_beta   90.00000000
_cell_angle_gamma   120.00000028
_symmetry_Int_Tables_number   1
_chemical_formula_structural   ZnS
_chemical_formula_sum   'Zn26 S26'
_cell_volume   1052.94130373
_cell_formula_units_Z   26
loop_
 _symmetry_equiv_pos_site_id
 _symmetry_equiv_pos_as_xyz
  1  'x, y, z'
loop_
 _atom_site_type_symbol
 _atom_site_label
 _atom_site_symmetry_multiplicity
 _atom_site_fract_x
 _atom_site_fract_y
 _atom_site_fract_z
 _atom_site_occupancy
  Zn  Zn0  1  0.333333  0.666667  0.807699  1
  Zn  Zn1  1  0.000000  0.000000  0.576931  1
  Zn  Zn2  1  0.666667  0.333333  0.923097  1
  Zn  Zn3  1  0.000000  0.000000  0.230779  1
  Zn  Zn4  1  0.333333  0.666667  0.384626  1
  Zn  Zn5  1  0.333333  0.666667  0.961538  1
  Zn  Zn6  1  0.666667  0.333333  0.653852  1
  Zn  Zn7  1  0.666667  0.333333  0.423087  1
  Zn  Zn8  1  0.000000  0.000000  0.730778  1
  Zn  Zn9  1  0.666667  0.333333  0.076930  1
  Zn  Zn10  1  0.666667  0.333333  0.846169  1
  Zn  Zn11  1  0.000000  0.000000  0.115392  1
  Zn  Zn12  1  0.333333  0.666667  0.269241  1
  Zn  Zn13  1  0.000000  0.000000  0.000007  1
  Zn  Zn14  1  0.333333  0.666667  0.615386  1
  Zn  Zn15  1  0.333333  0.666667  0.153855  1
  Zn  Zn16  1  0.666667  0.333333  0.538472  1
  Zn  Zn17  1  0.000000  0.000000  0.461545  1
  Zn  Zn18  1  0.333333  0.666667  0.038482  1
  Zn  Zn19  1  0.000000  0.000000  0.884623  1
  Zn  Zn20  1  0.666667  0.333333  0.307701  1
  Zn  Zn21  1  0.333333  0.666667  0.692326  1
  Zn  Zn22  1  0.666667  0.333333  0.192316  1
  Zn  Zn23  1  0.000000  0.000000  0.346164  1
  Zn  Zn24  1  0.333333  0.666667  0.500009  1
  Zn  Zn25  1  0.666667  0.333333  0.769236  1
  S  S26  1  0.000000  0.000000  0.490373  1
  S  S27  1  0.000000  0.000000  0.028866  1
  S  S28  1  0.333333  0.666667  0.067295  1
  S  S29  1  0.666667  0.333333  0.567296  1
  S  S30  1  0.000000  0.000000  0.913476  1
  S  S31  1  0.333333  0.666667  0.644195  1
  S  S32  1  0.333333  0.666667  0.528842  1
  S  S33  1  0.666667  0.333333  0.221145  1
  S  S34  1  0.333333  0.666667  0.836553  1
  S  S35  1  0.000000  0.000000  0.605760  1
  S  S36  1  0.666667  0.333333  0.951911  1
  S  S37  1  0.666667  0.333333  0.798043  1
  S  S38  1  0.666667  0.333333  0.105760  1
  S  S39  1  0.666667  0.333333  0.874970  1
  S  S40  1  0.666667  0.333333  0.451913  1
  S  S41  1  0.333333  0.666667  0.298066  1
  S  S42  1  0.333333  0.666667  0.990349  1
  S  S43  1  0.333333  0.666667  0.182684  1
  S  S44  1  0.000000  0.000000  0.759605  1
  S  S45  1  0.333333  0.666667  0.721144  1
  S  S46  1  0.333333  0.666667  0.413453  1
  S  S47  1  0.000000  0.000000  0.259607  1
  S  S48  1  0.000000  0.000000  0.144224  1
  S  S49  1  0.666667  0.333333  0.336531  1
  S  S50  1  0.000000  0.000000  0.374993  1
  S  S51  1  0.666667  0.333333  0.682707  1
