# generated using pymatgen
data_EuGeS3
_symmetry_space_group_name_H-M   'P 1'
_cell_length_a   8.47160628
_cell_length_b   8.54365348
_cell_length_c   11.86104645
_cell_angle_alpha   68.77826553
_cell_angle_beta   88.81129696
_cell_angle_gamma   75.17237084
_symmetry_Int_Tables_number   1
_chemical_formula_structural   EuGeS3
_chemical_formula_sum   'Eu6 Ge6 S18'
_cell_volume   771.15312687
_cell_formula_units_Z   6
loop_
 _symmetry_equiv_pos_site_id
 _symmetry_equiv_pos_as_xyz
  1  'x, y, z'
loop_
 _atom_site_type_symbol
 _atom_site_label
 _atom_site_symmetry_multiplicity
 _atom_site_fract_x
 _atom_site_fract_y
 _atom_site_fract_z
 _atom_site_occupancy
  Eu  Eu0  1  0.246137  0.761070  0.499777  1
  Eu  Eu1  1  0.426249  0.240512  0.814838  1
  Eu  Eu2  1  0.753863  0.238930  0.500223  1
  Eu  Eu3  1  0.891535  0.120745  0.137006  1
  Eu  Eu4  1  0.108465  0.879255  0.862994  1
  Eu  Eu5  1  0.573751  0.759488  0.185162  1
  Ge  Ge6  1  0.905158  0.354878  0.804084  1
  Ge  Ge7  1  0.230792  0.253891  0.470652  1
  Ge  Ge8  1  0.094842  0.645122  0.195916  1
  Ge  Ge9  1  0.769208  0.746109  0.529348  1
  Ge  Ge10  1  0.552828  0.705673  0.813454  1
  Ge  Ge11  1  0.447172  0.294327  0.186546  1
  S  S12  1  0.607646  0.633516  0.457510  1
  S  S13  1  0.781830  0.500490  0.921762  1
  S  S14  1  0.004903  0.461207  0.359447  1
  S  S15  1  0.350359  0.612904  0.766337  1
  S  S16  1  0.883172  0.940528  0.404278  1
  S  S17  1  0.119348  0.180528  0.930604  1
  S  S18  1  0.639574  0.892950  0.646302  1
  S  S19  1  0.995097  0.538793  0.640553  1
  S  S20  1  0.360426  0.107050  0.353698  1
  S  S21  1  0.880652  0.819472  0.069396  1
  S  S22  1  0.392354  0.366484  0.542490  1
  S  S23  1  0.773568  0.184970  0.764297  1
  S  S24  1  0.451472  0.863795  0.923231  1
  S  S25  1  0.548528  0.136205  0.076769  1
  S  S26  1  0.218170  0.499510  0.078238  1
  S  S27  1  0.226432  0.815030  0.235703  1
  S  S28  1  0.116828  0.059472  0.595722  1
  S  S29  1  0.649641  0.387096  0.233663  1
