# generated using pymatgen
data_Mg2Co12As7
_symmetry_space_group_name_H-M   'P 1'
_cell_length_a   3.65529489
_cell_length_b   12.02318224
_cell_length_c   24.88085307
_cell_angle_alpha   90.00000000
_cell_angle_beta   90.00000000
_cell_angle_gamma   90.00000000
_symmetry_Int_Tables_number   1
_chemical_formula_structural   Mg2Co12As7
_chemical_formula_sum   'Mg8 Co48 As28'
_cell_volume   1093.47061285
_cell_formula_units_Z   4
loop_
 _symmetry_equiv_pos_site_id
 _symmetry_equiv_pos_as_xyz
  1  'x, y, z'
loop_
 _atom_site_type_symbol
 _atom_site_label
 _atom_site_symmetry_multiplicity
 _atom_site_fract_x
 _atom_site_fract_y
 _atom_site_fract_z
 _atom_site_occupancy
  Mg  Mg0  1  0.750000  0.310213  0.884410  1
  Mg  Mg1  1  0.250000  0.189787  0.384410  1
  Mg  Mg2  1  0.250000  0.689787  0.115590  1
  Mg  Mg3  1  0.250000  0.713603  0.820987  1
  Mg  Mg4  1  0.750000  0.810213  0.615590  1
  Mg  Mg5  1  0.750000  0.286397  0.179013  1
  Mg  Mg6  1  0.750000  0.786397  0.320987  1
  Mg  Mg7  1  0.250000  0.213603  0.679013  1
  Co  Co8  1  0.750000  0.792115  0.188027  1
  Co  Co9  1  0.250000  0.474136  0.185869  1
  Co  Co10  1  0.250000  0.669985  0.239216  1
  Co  Co11  1  0.250000  0.991846  0.608518  1
  Co  Co12  1  0.750000  0.292115  0.311973  1
  Co  Co13  1  0.750000  0.501807  0.270530  1
  Co  Co14  1  0.250000  0.974136  0.314131  1
  Co  Co15  1  0.250000  0.440078  0.622244  1
  Co  Co16  1  0.750000  0.330015  0.760784  1
  Co  Co17  1  0.250000  0.673244  0.959697  1
  Co  Co18  1  0.250000  0.194268  0.090700  1
  Co  Co19  1  0.250000  0.498194  0.729470  1
  Co  Co20  1  0.750000  0.326756  0.040303  1
  Co  Co21  1  0.750000  0.514579  0.543759  1
  Co  Co22  1  0.750000  0.001806  0.229470  1
  Co  Co23  1  0.750000  0.559922  0.377756  1
  Co  Co24  1  0.250000  0.173244  0.540303  1
  Co  Co25  1  0.250000  0.940078  0.877756  1
  Co  Co26  1  0.750000  0.080188  0.848856  1
  Co  Co27  1  0.250000  0.687123  0.514211  1
  Co  Co28  1  0.750000  0.014579  0.956241  1
  Co  Co29  1  0.750000  0.525864  0.814131  1
  Co  Co30  1  0.750000  0.312877  0.485789  1
  Co  Co31  1  0.750000  0.812877  0.014211  1
  Co  Co32  1  0.750000  0.059922  0.122244  1
  Co  Co33  1  0.750000  0.805732  0.909300  1
  Co  Co34  1  0.250000  0.510605  0.036192  1
  Co  Co35  1  0.750000  0.830015  0.739216  1
  Co  Co36  1  0.250000  0.187123  0.985789  1
  Co  Co37  1  0.250000  0.485421  0.456241  1
  Co  Co38  1  0.750000  0.008154  0.391482  1
  Co  Co39  1  0.250000  0.491846  0.891482  1
  Co  Co40  1  0.250000  0.010605  0.463808  1
  Co  Co41  1  0.250000  0.419812  0.348856  1
  Co  Co42  1  0.750000  0.508154  0.108518  1
  Co  Co43  1  0.250000  0.169985  0.260784  1
  Co  Co44  1  0.750000  0.580188  0.651144  1
  Co  Co45  1  0.750000  0.025864  0.685869  1
  Co  Co46  1  0.250000  0.985421  0.043759  1
  Co  Co47  1  0.250000  0.998193  0.770530  1
  Co  Co48  1  0.250000  0.919812  0.151144  1
  Co  Co49  1  0.250000  0.207885  0.811973  1
  Co  Co50  1  0.750000  0.489395  0.963808  1
  Co  Co51  1  0.750000  0.826756  0.459697  1
  Co  Co52  1  0.250000  0.707885  0.688027  1
  Co  Co53  1  0.250000  0.694268  0.409300  1
  Co  Co54  1  0.750000  0.305732  0.590700  1
  Co  Co55  1  0.750000  0.989395  0.536192  1
  As  As56  1  0.750000  0.127044  0.470038  1
  As  As57  1  0.750000  0.627044  0.029962  1
  As  As58  1  0.750000  0.894149  0.824736  1
  As  As59  1  0.250000  0.373096  0.535812  1
  As  As60  1  0.250000  0.105851  0.175264  1
  As  As61  1  0.250000  0.872956  0.529962  1
  As  As62  1  0.250000  0.861888  0.239694  1
  As  As63  1  0.750000  0.100397  0.310391  1
  As  As64  1  0.750000  0.118951  0.604004  1
  As  As65  1  0.250000  0.372956  0.970038  1
  As  As66  1  0.250000  0.881049  0.395996  1
  As  As67  1  0.750000  0.374233  0.400488  1
  As  As68  1  0.750000  0.138112  0.760306  1
  As  As69  1  0.250000  0.873096  0.964188  1
  As  As70  1  0.250000  0.125767  0.900488  1
  As  As71  1  0.750000  0.394149  0.675264  1
  As  As72  1  0.750000  0.626904  0.464188  1
  As  As73  1  0.250000  0.381049  0.104004  1
  As  As74  1  0.250000  0.625767  0.599512  1
  As  As75  1  0.250000  0.899603  0.689609  1
  As  As76  1  0.750000  0.618951  0.895996  1
  As  As77  1  0.250000  0.361888  0.260306  1
  As  As78  1  0.750000  0.874233  0.099512  1
  As  As79  1  0.250000  0.399603  0.810391  1
  As  As80  1  0.750000  0.600397  0.189609  1
  As  As81  1  0.750000  0.638112  0.739694  1
  As  As82  1  0.250000  0.605851  0.324736  1
  As  As83  1  0.750000  0.126904  0.035812  1
