# generated using pymatgen
data_HgNO3
_symmetry_space_group_name_H-M   'P 1'
_cell_length_a   6.37441515
_cell_length_b   8.71823226
_cell_length_c   12.28751869
_cell_angle_alpha   90.00000000
_cell_angle_beta   94.15447183
_cell_angle_gamma   90.00000000
_symmetry_Int_Tables_number   1
_chemical_formula_structural   HgNO3
_chemical_formula_sum   'Hg8 N8 O24'
_cell_volume   681.06772234
_cell_formula_units_Z   8
loop_
 _symmetry_equiv_pos_site_id
 _symmetry_equiv_pos_as_xyz
  1  'x, y, z'
loop_
 _atom_site_type_symbol
 _atom_site_label
 _atom_site_symmetry_multiplicity
 _atom_site_fract_x
 _atom_site_fract_y
 _atom_site_fract_z
 _atom_site_occupancy
  Hg  Hg0  1  0.180114  0.661808  0.359315  1
  Hg  Hg1  1  0.819886  0.161808  0.640685  1
  Hg  Hg2  1  0.192291  0.046813  0.677180  1
  Hg  Hg3  1  0.807709  0.546813  0.322820  1
  Hg  Hg4  1  0.346614  0.025201  0.087081  1
  Hg  Hg5  1  0.653386  0.525201  0.912919  1
  Hg  Hg6  1  0.719772  0.007395  0.183100  1
  Hg  Hg7  1  0.280228  0.507395  0.816900  1
  N  N8  1  0.002965  0.163122  0.940130  1
  N  N9  1  0.997035  0.663122  0.059870  1
  N  N10  1  0.063756  0.131134  0.327209  1
  N  N11  1  0.936244  0.631134  0.672791  1
  N  N12  1  0.460830  0.398616  0.178432  1
  N  N13  1  0.539170  0.898616  0.821568  1
  N  N14  1  0.498510  0.378670  0.553294  1
  N  N15  1  0.501490  0.878670  0.446706  1
  O  O16  1  0.175080  0.705669  0.095081  1
  O  O17  1  0.824920  0.205669  0.904919  1
  O  O18  1  0.171002  0.206554  0.902601  1
  O  O19  1  0.828998  0.706554  0.097399  1
  O  O20  1  0.015178  0.063622  0.021636  1
  O  O21  1  0.984822  0.563622  0.978364  1
  O  O22  1  0.235932  0.153787  0.376431  1
  O  O23  1  0.764068  0.653787  0.623569  1
  O  O24  1  0.093254  0.717099  0.670705  1
  O  O25  1  0.906746  0.217099  0.329295  1
  O  O26  1  0.041967  1.003215  0.266182  1
  O  O27  1  0.958033  0.503215  0.733818  1
  O  O28  1  0.283641  0.349315  0.148016  1
  O  O29  1  0.716359  0.849315  0.851984  1
  O  O30  1  0.623133  0.376626  0.128670  1
  O  O31  1  0.376867  0.876626  0.871330  1
  O  O32  1  0.478754  0.477481  0.270747  1
  O  O33  1  0.521246  0.977481  0.729253  1
  O  O34  1  0.647273  0.373395  0.492262  1
  O  O35  1  0.352727  0.873395  0.507738  1
  O  O36  1  0.344747  0.465104  0.541815  1
  O  O37  1  0.655253  0.965104  0.458185  1
  O  O38  1  0.508127  0.283465  0.638376  1
  O  O39  1  0.491873  0.783465  0.361624  1
