# generated using pymatgen
data_LuP5O14
_symmetry_space_group_name_H-M   'P 1'
_cell_length_a   9.11242510
_cell_length_b   9.11242552
_cell_length_c   12.46922965
_cell_angle_alpha   88.95750903
_cell_angle_beta   88.95750899
_cell_angle_gamma   89.44360700
_symmetry_Int_Tables_number   1
_chemical_formula_structural   LuP5O14
_chemical_formula_sum   'Lu4 P20 O56'
_cell_volume   1035.01033421
_cell_formula_units_Z   4
loop_
 _symmetry_equiv_pos_site_id
 _symmetry_equiv_pos_as_xyz
  1  'x, y, z'
loop_
 _atom_site_type_symbol
 _atom_site_label
 _atom_site_symmetry_multiplicity
 _atom_site_fract_x
 _atom_site_fract_y
 _atom_site_fract_z
 _atom_site_occupancy
  Lu  Lu0  1  0.980606  0.019394  0.750000  1
  Lu  Lu1  1  0.019394  0.980606  0.250000  1
  Lu  Lu2  1  0.531768  0.468232  0.750000  1
  Lu  Lu3  1  0.468232  0.531768  0.250000  1
  P  P4  1  0.818480  0.547453  0.109820  1
  P  P5  1  0.682584  0.019210  0.104393  1
  P  P6  1  0.980790  0.317416  0.395607  1
  P  P7  1  0.577828  0.073752  0.759447  1
  P  P8  1  0.822605  0.889370  0.499369  1
  P  P9  1  0.926248  0.422172  0.740553  1
  P  P10  1  0.422172  0.926248  0.240553  1
  P  P11  1  0.375194  0.672515  0.965813  1
  P  P12  1  0.317416  0.980790  0.895607  1
  P  P13  1  0.624806  0.327485  0.034187  1
  P  P14  1  0.672515  0.375194  0.465813  1
  P  P15  1  0.073752  0.577828  0.259447  1
  P  P16  1  0.452547  0.181520  0.390180  1
  P  P17  1  0.181520  0.452547  0.890180  1
  P  P18  1  0.889370  0.822605  0.999369  1
  P  P19  1  0.547453  0.818480  0.609820  1
  P  P20  1  0.019210  0.682584  0.604393  1
  P  P21  1  0.177395  0.110630  0.500631  1
  P  P22  1  0.327485  0.624806  0.534187  1
  P  P23  1  0.110630  0.177395  0.000631  1
  O  O24  1  0.424405  0.624812  0.073478  1
  O  O25  1  0.328072  0.844616  0.975698  1
  O  O26  1  0.465540  0.651792  0.865880  1
  O  O27  1  0.147355  0.351987  0.992600  1
  O  O28  1  0.482595  0.029271  0.335776  1
  O  O29  1  0.224735  0.526965  0.231356  1
  O  O30  1  0.011126  0.140109  0.911547  1
  O  O31  1  0.473035  0.775265  0.268644  1
  O  O32  1  0.216307  0.963135  0.805988  1
  O  O33  1  0.517354  0.990709  0.137331  1
  O  O34  1  0.988874  0.859891  0.088453  1
  O  O35  1  0.733540  0.040520  0.783769  1
  O  O36  1  0.671928  0.155384  0.024302  1
  O  O37  1  0.526965  0.224735  0.731356  1
  O  O38  1  0.990709  0.517354  0.637331  1
  O  O39  1  0.040520  0.733540  0.283769  1
  O  O40  1  0.148003  0.072776  0.614759  1
  O  O41  1  0.300578  0.395072  0.820567  1
  O  O42  1  0.266460  0.959480  0.216231  1
  O  O43  1  0.851997  0.927224  0.385241  1
  O  O44  1  0.140109  0.011126  0.411547  1
  O  O45  1  0.859891  0.988874  0.588453  1
  O  O46  1  0.395072  0.300578  0.320567  1
  O  O47  1  0.927224  0.851997  0.885241  1
  O  O48  1  0.648013  0.852645  0.507400  1
  O  O49  1  0.029271  0.482595  0.835776  1
  O  O50  1  0.604928  0.699422  0.679433  1
  O  O51  1  0.210289  0.605383  0.943777  1
  O  O52  1  0.009291  0.482646  0.362669  1
  O  O53  1  0.348208  0.534460  0.634120  1
  O  O54  1  0.575595  0.375188  0.926522  1
  O  O55  1  0.624812  0.424405  0.573478  1
  O  O56  1  0.723568  0.890237  0.025832  1
  O  O57  1  0.534460  0.348208  0.134120  1
  O  O58  1  0.789711  0.394617  0.056223  1
  O  O59  1  0.155384  0.671928  0.524302  1
  O  O60  1  0.517405  0.970729  0.664224  1
  O  O61  1  0.651792  0.465540  0.365880  1
  O  O62  1  0.844616  0.328072  0.475698  1
  O  O63  1  0.394617  0.789711  0.556223  1
  O  O64  1  0.852645  0.648013  0.007400  1
  O  O65  1  0.959480  0.266460  0.716231  1
  O  O66  1  0.605383  0.210289  0.443777  1
  O  O67  1  0.775265  0.473035  0.768644  1
  O  O68  1  0.699422  0.604928  0.179433  1
  O  O69  1  0.351987  0.147355  0.492600  1
  O  O70  1  0.970729  0.517405  0.164224  1
  O  O71  1  0.109763  0.276432  0.474168  1
  O  O72  1  0.890237  0.723568  0.525832  1
  O  O73  1  0.783693  0.036865  0.194012  1
  O  O74  1  0.963135  0.216307  0.305988  1
  O  O75  1  0.375188  0.575595  0.426522  1
  O  O76  1  0.276432  0.109763  0.974168  1
  O  O77  1  0.072776  0.148003  0.114759  1
  O  O78  1  0.482646  0.009291  0.862669  1
  O  O79  1  0.036865  0.783693  0.694012  1
