# generated using pymatgen
data_Os(SeCl6)2
_symmetry_space_group_name_H-M   'P 1'
_cell_length_a   8.95020475
_cell_length_b   8.95020500
_cell_length_c   12.61348879
_cell_angle_alpha   109.57170448
_cell_angle_beta   109.57170495
_cell_angle_gamma   93.19935867
_symmetry_Int_Tables_number   1
_chemical_formula_structural   Os(SeCl6)2
_chemical_formula_sum   'Os2 Se4 Cl24'
_cell_volume   880.82045612
_cell_formula_units_Z   2
loop_
 _symmetry_equiv_pos_site_id
 _symmetry_equiv_pos_as_xyz
  1  'x, y, z'
loop_
 _atom_site_type_symbol
 _atom_site_label
 _atom_site_symmetry_multiplicity
 _atom_site_fract_x
 _atom_site_fract_y
 _atom_site_fract_z
 _atom_site_occupancy
  Os  Os0  1  0.665223  0.665223  0.330445  1
  Os  Os1  1  0.415223  0.915223  0.830445  1
  Se  Se2  1  0.481095  0.024130  0.496270  1
  Se  Se3  1  0.774130  0.731095  0.996270  1
  Se  Se4  1  0.222140  0.265175  0.996270  1
  Se  Se5  1  0.015175  0.472140  0.496270  1
  Cl  Cl6  1  0.856858  0.704605  0.846377  1
  Cl  Cl7  1  0.769217  0.478980  0.984267  1
  Cl  Cl8  1  0.527544  0.875766  0.683158  1
  Cl  Cl9  1  0.454605  0.106858  0.346377  1
  Cl  Cl10  1  0.708168  0.557627  0.482457  1
  Cl  Cl11  1  0.557392  0.405615  0.183158  1
  Cl  Cl12  1  0.127683  0.291296  0.143221  1
  Cl  Cl13  1  0.456957  0.659996  0.836247  1
  Cl  Cl14  1  0.891771  0.239519  0.346377  1
  Cl  Cl15  1  0.255287  0.465051  0.484267  1
  Cl  Cl16  1  0.409996  0.706957  0.336247  1
  Cl  Cl17  1  0.674830  0.024289  0.982457  1
  Cl  Cl18  1  0.601925  0.265538  0.643221  1
  Cl  Cl19  1  0.015538  0.851925  0.143221  1
  Cl  Cl20  1  0.625766  0.777544  0.183158  1
  Cl  Cl21  1  0.926251  0.629290  0.336247  1
  Cl  Cl22  1  0.228980  0.019217  0.484267  1
  Cl  Cl23  1  0.774289  0.924830  0.482457  1
  Cl  Cl24  1  0.307627  0.958168  0.982457  1
  Cl  Cl25  1  0.379290  0.176251  0.836247  1
  Cl  Cl26  1  0.155615  0.807392  0.683158  1
  Cl  Cl27  1  0.989519  0.141771  0.846377  1
  Cl  Cl28  1  0.215051  0.505287  0.984267  1
  Cl  Cl29  1  0.041296  0.377683  0.643221  1
