# generated using pymatgen
data_Na4Th(MoO4)4
_symmetry_space_group_name_H-M   'P 1'
_cell_length_a   10.18177081
_cell_length_b   10.18177067
_cell_length_c   10.18177052
_cell_angle_alpha   106.80995311
_cell_angle_beta   110.81801924
_cell_angle_gamma   110.81801675
_symmetry_Int_Tables_number   1
_chemical_formula_structural   Na4Th(MoO4)4
_chemical_formula_sum   'Na8 Th2 Mo8 O32'
_cell_volume   811.23915048
_cell_formula_units_Z   2
loop_
 _symmetry_equiv_pos_site_id
 _symmetry_equiv_pos_as_xyz
  1  'x, y, z'
loop_
 _atom_site_type_symbol
 _atom_site_label
 _atom_site_symmetry_multiplicity
 _atom_site_fract_x
 _atom_site_fract_y
 _atom_site_fract_z
 _atom_site_occupancy
  Na  Na0  1  0.354034  0.538446  0.629296  1
  Na  Na1  1  0.090850  0.129296  0.275262  1
  Na  Na2  1  0.854034  0.224738  0.815588  1
  Na  Na3  1  0.409150  0.684412  0.038446  1
  Na  Na4  1  0.645966  0.461554  0.370704  1
  Na  Na5  1  0.909150  0.870704  0.724738  1
  Na  Na6  1  0.145966  0.775262  0.184412  1
  Na  Na7  1  0.590850  0.315588  0.961554  1
  Th  Th8  1  0.250000  0.875000  0.625000  1
  Th  Th9  1  0.750000  0.125000  0.375000  1
  Mo  Mo10  1  0.337786  0.040405  0.060566  1
  Mo  Mo11  1  0.837786  0.777220  0.297382  1
  Mo  Mo12  1  0.162214  0.222780  0.702618  1
  Mo  Mo13  1  0.979839  0.439434  0.277220  1
  Mo  Mo14  1  0.662214  0.959596  0.939434  1
  Mo  Mo15  1  0.520161  0.797382  0.459595  1
  Mo  Mo16  1  0.479839  0.202618  0.540404  1
  Mo  Mo17  1  0.020161  0.560566  0.722780  1
  O  O18  1  0.864843  0.606458  0.659080  1
  O  O19  1  0.285209  0.434052  0.805912  1
  O  O20  1  0.697876  0.853867  0.276479  1
  O  O21  1  0.517744  0.026655  0.865314  1
  O  O22  1  0.661341  0.008912  0.526655  1
  O  O23  1  0.077388  0.655991  0.353867  1
  O  O24  1  0.447378  0.241616  0.106458  1
  O  O25  1  0.635157  0.294237  0.741616  1
  O  O26  1  0.785209  0.979297  0.851157  1
  O  O27  1  0.302124  0.146133  0.723521  1
  O  O28  1  0.922612  0.344009  0.646133  1
  O  O29  1  0.802124  0.078603  0.155991  1
  O  O30  1  0.197876  0.921397  0.844009  1
  O  O31  1  0.577388  0.223521  0.421397  1
  O  O32  1  0.552622  0.758384  0.893542  1
  O  O33  1  0.947378  0.840920  0.205763  1
  O  O34  1  0.838659  0.365314  0.347571  1
  O  O35  1  0.714791  0.565948  0.194088  1
  O  O36  1  0.871860  0.351157  0.065948  1
  O  O37  1  0.135157  0.393542  0.340920  1
  O  O38  1  0.214791  0.020703  0.148843  1
  O  O39  1  0.052622  0.159080  0.794237  1
  O  O40  1  0.338659  0.991088  0.473345  1
  O  O41  1  0.128140  0.648843  0.934052  1
  O  O42  1  0.161341  0.634686  0.652429  1
  O  O43  1  0.422612  0.776479  0.578603  1
  O  O44  1  0.371860  0.305912  0.520703  1
  O  O45  1  0.628140  0.694088  0.479297  1
  O  O46  1  0.982256  0.847571  0.508912  1
  O  O47  1  0.017744  0.152429  0.491088  1
  O  O48  1  0.482256  0.973345  0.134686  1
  O  O49  1  0.364843  0.705763  0.258384  1
