# generated using pymatgen
data_PS2N3(Cl2O)2
_symmetry_space_group_name_H-M   'P 1'
_cell_length_a   8.05895729
_cell_length_b   11.51366194
_cell_length_c   12.24413302
_cell_angle_alpha   101.28331591
_cell_angle_beta   90.00000000
_cell_angle_gamma   90.00000000
_symmetry_Int_Tables_number   1
_chemical_formula_structural   PS2N3(Cl2O)2
_chemical_formula_sum   'P4 S8 N12 Cl16 O8'
_cell_volume   1114.15085743
_cell_formula_units_Z   4
loop_
 _symmetry_equiv_pos_site_id
 _symmetry_equiv_pos_as_xyz
  1  'x, y, z'
loop_
 _atom_site_type_symbol
 _atom_site_label
 _atom_site_symmetry_multiplicity
 _atom_site_fract_x
 _atom_site_fract_y
 _atom_site_fract_z
 _atom_site_occupancy
  P  P0  1  0.841807  0.048802  0.170805  1
  P  P1  1  0.658193  0.548802  0.670805  1
  P  P2  1  0.341807  0.451198  0.329195  1
  P  P3  1  0.158193  0.951198  0.829195  1
  S  S4  1  0.419411  0.033298  0.720917  1
  S  S5  1  0.358399  0.132512  0.942861  1
  S  S6  1  0.641601  0.867488  0.057139  1
  S  S7  1  0.858399  0.367488  0.557139  1
  S  S8  1  0.080589  0.533298  0.220917  1
  S  S9  1  0.141601  0.632512  0.442861  1
  S  S10  1  0.919411  0.466702  0.779083  1
  S  S11  1  0.580589  0.966702  0.279083  1
  N  N12  1  0.789002  0.564529  0.772460  1
  N  N13  1  0.711280  0.455671  0.560366  1
  N  N14  1  0.980156  0.394475  0.661750  1
  N  N15  1  0.211280  0.044329  0.939634  1
  N  N16  1  0.210998  0.435471  0.227540  1
  N  N17  1  0.788720  0.955671  0.060366  1
  N  N18  1  0.019844  0.605525  0.338250  1
  N  N19  1  0.289002  0.935471  0.727540  1
  N  N20  1  0.519844  0.894475  0.161750  1
  N  N21  1  0.480156  0.105525  0.838250  1
  N  N22  1  0.710998  0.064529  0.272460  1
  N  N23  1  0.288720  0.544329  0.439634  1
  Cl  Cl24  1  0.798803  0.345429  0.856077  1
  Cl  Cl25  1  0.126202  0.793984  0.867816  1
  Cl  Cl26  1  0.750967  0.207365  0.564918  1
  Cl  Cl27  1  0.873798  0.206016  0.132184  1
  Cl  Cl28  1  0.373798  0.293984  0.367816  1
  Cl  Cl29  1  0.435038  0.506723  0.721900  1
  Cl  Cl30  1  0.564962  0.493277  0.278100  1
  Cl  Cl31  1  0.201197  0.654571  0.143923  1
  Cl  Cl32  1  0.749033  0.707365  0.064918  1
  Cl  Cl33  1  0.701197  0.845429  0.356077  1
  Cl  Cl34  1  0.935038  0.993277  0.778100  1
  Cl  Cl35  1  0.064962  0.006723  0.221900  1
  Cl  Cl36  1  0.249033  0.792635  0.435082  1
  Cl  Cl37  1  0.250967  0.292635  0.935082  1
  Cl  Cl38  1  0.626202  0.706016  0.632184  1
  Cl  Cl39  1  0.298803  0.154571  0.643923  1
  O  O40  1  0.951168  0.347816  0.455558  1
  O  O41  1  0.440904  0.008157  0.347966  1
  O  O42  1  0.059096  0.508157  0.847966  1
  O  O43  1  0.940904  0.491843  0.152034  1
  O  O44  1  0.451168  0.152184  0.044442  1
  O  O45  1  0.048832  0.652184  0.544442  1
  O  O46  1  0.559096  0.991843  0.652034  1
  O  O47  1  0.548832  0.847816  0.955558  1
