# generated using pymatgen
data_Mn2Fe3(SiO4)3
_symmetry_space_group_name_H-M   'P 1'
_cell_length_a   10.30418869
_cell_length_b   10.30418875
_cell_length_c   10.30418871
_cell_angle_alpha   109.47121852
_cell_angle_beta   109.47121861
_cell_angle_gamma   109.47121959
_symmetry_Int_Tables_number   1
_chemical_formula_structural   Mn2Fe3(SiO4)3
_chemical_formula_sum   'Mn8 Fe12 Si12 O48'
_cell_volume   842.20836216
_cell_formula_units_Z   4
loop_
 _symmetry_equiv_pos_site_id
 _symmetry_equiv_pos_as_xyz
  1  'x, y, z'
loop_
 _atom_site_type_symbol
 _atom_site_label
 _atom_site_symmetry_multiplicity
 _atom_site_fract_x
 _atom_site_fract_y
 _atom_site_fract_z
 _atom_site_occupancy
  Mn  Mn0  1  0.000000  0.000000  0.500000  1
  Mn  Mn1  1  0.500000  0.500000  0.500000  1
  Mn  Mn2  1  0.000000  0.000000  0.000000  1
  Mn  Mn3  1  0.500000  0.000000  0.000000  1
  Mn  Mn4  1  0.500000  0.000000  0.500000  1
  Mn  Mn5  1  0.000000  0.500000  0.500000  1
  Mn  Mn6  1  0.500000  0.500000  0.000000  1
  Mn  Mn7  1  0.000000  0.500000  0.000000  1
  Fe  Fe8  1  0.375000  0.125000  0.250000  1
  Fe  Fe9  1  0.375000  0.750000  0.125000  1
  Fe  Fe10  1  0.625000  0.250000  0.875000  1
  Fe  Fe11  1  0.125000  0.375000  0.750000  1
  Fe  Fe12  1  0.250000  0.875000  0.625000  1
  Fe  Fe13  1  0.875000  0.750000  0.625000  1
  Fe  Fe14  1  0.875000  0.625000  0.250000  1
  Fe  Fe15  1  0.625000  0.875000  0.750000  1
  Fe  Fe16  1  0.750000  0.125000  0.375000  1
  Fe  Fe17  1  0.750000  0.625000  0.875000  1
  Fe  Fe18  1  0.250000  0.375000  0.125000  1
  Fe  Fe19  1  0.125000  0.250000  0.375000  1
  Si  Si20  1  0.125000  0.875000  0.250000  1
  Si  Si21  1  0.875000  0.125000  0.750000  1
  Si  Si22  1  0.625000  0.750000  0.375000  1
  Si  Si23  1  0.750000  0.375000  0.625000  1
  Si  Si24  1  0.250000  0.625000  0.375000  1
  Si  Si25  1  0.375000  0.625000  0.750000  1
  Si  Si26  1  0.750000  0.875000  0.125000  1
  Si  Si27  1  0.375000  0.250000  0.625000  1
  Si  Si28  1  0.875000  0.250000  0.125000  1
  Si  Si29  1  0.250000  0.125000  0.875000  1
  Si  Si30  1  0.625000  0.375000  0.250000  1
  Si  Si31  1  0.125000  0.750000  0.875000  1
  O  O32  1  0.623504  0.410734  0.104233  1
  O  O33  1  0.806501  0.519271  0.395767  1
  O  O34  1  0.410734  0.104233  0.623504  1
  O  O35  1  0.589266  0.895767  0.376496  1
  O  O36  1  0.376496  0.287229  0.480729  1
  O  O37  1  0.376496  0.589266  0.895767  1
  O  O38  1  0.193499  0.212771  0.589266  1
  O  O39  1  0.895767  0.019271  0.306501  1
  O  O40  1  0.287229  0.480729  0.376496  1
  O  O41  1  0.980729  0.693499  0.104233  1
  O  O42  1  0.480729  0.376496  0.287229  1
  O  O43  1  0.212771  0.123504  0.019271  1
  O  O44  1  0.019271  0.212771  0.123504  1
  O  O45  1  0.089266  0.876496  0.395767  1
  O  O46  1  0.910734  0.287229  0.306501  1
  O  O47  1  0.787229  0.410734  0.806501  1
  O  O48  1  0.876496  0.395767  0.089266  1
  O  O49  1  0.287229  0.306501  0.910734  1
  O  O50  1  0.623504  0.712771  0.519271  1
  O  O51  1  0.306501  0.895767  0.019271  1
  O  O52  1  0.104233  0.623504  0.410734  1
  O  O53  1  0.306501  0.910734  0.287229  1
  O  O54  1  0.123504  0.019271  0.212771  1
  O  O55  1  0.787229  0.876496  0.980729  1
  O  O56  1  0.604233  0.193499  0.480729  1
  O  O57  1  0.410734  0.806501  0.787229  1
  O  O58  1  0.519271  0.623504  0.712771  1
  O  O59  1  0.519271  0.395767  0.806501  1
  O  O60  1  0.693499  0.089266  0.712771  1
  O  O61  1  0.089266  0.712771  0.693499  1
  O  O62  1  0.395767  0.806501  0.519271  1
  O  O63  1  0.876496  0.980729  0.787229  1
  O  O64  1  0.693499  0.104233  0.980729  1
  O  O65  1  0.806501  0.787229  0.410734  1
  O  O66  1  0.712771  0.519271  0.623504  1
  O  O67  1  0.193499  0.480729  0.604233  1
  O  O68  1  0.480729  0.604233  0.193499  1
  O  O69  1  0.895767  0.376496  0.589266  1
  O  O70  1  0.589266  0.193499  0.212771  1
  O  O71  1  0.212771  0.589266  0.193499  1
  O  O72  1  0.980729  0.787229  0.876496  1
  O  O73  1  0.910734  0.123504  0.604233  1
  O  O74  1  0.712771  0.693499  0.089266  1
  O  O75  1  0.123504  0.604233  0.910734  1
  O  O76  1  0.604233  0.910734  0.123504  1
  O  O77  1  0.019271  0.306501  0.895767  1
  O  O78  1  0.395767  0.089266  0.876496  1
  O  O79  1  0.104233  0.980729  0.693499  1
