# generated using pymatgen
data_K2Sr(PO3)4
_symmetry_space_group_name_H-M   'P 1'
_cell_length_a   7.42547055
_cell_length_b   7.42547075
_cell_length_c   7.42547026
_cell_angle_alpha   92.19524312
_cell_angle_beta   118.74077648
_cell_angle_gamma   118.74077269
_symmetry_Int_Tables_number   1
_chemical_formula_structural   K2Sr(PO3)4
_chemical_formula_sum   'K2 Sr1 P4 O12'
_cell_volume   294.78169647
_cell_formula_units_Z   1
loop_
 _symmetry_equiv_pos_site_id
 _symmetry_equiv_pos_as_xyz
  1  'x, y, z'
loop_
 _atom_site_type_symbol
 _atom_site_label
 _atom_site_symmetry_multiplicity
 _atom_site_fract_x
 _atom_site_fract_y
 _atom_site_fract_z
 _atom_site_occupancy
  K  K0  1  0.000000  0.325896  0.325896  1
  K  K1  1  1.000000  0.674104  0.674104  1
  Sr  Sr2  1  0.500000  0.750000  0.250000  1
  P  P3  1  0.060641  0.875438  0.250987  1
  P  P4  1  0.624451  0.749013  0.809654  1
  P  P5  1  0.375549  0.185203  0.124562  1
  P  P6  1  0.939359  0.190346  0.814797  1
  O  O7  1  0.141345  0.128729  0.882005  1
  O  O8  1  0.858655  0.740660  0.987383  1
  O  O9  1  0.753277  0.012617  0.871271  1
  O  O10  1  0.572495  0.426580  0.233286  1
  O  O11  1  0.427505  0.660790  0.854084  1
  O  O12  1  0.941768  0.913256  0.350784  1
  O  O13  1  0.058232  0.409016  0.971487  1
  O  O14  1  0.562472  0.649216  0.590984  1
  O  O15  1  0.193294  0.766714  0.339210  1
  O  O16  1  0.437528  0.028513  0.086744  1
  O  O17  1  0.246723  0.117995  0.259340  1
  O  O18  1  0.806706  0.145916  0.573420  1
