# generated using pymatgen
data_Fe3(TeO3)4
_symmetry_space_group_name_H-M   'P 1'
_cell_length_a   7.46834640
_cell_length_b   9.30962218
_cell_length_c   15.86589462
_cell_angle_alpha   105.32529988
_cell_angle_beta   90.00000000
_cell_angle_gamma   90.00000000
_symmetry_Int_Tables_number   1
_chemical_formula_structural   Fe3(TeO3)4
_chemical_formula_sum   'Fe12 Te16 O48'
_cell_volume   1063.88981798
_cell_formula_units_Z   4
loop_
 _symmetry_equiv_pos_site_id
 _symmetry_equiv_pos_as_xyz
  1  'x, y, z'
loop_
 _atom_site_type_symbol
 _atom_site_label
 _atom_site_symmetry_multiplicity
 _atom_site_fract_x
 _atom_site_fract_y
 _atom_site_fract_z
 _atom_site_occupancy
  Fe  Fe0  1  0.631826  0.128905  0.802736  1
  Fe  Fe1  1  0.368174  0.871095  0.197264  1
  Fe  Fe2  1  0.121950  0.517720  0.094844  1
  Fe  Fe3  1  0.869809  0.876116  0.193077  1
  Fe  Fe4  1  0.130191  0.123884  0.806923  1
  Fe  Fe5  1  0.630191  0.376116  0.693077  1
  Fe  Fe6  1  0.621950  0.982280  0.405156  1
  Fe  Fe7  1  0.868174  0.628905  0.302736  1
  Fe  Fe8  1  0.878050  0.482280  0.905156  1
  Fe  Fe9  1  0.131826  0.371095  0.697264  1
  Fe  Fe10  1  0.378050  0.017720  0.594844  1
  Fe  Fe11  1  0.369809  0.623884  0.306923  1
  Te  Te12  1  0.112329  0.271445  0.254867  1
  Te  Te13  1  0.879630  0.085434  0.636225  1
  Te  Te14  1  0.887671  0.728555  0.745133  1
  Te  Te15  1  0.141144  0.701923  0.534057  1
  Te  Te16  1  0.858856  0.298077  0.465943  1
  Te  Te17  1  0.641144  0.798077  0.965943  1
  Te  Te18  1  0.127846  0.811193  0.990163  1
  Te  Te19  1  0.872154  0.188807  0.009837  1
  Te  Te20  1  0.120370  0.914566  0.363775  1
  Te  Te21  1  0.387671  0.771445  0.754867  1
  Te  Te22  1  0.358856  0.201923  0.034057  1
  Te  Te23  1  0.379630  0.414566  0.863775  1
  Te  Te24  1  0.627846  0.688807  0.509837  1
  Te  Te25  1  0.620370  0.585434  0.136225  1
  Te  Te26  1  0.612329  0.228555  0.245133  1
  Te  Te27  1  0.372154  0.311193  0.490163  1
  O  O28  1  0.888951  0.392053  0.011219  1
  O  O29  1  0.618345  0.585675  0.263320  1
  O  O30  1  0.133265  0.885110  0.505594  1
  O  O31  1  0.057865  0.251306  0.382544  1
  O  O32  1  0.333617  0.791268  0.615390  1
  O  O33  1  0.633265  0.614890  0.994406  1
  O  O34  1  0.301602  0.409771  0.291108  1
  O  O35  1  0.423825  0.090242  0.239950  1
  O  O36  1  0.698398  0.590229  0.708893  1
  O  O37  1  0.942135  0.748694  0.617456  1
  O  O38  1  0.801602  0.090229  0.208893  1
  O  O39  1  0.611049  0.892053  0.511219  1
  O  O40  1  0.076175  0.590242  0.739950  1
  O  O41  1  0.111049  0.607947  0.988781  1
  O  O42  1  0.105952  0.357431  0.829151  1
  O  O43  1  0.118345  0.914325  0.236680  1
  O  O44  1  0.681872  0.124766  0.927318  1
  O  O45  1  0.881655  0.085675  0.763320  1
  O  O46  1  0.866735  0.114890  0.494406  1
  O  O47  1  0.833617  0.708732  0.884610  1
  O  O48  1  0.666383  0.208732  0.384610  1
  O  O49  1  0.557865  0.248694  0.117456  1
  O  O50  1  0.343217  0.634578  0.173323  1
  O  O51  1  0.318128  0.875234  0.072682  1
  O  O52  1  0.181872  0.375234  0.572682  1
  O  O53  1  0.166383  0.291268  0.115390  1
  O  O54  1  0.381655  0.414325  0.736680  1
  O  O55  1  0.117897  0.695731  0.337392  1
  O  O56  1  0.382103  0.195731  0.837392  1
  O  O57  1  0.394048  0.857431  0.329151  1
  O  O58  1  0.617897  0.804269  0.162608  1
  O  O59  1  0.366735  0.385110  0.005594  1
  O  O60  1  0.198398  0.909771  0.791107  1
  O  O61  1  0.442135  0.751306  0.882544  1
  O  O62  1  0.818128  0.624766  0.427318  1
  O  O63  1  0.882103  0.304269  0.662608  1
  O  O64  1  0.388951  0.107947  0.488781  1
  O  O65  1  0.072384  0.124402  0.933114  1
  O  O66  1  0.156783  0.134578  0.673323  1
  O  O67  1  0.605952  0.142569  0.670849  1
  O  O68  1  0.572384  0.375598  0.566886  1
  O  O69  1  0.923825  0.409758  0.260050  1
  O  O70  1  0.656783  0.365422  0.826677  1
  O  O71  1  0.894048  0.642569  0.170849  1
  O  O72  1  0.576175  0.909758  0.760050  1
  O  O73  1  0.843217  0.865422  0.326677  1
  O  O74  1  0.427616  0.624402  0.433114  1
  O  O75  1  0.927616  0.875598  0.066886  1
