# generated using pymatgen
data_AsC2N(OF3)2
_symmetry_space_group_name_H-M   'P 1'
_cell_length_a   5.41794922
_cell_length_b   8.82367696
_cell_length_c   15.39582219
_cell_angle_alpha   100.38957801
_cell_angle_beta   90.00000000
_cell_angle_gamma   90.00000000
_symmetry_Int_Tables_number   1
_chemical_formula_structural   AsC2N(OF3)2
_chemical_formula_sum   'As4 C8 N4 O8 F24'
_cell_volume   723.94876474
_cell_formula_units_Z   4
loop_
 _symmetry_equiv_pos_site_id
 _symmetry_equiv_pos_as_xyz
  1  'x, y, z'
loop_
 _atom_site_type_symbol
 _atom_site_label
 _atom_site_symmetry_multiplicity
 _atom_site_fract_x
 _atom_site_fract_y
 _atom_site_fract_z
 _atom_site_occupancy
  As  As0  1  0.760731  0.206997  0.901518  1
  As  As1  1  0.739269  0.206997  0.401518  1
  As  As2  1  0.239269  0.793003  0.098482  1
  As  As3  1  0.260731  0.793003  0.598482  1
  C  C4  1  0.351134  0.137219  0.641534  1
  C  C5  1  0.851134  0.862781  0.858466  1
  C  C6  1  0.648866  0.862781  0.358466  1
  C  C7  1  0.148866  0.137219  0.141534  1
  C  C8  1  0.412453  0.350450  0.166652  1
  C  C9  1  0.912453  0.649550  0.333348  1
  C  C10  1  0.587547  0.649550  0.833348  1
  C  C11  1  0.087547  0.350450  0.666652  1
  N  N12  1  0.208144  0.286849  0.159179  1
  N  N13  1  0.708144  0.713151  0.340821  1
  N  N14  1  0.291856  0.286849  0.659179  1
  N  N15  1  0.791856  0.713151  0.840821  1
  O  O16  1  0.589360  0.425874  0.176791  1
  O  O17  1  0.701719  0.970970  0.875691  1
  O  O18  1  0.910640  0.425874  0.676791  1
  O  O19  1  0.798281  0.970970  0.375691  1
  O  O20  1  0.201719  0.029030  0.624309  1
  O  O21  1  0.410640  0.574126  0.823209  1
  O  O22  1  0.089360  0.574126  0.323209  1
  O  O23  1  0.298281  0.029030  0.124309  1
  F  F24  1  0.428253  0.798139  0.006655  1
  F  F25  1  0.944610  0.179328  0.805670  1
  F  F26  1  0.502540  0.790662  0.164164  1
  F  F27  1  0.997460  0.790662  0.664164  1
  F  F28  1  0.590887  0.112615  0.644127  1
  F  F29  1  0.444610  0.820672  0.694330  1
  F  F30  1  0.204031  0.593987  0.077649  1
  F  F31  1  0.071747  0.798139  0.506655  1
  F  F32  1  0.555390  0.179328  0.305670  1
  F  F33  1  0.409113  0.887385  0.355873  1
  F  F34  1  0.295969  0.593987  0.577649  1
  F  F35  1  0.571747  0.201861  0.993345  1
  F  F36  1  0.018779  0.173315  0.964145  1
  F  F37  1  0.518779  0.826685  0.535855  1
  F  F38  1  0.055390  0.820672  0.194330  1
  F  F39  1  0.497460  0.209338  0.835836  1
  F  F40  1  0.704031  0.406013  0.422351  1
  F  F41  1  0.481221  0.173315  0.464145  1
  F  F42  1  0.981221  0.826685  0.035855  1
  F  F43  1  0.002540  0.209338  0.335836  1
  F  F44  1  0.795969  0.406013  0.922351  1
  F  F45  1  0.928253  0.201861  0.493345  1
  F  F46  1  0.909113  0.112615  0.144127  1
  F  F47  1  0.090887  0.887385  0.855873  1
