# generated using pymatgen
data_Cs2V(PO4)2
_symmetry_space_group_name_H-M   'P 1'
_cell_length_a   7.37288421
_cell_length_b   9.66028489
_cell_length_c   13.63813006
_cell_angle_alpha   90.00000000
_cell_angle_beta   90.00000000
_cell_angle_gamma   90.00000000
_symmetry_Int_Tables_number   1
_chemical_formula_structural   Cs2V(PO4)2
_chemical_formula_sum   'Cs8 V4 P8 O32'
_cell_volume   971.36438381
_cell_formula_units_Z   4
loop_
 _symmetry_equiv_pos_site_id
 _symmetry_equiv_pos_as_xyz
  1  'x, y, z'
loop_
 _atom_site_type_symbol
 _atom_site_label
 _atom_site_symmetry_multiplicity
 _atom_site_fract_x
 _atom_site_fract_y
 _atom_site_fract_z
 _atom_site_occupancy
  Cs  Cs0  1  0.250000  0.918024  0.401744  1
  Cs  Cs1  1  0.750000  0.081976  0.598256  1
  Cs  Cs2  1  0.750000  0.418024  0.098256  1
  Cs  Cs3  1  0.250000  0.581976  0.901744  1
  Cs  Cs4  1  0.250000  0.129827  0.091535  1
  Cs  Cs5  1  0.750000  0.870173  0.908465  1
  Cs  Cs6  1  0.750000  0.629827  0.408465  1
  Cs  Cs7  1  0.250000  0.370173  0.591535  1
  V  V8  1  0.250000  0.485124  0.288518  1
  V  V9  1  0.750000  0.514876  0.711482  1
  V  V10  1  0.750000  0.985124  0.211482  1
  V  V11  1  0.250000  0.014876  0.788518  1
  P  P12  1  0.047965  0.731870  0.159104  1
  P  P13  1  0.547965  0.268130  0.840896  1
  P  P14  1  0.952035  0.231870  0.340896  1
  P  P15  1  0.452035  0.768130  0.659104  1
  P  P16  1  0.952035  0.268130  0.840896  1
  P  P17  1  0.452035  0.731870  0.159104  1
  P  P18  1  0.047965  0.768130  0.659104  1
  P  P19  1  0.547965  0.231870  0.340896  1
  O  O20  1  0.250000  0.544980  0.401118  1
  O  O21  1  0.750000  0.455020  0.598882  1
  O  O22  1  0.750000  0.044980  0.098882  1
  O  O23  1  0.250000  0.955020  0.901118  1
  O  O24  1  0.935022  0.833736  0.220959  1
  O  O25  1  0.435022  0.166264  0.779041  1
  O  O26  1  0.064978  0.333736  0.279041  1
  O  O27  1  0.564978  0.666264  0.720959  1
  O  O28  1  0.064978  0.166264  0.779041  1
  O  O29  1  0.564978  0.833736  0.220959  1
  O  O30  1  0.935022  0.666264  0.720959  1
  O  O31  1  0.435022  0.333736  0.279041  1
  O  O32  1  0.989993  0.711303  0.054615  1
  O  O33  1  0.489993  0.288697  0.945385  1
  O  O34  1  0.010007  0.211303  0.445385  1
  O  O35  1  0.510007  0.788697  0.554615  1
  O  O36  1  0.010007  0.288697  0.945385  1
  O  O37  1  0.510007  0.711303  0.054615  1
  O  O38  1  0.989993  0.788697  0.554615  1
  O  O39  1  0.489993  0.211303  0.445385  1
  O  O40  1  0.063238  0.593428  0.216545  1
  O  O41  1  0.563238  0.406572  0.783455  1
  O  O42  1  0.936762  0.093428  0.283455  1
  O  O43  1  0.436762  0.906572  0.716545  1
  O  O44  1  0.936762  0.406572  0.783455  1
  O  O45  1  0.436762  0.593428  0.216545  1
  O  O46  1  0.063238  0.906572  0.716545  1
  O  O47  1  0.563238  0.093428  0.283455  1
  O  O48  1  0.250000  0.803680  0.163255  1
  O  O49  1  0.750000  0.196320  0.836745  1
  O  O50  1  0.750000  0.303680  0.336745  1
  O  O51  1  0.250000  0.696320  0.663255  1
