# generated using pymatgen
data_CoSb2Br2O3
_symmetry_space_group_name_H-M   'P 1'
_cell_length_a   5.31232486
_cell_length_b   8.40138997
_cell_length_c   8.20495165
_cell_angle_alpha   87.71162144
_cell_angle_beta   82.74995604
_cell_angle_gamma   82.60997015
_symmetry_Int_Tables_number   1
_chemical_formula_structural   CoSb2Br2O3
_chemical_formula_sum   'Co2 Sb4 Br4 O6'
_cell_volume   360.14471990
_cell_formula_units_Z   2
loop_
 _symmetry_equiv_pos_site_id
 _symmetry_equiv_pos_as_xyz
  1  'x, y, z'
loop_
 _atom_site_type_symbol
 _atom_site_label
 _atom_site_symmetry_multiplicity
 _atom_site_fract_x
 _atom_site_fract_y
 _atom_site_fract_z
 _atom_site_occupancy
  Co  Co0  1  0.473209  0.512044  0.712568  1
  Co  Co1  1  0.526792  0.487956  0.287431  1
  Sb  Sb2  1  0.904606  0.687469  0.965087  1
  Sb  Sb3  1  0.937253  0.696680  0.524989  1
  Sb  Sb4  1  0.095395  0.312532  0.034912  1
  Sb  Sb5  1  0.062748  0.303320  0.475011  1
  Br  Br6  1  0.355458  0.774192  0.218901  1
  Br  Br7  1  0.644528  0.225805  0.781105  1
  Br  Br8  1  0.240567  0.862984  0.701054  1
  Br  Br9  1  0.759438  0.137017  0.298941  1
  O  O10  1  0.785906  0.483187  0.086215  1
  O  O11  1  0.230542  0.366428  0.245726  1
  O  O12  1  0.233537  0.514049  0.533615  1
  O  O13  1  0.766462  0.485949  0.466385  1
  O  O14  1  0.214096  0.516816  0.913786  1
  O  O15  1  0.769461  0.633571  0.754274  1
