# generated using pymatgen
data_K2U2WO10
_symmetry_space_group_name_H-M   'P 1'
_cell_length_a   8.37314128
_cell_length_b   9.25706551
_cell_length_c   29.13646811
_cell_angle_alpha   90.00000000
_cell_angle_beta   90.00000000
_cell_angle_gamma   103.48222067
_symmetry_Int_Tables_number   1
_chemical_formula_structural   K2U2WO10
_chemical_formula_sum   'K16 U16 W8 O80'
_cell_volume   2196.15258261
_cell_formula_units_Z   8
loop_
 _symmetry_equiv_pos_site_id
 _symmetry_equiv_pos_as_xyz
  1  'x, y, z'
loop_
 _atom_site_type_symbol
 _atom_site_label
 _atom_site_symmetry_multiplicity
 _atom_site_fract_x
 _atom_site_fract_y
 _atom_site_fract_z
 _atom_site_occupancy
  K  K0  1  0.516689  0.500498  0.604733  1
  K  K1  1  0.411241  0.395117  0.877808  1
  K  K2  1  0.073244  0.032904  0.749393  1
  K  K3  1  0.221712  0.172694  0.518261  1
  K  K4  1  0.911241  0.895117  0.622192  1
  K  K5  1  0.926756  0.967096  0.250607  1
  K  K6  1  0.983311  0.999502  0.104733  1
  K  K7  1  0.426756  0.467096  0.249393  1
  K  K8  1  0.483311  0.499502  0.395267  1
  K  K9  1  0.721712  0.672694  0.981739  1
  K  K10  1  0.573244  0.532904  0.750607  1
  K  K11  1  0.778288  0.827306  0.481739  1
  K  K12  1  0.588759  0.604883  0.122192  1
  K  K13  1  0.278288  0.327306  0.018261  1
  K  K14  1  0.088759  0.104883  0.377808  1
  K  K15  1  0.016689  0.000498  0.895267  1
  U  U16  1  0.330894  0.787472  0.831563  1
  U  U17  1  0.906453  0.423835  0.902305  1
  U  U18  1  0.031635  0.531839  0.567514  1
  U  U19  1  0.531636  0.031839  0.932486  1
  U  U20  1  0.830894  0.287472  0.668437  1
  U  U21  1  0.406453  0.923835  0.597695  1
  U  U22  1  0.179119  0.646335  0.685752  1
  U  U23  1  0.593547  0.076165  0.402305  1
  U  U24  1  0.679119  0.146335  0.814248  1
  U  U25  1  0.169106  0.712528  0.331563  1
  U  U26  1  0.468365  0.968161  0.067514  1
  U  U27  1  0.820881  0.353665  0.314248  1
  U  U28  1  0.669106  0.212528  0.168437  1
  U  U29  1  0.093547  0.576165  0.097695  1
  U  U30  1  0.320881  0.853665  0.185752  1
  U  U31  1  0.968364  0.468161  0.432486  1
  W  W32  1  0.412659  0.043343  0.289819  1
  W  W33  1  0.087341  0.456657  0.789819  1
  W  W34  1  0.912659  0.543343  0.210181  1
  W  W35  1  0.234060  0.813184  0.466998  1
  W  W36  1  0.587341  0.956657  0.710181  1
  W  W37  1  0.765940  0.186816  0.533002  1
  W  W38  1  0.734060  0.313184  0.033002  1
  W  W39  1  0.265940  0.686816  0.966998  1
  O  O40  1  0.443011  0.191474  0.412668  1
  O  O41  1  0.513470  0.324010  0.166039  1
  O  O42  1  0.386365  0.858992  0.680422  1
  O  O43  1  0.823183  0.307980  0.588834  1
  O  O44  1  0.113635  0.641008  0.180422  1
  O  O45  1  0.698552  0.124309  0.472859  1
  O  O46  1  0.801459  0.569781  0.436367  1
  O  O47  1  0.703545  0.215511  0.890611  1
  O  O48  1  0.664568  0.464963  0.320557  1
  O  O49  1  0.323183  0.807980  0.911166  1
  O  O50  1  0.365596  0.135201  0.932507  1
  O  O51  1  0.198552  0.624309  0.027141  1
  O  O52  1  0.707322  0.822513  0.709214  1
  O  O53  1  0.002111  0.489712  0.642898  1
  O  O54  1  0.266781  0.863053  0.265345  1
  O  O55  1  0.128806  0.564458  0.847454  1
  O  O56  1  0.393497  0.869817  0.994127  1
  O  O57  1  0.613635  0.141008  0.319578  1
  O  O58  1  0.606503  0.130183  0.005873  1
  O  O59  1  0.733219  0.136947  0.734655  1
  O  O60  1  0.893497  0.369817  0.505873  1
  O  O61  1  0.233219  0.636947  0.765345  1
  O  O62  1  0.886365  0.358992  0.819578  1
  O  O63  1  0.198541  0.430219  0.563633  1
  O  O64  1  0.947073  0.374931  0.055953  1
  O  O65  1  0.486530  0.675990  0.833961  1
  O  O66  1  0.296455  0.784489  0.109389  1
  O  O67  1  0.698541  0.930219  0.936367  1
  O  O68  1  0.106503  0.630183  0.494127  1
  O  O69  1  0.628806  0.064458  0.652546  1
  O  O70  1  0.538777  0.269911  0.803370  1
  O  O71  1  0.292678  0.177487  0.290786  1
  O  O72  1  0.333225  0.610346  0.324896  1
  O  O73  1  0.371194  0.935542  0.347454  1
  O  O74  1  0.666775  0.389654  0.675104  1
  O  O75  1  0.335432  0.535037  0.679443  1
  O  O76  1  0.986530  0.175990  0.666039  1
  O  O77  1  0.052927  0.625069  0.944047  1
  O  O78  1  0.556989  0.808526  0.587332  1
  O  O79  1  0.387926  0.555291  0.955795  1
  O  O80  1  0.176817  0.692020  0.411166  1
  O  O81  1  0.865596  0.635201  0.567493  1
  O  O82  1  0.134404  0.364799  0.432507  1
  O  O83  1  0.766781  0.363053  0.234655  1
  O  O84  1  0.483247  0.939114  0.768367  1
  O  O85  1  0.013470  0.824010  0.333961  1
  O  O86  1  0.552927  0.125069  0.555953  1
  O  O87  1  0.497889  0.010288  0.142898  1
  O  O88  1  0.112074  0.944709  0.455795  1
  O  O89  1  0.792678  0.677487  0.209214  1
  O  O90  1  0.759262  0.540024  0.891936  1
  O  O91  1  0.871194  0.435542  0.152546  1
  O  O92  1  0.259262  0.040024  0.608064  1
  O  O93  1  0.240738  0.459976  0.108064  1
  O  O94  1  0.038777  0.769911  0.696630  1
  O  O95  1  0.502111  0.989712  0.857102  1
  O  O96  1  0.887926  0.055291  0.544205  1
  O  O97  1  0.796455  0.284489  0.390611  1
  O  O98  1  0.612074  0.444709  0.044205  1
  O  O99  1  0.164568  0.964963  0.179443  1
  O  O100  1  0.166775  0.889654  0.824896  1
  O  O101  1  0.961223  0.230089  0.303370  1
  O  O102  1  0.740738  0.959976  0.391936  1
  O  O103  1  0.447073  0.874931  0.444047  1
  O  O104  1  0.801448  0.375691  0.972859  1
  O  O105  1  0.516753  0.060886  0.231633  1
  O  O106  1  0.997889  0.510288  0.357102  1
  O  O107  1  0.016753  0.560886  0.268367  1
  O  O108  1  0.461223  0.730089  0.196630  1
  O  O109  1  0.207322  0.322513  0.790786  1
  O  O110  1  0.676817  0.192020  0.088834  1
  O  O111  1  0.203545  0.715511  0.609389  1
  O  O112  1  0.301448  0.875691  0.527141  1
  O  O113  1  0.301459  0.069781  0.063633  1
  O  O114  1  0.835432  0.035037  0.820557  1
  O  O115  1  0.943011  0.691474  0.087332  1
  O  O116  1  0.833225  0.110346  0.175104  1
  O  O117  1  0.056989  0.308526  0.912668  1
  O  O118  1  0.983247  0.439114  0.731633  1
  O  O119  1  0.634404  0.864799  0.067493  1
