# generated using pymatgen
data_Nd10S19
_symmetry_space_group_name_H-M   'P 1'
_cell_length_a   8.96434336
_cell_length_b   8.96434336
_cell_length_c   16.23827560
_cell_angle_alpha   90.00000000
_cell_angle_beta   90.00000000
_cell_angle_gamma   90.00000000
_symmetry_Int_Tables_number   1
_chemical_formula_structural   Nd10S19
_chemical_formula_sum   'Nd20 S38'
_cell_volume   1304.89892663
_cell_formula_units_Z   2
loop_
 _symmetry_equiv_pos_site_id
 _symmetry_equiv_pos_as_xyz
  1  'x, y, z'
loop_
 _atom_site_type_symbol
 _atom_site_label
 _atom_site_symmetry_multiplicity
 _atom_site_fract_x
 _atom_site_fract_y
 _atom_site_fract_z
 _atom_site_occupancy
  Nd  Nd0  1  0.348340  0.459243  0.377693  1
  Nd  Nd1  1  0.750000  0.250000  0.885483  1
  Nd  Nd2  1  0.145473  0.055372  0.897204  1
  Nd  Nd3  1  0.444628  0.145473  0.602796  1
  Nd  Nd4  1  0.651660  0.540757  0.622307  1
  Nd  Nd5  1  0.151660  0.040757  0.377693  1
  Nd  Nd6  1  0.055372  0.354527  0.602796  1
  Nd  Nd7  1  0.540757  0.848340  0.877693  1
  Nd  Nd8  1  0.944628  0.645473  0.397204  1
  Nd  Nd9  1  0.750000  0.250000  0.385483  1
  Nd  Nd10  1  0.354527  0.444628  0.897204  1
  Nd  Nd11  1  0.959243  0.651660  0.877693  1
  Nd  Nd12  1  0.040757  0.348340  0.122307  1
  Nd  Nd13  1  0.854527  0.944628  0.102796  1
  Nd  Nd14  1  0.459243  0.151660  0.122307  1
  Nd  Nd15  1  0.848340  0.959243  0.622307  1
  Nd  Nd16  1  0.250000  0.750000  0.614517  1
  Nd  Nd17  1  0.645473  0.555372  0.102796  1
  Nd  Nd18  1  0.555372  0.854527  0.397204  1
  Nd  Nd19  1  0.250000  0.750000  0.114517  1
  S  S20  1  0.148265  0.053115  0.561930  1
  S  S21  1  0.250000  0.750000  0.434203  1
  S  S22  1  0.422880  0.611113  0.749997  1
  S  S23  1  0.549182  0.848163  0.573740  1
  S  S24  1  0.950818  0.651837  0.573740  1
  S  S25  1  0.530175  0.304090  0.750939  1
  S  S26  1  0.250000  0.750000  0.934203  1
  S  S27  1  0.030175  0.804090  0.249061  1
  S  S28  1  0.469825  0.695910  0.249061  1
  S  S29  1  0.195910  0.530175  0.749061  1
  S  S30  1  0.611113  0.077120  0.750003  1
  S  S31  1  0.750000  0.250000  0.065797  1
  S  S32  1  0.969825  0.195910  0.750939  1
  S  S33  1  0.049182  0.348163  0.426260  1
  S  S34  1  0.695910  0.030175  0.250939  1
  S  S35  1  0.388887  0.922880  0.249997  1
  S  S36  1  0.577120  0.388887  0.250003  1
  S  S37  1  0.351735  0.446885  0.561930  1
  S  S38  1  0.804090  0.469825  0.250939  1
  S  S39  1  0.750000  0.750000  0.750000  1
  S  S40  1  0.553115  0.851735  0.061930  1
  S  S41  1  0.651837  0.549182  0.926260  1
  S  S42  1  0.077120  0.888887  0.749997  1
  S  S43  1  0.348163  0.450818  0.073740  1
  S  S44  1  0.151837  0.049182  0.073740  1
  S  S45  1  0.304090  0.969825  0.749061  1
  S  S46  1  0.851735  0.946885  0.438070  1
  S  S47  1  0.848163  0.950818  0.926260  1
  S  S48  1  0.750000  0.250000  0.565797  1
  S  S49  1  0.111113  0.577120  0.249997  1
  S  S50  1  0.648265  0.553115  0.438070  1
  S  S51  1  0.888887  0.422880  0.750003  1
  S  S52  1  0.946885  0.648265  0.061930  1
  S  S53  1  0.250000  0.250000  0.250000  1
  S  S54  1  0.922880  0.111113  0.250003  1
  S  S55  1  0.053115  0.351735  0.938070  1
  S  S56  1  0.450818  0.151837  0.426260  1
  S  S57  1  0.446885  0.148265  0.938070  1
