# generated using pymatgen
data_NbP4(SCl)5
_symmetry_space_group_name_H-M   'P 1'
_cell_length_a   7.27244712
_cell_length_b   13.95387287
_cell_length_c   18.47470813
_cell_angle_alpha   90.00000000
_cell_angle_beta   99.19313632
_cell_angle_gamma   90.00000000
_symmetry_Int_Tables_number   1
_chemical_formula_structural   NbP4(SCl)5
_chemical_formula_sum   'Nb4 P16 S20 Cl20'
_cell_volume   1850.71033601
_cell_formula_units_Z   4
loop_
 _symmetry_equiv_pos_site_id
 _symmetry_equiv_pos_as_xyz
  1  'x, y, z'
loop_
 _atom_site_type_symbol
 _atom_site_label
 _atom_site_symmetry_multiplicity
 _atom_site_fract_x
 _atom_site_fract_y
 _atom_site_fract_z
 _atom_site_occupancy
  Nb  Nb0  1  0.801181  0.693335  0.529701  1
  Nb  Nb1  1  0.301181  0.806665  0.029701  1
  Nb  Nb2  1  0.198819  0.306665  0.470299  1
  Nb  Nb3  1  0.698819  0.193335  0.970299  1
  P  P4  1  0.418275  0.640066  0.113969  1
  P  P5  1  0.225235  0.492339  0.808868  1
  P  P6  1  0.204891  0.947722  0.298015  1
  P  P7  1  0.704891  0.552278  0.798015  1
  P  P8  1  0.529076  0.328462  0.760354  1
  P  P9  1  0.274765  0.992339  0.691132  1
  P  P10  1  0.081725  0.140066  0.386031  1
  P  P11  1  0.725235  0.007661  0.308868  1
  P  P12  1  0.470924  0.671538  0.239646  1
  P  P13  1  0.774765  0.507661  0.191132  1
  P  P14  1  0.795109  0.052278  0.701985  1
  P  P15  1  0.295109  0.447722  0.201985  1
  P  P16  1  0.029076  0.171538  0.260354  1
  P  P17  1  0.970924  0.828462  0.739646  1
  P  P18  1  0.918275  0.859934  0.613969  1
  P  P19  1  0.581725  0.359934  0.886031  1
  S  S20  1  0.277925  0.027861  0.397423  1
  S  S21  1  0.222075  0.527861  0.102577  1
  S  S22  1  0.799318  0.935107  0.776235  1
  S  S23  1  0.672024  0.583456  0.092473  1
  S  S24  1  0.575329  0.399929  0.205317  1
  S  S25  1  0.248782  0.878321  0.765470  1
  S  S26  1  0.924671  0.899929  0.294683  1
  S  S27  1  0.748782  0.621679  0.265470  1
  S  S28  1  0.777925  0.472139  0.897423  1
  S  S29  1  0.722075  0.972139  0.602577  1
  S  S30  1  0.424671  0.600071  0.794683  1
  S  S31  1  0.251218  0.378321  0.734530  1
  S  S32  1  0.172024  0.916544  0.592473  1
  S  S33  1  0.200682  0.064893  0.223765  1
  S  S34  1  0.827976  0.083456  0.407527  1
  S  S35  1  0.700682  0.435107  0.723765  1
  S  S36  1  0.299318  0.564893  0.276235  1
  S  S37  1  0.075329  0.100071  0.705317  1
  S  S38  1  0.751218  0.121679  0.234530  1
  S  S39  1  0.327976  0.416544  0.907527  1
  Cl  Cl40  1  0.382240  0.197218  0.547938  1
  Cl  Cl41  1  0.984337  0.373312  0.374056  1
  Cl  Cl42  1  0.581538  0.702440  0.610427  1
  Cl  Cl43  1  0.015663  0.626688  0.625944  1
  Cl  Cl44  1  0.705219  0.554248  0.470130  1
  Cl  Cl45  1  0.205219  0.945752  0.970130  1
  Cl  Cl46  1  0.947077  0.268965  0.529931  1
  Cl  Cl47  1  0.918462  0.202440  0.889573  1
  Cl  Cl48  1  0.418462  0.297560  0.389573  1
  Cl  Cl49  1  0.081538  0.797560  0.110427  1
  Cl  Cl50  1  0.882240  0.302782  0.047938  1
  Cl  Cl51  1  0.294781  0.445752  0.529870  1
  Cl  Cl52  1  0.484337  0.126688  0.874056  1
  Cl  Cl53  1  0.052923  0.731035  0.470069  1
  Cl  Cl54  1  0.617760  0.802782  0.452062  1
  Cl  Cl55  1  0.447077  0.231035  0.029931  1
  Cl  Cl56  1  0.794781  0.054248  0.029870  1
  Cl  Cl57  1  0.515663  0.873312  0.125944  1
  Cl  Cl58  1  0.117760  0.697218  0.952062  1
  Cl  Cl59  1  0.552923  0.768965  0.970069  1
