# generated using pymatgen
data_Sc5Pb3
_symmetry_space_group_name_H-M   'P 1'
_cell_length_a   8.56906502
_cell_length_b   8.56906493
_cell_length_c   6.19939418
_cell_angle_alpha   90.00000000
_cell_angle_beta   90.00000000
_cell_angle_gamma   120.00000035
_symmetry_Int_Tables_number   1
_chemical_formula_structural   Sc5Pb3
_chemical_formula_sum   'Sc10 Pb6'
_cell_volume   394.22735227
_cell_formula_units_Z   2
loop_
 _symmetry_equiv_pos_site_id
 _symmetry_equiv_pos_as_xyz
  1  'x, y, z'
loop_
 _atom_site_type_symbol
 _atom_site_label
 _atom_site_symmetry_multiplicity
 _atom_site_fract_x
 _atom_site_fract_y
 _atom_site_fract_z
 _atom_site_occupancy
  Pb  Pb0  1  0.606663  0.000000  0.250000  1
  Pb  Pb1  1  0.606663  0.606663  0.750000  1
  Pb  Pb2  1  0.000000  0.393337  0.750000  1
  Pb  Pb3  1  1.000000  0.606663  0.250000  1
  Pb  Pb4  1  0.393337  0.393337  0.250000  1
  Pb  Pb5  1  0.393337  0.000000  0.750000  1
  Sc  Sc6  1  0.333333  0.666667  0.000000  1
  Sc  Sc7  1  0.666667  0.333333  0.500000  1
  Sc  Sc8  1  0.666667  0.333333  0.000000  1
  Sc  Sc9  1  0.333333  0.666667  0.500000  1
  Sc  Sc10  1  0.235436  0.000000  0.250000  1
  Sc  Sc11  1  0.235436  0.235436  0.750000  1
  Sc  Sc12  1  1.000000  0.764564  0.750000  1
  Sc  Sc13  1  0.000000  0.235436  0.250000  1
  Sc  Sc14  1  0.764564  0.764564  0.250000  1
  Sc  Sc15  1  0.764564  0.000000  0.750000  1
