# generated using pymatgen
data_Na3Fe2P2O8F3
_symmetry_space_group_name_H-M   'P 1'
_cell_length_a   10.79922066
_cell_length_b   12.95190700
_cell_length_c   12.95589226
_cell_angle_alpha   90.00000000
_cell_angle_beta   90.00000000
_cell_angle_gamma   90.00000000
_symmetry_Int_Tables_number   1
_chemical_formula_structural   Na3Fe2P2O8F3
_chemical_formula_sum   'Na24 Fe16 P16 O64 F24'
_cell_volume   1812.14714987
_cell_formula_units_Z   8
loop_
 _symmetry_equiv_pos_site_id
 _symmetry_equiv_pos_as_xyz
  1  'x, y, z'
loop_
 _atom_site_type_symbol
 _atom_site_label
 _atom_site_symmetry_multiplicity
 _atom_site_fract_x
 _atom_site_fract_y
 _atom_site_fract_z
 _atom_site_occupancy
  Na  Na0  1  0.500000  0.125091  0.132485  1
  Na  Na1  1  0.000000  0.130431  0.878388  1
  Na  Na2  1  0.500000  0.907895  0.624654  1
  Na  Na3  1  0.500000  0.407895  0.875346  1
  Na  Na4  1  0.000000  0.340720  0.623823  1
  Na  Na5  1  0.000000  0.876921  0.590528  1
  Na  Na6  1  0.000000  0.123079  0.409472  1
  Na  Na7  1  0.000000  0.623079  0.090528  1
  Na  Na8  1  0.500000  0.092105  0.375346  1
  Na  Na9  1  0.000000  0.630431  0.621612  1
  Na  Na10  1  0.500000  0.879275  0.155742  1
  Na  Na11  1  0.000000  0.376921  0.909472  1
  Na  Na12  1  0.500000  0.592105  0.124654  1
  Na  Na13  1  0.500000  0.874909  0.867515  1
  Na  Na14  1  0.000000  0.659280  0.376177  1
  Na  Na15  1  0.500000  0.120725  0.844258  1
  Na  Na16  1  0.000000  0.159280  0.123823  1
  Na  Na17  1  0.000000  0.840720  0.876177  1
  Na  Na18  1  0.500000  0.374909  0.632485  1
  Na  Na19  1  0.500000  0.625091  0.367515  1
  Na  Na20  1  0.000000  0.369569  0.378388  1
  Na  Na21  1  0.000000  0.869569  0.121612  1
  Na  Na22  1  0.500000  0.620725  0.655742  1
  Na  Na23  1  0.500000  0.379275  0.344258  1
  Fe  Fe24  1  0.689268  0.248470  0.497231  1
  Fe  Fe25  1  0.689268  0.748470  0.002769  1
  Fe  Fe26  1  0.189083  0.002211  0.251474  1
  Fe  Fe27  1  0.810917  0.002211  0.251474  1
  Fe  Fe28  1  0.689268  0.251530  0.997231  1
  Fe  Fe29  1  0.310732  0.251530  0.997231  1
  Fe  Fe30  1  0.189083  0.502211  0.248526  1
  Fe  Fe31  1  0.810917  0.497789  0.751474  1
  Fe  Fe32  1  0.189083  0.497789  0.751474  1
  Fe  Fe33  1  0.310732  0.748470  0.002769  1
  Fe  Fe34  1  0.310732  0.248470  0.497231  1
  Fe  Fe35  1  0.189083  0.997789  0.748526  1
  Fe  Fe36  1  0.689268  0.751530  0.502769  1
  Fe  Fe37  1  0.810917  0.502211  0.248526  1
  Fe  Fe38  1  0.310732  0.751530  0.502769  1
  Fe  Fe39  1  0.810917  0.997789  0.748526  1
  P  P40  1  0.749968  0.750800  0.748667  1
  P  P41  1  0.250032  0.249200  0.251333  1
  P  P42  1  0.249990  0.000000  0.000000  1
  P  P43  1  0.249761  0.500000  0.000000  1
  P  P44  1  0.750010  0.500000  0.500000  1
  P  P45  1  0.250032  0.250800  0.751333  1
  P  P46  1  0.750239  0.000000  0.500000  1
  P  P47  1  0.749968  0.749200  0.248667  1
  P  P48  1  0.249761  0.000000  0.500000  1
  P  P49  1  0.749968  0.249200  0.251333  1
  P  P50  1  0.249990  0.500000  0.500000  1
  P  P51  1  0.750010  0.000000  0.000000  1
  P  P52  1  0.250032  0.750800  0.748667  1
  P  P53  1  0.750239  0.500000  0.000000  1
  P  P54  1  0.250032  0.749200  0.248667  1
  P  P55  1  0.749968  0.250800  0.751333  1
  O  O56  1  0.674628  0.256992  0.650144  1
  O  O57  1  0.674628  0.743008  0.349856  1
  O  O58  1  0.156534  0.658079  0.241919  1
  O  O59  1  0.836988  0.010847  0.095043  1
  O  O60  1  0.664908  0.095879  0.497700  1
  O  O61  1  0.843466  0.158079  0.258081  1
  O  O62  1  0.164289  0.001405  0.595848  1
  O  O63  1  0.163012  0.010847  0.095043  1
  O  O64  1  0.843466  0.341921  0.758081  1
  O  O65  1  0.336924  0.404901  0.489407  1
  O  O66  1  0.664908  0.404121  0.997700  1
  O  O67  1  0.836988  0.510847  0.404957  1
  O  O68  1  0.827081  0.150568  0.758669  1
  O  O69  1  0.336924  0.595099  0.510593  1
  O  O70  1  0.325372  0.743008  0.349856  1
  O  O71  1  0.156534  0.341921  0.758081  1
  O  O72  1  0.172919  0.150568  0.758669  1
  O  O73  1  0.654863  0.756389  0.658675  1
  O  O74  1  0.163012  0.510847  0.404957  1
  O  O75  1  0.654863  0.743611  0.158675  1
  O  O76  1  0.156534  0.841921  0.741919  1
  O  O77  1  0.172919  0.650568  0.741331  1
  O  O78  1  0.827081  0.849432  0.241331  1
  O  O79  1  0.156534  0.158079  0.258081  1
  O  O80  1  0.654863  0.243611  0.341325  1
  O  O81  1  0.336924  0.904901  0.010593  1
  O  O82  1  0.325372  0.243008  0.150144  1
  O  O83  1  0.827081  0.650568  0.741331  1
  O  O84  1  0.335092  0.904121  0.502300  1
  O  O85  1  0.336924  0.095099  0.989407  1
  O  O86  1  0.325372  0.256992  0.650144  1
  O  O87  1  0.835711  0.998595  0.404152  1
  O  O88  1  0.827081  0.349432  0.258669  1
  O  O89  1  0.835711  0.001405  0.595848  1
  O  O90  1  0.674628  0.243008  0.150144  1
  O  O91  1  0.164289  0.498595  0.095848  1
  O  O92  1  0.663076  0.095099  0.989407  1
  O  O93  1  0.835711  0.498595  0.095848  1
  O  O94  1  0.345137  0.756389  0.658675  1
  O  O95  1  0.843466  0.841921  0.741919  1
  O  O96  1  0.164289  0.501405  0.904152  1
  O  O97  1  0.163012  0.489153  0.595043  1
  O  O98  1  0.172919  0.349432  0.258669  1
  O  O99  1  0.674628  0.756992  0.849856  1
  O  O100  1  0.835711  0.501405  0.904152  1
  O  O101  1  0.325372  0.756992  0.849856  1
  O  O102  1  0.335092  0.404121  0.997700  1
  O  O103  1  0.345137  0.243611  0.341325  1
  O  O104  1  0.836988  0.489153  0.595043  1
  O  O105  1  0.335092  0.595879  0.002300  1
  O  O106  1  0.843466  0.658079  0.241919  1
  O  O107  1  0.654863  0.256389  0.841325  1
  O  O108  1  0.663076  0.404901  0.489407  1
  O  O109  1  0.836988  0.989153  0.904957  1
  O  O110  1  0.335092  0.095879  0.497700  1
  O  O111  1  0.664908  0.904121  0.502300  1
  O  O112  1  0.663076  0.595099  0.510593  1
  O  O113  1  0.664908  0.595879  0.002300  1
  O  O114  1  0.164289  0.998595  0.404152  1
  O  O115  1  0.163012  0.989153  0.904957  1
  O  O116  1  0.345137  0.743611  0.158675  1
  O  O117  1  0.172919  0.849432  0.241331  1
  O  O118  1  0.345137  0.256389  0.841325  1
  O  O119  1  0.663076  0.904901  0.010593  1
  F  F120  1  0.369037  0.512219  0.257476  1
  F  F121  1  0.869214  0.756919  0.012212  1
  F  F122  1  0.000000  0.497818  0.746525  1
  F  F123  1  0.369037  0.487781  0.742524  1
  F  F124  1  0.000000  0.997818  0.753475  1
  F  F125  1  0.130786  0.256919  0.487788  1
  F  F126  1  0.000000  0.002182  0.246525  1
  F  F127  1  0.000000  0.502182  0.253475  1
  F  F128  1  0.369037  0.987781  0.757476  1
  F  F129  1  0.630963  0.987781  0.757476  1
  F  F130  1  0.130786  0.243081  0.987788  1
  F  F131  1  0.500000  0.753125  0.001027  1
  F  F132  1  0.369037  0.012219  0.242524  1
  F  F133  1  0.500000  0.746875  0.501027  1
  F  F134  1  0.500000  0.246875  0.998973  1
  F  F135  1  0.630963  0.487781  0.742524  1
  F  F136  1  0.869214  0.243081  0.987788  1
  F  F137  1  0.130786  0.743081  0.512212  1
  F  F138  1  0.500000  0.253125  0.498973  1
  F  F139  1  0.869214  0.256919  0.487788  1
  F  F140  1  0.869214  0.743081  0.512212  1
  F  F141  1  0.630963  0.012219  0.242524  1
  F  F142  1  0.630963  0.512219  0.257476  1
  F  F143  1  0.130786  0.756919  0.012212  1
