# generated using pymatgen
data_CaMn6SiO12
_symmetry_space_group_name_H-M   'P 1'
_cell_length_a   9.63012317
_cell_length_b   9.63012358
_cell_length_c   11.76467620
_cell_angle_alpha   114.15969226
_cell_angle_beta   114.15969335
_cell_angle_gamma   89.99999997
_symmetry_Int_Tables_number   1
_chemical_formula_structural   CaMn6SiO12
_chemical_formula_sum   'Ca4 Mn24 Si4 O48'
_cell_volume   889.70743639
_cell_formula_units_Z   4
loop_
 _symmetry_equiv_pos_site_id
 _symmetry_equiv_pos_as_xyz
  1  'x, y, z'
loop_
 _atom_site_type_symbol
 _atom_site_label
 _atom_site_symmetry_multiplicity
 _atom_site_fract_x
 _atom_site_fract_y
 _atom_site_fract_z
 _atom_site_occupancy
  Ca  Ca0  1  0.125000  0.375000  0.250000  1
  Ca  Ca1  1  0.625000  0.875000  0.250000  1
  Ca  Ca2  1  0.875000  0.625000  0.750000  1
  Ca  Ca3  1  0.375000  0.125000  0.750000  1
  Mn  Mn4  1  0.778117  0.250000  0.500000  1
  Mn  Mn5  1  0.000000  0.000000  0.500000  1
  Mn  Mn6  1  0.250000  0.721883  0.000000  1
  Mn  Mn7  1  0.500000  0.000000  0.500000  1
  Mn  Mn8  1  0.250000  0.221883  0.000000  1
  Mn  Mn9  1  0.500000  0.500000  0.500000  1
  Mn  Mn10  1  0.000000  0.000000  0.000000  1
  Mn  Mn11  1  0.387773  0.112227  0.250000  1
  Mn  Mn12  1  0.637773  0.387773  0.750000  1
  Mn  Mn13  1  0.112227  0.862227  0.750000  1
  Mn  Mn14  1  0.278117  0.250000  0.500000  1
  Mn  Mn15  1  0.000000  0.500000  0.500000  1
  Mn  Mn16  1  0.750000  0.778117  1.000000  1
  Mn  Mn17  1  0.862227  0.637773  0.250000  1
  Mn  Mn18  1  0.612227  0.887773  0.750000  1
  Mn  Mn19  1  0.137773  0.362227  0.750000  1
  Mn  Mn20  1  0.500000  0.500000  0.000000  1
  Mn  Mn21  1  0.000000  0.500000  0.000000  1
  Mn  Mn22  1  0.362227  0.612227  0.250000  1
  Mn  Mn23  1  0.750000  0.278117  1.000000  1
  Mn  Mn24  1  0.721883  0.750000  0.500000  1
  Mn  Mn25  1  0.221883  0.750000  0.500000  1
  Mn  Mn26  1  0.887773  0.137773  0.250000  1
  Mn  Mn27  1  0.500000  0.000000  0.000000  1
  Si  Si28  1  0.125000  0.875000  0.250000  1
  Si  Si29  1  0.375000  0.625000  0.750000  1
  Si  Si30  1  0.875000  0.125000  0.750000  1
  Si  Si31  1  0.625000  0.375000  0.250000  1
  O  O32  1  0.008578  0.063912  0.848615  1
  O  O33  1  0.137805  0.915493  0.613758  1
  O  O34  1  0.637805  0.698266  0.613758  1
  O  O35  1  0.975953  0.415493  0.613758  1
  O  O36  1  0.698266  0.975953  0.113758  1
  O  O37  1  0.024047  0.584507  0.386242  1
  O  O38  1  0.684436  0.399939  0.603317  1
  O  O39  1  0.796623  0.581119  0.896683  1
  O  O40  1  0.315564  0.600061  0.396683  1
  O  O41  1  0.418881  0.899939  0.603317  1
  O  O42  1  0.581119  0.100061  0.396683  1
  O  O43  1  0.284704  0.008578  0.348615  1
  O  O44  1  0.203377  0.418881  0.103317  1
  O  O45  1  0.508578  0.784704  0.848615  1
  O  O46  1  0.563912  0.508578  0.348615  1
  O  O47  1  0.436088  0.491422  0.651385  1
  O  O48  1  0.159963  0.715296  0.151385  1
  O  O49  1  0.063912  0.840037  0.348615  1
  O  O50  1  0.215296  0.659963  0.651385  1
  O  O51  1  0.475953  0.198266  0.613758  1
  O  O52  1  0.936088  0.159963  0.651385  1
  O  O53  1  0.918881  0.703377  0.603317  1
  O  O54  1  0.991422  0.936088  0.151385  1
  O  O55  1  0.862195  0.084507  0.386242  1
  O  O56  1  0.198266  0.137805  0.113758  1
  O  O57  1  0.703377  0.684436  0.103317  1
  O  O58  1  0.899939  0.184436  0.103317  1
  O  O59  1  0.915493  0.475953  0.113758  1
  O  O60  1  0.362195  0.301734  0.386242  1
  O  O61  1  0.184436  0.203377  0.603317  1
  O  O62  1  0.100061  0.815564  0.896683  1
  O  O63  1  0.815564  0.796623  0.396683  1
  O  O64  1  0.524047  0.801734  0.386242  1
  O  O65  1  0.081119  0.296623  0.396683  1
  O  O66  1  0.840037  0.284704  0.848615  1
  O  O67  1  0.399939  0.918881  0.103317  1
  O  O68  1  0.600061  0.081119  0.896683  1
  O  O69  1  0.415493  0.637805  0.113758  1
  O  O70  1  0.715296  0.991422  0.651385  1
  O  O71  1  0.301734  0.024047  0.886242  1
  O  O72  1  0.296623  0.315564  0.896683  1
  O  O73  1  0.659963  0.436088  0.151385  1
  O  O74  1  0.491422  0.215296  0.151385  1
  O  O75  1  0.084507  0.524047  0.886242  1
  O  O76  1  0.784704  0.340037  0.348615  1
  O  O77  1  0.584507  0.362195  0.886242  1
  O  O78  1  0.340037  0.563912  0.848615  1
  O  O79  1  0.801734  0.862195  0.886242  1
