# generated using pymatgen
data_Ba3YIr2O9
_symmetry_space_group_name_H-M   'P 1'
_cell_length_a   6.91018421
_cell_length_b   6.91018488
_cell_length_c   15.20516630
_cell_angle_alpha   90.00000000
_cell_angle_beta   90.00000000
_cell_angle_gamma   119.99999685
_symmetry_Int_Tables_number   1
_chemical_formula_structural   Ba3YIr2O9
_chemical_formula_sum   'Ba6 Y2 Ir4 O18'
_cell_volume   628.78346357
_cell_formula_units_Z   2
loop_
 _symmetry_equiv_pos_site_id
 _symmetry_equiv_pos_as_xyz
  1  'x, y, z'
loop_
 _atom_site_type_symbol
 _atom_site_label
 _atom_site_symmetry_multiplicity
 _atom_site_fract_x
 _atom_site_fract_y
 _atom_site_fract_z
 _atom_site_occupancy
  Ba  Ba0  1  0.000000  0.000000  0.250000  1
  Ba  Ba1  1  0.000000  0.000000  0.750000  1
  Ba  Ba2  1  0.333333  0.666667  0.891854  1
  Ba  Ba3  1  0.666667  0.333333  0.391854  1
  Ba  Ba4  1  0.666667  0.333333  0.108146  1
  Ba  Ba5  1  0.333333  0.666667  0.608146  1
  Ir  Ir6  1  0.333333  0.666667  0.161259  1
  Ir  Ir7  1  0.666667  0.333333  0.661259  1
  Ir  Ir8  1  0.666667  0.333333  0.838741  1
  Ir  Ir9  1  0.333333  0.666667  0.338741  1
  Y  Y10  1  0.000000  0.000000  0.000000  1
  Y  Y11  1  0.000000  0.000000  0.500000  1
  O  O12  1  0.454263  0.908527  0.250000  1
  O  O13  1  0.545737  0.454263  0.750000  1
  O  O14  1  0.908527  0.454263  0.750000  1
  O  O15  1  0.091473  0.545737  0.250000  1
  O  O16  1  0.454263  0.545737  0.250000  1
  O  O17  1  0.545737  0.091473  0.750000  1
  O  O18  1  0.865072  0.730144  0.396205  1
  O  O19  1  0.134928  0.865072  0.896205  1
  O  O20  1  0.730144  0.865072  0.896205  1
  O  O21  1  0.269856  0.134928  0.396205  1
  O  O22  1  0.865072  0.134928  0.396205  1
  O  O23  1  0.134928  0.269856  0.603795  1
  O  O24  1  0.134928  0.865072  0.603795  1
  O  O25  1  0.134928  0.269856  0.896205  1
  O  O26  1  0.730144  0.865072  0.603795  1
  O  O27  1  0.269856  0.134928  0.103795  1
  O  O28  1  0.865072  0.730144  0.103795  1
  O  O29  1  0.865072  0.134928  0.103795  1
