# generated using pymatgen
data_Na2MnPO4F
_symmetry_space_group_name_H-M   'P 1'
_cell_length_a   5.39585170
_cell_length_b   13.83818247
_cell_length_c   13.87263052
_cell_angle_alpha   119.60469501
_cell_angle_beta   90.00000000
_cell_angle_gamma   90.00000000
_symmetry_Int_Tables_number   1
_chemical_formula_structural   Na2MnPO4F
_chemical_formula_sum   'Na16 Mn8 P8 O32 F8'
_cell_volume   900.62648184
_cell_formula_units_Z   8
loop_
 _symmetry_equiv_pos_site_id
 _symmetry_equiv_pos_as_xyz
  1  'x, y, z'
loop_
 _atom_site_type_symbol
 _atom_site_label
 _atom_site_symmetry_multiplicity
 _atom_site_fract_x
 _atom_site_fract_y
 _atom_site_fract_z
 _atom_site_occupancy
  Na  Na0  1  0.764059  0.412899  0.333487  1
  Na  Na1  1  0.764135  0.663485  0.828031  1
  Na  Na2  1  0.240557  0.329086  0.663757  1
  Na  Na3  1  0.735865  0.163485  0.328031  1
  Na  Na4  1  0.264059  0.087101  0.166513  1
  Na  Na5  1  0.740557  0.170914  0.836243  1
  Na  Na6  1  0.760874  0.667230  0.087436  1
  Na  Na7  1  0.739126  0.167230  0.587436  1
  Na  Na8  1  0.260874  0.832770  0.412564  1
  Na  Na9  1  0.759443  0.670914  0.336243  1
  Na  Na10  1  0.235941  0.587101  0.666513  1
  Na  Na11  1  0.239126  0.332770  0.912564  1
  Na  Na12  1  0.235865  0.336515  0.171969  1
  Na  Na13  1  0.264135  0.836515  0.671969  1
  Na  Na14  1  0.259443  0.829086  0.163757  1
  Na  Na15  1  0.735941  0.912899  0.833487  1
  Mn  Mn16  1  0.772344  0.401027  0.823954  1
  Mn  Mn17  1  0.229445  0.323651  0.400868  1
  Mn  Mn18  1  0.270555  0.823651  0.900868  1
  Mn  Mn19  1  0.727656  0.901027  0.323954  1
  Mn  Mn20  1  0.770555  0.676349  0.599132  1
  Mn  Mn21  1  0.272344  0.098973  0.676046  1
  Mn  Mn22  1  0.227656  0.598973  0.176046  1
  Mn  Mn23  1  0.729445  0.176349  0.099132  1
  P  P24  1  0.214895  0.077781  0.415660  1
  P  P25  1  0.218494  0.085317  0.923206  1
  P  P26  1  0.281506  0.585317  0.423206  1
  P  P27  1  0.785105  0.922219  0.584340  1
  P  P28  1  0.781506  0.914683  0.076794  1
  P  P29  1  0.714895  0.422219  0.084340  1
  P  P30  1  0.718494  0.414683  0.576794  1
  P  P31  1  0.285105  0.577781  0.915660  1
  O  O32  1  0.930807  0.092824  0.943265  1
  O  O33  1  0.352678  0.965004  0.351070  1
  O  O34  1  0.710683  0.863008  0.459868  1
  O  O35  1  0.716729  0.847182  0.634769  1
  O  O36  1  0.147322  0.465004  0.851070  1
  O  O37  1  0.300401  0.961497  0.865368  1
  O  O38  1  0.572381  0.556368  0.904622  1
  O  O39  1  0.072381  0.943632  0.595378  1
  O  O40  1  0.569193  0.592824  0.443265  1
  O  O41  1  0.289317  0.136992  0.540132  1
  O  O42  1  0.852678  0.534996  0.148930  1
  O  O43  1  0.146258  0.652749  0.536229  1
  O  O44  1  0.199599  0.461497  0.365368  1
  O  O45  1  0.800401  0.538503  0.634632  1
  O  O46  1  0.282988  0.136187  0.848347  1
  O  O47  1  0.427619  0.443632  0.095378  1
  O  O48  1  0.853742  0.347251  0.463771  1
  O  O49  1  0.646258  0.847251  0.963771  1
  O  O50  1  0.927619  0.056368  0.404622  1
  O  O51  1  0.069193  0.907176  0.056735  1
  O  O52  1  0.647322  0.034996  0.648930  1
  O  O53  1  0.210683  0.636992  0.040132  1
  O  O54  1  0.216729  0.652818  0.865231  1
  O  O55  1  0.782988  0.363813  0.651653  1
  O  O56  1  0.717012  0.863813  0.151653  1
  O  O57  1  0.283271  0.152818  0.365231  1
  O  O58  1  0.699599  0.038503  0.134632  1
  O  O59  1  0.217012  0.636187  0.348347  1
  O  O60  1  0.789317  0.363008  0.959868  1
  O  O61  1  0.783271  0.347182  0.134769  1
  O  O62  1  0.430807  0.407176  0.556735  1
  O  O63  1  0.353742  0.152749  0.036229  1
  F  F64  1  0.500251  0.732348  0.240876  1
  F  F65  1  0.001719  0.764840  0.764117  1
  F  F66  1  0.501719  0.735160  0.735883  1
  F  F67  1  0.000251  0.767652  0.259124  1
  F  F68  1  0.998281  0.235160  0.235883  1
  F  F69  1  0.999749  0.232348  0.740876  1
  F  F70  1  0.499749  0.267652  0.759124  1
  F  F71  1  0.498281  0.264840  0.264117  1
