# generated using pymatgen
data_LiS2N(O2F)2
_symmetry_space_group_name_H-M   'P 1'
_cell_length_a   8.73812706
_cell_length_b   8.73812702
_cell_length_c   12.96651498
_cell_angle_alpha   90.00000000
_cell_angle_beta   90.00000000
_cell_angle_gamma   120.00000019
_symmetry_Int_Tables_number   1
_chemical_formula_structural   LiS2N(O2F)2
_chemical_formula_sum   'Li6 S12 N6 O24 F12'
_cell_volume   857.41406975
_cell_formula_units_Z   6
loop_
 _symmetry_equiv_pos_site_id
 _symmetry_equiv_pos_as_xyz
  1  'x, y, z'
loop_
 _atom_site_type_symbol
 _atom_site_label
 _atom_site_symmetry_multiplicity
 _atom_site_fract_x
 _atom_site_fract_y
 _atom_site_fract_z
 _atom_site_occupancy
  Li  Li0  1  0.666667  0.333333  0.018195  1
  Li  Li1  1  0.333333  0.666667  0.981804  1
  Li  Li2  1  0.666667  0.333333  0.481835  1
  Li  Li3  1  0.333333  0.666667  0.518165  1
  Li  Li4  1  0.333333  0.666667  0.750001  1
  Li  Li5  1  0.666667  0.333333  0.249999  1
  S  S6  1  0.973172  0.636934  0.857018  1
  S  S7  1  0.663773  0.026841  0.642983  1
  S  S8  1  0.363066  0.336238  0.857018  1
  S  S9  1  0.336238  0.973172  0.142982  1
  S  S10  1  0.973159  0.636932  0.642983  1
  S  S11  1  0.026841  0.363068  0.357017  1
  S  S12  1  0.636932  0.663773  0.357017  1
  S  S13  1  0.336227  0.973159  0.357017  1
  S  S14  1  0.636934  0.663762  0.142982  1
  S  S15  1  0.026828  0.363066  0.142982  1
  S  S16  1  0.363068  0.336227  0.642983  1
  S  S17  1  0.663762  0.026828  0.857018  1
  N  N18  1  0.277916  0.876119  0.250002  1
  N  N19  1  0.598202  0.722084  0.250002  1
  N  N20  1  0.722084  0.123881  0.749998  1
  N  N21  1  0.401798  0.277916  0.749998  1
  N  N22  1  0.123881  0.401798  0.250002  1
  N  N23  1  0.876119  0.598202  0.749998  1
  O  O24  1  0.156124  0.442919  0.063058  1
  O  O25  1  0.156159  0.442923  0.436928  1
  O  O26  1  0.872859  0.384877  0.360440  1
  O  O27  1  0.713236  0.156159  0.563072  1
  O  O28  1  0.384877  0.512018  0.639560  1
  O  O29  1  0.512018  0.127141  0.360440  1
  O  O30  1  0.843841  0.557077  0.563072  1
  O  O31  1  0.843876  0.557081  0.936942  1
  O  O32  1  0.557081  0.713205  0.063058  1
  O  O33  1  0.615140  0.487967  0.139568  1
  O  O34  1  0.442919  0.286795  0.936942  1
  O  O35  1  0.557077  0.713236  0.436928  1
  O  O36  1  0.127173  0.615140  0.860432  1
  O  O37  1  0.127141  0.615123  0.639560  1
  O  O38  1  0.512033  0.127173  0.139568  1
  O  O39  1  0.487982  0.872859  0.639560  1
  O  O40  1  0.615123  0.487982  0.360440  1
  O  O41  1  0.713205  0.156124  0.936942  1
  O  O42  1  0.487967  0.872827  0.860432  1
  O  O43  1  0.286795  0.843876  0.063058  1
  O  O44  1  0.872827  0.384860  0.139568  1
  O  O45  1  0.442923  0.286764  0.563072  1
  O  O46  1  0.286764  0.843841  0.436928  1
  O  O47  1  0.384860  0.512033  0.860432  1
  F  F48  1  0.209085  0.053473  0.372452  1
  F  F49  1  0.790915  0.946527  0.627548  1
  F  F50  1  0.053473  0.844388  0.627548  1
  F  F51  1  0.053485  0.844391  0.872456  1
  F  F52  1  0.946515  0.155609  0.127544  1
  F  F53  1  0.155612  0.209085  0.627548  1
  F  F54  1  0.946527  0.155612  0.372452  1
  F  F55  1  0.790906  0.946515  0.872456  1
  F  F56  1  0.155609  0.209094  0.872456  1
  F  F57  1  0.209094  0.053485  0.127544  1
  F  F58  1  0.844391  0.790906  0.127544  1
  F  F59  1  0.844388  0.790915  0.372452  1
