# generated using pymatgen
data_Cs2Si2O5
_symmetry_space_group_name_H-M   'P 1'
_cell_length_a   8.78692088
_cell_length_b   10.21839504
_cell_length_c   15.77328746
_cell_angle_alpha   90.28980578
_cell_angle_beta   90.00000000
_cell_angle_gamma   90.00000000
_symmetry_Int_Tables_number   1
_chemical_formula_structural   Cs2Si2O5
_chemical_formula_sum   'Cs16 Si16 O40'
_cell_volume   1416.23742569
_cell_formula_units_Z   8
loop_
 _symmetry_equiv_pos_site_id
 _symmetry_equiv_pos_as_xyz
  1  'x, y, z'
loop_
 _atom_site_type_symbol
 _atom_site_label
 _atom_site_symmetry_multiplicity
 _atom_site_fract_x
 _atom_site_fract_y
 _atom_site_fract_z
 _atom_site_occupancy
  Cs  Cs0  1  0.867135  0.409897  0.590300  1
  Cs  Cs1  1  0.901491  0.846595  0.581941  1
  Cs  Cs2  1  0.125502  0.841613  0.083968  1
  Cs  Cs3  1  0.401491  0.653405  0.918059  1
  Cs  Cs4  1  0.098509  0.153405  0.418059  1
  Cs  Cs5  1  0.120511  0.409925  0.091542  1
  Cs  Cs6  1  0.598509  0.346595  0.081941  1
  Cs  Cs7  1  0.879489  0.590075  0.908458  1
  Cs  Cs8  1  0.625502  0.658387  0.416032  1
  Cs  Cs9  1  0.632865  0.909897  0.090300  1
  Cs  Cs10  1  0.132865  0.590103  0.409700  1
  Cs  Cs11  1  0.367135  0.090103  0.909700  1
  Cs  Cs12  1  0.379489  0.909925  0.591542  1
  Cs  Cs13  1  0.620511  0.090075  0.408458  1
  Cs  Cs14  1  0.374498  0.341613  0.583968  1
  Cs  Cs15  1  0.874498  0.158387  0.916032  1
  Si  Si16  1  0.559543  0.362857  0.801647  1
  Si  Si17  1  0.059543  0.137143  0.698353  1
  Si  Si18  1  0.422967  0.376944  0.303093  1
  Si  Si19  1  0.314332  0.882426  0.307107  1
  Si  Si20  1  0.922967  0.123056  0.196907  1
  Si  Si21  1  0.298540  0.133398  0.195546  1
  Si  Si22  1  0.577033  0.623056  0.696907  1
  Si  Si23  1  0.201460  0.633398  0.695546  1
  Si  Si24  1  0.940457  0.862857  0.301647  1
  Si  Si25  1  0.440457  0.637143  0.198353  1
  Si  Si26  1  0.701460  0.866602  0.804454  1
  Si  Si27  1  0.685668  0.117574  0.692893  1
  Si  Si28  1  0.798540  0.366602  0.304454  1
  Si  Si29  1  0.814332  0.617574  0.192893  1
  Si  Si30  1  0.185668  0.382426  0.807107  1
  Si  Si31  1  0.077033  0.876944  0.803093  1
  O  O32  1  0.876102  0.887687  0.394658  1
  O  O33  1  0.143952  0.781434  0.726039  1
  O  O34  1  0.356048  0.281434  0.226039  1
  O  O35  1  0.856048  0.218566  0.273961  1
  O  O36  1  0.125811  0.362958  0.901358  1
  O  O37  1  0.623898  0.387687  0.894658  1
  O  O38  1  0.871431  0.137627  0.703727  1
  O  O39  1  0.353674  0.032486  0.272249  1
  O  O40  1  0.110145  0.139709  0.201769  1
  O  O41  1  0.371431  0.362373  0.796273  1
  O  O42  1  0.146326  0.532486  0.772249  1
  O  O43  1  0.146142  0.851112  0.894632  1
  O  O44  1  0.646326  0.967514  0.727751  1
  O  O45  1  0.383695  0.528791  0.270608  1
  O  O46  1  0.376102  0.612313  0.105342  1
  O  O47  1  0.853858  0.148888  0.105368  1
  O  O48  1  0.128569  0.862373  0.296273  1
  O  O49  1  0.389855  0.639709  0.701769  1
  O  O50  1  0.628569  0.637627  0.203727  1
  O  O51  1  0.874189  0.637042  0.098642  1
  O  O52  1  0.610145  0.360291  0.298231  1
  O  O53  1  0.390624  0.782730  0.235572  1
  O  O54  1  0.646142  0.648888  0.605368  1
  O  O55  1  0.616305  0.471209  0.729392  1
  O  O56  1  0.625811  0.137042  0.598642  1
  O  O57  1  0.643952  0.718566  0.773961  1
  O  O58  1  0.609376  0.217270  0.764428  1
  O  O59  1  0.639945  0.901452  0.896753  1
  O  O60  1  0.109376  0.282730  0.735572  1
  O  O61  1  0.889855  0.860291  0.798231  1
  O  O62  1  0.123898  0.112313  0.605342  1
  O  O63  1  0.853674  0.467514  0.227751  1
  O  O64  1  0.360055  0.098548  0.103247  1
  O  O65  1  0.890624  0.717270  0.264428  1
  O  O66  1  0.374189  0.862958  0.401358  1
  O  O67  1  0.353858  0.351112  0.394632  1
  O  O68  1  0.116305  0.028791  0.770608  1
  O  O69  1  0.883695  0.971209  0.229392  1
  O  O70  1  0.860055  0.401452  0.396753  1
  O  O71  1  0.139945  0.598548  0.603247  1
