# generated using pymatgen
data_K2Mo(SO5)2
_symmetry_space_group_name_H-M   'P 1'
_cell_length_a   9.10466146
_cell_length_b   9.16339442
_cell_length_c   12.76058964
_cell_angle_alpha   90.00000000
_cell_angle_beta   90.00000000
_cell_angle_gamma   112.31393467
_symmetry_Int_Tables_number   1
_chemical_formula_structural   K2Mo(SO5)2
_chemical_formula_sum   'K8 Mo4 S8 O40'
_cell_volume   984.89011154
_cell_formula_units_Z   4
loop_
 _symmetry_equiv_pos_site_id
 _symmetry_equiv_pos_as_xyz
  1  'x, y, z'
loop_
 _atom_site_type_symbol
 _atom_site_label
 _atom_site_symmetry_multiplicity
 _atom_site_fract_x
 _atom_site_fract_y
 _atom_site_fract_z
 _atom_site_occupancy
  K  K0  1  0.800521  0.195572  0.984152  1
  K  K1  1  0.705900  0.678277  0.119614  1
  K  K2  1  0.199479  0.804428  0.015848  1
  K  K3  1  0.300521  0.195572  0.515848  1
  K  K4  1  0.294100  0.321723  0.880386  1
  K  K5  1  0.205900  0.678277  0.380386  1
  K  K6  1  0.699479  0.804428  0.484152  1
  K  K7  1  0.794100  0.321723  0.619614  1
  Mo  Mo8  1  0.153780  0.778436  0.667543  1
  Mo  Mo9  1  0.653779  0.778436  0.832457  1
  Mo  Mo10  1  0.846221  0.221564  0.332457  1
  Mo  Mo11  1  0.346220  0.221564  0.167543  1
  S  S12  1  0.527028  0.963316  0.200082  1
  S  S13  1  0.972972  0.036684  0.700082  1
  S  S14  1  0.626173  0.430924  0.357885  1
  S  S15  1  0.027028  0.963316  0.299918  1
  S  S16  1  0.472972  0.036684  0.799918  1
  S  S17  1  0.873827  0.569076  0.857885  1
  S  S18  1  0.126173  0.430924  0.142115  1
  S  S19  1  0.373827  0.569076  0.642115  1
  O  O20  1  0.018820  0.335895  0.397241  1
  O  O21  1  0.860405  0.415106  0.818891  1
  O  O22  1  0.174828  0.111323  0.295259  1
  O  O23  1  0.213034  0.140050  0.066678  1
  O  O24  1  0.674828  0.111323  0.204741  1
  O  O25  1  0.731354  0.599989  0.808294  1
  O  O26  1  0.634401  0.422237  0.471951  1
  O  O27  1  0.268646  0.400011  0.191706  1
  O  O28  1  0.029161  0.876511  0.395679  1
  O  O29  1  0.825172  0.888677  0.704741  1
  O  O30  1  0.023740  0.698862  0.820616  1
  O  O31  1  0.500772  0.128637  0.703902  1
  O  O32  1  0.976260  0.301138  0.179384  1
  O  O33  1  0.387225  0.020421  0.187141  1
  O  O34  1  0.865599  0.577763  0.971951  1
  O  O35  1  0.365599  0.577763  0.528049  1
  O  O36  1  0.112775  0.979580  0.687141  1
  O  O37  1  0.000772  0.128637  0.796098  1
  O  O38  1  0.529161  0.876511  0.104321  1
  O  O39  1  0.887225  0.020421  0.312859  1
  O  O40  1  0.768646  0.400011  0.308294  1
  O  O41  1  0.786966  0.859950  0.933322  1
  O  O42  1  0.134401  0.422237  0.028049  1
  O  O43  1  0.999228  0.871363  0.203902  1
  O  O44  1  0.231354  0.599989  0.691706  1
  O  O45  1  0.981180  0.664105  0.602759  1
  O  O46  1  0.518820  0.335895  0.102759  1
  O  O47  1  0.523740  0.698862  0.679384  1
  O  O48  1  0.970839  0.123489  0.604321  1
  O  O49  1  0.476260  0.301138  0.320616  1
  O  O50  1  0.481180  0.664105  0.897241  1
  O  O51  1  0.325172  0.888677  0.795259  1
  O  O52  1  0.286966  0.859950  0.566678  1
  O  O53  1  0.139595  0.584894  0.181109  1
  O  O54  1  0.360405  0.415106  0.681109  1
  O  O55  1  0.612775  0.979580  0.812859  1
  O  O56  1  0.639595  0.584894  0.318891  1
  O  O57  1  0.470839  0.123489  0.895679  1
  O  O58  1  0.499228  0.871363  0.296098  1
  O  O59  1  0.713034  0.140050  0.433322  1
