# generated using pymatgen
data_Rb2Na3InO4
_symmetry_space_group_name_H-M   'P 1'
_cell_length_a   7.55826111
_cell_length_b   9.78400524
_cell_length_c   9.90869082
_cell_angle_alpha   90.00000000
_cell_angle_beta   90.00000000
_cell_angle_gamma   90.00000000
_symmetry_Int_Tables_number   1
_chemical_formula_structural   Rb2Na3InO4
_chemical_formula_sum   'Rb8 Na12 In4 O16'
_cell_volume   732.74834314
_cell_formula_units_Z   4
loop_
 _symmetry_equiv_pos_site_id
 _symmetry_equiv_pos_as_xyz
  1  'x, y, z'
loop_
 _atom_site_type_symbol
 _atom_site_label
 _atom_site_symmetry_multiplicity
 _atom_site_fract_x
 _atom_site_fract_y
 _atom_site_fract_z
 _atom_site_occupancy
  In  In0  1  0.500000  0.775652  0.872087  1
  In  In1  1  0.500000  0.224348  0.127913  1
  In  In2  1  0.000000  0.275652  0.627913  1
  In  In3  1  0.000000  0.724348  0.372087  1
  Rb  Rb4  1  0.000000  0.231773  0.258952  1
  Rb  Rb5  1  0.000000  0.768227  0.741048  1
  Rb  Rb6  1  0.500000  0.731773  0.241048  1
  Rb  Rb7  1  0.500000  0.268227  0.758952  1
  Rb  Rb8  1  0.745082  0.000000  0.500000  1
  Rb  Rb9  1  0.754918  0.500000  0.000000  1
  Rb  Rb10  1  0.254918  0.000000  0.500000  1
  Rb  Rb11  1  0.245082  0.500000  0.000000  1
  Na  Na12  1  0.752642  0.481978  0.353481  1
  Na  Na13  1  0.752642  0.518023  0.646519  1
  Na  Na14  1  0.747358  0.981977  0.146519  1
  Na  Na15  1  0.747358  0.018023  0.853481  1
  Na  Na16  1  0.247358  0.518023  0.646519  1
  Na  Na17  1  0.247358  0.481978  0.353481  1
  Na  Na18  1  0.252642  0.018023  0.853481  1
  Na  Na19  1  0.252642  0.981977  0.146519  1
  Na  Na20  1  0.000000  0.234279  0.919005  1
  Na  Na21  1  0.000000  0.765721  0.080995  1
  Na  Na22  1  0.500000  0.734279  0.580995  1
  Na  Na23  1  0.500000  0.265721  0.419005  1
  O  O24  1  0.500000  0.582181  0.774478  1
  O  O25  1  0.500000  0.417819  0.225522  1
  O  O26  1  0.000000  0.082181  0.725522  1
  O  O27  1  0.000000  0.917819  0.274478  1
  O  O28  1  0.765718  0.306748  0.518303  1
  O  O29  1  0.765718  0.693252  0.481697  1
  O  O30  1  0.734282  0.806748  0.981697  1
  O  O31  1  0.734282  0.193252  0.018303  1
  O  O32  1  0.234282  0.693252  0.481697  1
  O  O33  1  0.234282  0.306748  0.518303  1
  O  O34  1  0.265718  0.193252  0.018303  1
  O  O35  1  0.265718  0.806748  0.981697  1
  O  O36  1  0.000000  0.435596  0.774756  1
  O  O37  1  0.000000  0.564404  0.225244  1
  O  O38  1  0.500000  0.935596  0.725244  1
  O  O39  1  0.500000  0.064404  0.274756  1
