# generated using pymatgen
data_K2Co(PO3)4
_symmetry_space_group_name_H-M   'P 1'
_cell_length_a   7.77449351
_cell_length_b   8.51109043
_cell_length_c   8.51109026
_cell_angle_alpha   97.04512487
_cell_angle_beta   98.42956998
_cell_angle_gamma   98.42957012
_symmetry_Int_Tables_number   1
_chemical_formula_structural   K2Co(PO3)4
_chemical_formula_sum   'K4 Co2 P8 O24'
_cell_volume   545.05978240
_cell_formula_units_Z   2
loop_
 _symmetry_equiv_pos_site_id
 _symmetry_equiv_pos_as_xyz
  1  'x, y, z'
loop_
 _atom_site_type_symbol
 _atom_site_label
 _atom_site_symmetry_multiplicity
 _atom_site_fract_x
 _atom_site_fract_y
 _atom_site_fract_z
 _atom_site_occupancy
  Co  Co0  1  0.250749  0.846215  0.153376  1
  Co  Co1  1  0.750749  0.153376  0.846215  1
  K  K2  1  0.920075  0.493102  0.241485  1
  K  K3  1  0.420075  0.241485  0.493102  1
  K  K4  1  0.084387  0.529679  0.797225  1
  K  K5  1  0.584387  0.797225  0.529679  1
  P  P6  1  0.165087  0.182348  0.029869  1
  P  P7  1  0.665087  0.029869  0.182348  1
  P  P8  1  0.425642  0.495429  0.171742  1
  P  P9  1  0.925642  0.171742  0.495429  1
  P  P10  1  0.580847  0.493145  0.867687  1
  P  P11  1  0.080847  0.867687  0.493145  1
  P  P12  1  0.820411  0.810613  0.964775  1
  P  P13  1  0.320411  0.964775  0.810613  1
  O  O14  1  0.521196  0.508911  0.339662  1
  O  O15  1  0.021196  0.339662  0.508911  1
  O  O16  1  0.293191  0.602679  0.129644  1
  O  O17  1  0.793191  0.129644  0.602679  1
  O  O18  1  0.333817  0.310422  0.120064  1
  O  O19  1  0.833817  0.120064  0.310422  1
  O  O20  1  0.578082  0.508030  0.059331  1
  O  O21  1  0.078082  0.059331  0.508030  1
  O  O22  1  0.715218  0.387703  0.832873  1
  O  O23  1  0.215218  0.832873  0.387703  1
  O  O24  1  0.402368  0.457646  0.767392  1
  O  O25  1  0.902368  0.767392  0.457646  1
  O  O26  1  0.667117  0.675722  0.853342  1
  O  O27  1  0.167117  0.853342  0.675722  1
  O  O28  1  0.972549  0.731341  0.027032  1
  O  O29  1  0.472549  0.027032  0.731341  1
  O  O30  1  0.845000  0.940310  0.861580  1
  O  O31  1  0.345000  0.861580  0.940310  1
  O  O32  1  0.728939  0.865739  0.116031  1
  O  O33  1  0.228939  0.116031  0.865739  1
  O  O34  1  0.013932  0.268607  0.982024  1
  O  O35  1  0.513932  0.982024  0.268607  1
  O  O36  1  0.146992  0.056207  0.138017  1
  O  O37  1  0.646992  0.138017  0.056207  1
