# generated using pymatgen
data_Na3In2Au
_symmetry_space_group_name_H-M   'P 1'
_cell_length_a   9.65744126
_cell_length_b   9.65744192
_cell_length_c   9.65744198
_cell_angle_alpha   59.99999980
_cell_angle_beta   59.99999754
_cell_angle_gamma   59.99999847
_symmetry_Int_Tables_number   1
_chemical_formula_structural   Na3In2Au
_chemical_formula_sum   'Na12 In8 Au4'
_cell_volume   636.90004054
_cell_formula_units_Z   4
loop_
 _symmetry_equiv_pos_site_id
 _symmetry_equiv_pos_as_xyz
  1  'x, y, z'
loop_
 _atom_site_type_symbol
 _atom_site_label
 _atom_site_symmetry_multiplicity
 _atom_site_fract_x
 _atom_site_fract_y
 _atom_site_fract_z
 _atom_site_occupancy
  Na  Na0  1  0.173027  0.173027  0.576973  1
  Na  Na1  1  0.826973  0.423027  0.826973  1
  Na  Na2  1  0.173027  0.576973  0.576973  1
  Na  Na3  1  0.826973  0.423027  0.423027  1
  Na  Na4  1  0.423027  0.423027  0.826973  1
  Na  Na5  1  0.576973  0.576973  0.173027  1
  Na  Na6  1  0.576973  0.173027  0.173027  1
  Na  Na7  1  0.423027  0.826973  0.826973  1
  Na  Na8  1  0.173027  0.576973  0.173027  1
  Na  Na9  1  0.826973  0.826973  0.423027  1
  Na  Na10  1  0.576973  0.173027  0.576973  1
  Na  Na11  1  0.423027  0.826973  0.423027  1
  In  In12  1  0.209388  0.871837  0.209388  1
  In  In13  1  0.871837  0.209388  0.209388  1
  In  In14  1  0.790612  0.128163  0.790612  1
  In  In15  1  0.209388  0.209388  0.871837  1
  In  In16  1  0.790612  0.790612  0.128163  1
  In  In17  1  0.209388  0.209388  0.209388  1
  In  In18  1  0.790612  0.790612  0.790612  1
  In  In19  1  0.128163  0.790612  0.790612  1
  Au  Au20  1  -0.000000  -0.000000  0.500000  1
  Au  Au21  1  -0.000000  -0.000000  0.000000  1
  Au  Au22  1  0.500000  -0.000000  0.000000  1
  Au  Au23  1  -0.000000  0.500000  0.000000  1
