# generated using pymatgen
data_Sm2(MnBi2)3
_symmetry_space_group_name_H-M   'P 1'
_cell_length_a   4.46192769
_cell_length_b   10.31655571
_cell_length_c   13.33044523
_cell_angle_alpha   106.53413024
_cell_angle_beta   90.00000000
_cell_angle_gamma   90.00000000
_symmetry_Int_Tables_number   1
_chemical_formula_structural   Sm2(MnBi2)3
_chemical_formula_sum   'Sm4 Mn6 Bi12'
_cell_volume   588.25030341
_cell_formula_units_Z   2
loop_
 _symmetry_equiv_pos_site_id
 _symmetry_equiv_pos_as_xyz
  1  'x, y, z'
loop_
 _atom_site_type_symbol
 _atom_site_label
 _atom_site_symmetry_multiplicity
 _atom_site_fract_x
 _atom_site_fract_y
 _atom_site_fract_z
 _atom_site_occupancy
  Sm  Sm0  1  0.250000  0.065515  0.320866  1
  Sm  Sm1  1  0.750000  0.252944  0.982413  1
  Sm  Sm2  1  0.750000  0.934485  0.679134  1
  Sm  Sm3  1  0.250000  0.747056  0.017587  1
  Mn  Mn4  1  0.250000  0.463952  0.762361  1
  Mn  Mn5  1  0.250000  0.701985  0.286305  1
  Mn  Mn6  1  0.250000  0.461427  0.339450  1
  Mn  Mn7  1  0.750000  0.298015  0.713695  1
  Mn  Mn8  1  0.750000  0.536048  0.237639  1
  Mn  Mn9  1  0.750000  0.538573  0.660550  1
  Bi  Bi10  1  0.250000  0.476127  0.107212  1
  Bi  Bi11  1  0.750000  0.917739  0.921282  1
  Bi  Bi12  1  0.750000  0.620967  0.462336  1
  Bi  Bi13  1  0.250000  0.379033  0.537664  1
  Bi  Bi14  1  0.250000  0.082261  0.078718  1
  Bi  Bi15  1  0.750000  0.271624  0.255381  1
  Bi  Bi16  1  0.250000  0.882256  0.488928  1
  Bi  Bi17  1  0.750000  0.825679  0.210531  1
  Bi  Bi18  1  0.250000  0.174321  0.789469  1
  Bi  Bi19  1  0.750000  0.117744  0.511072  1
  Bi  Bi20  1  0.750000  0.523873  0.892788  1
  Bi  Bi21  1  0.250000  0.728376  0.744619  1
