# generated using pymatgen
data_Nd(Mo4O7)2
_symmetry_space_group_name_H-M   'P 1'
_cell_length_a   8.26995259
_cell_length_b   8.26995259
_cell_length_c   9.44292841
_cell_angle_alpha   90.00000000
_cell_angle_beta   90.00000000
_cell_angle_gamma   99.80423693
_symmetry_Int_Tables_number   1
_chemical_formula_structural   Nd(Mo4O7)2
_chemical_formula_sum   'Nd2 Mo16 O28'
_cell_volume   636.38982556
_cell_formula_units_Z   2
loop_
 _symmetry_equiv_pos_site_id
 _symmetry_equiv_pos_as_xyz
  1  'x, y, z'
loop_
 _atom_site_type_symbol
 _atom_site_label
 _atom_site_symmetry_multiplicity
 _atom_site_fract_x
 _atom_site_fract_y
 _atom_site_fract_z
 _atom_site_occupancy
  O  O0  1  0.919304  0.260810  0.751799  1
  O  O1  1  0.689787  0.310213  0.500000  1
  O  O2  1  0.189787  0.810213  0.000000  1
  O  O3  1  0.228978  0.771022  0.500000  1
  O  O4  1  0.728978  0.271022  0.000000  1
  O  O5  1  0.827669  0.665947  0.506278  1
  O  O6  1  0.334053  0.172331  0.493722  1
  O  O7  1  0.327669  0.165947  0.993722  1
  O  O8  1  0.834053  0.672331  0.006278  1
  O  O9  1  0.662521  0.508200  0.749874  1
  O  O10  1  0.491800  0.337479  0.250126  1
  O  O11  1  0.162521  0.008200  0.750126  1
  O  O12  1  0.991800  0.837479  0.249874  1
  O  O13  1  0.818948  0.912982  0.716109  1
  O  O14  1  0.087018  0.181052  0.283891  1
  O  O15  1  0.318948  0.412982  0.783891  1
  O  O16  1  0.870498  0.459989  0.243374  1
  O  O17  1  0.540011  0.129502  0.756626  1
  O  O18  1  0.370498  0.959989  0.256626  1
  O  O19  1  0.040011  0.629502  0.743374  1
  O  O20  1  0.239190  0.580696  0.251799  1
  O  O21  1  0.419304  0.760810  0.748201  1
  O  O22  1  0.739190  0.080696  0.248201  1
  O  O23  1  0.106990  0.430182  0.531963  1
  O  O24  1  0.069818  0.393010  0.031963  1
  O  O25  1  0.606990  0.930182  0.968037  1
  O  O26  1  0.569818  0.893010  0.468037  1
  O  O27  1  0.587018  0.681052  0.216109  1
  Mo  Mo28  1  0.904871  0.244621  0.147588  1
  Mo  Mo29  1  0.877990  0.458840  0.631489  1
  Mo  Mo30  1  0.541160  0.122010  0.368511  1
  Mo  Mo31  1  0.377990  0.958840  0.868511  1
  Mo  Mo32  1  0.041160  0.622010  0.131489  1
  Mo  Mo33  1  0.487612  0.328243  0.642335  1
  Mo  Mo34  1  0.671757  0.512388  0.357665  1
  Mo  Mo35  1  0.987612  0.828243  0.857665  1
  Mo  Mo36  1  0.171757  0.012388  0.142335  1
  Mo  Mo37  1  0.633183  0.732742  0.630212  1
  Mo  Mo38  1  0.267258  0.366817  0.369788  1
  Mo  Mo39  1  0.133183  0.232742  0.869788  1
  Mo  Mo40  1  0.767258  0.866817  0.130212  1
  Mo  Mo41  1  0.255379  0.595129  0.647588  1
  Mo  Mo42  1  0.404871  0.744621  0.352412  1
  Mo  Mo43  1  0.755379  0.095129  0.852412  1
  Nd  Nd44  1  0.552828  0.447172  0.000000  1
  Nd  Nd45  1  0.052828  0.947172  0.500000  1
