# generated using pymatgen
data_K4U(PO5)2
_symmetry_space_group_name_H-M   'P 1'
_cell_length_a   6.95722429
_cell_length_b   6.95722429
_cell_length_c   12.08247108
_cell_angle_alpha   90.00000000
_cell_angle_beta   90.00000000
_cell_angle_gamma   90.00000000
_symmetry_Int_Tables_number   1
_chemical_formula_structural   K4U(PO5)2
_chemical_formula_sum   'K8 U2 P4 O20'
_cell_volume   584.82748305
_cell_formula_units_Z   2
loop_
 _symmetry_equiv_pos_site_id
 _symmetry_equiv_pos_as_xyz
  1  'x, y, z'
loop_
 _atom_site_type_symbol
 _atom_site_label
 _atom_site_symmetry_multiplicity
 _atom_site_fract_x
 _atom_site_fract_y
 _atom_site_fract_z
 _atom_site_occupancy
  K  K0  1  0.750000  0.501201  0.921093  1
  K  K1  1  0.250000  0.498799  0.078907  1
  K  K2  1  0.750000  0.998799  0.921093  1
  K  K3  1  0.001201  0.250000  0.578907  1
  K  K4  1  0.250000  0.001201  0.078907  1
  K  K5  1  0.498799  0.250000  0.578907  1
  K  K6  1  0.998799  0.750000  0.421093  1
  K  K7  1  0.501201  0.750000  0.421093  1
  U  U8  1  0.750000  0.250000  0.250000  1
  U  U9  1  0.250000  0.750000  0.750000  1
  P  P10  1  0.750000  0.750000  0.667072  1
  P  P11  1  0.250000  0.250000  0.832928  1
  P  P12  1  0.250000  0.250000  0.332928  1
  P  P13  1  0.750000  0.750000  0.167072  1
  O  O14  1  0.566450  0.750000  0.096856  1
  O  O15  1  0.750000  0.574382  0.251426  1
  O  O16  1  0.925618  0.750000  0.751426  1
  O  O17  1  0.750000  0.925618  0.251426  1
  O  O18  1  0.433550  0.250000  0.903144  1
  O  O19  1  0.750000  0.250000  0.403231  1
  O  O20  1  0.250000  0.074382  0.748574  1
  O  O21  1  0.250000  0.750000  0.596769  1
  O  O22  1  0.574382  0.750000  0.751426  1
  O  O23  1  0.250000  0.433550  0.403144  1
  O  O24  1  0.933550  0.750000  0.096856  1
  O  O25  1  0.425618  0.250000  0.248574  1
  O  O26  1  0.250000  0.425618  0.748574  1
  O  O27  1  0.074382  0.250000  0.248574  1
  O  O28  1  0.250000  0.066450  0.403144  1
  O  O29  1  0.066450  0.250000  0.903144  1
  O  O30  1  0.250000  0.750000  0.903231  1
  O  O31  1  0.750000  0.250000  0.096769  1
  O  O32  1  0.750000  0.566450  0.596856  1
  O  O33  1  0.750000  0.933550  0.596856  1
