# generated using pymatgen
data_Mo(PO3)3
_symmetry_space_group_name_H-M   'P 1'
_cell_length_a   9.85157375
_cell_length_b   11.11087570
_cell_length_c   12.12720182
_cell_angle_alpha   113.71539995
_cell_angle_beta   110.06756231
_cell_angle_gamma   97.91164280
_symmetry_Int_Tables_number   1
_chemical_formula_structural   Mo(PO3)3
_chemical_formula_sum   'Mo6 P18 O54'
_cell_volume   1081.32545980
_cell_formula_units_Z   6
loop_
 _symmetry_equiv_pos_site_id
 _symmetry_equiv_pos_as_xyz
  1  'x, y, z'
loop_
 _atom_site_type_symbol
 _atom_site_label
 _atom_site_symmetry_multiplicity
 _atom_site_fract_x
 _atom_site_fract_y
 _atom_site_fract_z
 _atom_site_occupancy
  O  O0  1  0.965397  0.453183  0.458005  1
  O  O1  1  0.507352  0.495155  0.541974  1
  O  O2  1  0.895419  0.195048  0.035878  1
  O  O3  1  0.859519  0.659190  0.964118  1
  O  O4  1  0.193820  0.584700  0.679935  1
  O  O5  1  0.513896  0.404760  0.320064  1
  O  O6  1  0.453298  0.686208  0.694952  1
  O  O7  1  0.758384  0.491284  0.305012  1
  O  O8  1  0.135195  0.285078  0.016115  1
  O  O9  1  0.119056  0.768956  0.983887  1
  O  O10  1  0.141875  0.180409  0.793379  1
  O  O11  1  0.348561  0.887065  0.206592  1
  O  O12  1  0.185401  0.995548  0.628812  1
  O  O13  1  0.556584  0.866770  0.371229  1
  O  O14  1  0.453215  0.097479  0.658769  1
  O  O15  1  0.794420  0.938695  0.341227  1
  O  O16  1  0.686265  0.221754  0.875370  1
  O  O17  1  0.810832  0.846375  0.124616  1
  O  O18  1  0.598709  0.240784  0.157202  1
  O  O19  1  0.306862  0.008037  0.068857  1
  O  O20  1  0.353258  0.085138  0.874755  1
  O  O21  1  0.478510  0.710365  0.125276  1
  O  O22  1  0.636136  0.987658  0.160954  1
  O  O23  1  0.475231  0.326709  0.839068  1
  O  O24  1  0.192522  0.365346  0.502874  1
  O  O25  1  0.689663  0.362525  0.497150  1
  O  O26  1  0.404355  0.236823  0.388836  1
  O  O27  1  0.015488  0.347997  0.611150  1
  O  O28  1  0.150986  0.274351  0.220935  1
  O  O29  1  0.930060  0.553441  0.779072  1
  O  O30  1  0.128859  0.982318  0.174407  1
  O  O31  1  0.954436  0.307905  0.825577  1
  O  O32  1  0.213784  0.093219  0.481284  1
  O  O33  1  0.732526  0.111966  0.518721  1
  O  O34  1  0.926181  0.104553  0.285459  1
  O  O35  1  0.640711  0.319110  0.714531  1
  O  O36  1  0.018623  0.663796  0.425736  1
  O  O37  1  0.592851  0.738058  0.574269  1
  O  O38  1  0.285220  0.873527  0.466424  1
  O  O39  1  0.818825  0.907161  0.533638  1
  O  O40  1  0.309644  0.594653  0.443924  1
  O  O41  1  0.865707  0.650730  0.556040  1
  O  O42  1  0.037556  0.450457  0.165643  1
  O  O43  1  0.871872  0.784802  0.834326  1
  O  O44  1  0.004428  0.737206  0.211498  1
  O  O45  1  0.792938  0.025695  0.788493  1
  O  O46  1  0.306864  0.670540  0.231981  1
  O  O47  1  0.074902  0.938531  0.768047  1
  O  O48  1  0.501532  0.434850  0.126797  1
  O  O49  1  0.374752  0.808053  0.873217  1
  O  O50  1  0.720029  0.597173  0.078633  1
  O  O51  1  0.641395  0.018538  0.921359  1
  O  O52  1  0.237997  0.439128  0.931070  1
  O  O53  1  0.441494  0.583580  0.842819  1
  P  P54  1  0.940059  0.691050  0.880760  1
  P  P55  1  0.059314  0.310294  0.119236  1
  P  P56  1  0.279234  0.013749  0.548388  1
  P  P57  1  0.730856  0.965406  0.451637  1
  P  P58  1  0.093074  0.428079  0.563159  1
  P  P59  1  0.529922  0.364923  0.436842  1
  P  P60  1  0.462593  0.632332  0.555073  1
  P  P61  1  0.907558  0.577268  0.444899  1
  P  P62  1  0.747877  0.102712  0.896260  1
  P  P63  1  0.851613  0.706470  0.103746  1
  P  P64  1  0.371558  0.667230  0.782755  1
  P  P65  1  0.588832  0.384495  0.217257  1
  P  P66  1  0.791225  0.980052  0.228106  1
  P  P67  1  0.224576  0.920981  0.108205  1
  P  P68  1  0.191962  0.045397  0.774155  1
  P  P69  1  0.417815  0.771275  0.225878  1
  P  P70  1  0.563155  0.251944  0.771899  1
  P  P71  1  0.116348  0.312753  0.891773  1
  Mo  Mo72  1  0.487309  0.024860  0.010482  1
  Mo  Mo73  1  0.476837  0.514376  0.989523  1
  Mo  Mo74  1  0.834380  0.839093  0.676644  1
  Mo  Mo75  1  0.157757  0.662458  0.323341  1
  Mo  Mo76  1  0.825513  0.332374  0.658298  1
  Mo  Mo77  1  0.167232  0.174048  0.341728  1
