# generated using pymatgen
data_Cs2CoSiO4
_symmetry_space_group_name_H-M   'P 1'
_cell_length_a   5.88519419
_cell_length_b   7.06166549
_cell_length_c   8.22533923
_cell_angle_alpha   90.00000000
_cell_angle_beta   90.00000000
_cell_angle_gamma   114.62642900
_symmetry_Int_Tables_number   1
_chemical_formula_structural   Cs2CoSiO4
_chemical_formula_sum   'Cs4 Co2 Si2 O8'
_cell_volume   310.74679545
_cell_formula_units_Z   2
loop_
 _symmetry_equiv_pos_site_id
 _symmetry_equiv_pos_as_xyz
  1  'x, y, z'
loop_
 _atom_site_type_symbol
 _atom_site_label
 _atom_site_symmetry_multiplicity
 _atom_site_fract_x
 _atom_site_fract_y
 _atom_site_fract_z
 _atom_site_occupancy
  O  O0  1  0.353586  0.707172  0.293000  1
  O  O1  1  0.646414  0.292828  0.793000  1
  O  O2  1  0.173986  0.347972  0.437467  1
  O  O3  1  0.826014  0.652028  0.937467  1
  O  O4  1  0.889156  0.322104  0.080214  1
  O  O5  1  0.432948  0.322104  0.080214  1
  O  O6  1  0.110844  0.677896  0.580214  1
  O  O7  1  0.567052  0.677896  0.580214  1
  Si  Si8  1  0.698681  0.397363  0.979022  1
  Si  Si9  1  0.301319  0.602637  0.479022  1
  Co  Co10  1  0.207100  0.414199  0.193597  1
  Co  Co11  1  0.792900  0.585801  0.693597  1
  Cs  Cs12  1  0.077425  0.154850  0.773749  1
  Cs  Cs13  1  0.922575  0.845150  0.273749  1
  Cs  Cs14  1  0.406458  0.812916  0.916237  1
  Cs  Cs15  1  0.593542  0.187084  0.416237  1
