# generated using pymatgen
data_Sb24(Cl7F17)5
_symmetry_space_group_name_H-M   'P 1'
_cell_length_a   11.07704651
_cell_length_b   11.80250892
_cell_length_c   24.90453884
_cell_angle_alpha   96.24879511
_cell_angle_beta   89.89707638
_cell_angle_gamma   89.90122313
_symmetry_Int_Tables_number   1
_chemical_formula_structural   Sb24(Cl7F17)5
_chemical_formula_sum   'Sb24 Cl35 F85'
_cell_volume   3236.58717824
_cell_formula_units_Z   1
loop_
 _symmetry_equiv_pos_site_id
 _symmetry_equiv_pos_as_xyz
  1  'x, y, z'
loop_
 _atom_site_type_symbol
 _atom_site_label
 _atom_site_symmetry_multiplicity
 _atom_site_fract_x
 _atom_site_fract_y
 _atom_site_fract_z
 _atom_site_occupancy
  Cl  Cl0  1  0.047765  0.952069  0.362548  1
  Cl  Cl1  1  0.047639  0.951723  0.862633  1
  Cl  Cl2  1  0.068011  0.864792  0.031407  1
  Cl  Cl3  1  0.066932  0.865783  0.532509  1
  Cl  Cl4  1  0.157024  0.307874  0.170000  1
  Cl  Cl5  1  0.156154  0.308770  0.670817  1
  Cl  Cl6  1  0.173658  0.071792  0.247788  1
  Cl  Cl7  1  0.174391  0.071847  0.750210  1
  Cl  Cl8  1  0.219530  0.517652  0.359853  1
  Cl  Cl9  1  0.221848  0.512365  0.856659  1
  Cl  Cl10  1  0.281253  0.017205  0.109350  1
  Cl  Cl11  1  0.282921  0.020051  0.611039  1
  Cl  Cl12  1  0.325618  0.571709  0.498586  1
  Cl  Cl13  1  0.326986  0.567795  -0.004010  1
  Cl  Cl14  1  0.342592  0.807783  0.420275  1
  Cl  Cl15  1  0.344131  0.801833  0.918439  1
  Cl  Cl16  1  0.432272  0.365412  0.282129  1
  Cl  Cl17  1  0.450424  0.453564  0.612952  1
  Cl  Cl18  1  0.452480  0.452335  0.112126  1
  Cl  Cl19  1  0.550756  0.546266  0.887595  1
  Cl  Cl20  1  0.549633  0.552788  0.390859  1
  Cl  Cl21  1  0.656042  0.195973  0.079448  1
  Cl  Cl22  1  0.654848  0.196765  0.581438  1
  Cl  Cl23  1  0.671925  0.432103  1.002227  1
  Cl  Cl24  1  0.671077  0.431272  0.503935  1
  Cl  Cl25  1  0.719199  0.985597  0.391866  1
  Cl  Cl26  1  0.718439  0.985498  0.891801  1
  Cl  Cl27  1  0.780101  0.486129  0.642614  1
  Cl  Cl28  1  0.780240  0.485297  0.141623  1
  Cl  Cl29  1  0.829088  0.932001  0.252771  1
  Cl  Cl30  1  0.828333  0.932301  0.753026  1
  Cl  Cl31  1  0.844233  0.696035  0.329784  1
  Cl  Cl32  1  0.844061  0.695859  0.829429  1
  Cl  Cl33  1  0.953650  0.052716  0.641358  1
  Cl  Cl34  1  0.950498  0.052338  0.140386  1
  F  F35  1  0.016526  0.374362  0.457072  1
  F  F36  1  0.015855  0.374248  0.957504  1
  F  F37  1  0.040276  0.344004  0.324132  1
  F  F38  1  0.040421  0.342384  0.823809  1
  F  F39  1  0.091475  0.761128  0.264072  1
  F  F40  1  0.091310  0.761449  0.763798  1
  F  F41  1  0.076998  0.671076  0.440592  1
  F  F42  1  0.075560  0.669109  0.939658  1
  F  F43  1  0.102763  0.167093  0.058933  1
  F  F44  1  0.102624  0.167067  0.558034  1
  F  F45  1  0.128896  0.828611  0.166139  1
  F  F46  1  0.128933  0.828879  0.665894  1
  F  F47  1  0.145073  0.545940  0.226056  1
  F  F48  1  0.144438  0.545912  0.725581  1
  F  F49  1  0.156954  0.381865  0.046255  1
  F  F50  1  0.157024  0.382135  0.545654  1
  F  F51  1  0.188516  0.612179  0.128427  1
  F  F52  1  0.188163  0.612402  0.627998  1
  F  F53  1  0.193546  0.215007  0.462316  1
  F  F54  1  0.193374  0.214961  0.962851  1
  F  F55  1  0.306512  0.714947  0.712083  1
  F  F56  1  0.306611  0.714847  0.212752  1
  F  F57  1  0.312511  0.112294  0.378252  1
  F  F58  1  0.311390  0.110226  0.878597  1
  F  F59  1  0.342164  0.882020  0.295965  1
  F  F60  1  0.342466  0.881351  0.795549  1
  F  F61  1  0.355339  0.045800  0.475850  1
  F  F62  1  0.355420  0.045973  0.976343  1
  F  F63  1  0.371285  0.328726  0.416068  1
  F  F64  1  0.371269  0.326904  0.915335  1
  F  F65  1  0.397201  0.667173  0.308652  1
  F  F66  1  0.398261  0.665707  0.807194  1
  F  F67  1  0.424198  0.170027  0.190353  1
  F  F68  1  0.415557  0.181633  0.695304  1
  F  F69  1  0.408755  0.261141  0.013564  1
  F  F70  1  0.408226  0.260967  0.513963  1
  F  F71  1  0.462308  0.345298  0.780535  1
  F  F72  1  0.458871  0.843913  0.574143  1
  F  F73  1  0.459547  0.843716  0.074083  1
  F  F74  1  0.483349  0.874051  0.207201  1
  F  F75  1  0.482949  0.874748  0.706856  1
  F  F76  1  0.519179  0.122349  0.291567  1
  F  F77  1  0.516416  0.125432  0.793119  1
  F  F78  1  0.540417  0.157513  0.926606  1
  F  F79  1  0.539866  0.158972  0.426592  1
  F  F80  1  0.537619  0.654210  0.220929  1
  F  F81  1  0.538655  0.655511  0.719524  1
  F  F82  1  0.589724  0.738502  0.986769  1
  F  F83  1  0.587985  0.739595  0.487016  1
  F  F84  1  0.583233  0.820084  0.305881  1
  F  F85  1  0.583957  0.820010  0.805247  1
  F  F86  1  0.607684  0.329828  0.190699  1
  F  F87  1  0.602874  0.334000  0.692835  1
  F  F88  1  0.627985  0.673336  0.085007  1
  F  F89  1  0.627520  0.673404  0.584836  1
  F  F90  1  0.644214  0.953750  0.023723  1
  F  F91  1  0.643881  0.954083  0.523962  1
  F  F92  1  0.663887  0.114593  0.203637  1
  F  F93  1  0.656796  0.118203  0.704235  1
  F  F94  1  0.689786  0.889573  0.121215  1
  F  F95  1  0.689513  0.889761  0.621573  1
  F  F96  1  0.694162  0.283632  0.286870  1
  F  F97  1  0.694378  0.284226  0.787899  1
  F  F98  1  0.805823  0.783798  0.536988  1
  F  F99  1  0.806794  0.783745  0.036920  1
  F  F100  1  0.809316  0.389888  0.371455  1
  F  F101  1  0.811183  0.389803  0.872083  1
  F  F102  1  0.836081  0.614064  0.953637  1
  F  F103  1  0.837292  0.614722  0.453658  1
  F  F104  1  0.855504  0.453934  0.273822  1
  F  F105  1  0.855562  0.453907  0.774149  1
  F  F106  1  0.872543  0.173465  0.334964  1
  F  F107  1  0.872333  0.172947  0.835000  1
  F  F108  1  0.892353  0.829932  0.440826  1
  F  F109  1  0.891875  0.829482  0.940564  1
  F  F110  1  0.915823  0.320483  0.555746  1
  F  F111  1  0.916331  0.319820  0.056101  1
  F  F112  1  0.912443  0.239278  0.236949  1
  F  F113  1  0.911288  0.239068  0.737008  1
  F  F114  1  0.962321  0.154953  0.470470  1
  F  F115  1  0.962809  0.154077  0.971295  1
  F  F116  1  0.960542  0.659617  0.676464  1
  F  F117  1  0.960348  0.659066  0.176857  1
  F  F118  1  0.981232  0.622208  0.541514  1
  F  F119  1  0.981385  0.622225  0.041437  1
  Sb  Sb120  1  0.049414  0.274665  0.010119  1
  Sb  Sb121  1  0.048832  0.274826  0.509947  1
  Sb  Sb122  1  0.125225  0.684542  0.194248  1
  Sb  Sb123  1  0.125499  0.684767  0.694057  1
  Sb  Sb124  1  0.140532  0.114930  0.162095  1
  Sb  Sb125  1  0.142764  0.116000  0.664874  1
  Sb  Sb126  1  0.359327  0.614821  0.412986  1
  Sb  Sb127  1  0.360904  0.608396  0.909966  1
  Sb  Sb128  1  0.374837  0.184584  0.444195  1
  Sb  Sb129  1  0.375361  0.183715  0.943905  1
  Sb  Sb130  1  0.450696  0.774669  0.260045  1
  Sb  Sb131  1  0.451276  0.774506  0.759499  1
  Sb  Sb132  1  0.552818  0.220539  0.237994  1
  Sb  Sb133  1  0.549578  0.225904  0.740807  1
  Sb  Sb134  1  0.624315  0.816210  0.056164  1
  Sb  Sb135  1  0.623833  0.816808  0.556573  1
  Sb  Sb136  1  0.641530  0.389503  0.087796  1
  Sb  Sb137  1  0.639668  0.390153  0.590049  1
  Sb  Sb138  1  0.858942  0.889515  0.338424  1
  Sb  Sb139  1  0.858805  0.889292  0.838827  1
  Sb  Sb140  1  0.875603  0.316626  0.306445  1
  Sb  Sb141  1  0.875352  0.316397  0.806662  1
  Sb  Sb142  1  0.947338  0.720796  0.488194  1
  Sb  Sb143  1  0.947271  0.719621  0.987595  1
