# generated using pymatgen
data_Er(Ni2As)2
_symmetry_space_group_name_H-M   'P 1'
_cell_length_a   3.77493592
_cell_length_b   7.20882203
_cell_length_c   7.20882203
_cell_angle_alpha   90.00000000
_cell_angle_beta   90.00000000
_cell_angle_gamma   90.00000000
_symmetry_Int_Tables_number   1
_chemical_formula_structural   Er(Ni2As)2
_chemical_formula_sum   'Er2 Ni8 As4'
_cell_volume   196.17252930
_cell_formula_units_Z   2
loop_
 _symmetry_equiv_pos_site_id
 _symmetry_equiv_pos_as_xyz
  1  'x, y, z'
loop_
 _atom_site_type_symbol
 _atom_site_label
 _atom_site_symmetry_multiplicity
 _atom_site_fract_x
 _atom_site_fract_y
 _atom_site_fract_z
 _atom_site_occupancy
  Er  Er0  1  0.500000  0.000000  0.000000  1
  Er  Er1  1  0.000000  0.500000  0.500000  1
  Ni  Ni2  1  0.000000  0.346983  0.090382  1
  Ni  Ni3  1  0.500000  0.409618  0.846983  1
  Ni  Ni4  1  0.500000  0.590382  0.153017  1
  Ni  Ni5  1  0.000000  0.653017  0.909618  1
  Ni  Ni6  1  0.500000  0.846983  0.409618  1
  Ni  Ni7  1  0.500000  0.153017  0.590382  1
  Ni  Ni8  1  0.000000  0.090382  0.346983  1
  Ni  Ni9  1  0.000000  0.909618  0.653017  1
  As  As10  1  0.000000  0.216869  0.783131  1
  As  As11  1  0.500000  0.716869  0.716869  1
  As  As12  1  0.500000  0.283131  0.283131  1
  As  As13  1  0.000000  0.783131  0.216869  1
