# generated using pymatgen
data_MgCl2
_symmetry_space_group_name_H-M   'P 1'
_cell_length_a   4.45274998
_cell_length_b   4.45275006
_cell_length_c   9.55530770
_cell_angle_alpha   90.00000000
_cell_angle_beta   90.00000000
_cell_angle_gamma   56.95093646
_symmetry_Int_Tables_number   1
_chemical_formula_structural   MgCl2
_chemical_formula_sum   'Mg2 Cl4'
_cell_volume   158.80017217
_cell_formula_units_Z   2
loop_
 _symmetry_equiv_pos_site_id
 _symmetry_equiv_pos_as_xyz
  1  'x, y, z'
loop_
 _atom_site_type_symbol
 _atom_site_label
 _atom_site_symmetry_multiplicity
 _atom_site_fract_x
 _atom_site_fract_y
 _atom_site_fract_z
 _atom_site_occupancy
  Mg  Mg0  1  0.017631  0.946352  0.250000  1
  Mg  Mg1  1  0.053648  0.982369  0.750000  1
  Cl  Cl2  1  0.354921  0.270540  0.250000  1
  Cl  Cl3  1  0.074170  0.925830  0.500000  1
  Cl  Cl4  1  0.074170  0.925830  0.000000  1
  Cl  Cl5  1  0.729460  0.645079  0.750000  1
