# generated using pymatgen
data_CaV2CuO7
_symmetry_space_group_name_H-M   'P 1'
_cell_length_a   8.92808256
_cell_length_b   10.32765005
_cell_length_c   10.35262068
_cell_angle_alpha   91.94212054
_cell_angle_beta   90.00000000
_cell_angle_gamma   90.00000000
_symmetry_Int_Tables_number   1
_chemical_formula_structural   CaV2CuO7
_chemical_formula_sum   'Ca6 V12 Cu6 O42'
_cell_volume   954.02657028
_cell_formula_units_Z   6
loop_
 _symmetry_equiv_pos_site_id
 _symmetry_equiv_pos_as_xyz
  1  'x, y, z'
loop_
 _atom_site_type_symbol
 _atom_site_label
 _atom_site_symmetry_multiplicity
 _atom_site_fract_x
 _atom_site_fract_y
 _atom_site_fract_z
 _atom_site_occupancy
  Ca  Ca0  1  0.444717  0.176615  0.568727  1
  Ca  Ca1  1  0.936418  0.500000  0.750000  1
  Ca  Ca2  1  0.444717  0.823385  0.931273  1
  Ca  Ca3  1  0.063582  0.500000  0.250000  1
  Ca  Ca4  1  0.555283  0.823385  0.431273  1
  Ca  Ca5  1  0.555283  0.176615  0.068727  1
  V  V6  1  0.202742  0.164888  0.288326  1
  V  V7  1  0.747181  0.162684  0.382300  1
  V  V8  1  0.252819  0.162684  0.882300  1
  V  V9  1  0.797258  0.164888  0.788326  1
  V  V10  1  0.296508  0.474694  0.959301  1
  V  V11  1  0.747181  0.837316  0.117700  1
  V  V12  1  0.703492  0.474694  0.459301  1
  V  V13  1  0.252819  0.837316  0.617700  1
  V  V14  1  0.296508  0.525306  0.540699  1
  V  V15  1  0.703492  0.525306  0.040699  1
  V  V16  1  0.797258  0.835112  0.711674  1
  V  V17  1  0.202742  0.835112  0.211674  1
  Cu  Cu18  1  0.934824  0.806276  0.409948  1
  Cu  Cu19  1  0.065176  0.193724  0.590052  1
  Cu  Cu20  1  0.442155  0.500000  0.250000  1
  Cu  Cu21  1  0.934824  0.193724  0.090052  1
  Cu  Cu22  1  0.557845  0.500000  0.750000  1
  Cu  Cu23  1  0.065176  0.806276  0.909948  1
  O  O24  1  0.782865  0.193557  0.956201  1
  O  O25  1  0.772939  0.828514  0.285520  1
  O  O26  1  0.852715  0.000000  0.750000  1
  O  O27  1  0.876487  0.509546  0.099465  1
  O  O28  1  0.380646  0.951776  0.576055  1
  O  O29  1  0.927267  0.268698  0.717179  1
  O  O30  1  0.356391  0.306438  0.939881  1
  O  O31  1  0.123513  0.509546  0.599465  1
  O  O32  1  0.715548  0.485955  0.875322  1
  O  O33  1  0.380646  0.048224  0.923945  1
  O  O34  1  0.715548  0.514045  0.624678  1
  O  O35  1  0.421364  0.574769  0.877935  1
  O  O36  1  0.910591  0.850115  0.033388  1
  O  O37  1  0.072733  0.268698  0.217179  1
  O  O38  1  0.643609  0.693562  0.060119  1
  O  O39  1  0.356391  0.693562  0.560119  1
  O  O40  1  0.927267  0.731302  0.782821  1
  O  O41  1  0.619354  0.048224  0.423945  1
  O  O42  1  0.217135  0.193557  0.456201  1
  O  O43  1  0.578636  0.425231  0.122065  1
  O  O44  1  0.375265  0.809420  0.270161  1
  O  O45  1  0.284452  0.514045  0.124678  1
  O  O46  1  0.089409  0.850115  0.533388  1
  O  O47  1  0.284452  0.485955  0.375322  1
  O  O48  1  0.876487  0.490454  0.400535  1
  O  O49  1  0.578636  0.574769  0.377935  1
  O  O50  1  0.123513  0.490454  0.900535  1
  O  O51  1  0.624735  0.809420  0.770161  1
  O  O52  1  0.624735  0.190580  0.729839  1
  O  O53  1  0.089409  0.149885  0.966612  1
  O  O54  1  0.072733  0.731302  0.282821  1
  O  O55  1  0.782865  0.806443  0.543799  1
  O  O56  1  0.147285  0.000000  0.250000  1
  O  O57  1  0.227061  0.828514  0.785520  1
  O  O58  1  0.619354  0.951776  0.076055  1
  O  O59  1  0.910591  0.149885  0.466612  1
  O  O60  1  0.217135  0.806443  0.043799  1
  O  O61  1  0.772939  0.171486  0.214480  1
  O  O62  1  0.421364  0.425231  0.622065  1
  O  O63  1  0.643609  0.306438  0.439881  1
  O  O64  1  0.227061  0.171486  0.714480  1
  O  O65  1  0.375265  0.190580  0.229839  1
