# generated using pymatgen
data_K2Sm2As2Se9
_symmetry_space_group_name_H-M   'P 1'
_cell_length_a   8.54222327
_cell_length_b   17.65439901
_cell_length_c   22.94636556
_cell_angle_alpha   90.00000000
_cell_angle_beta   90.00000000
_cell_angle_gamma   90.00000000
_symmetry_Int_Tables_number   1
_chemical_formula_structural   K2Sm2As2Se9
_chemical_formula_sum   'K16 Sm16 As16 Se72'
_cell_volume   3460.49132208
_cell_formula_units_Z   8
loop_
 _symmetry_equiv_pos_site_id
 _symmetry_equiv_pos_as_xyz
  1  'x, y, z'
loop_
 _atom_site_type_symbol
 _atom_site_label
 _atom_site_symmetry_multiplicity
 _atom_site_fract_x
 _atom_site_fract_y
 _atom_site_fract_z
 _atom_site_occupancy
  K  K0  1  0.500000  0.500000  0.500000  1
  K  K1  1  0.500675  0.909064  0.775491  1
  K  K2  1  0.499325  0.590936  0.275491  1
  K  K3  1  0.000675  0.590936  0.275491  1
  K  K4  1  0.500000  0.000000  0.500000  1
  K  K5  1  0.000675  0.090936  0.224509  1
  K  K6  1  0.000000  0.500000  0.500000  1
  K  K7  1  0.000000  0.000000  0.000000  1
  K  K8  1  0.500000  0.000000  0.000000  1
  K  K9  1  0.000000  0.500000  0.000000  1
  K  K10  1  0.500000  0.500000  0.000000  1
  K  K11  1  0.499325  0.090936  0.224509  1
  K  K12  1  0.999325  0.409064  0.724509  1
  K  K13  1  0.500675  0.409064  0.724509  1
  K  K14  1  0.000000  0.000000  0.500000  1
  K  K15  1  0.999325  0.909064  0.775491  1
  Sm  Sm16  1  0.499060  0.747724  0.931758  1
  Sm  Sm17  1  0.497117  0.327529  0.325102  1
  Sm  Sm18  1  0.500940  0.252276  0.068242  1
  Sm  Sm19  1  0.999060  0.752276  0.431758  1
  Sm  Sm20  1  0.502883  0.672471  0.674898  1
  Sm  Sm21  1  0.999060  0.252276  0.068242  1
  Sm  Sm22  1  0.997117  0.672471  0.674898  1
  Sm  Sm23  1  0.000940  0.747724  0.931758  1
  Sm  Sm24  1  0.002883  0.327529  0.325102  1
  Sm  Sm25  1  0.497117  0.827529  0.174898  1
  Sm  Sm26  1  0.500940  0.752276  0.431758  1
  Sm  Sm27  1  0.002883  0.827529  0.174898  1
  Sm  Sm28  1  0.000940  0.247724  0.568242  1
  Sm  Sm29  1  0.997117  0.172471  0.825102  1
  Sm  Sm30  1  0.499060  0.247724  0.568242  1
  Sm  Sm31  1  0.502883  0.172471  0.825102  1
  As  As32  1  0.750000  0.107277  0.666967  1
  As  As33  1  0.750000  0.432678  0.153308  1
  As  As34  1  0.750000  0.932678  0.346692  1
  As  As35  1  0.250000  0.659972  0.098246  1
  As  As36  1  0.250000  0.392723  0.166967  1
  As  As37  1  0.250000  0.067322  0.653308  1
  As  As38  1  0.250000  0.567322  0.846692  1
  As  As39  1  0.250000  0.868999  0.615813  1
  As  As40  1  0.250000  0.159972  0.401754  1
  As  As41  1  0.750000  0.840028  0.598246  1
  As  As42  1  0.750000  0.131001  0.384187  1
  As  As43  1  0.750000  0.607277  0.833033  1
  As  As44  1  0.250000  0.368999  0.884187  1
  As  As45  1  0.750000  0.340028  0.901754  1
  As  As46  1  0.750000  0.631001  0.115813  1
  As  As47  1  0.250000  0.892723  0.333033  1
  Se  Se48  1  0.250000  0.855414  0.968010  1
  Se  Se49  1  0.250000  0.443641  0.292293  1
  Se  Se50  1  0.020164  0.816991  0.310422  1
  Se  Se51  1  0.750000  0.411349  0.393008  1
  Se  Se52  1  0.956706  0.531836  0.140108  1
  Se  Se53  1  0.750000  0.432144  0.287850  1
  Se  Se54  1  0.750000  0.846850  0.983702  1
  Se  Se55  1  0.750000  0.628872  0.939941  1
  Se  Se56  1  0.750000  0.790841  0.698044  1
  Se  Se57  1  0.750000  0.210505  0.296069  1
  Se  Se58  1  0.250000  0.127171  0.555495  1
  Se  Se59  1  0.484391  0.728724  0.065781  1
  Se  Se60  1  0.543294  0.031836  0.359892  1
  Se  Se61  1  0.984391  0.271276  0.934219  1
  Se  Se62  1  0.250000  0.905880  0.105825  1
  Se  Se63  1  0.250000  0.153150  0.016298  1
  Se  Se64  1  0.956706  0.031836  0.359892  1
  Se  Se65  1  0.250000  0.588651  0.606992  1
  Se  Se66  1  0.250000  0.829025  0.864990  1
  Se  Se67  1  0.250000  0.209159  0.301956  1
  Se  Se68  1  0.456706  0.968164  0.640108  1
  Se  Se69  1  0.250000  0.405880  0.394175  1
  Se  Se70  1  0.020164  0.316991  0.189578  1
  Se  Se71  1  0.750000  0.290841  0.801956  1
  Se  Se72  1  0.250000  0.943641  0.207707  1
  Se  Se73  1  0.750000  0.128872  0.560059  1
  Se  Se74  1  0.750000  0.644586  0.468010  1
  Se  Se75  1  0.250000  0.158312  0.121296  1
  Se  Se76  1  0.750000  0.872829  0.444505  1
  Se  Se77  1  0.750000  0.932144  0.212150  1
  Se  Se78  1  0.250000  0.355414  0.531990  1
  Se  Se79  1  0.984391  0.771276  0.565781  1
  Se  Se80  1  0.750000  0.710505  0.203931  1
  Se  Se81  1  0.250000  0.067857  0.787850  1
  Se  Se82  1  0.250000  0.658312  0.378704  1
  Se  Se83  1  0.250000  0.289495  0.796069  1
  Se  Se84  1  0.515609  0.271276  0.934219  1
  Se  Se85  1  0.750000  0.094120  0.894175  1
  Se  Se86  1  0.520164  0.183009  0.689578  1
  Se  Se87  1  0.250000  0.709159  0.198044  1
  Se  Se88  1  0.250000  0.871128  0.439941  1
  Se  Se89  1  0.479836  0.816991  0.310422  1
  Se  Se90  1  0.750000  0.556359  0.707707  1
  Se  Se91  1  0.250000  0.789495  0.703931  1
  Se  Se92  1  0.750000  0.594120  0.605825  1
  Se  Se93  1  0.250000  0.653150  0.483702  1
  Se  Se94  1  0.250000  0.567856  0.712150  1
  Se  Se95  1  0.456706  0.468164  0.859892  1
  Se  Se96  1  0.750000  0.144586  0.031990  1
  Se  Se97  1  0.515609  0.771276  0.565781  1
  Se  Se98  1  0.520164  0.683009  0.810422  1
  Se  Se99  1  0.250000  0.627171  0.944505  1
  Se  Se100  1  0.750000  0.346850  0.516298  1
  Se  Se101  1  0.750000  0.170975  0.135010  1
  Se  Se102  1  0.250000  0.329025  0.635010  1
  Se  Se103  1  0.479836  0.316991  0.189578  1
  Se  Se104  1  0.015609  0.728724  0.065781  1
  Se  Se105  1  0.979836  0.683009  0.810422  1
  Se  Se106  1  0.043294  0.468164  0.859892  1
  Se  Se107  1  0.250000  0.371128  0.060059  1
  Se  Se108  1  0.750000  0.841688  0.878704  1
  Se  Se109  1  0.750000  0.372829  0.055495  1
  Se  Se110  1  0.750000  0.056359  0.792293  1
  Se  Se111  1  0.015609  0.228724  0.434219  1
  Se  Se112  1  0.979836  0.183009  0.689578  1
  Se  Se113  1  0.250000  0.088651  0.893008  1
  Se  Se114  1  0.543294  0.531836  0.140108  1
  Se  Se115  1  0.750000  0.911349  0.106992  1
  Se  Se116  1  0.484391  0.228724  0.434219  1
  Se  Se117  1  0.043294  0.968164  0.640108  1
  Se  Se118  1  0.750000  0.670975  0.364990  1
  Se  Se119  1  0.750000  0.341688  0.621296  1
