# generated using pymatgen
data_Y6Zr22O53
_symmetry_space_group_name_H-M   'P 1'
_cell_length_a   3.62751914
_cell_length_b   3.73131494
_cell_length_c   74.42526660
_cell_angle_alpha   90.00000000
_cell_angle_beta   90.00000000
_cell_angle_gamma   90.00000000
_symmetry_Int_Tables_number   1
_chemical_formula_structural   Y6Zr22O53
_chemical_formula_sum   'Y6 Zr22 O53'
_cell_volume   1007.37697130
_cell_formula_units_Z   1
loop_
 _symmetry_equiv_pos_site_id
 _symmetry_equiv_pos_as_xyz
  1  'x, y, z'
loop_
 _atom_site_type_symbol
 _atom_site_label
 _atom_site_symmetry_multiplicity
 _atom_site_fract_x
 _atom_site_fract_y
 _atom_site_fract_z
 _atom_site_occupancy
  O  O0  1  0.000000  0.500000  0.014808  1
  O  O1  1  0.000000  0.500000  0.050064  1
  O  O2  1  0.000000  0.500000  0.085285  1
  O  O3  1  0.000000  0.500000  0.120929  1
  O  O4  1  0.000000  0.500000  0.156437  1
  O  O5  1  0.000000  0.500000  0.227825  1
  O  O6  1  0.000000  0.500000  0.263660  1
  O  O7  1  0.000000  0.500000  0.299294  1
  O  O8  1  0.000000  0.500000  0.335154  1
  O  O9  1  0.000000  0.500000  0.370829  1
  O  O10  1  0.000000  0.500000  0.442465  1
  O  O11  1  0.000000  0.500000  0.478427  1
  O  O12  1  0.000000  0.500000  0.514180  1
  O  O13  1  0.000000  0.500000  0.586049  1
  O  O14  1  0.000000  0.500000  0.730845  1
  O  O15  1  0.000000  0.500000  0.916134  1
  O  O16  1  0.000000  0.500000  0.980362  1
  O  O17  1  0.500000  0.000000  0.022234  1
  O  O18  1  0.500000  0.000000  0.093416  1
  O  O19  1  0.500000  0.000000  0.164803  1
  O  O20  1  0.500000  0.000000  0.057664  1
  O  O21  1  0.500000  0.000000  0.128980  1
  O  O22  1  0.500000  0.000000  0.236262  1
  O  O23  1  0.500000  0.000000  0.307757  1
  O  O24  1  0.500000  0.000000  0.200417  1
  O  O25  1  0.500000  0.000000  0.271898  1
  O  O26  1  0.500000  0.000000  0.379282  1
  O  O27  1  0.500000  0.000000  0.450587  1
  O  O28  1  0.500000  0.000000  0.343415  1
  O  O29  1  0.500000  0.000000  0.520762  1
  O  O30  1  0.500000  0.000000  0.588382  1
  O  O31  1  0.500000  0.000000  0.624534  1
  O  O32  1  0.500000  0.000000  0.414886  1
  O  O33  1  0.500000  0.000000  0.485763  1
  O  O34  1  0.500000  0.000000  0.554677  1
  O  O35  1  0.500000  0.000000  0.697989  1
  O  O36  1  0.500000  0.000000  0.731698  1
  O  O37  1  0.500000  0.000000  0.768022  1
  O  O38  1  0.500000  0.000000  0.659778  1
  O  O39  1  0.500000  0.000000  0.803177  1
  O  O40  1  0.500000  0.000000  0.874978  1
  O  O41  1  0.500000  0.000000  0.946587  1
  O  O42  1  0.500000  0.000000  0.841256  1
  O  O43  1  0.500000  0.000000  0.986592  1
  O  O44  1  0.500000  0.000000  0.911360  1
  O  O45  1  0.000000  0.500000  0.192227  1
  O  O46  1  0.000000  0.500000  0.406741  1
  O  O47  1  0.000000  0.500000  0.629179  1
  O  O48  1  0.000000  0.500000  0.550285  1
  O  O49  1  0.000000  0.500000  0.696025  1
  O  O50  1  0.000000  0.500000  0.773084  1
  O  O51  1  0.000000  0.500000  0.839114  1
  O  O52  1  0.000000  0.500000  0.873916  1
  Y  Y53  1  0.500000  0.500000  0.604124  1
  Y  Y54  1  0.500000  0.500000  0.681054  1
  Y  Y55  1  0.500000  0.500000  0.748016  1
  Y  Y56  1  0.500000  0.500000  0.824252  1
  Y  Y57  1  0.500000  0.500000  0.891210  1
  Y  Y58  1  0.500000  0.500000  0.966843  1
  Zr  Zr59  1  0.000000  0.000000  0.001343  1
  Zr  Zr60  1  0.000000  0.000000  0.072073  1
  Zr  Zr61  1  0.000000  0.000000  0.143293  1
  Zr  Zr62  1  0.000000  0.000000  0.214702  1
  Zr  Zr63  1  0.000000  0.000000  0.286175  1
  Zr  Zr64  1  0.000000  0.000000  0.429222  1
  Zr  Zr65  1  0.000000  0.000000  0.357698  1
  Zr  Zr66  1  0.000000  0.000000  0.570513  1
  Zr  Zr67  1  0.000000  0.000000  0.639250  1
  Zr  Zr68  1  0.000000  0.000000  0.714637  1
  Zr  Zr69  1  0.000000  0.000000  0.857811  1
  Zr  Zr70  1  0.000000  0.000000  0.926135  1
  Zr  Zr71  1  0.500000  0.500000  0.036298  1
  Zr  Zr72  1  0.500000  0.500000  0.107279  1
  Zr  Zr73  1  0.500000  0.500000  0.178609  1
  Zr  Zr74  1  0.500000  0.500000  0.250052  1
  Zr  Zr75  1  0.500000  0.500000  0.321545  1
  Zr  Zr76  1  0.500000  0.500000  0.464544  1
  Zr  Zr77  1  0.500000  0.500000  0.393091  1
  Zr  Zr78  1  0.500000  0.500000  0.535400  1
  Zr  Zr79  1  0.000000  0.000000  0.500398  1
  Zr  Zr80  1  0.000000  0.000000  0.782887  1
