# generated using pymatgen
data_RbCdC3(SN)3
_symmetry_space_group_name_H-M   'P 1'
_cell_length_a   5.80792562
_cell_length_b   12.94214530
_cell_length_c   13.66392219
_cell_angle_alpha   90.00000000
_cell_angle_beta   90.00000000
_cell_angle_gamma   93.16896876
_symmetry_Int_Tables_number   1
_chemical_formula_structural   RbCdC3(SN)3
_chemical_formula_sum   'Rb4 Cd4 C12 S12 N12'
_cell_volume   1025.50572253
_cell_formula_units_Z   4
loop_
 _symmetry_equiv_pos_site_id
 _symmetry_equiv_pos_as_xyz
  1  'x, y, z'
loop_
 _atom_site_type_symbol
 _atom_site_label
 _atom_site_symmetry_multiplicity
 _atom_site_fract_x
 _atom_site_fract_y
 _atom_site_fract_z
 _atom_site_occupancy
  Cd  Cd0  1  0.000000  0.000000  0.000000  1
  Cd  Cd1  1  0.500000  0.500000  0.500000  1
  Cd  Cd2  1  0.000000  0.500000  0.000000  1
  Cd  Cd3  1  0.500000  0.000000  0.500000  1
  Rb  Rb4  1  0.622485  0.712846  0.714536  1
  Rb  Rb5  1  0.877515  0.787154  0.214536  1
  Rb  Rb6  1  0.377515  0.287154  0.285464  1
  Rb  Rb7  1  0.122485  0.212846  0.785464  1
  S  S8  1  0.742563  0.970691  0.829613  1
  S  S9  1  0.757437  0.529309  0.329613  1
  S  S10  1  0.257437  0.029309  0.170387  1
  S  S11  1  0.242563  0.470691  0.670387  1
  S  S12  1  0.230111  0.918787  0.650137  1
  S  S13  1  0.269889  0.581213  0.150137  1
  S  S14  1  0.769889  0.081213  0.349863  1
  S  S15  1  0.730111  0.418787  0.849863  1
  S  S16  1  0.138192  0.658758  0.870058  1
  S  S17  1  0.361808  0.841242  0.370058  1
  S  S18  1  0.861808  0.341242  0.129942  1
  S  S19  1  0.638192  0.158758  0.629942  1
  C  C20  1  0.499850  0.010249  0.872438  1
  C  C21  1  1.000150  0.489751  0.372438  1
  C  C22  1  0.500150  0.989751  0.127562  1
  C  C23  1  -0.000150  0.510249  0.627562  1
  C  C24  1  0.980484  0.909802  0.594996  1
  C  C25  1  0.519516  0.590198  0.094996  1
  C  C26  1  0.019516  0.090198  0.405004  1
  C  C27  1  0.480484  0.409802  0.905004  1
  C  C28  1  0.106765  0.756177  0.944328  1
  C  C29  1  0.393235  0.743823  0.444328  1
  C  C30  1  0.893235  0.243823  0.055672  1
  C  C31  1  0.606765  0.256177  0.555672  1
  N  N32  1  0.822983  0.540557  0.599139  1
  N  N33  1  0.677017  0.959443  0.099139  1
  N  N34  1  0.177017  0.459443  0.400861  1
  N  N35  1  0.322983  0.040557  0.900861  1
  N  N36  1  0.795419  0.902135  0.558133  1
  N  N37  1  0.704581  0.597865  0.058133  1
  N  N38  1  0.204581  0.097865  0.441867  1
  N  N39  1  0.295419  0.402135  0.941867  1
  N  N40  1  0.082660  0.826286  0.998334  1
  N  N41  1  0.417340  0.673714  0.498334  1
  N  N42  1  0.917340  0.173714  0.001666  1
  N  N43  1  0.582660  0.326286  0.501666  1
