# generated using pymatgen
data_TbMg2Cu9
_symmetry_space_group_name_H-M   'P 1'
_cell_length_a   5.00618513
_cell_length_b   5.00618483
_cell_length_c   16.15390783
_cell_angle_alpha   90.00000000
_cell_angle_beta   90.00000000
_cell_angle_gamma   120.00000189
_symmetry_Int_Tables_number   1
_chemical_formula_structural   TbMg2Cu9
_chemical_formula_sum   'Tb2 Mg4 Cu18'
_cell_volume   350.60815238
_cell_formula_units_Z   2
loop_
 _symmetry_equiv_pos_site_id
 _symmetry_equiv_pos_as_xyz
  1  'x, y, z'
loop_
 _atom_site_type_symbol
 _atom_site_label
 _atom_site_symmetry_multiplicity
 _atom_site_fract_x
 _atom_site_fract_y
 _atom_site_fract_z
 _atom_site_occupancy
  Cu  Cu0  1  0.000000  0.000000  0.000000  1
  Cu  Cu1  1  0.000000  0.000000  0.500000  1
  Cu  Cu2  1  0.000000  0.000000  0.250000  1
  Cu  Cu3  1  0.000000  0.000000  0.750000  1
  Cu  Cu4  1  0.333333  0.666667  0.250000  1
  Cu  Cu5  1  0.666667  0.333333  0.750000  1
  Tb  Tb6  1  0.333333  0.666667  0.750000  1
  Tb  Tb7  1  0.666667  0.333333  0.250000  1
  Mg  Mg8  1  0.333333  0.666667  0.532128  1
  Mg  Mg9  1  0.666667  0.333333  0.032128  1
  Mg  Mg10  1  0.666667  0.333333  0.467872  1
  Mg  Mg11  1  0.333333  0.666667  0.967872  1
  Cu  Cu12  1  0.167908  0.335817  0.123193  1
  Cu  Cu13  1  0.832092  0.167908  0.623193  1
  Cu  Cu14  1  0.335817  0.167908  0.623193  1
  Cu  Cu15  1  0.664183  0.832092  0.123193  1
  Cu  Cu16  1  0.167908  0.832092  0.123193  1
  Cu  Cu17  1  0.832092  0.664183  0.876807  1
  Cu  Cu18  1  0.832092  0.167908  0.876807  1
  Cu  Cu19  1  0.832092  0.664183  0.623193  1
  Cu  Cu20  1  0.335817  0.167908  0.876807  1
  Cu  Cu21  1  0.664183  0.832092  0.376807  1
  Cu  Cu22  1  0.167908  0.335817  0.376807  1
  Cu  Cu23  1  0.167908  0.832092  0.376807  1
