# generated using pymatgen
data_Cs2TlCl5
_symmetry_space_group_name_H-M   'P 1'
_cell_length_a   7.64795442
_cell_length_b   9.61388394
_cell_length_c   15.27837172
_cell_angle_alpha   90.00000000
_cell_angle_beta   90.00000000
_cell_angle_gamma   90.00000000
_symmetry_Int_Tables_number   1
_chemical_formula_structural   Cs2TlCl5
_chemical_formula_sum   'Cs8 Tl4 Cl20'
_cell_volume   1123.36590371
_cell_formula_units_Z   4
loop_
 _symmetry_equiv_pos_site_id
 _symmetry_equiv_pos_as_xyz
  1  'x, y, z'
loop_
 _atom_site_type_symbol
 _atom_site_label
 _atom_site_symmetry_multiplicity
 _atom_site_fract_x
 _atom_site_fract_y
 _atom_site_fract_z
 _atom_site_occupancy
  Tl  Tl0  1  0.750000  0.811929  0.929724  1
  Tl  Tl1  1  0.250000  0.188072  0.070276  1
  Tl  Tl2  1  0.750000  0.311928  0.570276  1
  Tl  Tl3  1  0.250000  0.688071  0.429724  1
  Cs  Cs4  1  0.250000  0.969007  0.797660  1
  Cs  Cs5  1  0.750000  0.030993  0.202340  1
  Cs  Cs6  1  0.250000  0.469007  0.702340  1
  Cs  Cs7  1  0.750000  0.530993  0.297660  1
  Cs  Cs8  1  0.750000  0.823201  0.578195  1
  Cs  Cs9  1  0.250000  0.176799  0.421805  1
  Cs  Cs10  1  0.750000  0.323201  0.921805  1
  Cs  Cs11  1  0.250000  0.676799  0.078195  1
  Cl  Cl12  1  0.000000  0.000000  0.000000  1
  Cl  Cl13  1  0.500000  0.000000  0.000000  1
  Cl  Cl14  1  0.500000  0.500000  0.500000  1
  Cl  Cl15  1  0.000000  0.500000  0.500000  1
  Cl  Cl16  1  0.494461  0.658243  0.875847  1
  Cl  Cl17  1  0.994461  0.341757  0.124153  1
  Cl  Cl18  1  0.005539  0.158243  0.624153  1
  Cl  Cl19  1  0.505539  0.841757  0.375847  1
  Cl  Cl20  1  0.505539  0.341757  0.124153  1
  Cl  Cl21  1  0.005539  0.658243  0.875847  1
  Cl  Cl22  1  0.994461  0.841757  0.375847  1
  Cl  Cl23  1  0.494461  0.158243  0.624153  1
  Cl  Cl24  1  0.750000  0.703660  0.084077  1
  Cl  Cl25  1  0.250000  0.296340  0.915923  1
  Cl  Cl26  1  0.750000  0.203660  0.415923  1
  Cl  Cl27  1  0.250000  0.796340  0.584077  1
  Cl  Cl28  1  0.750000  0.973263  0.798479  1
  Cl  Cl29  1  0.250000  0.026737  0.201521  1
  Cl  Cl30  1  0.750000  0.473263  0.701521  1
  Cl  Cl31  1  0.250000  0.526737  0.298479  1
