# generated using pymatgen
data_CsSb2F7
_symmetry_space_group_name_H-M   'P 1'
_cell_length_a   6.18843182
_cell_length_b   6.49069705
_cell_length_c   10.88317074
_cell_angle_alpha   107.34944852
_cell_angle_beta   88.81685233
_cell_angle_gamma   90.00000000
_symmetry_Int_Tables_number   1
_chemical_formula_structural   CsSb2F7
_chemical_formula_sum   'Cs2 Sb4 F14'
_cell_volume   417.16072289
_cell_formula_units_Z   2
loop_
 _symmetry_equiv_pos_site_id
 _symmetry_equiv_pos_as_xyz
  1  'x, y, z'
loop_
 _atom_site_type_symbol
 _atom_site_label
 _atom_site_symmetry_multiplicity
 _atom_site_fract_x
 _atom_site_fract_y
 _atom_site_fract_z
 _atom_site_occupancy
  Cs  Cs0  1  0.750000  0.261684  1.000000  1
  Cs  Cs1  1  0.250000  0.738316  0.000000  1
  Sb  Sb2  1  0.282912  0.089392  0.675667  1
  Sb  Sb3  1  0.782912  0.586276  0.675667  1
  Sb  Sb4  1  0.717088  0.910608  0.324333  1
  Sb  Sb5  1  0.217088  0.413724  0.324333  1
  F  F6  1  0.967911  0.221327  0.254353  1
  F  F7  1  0.074572  0.678621  0.309213  1
  F  F8  1  0.032089  0.778673  0.745647  1
  F  F9  1  0.781423  0.774201  0.134767  1
  F  F10  1  0.218577  0.225799  0.865233  1
  F  F11  1  0.425428  0.369409  0.690787  1
  F  F12  1  0.532089  0.966974  0.745647  1
  F  F13  1  0.718577  0.639434  0.865233  1
  F  F14  1  0.574572  0.630591  0.309213  1
  F  F15  1  0.500000  0.000000  0.500000  1
  F  F16  1  0.281423  0.360566  0.134767  1
  F  F17  1  0.467911  0.033026  0.254353  1
  F  F18  1  0.000000  0.500000  0.500000  1
  F  F19  1  0.925428  0.321379  0.690787  1
