# generated using pymatgen
data_La(BO2)3
_symmetry_space_group_name_H-M   'P 1'
_cell_length_a   4.27640922
_cell_length_b   7.35171841
_cell_length_c   11.83354490
_cell_angle_alpha   90.00000000
_cell_angle_beta   90.00000000
_cell_angle_gamma   91.20623506
_symmetry_Int_Tables_number   1
_chemical_formula_structural   La(BO2)3
_chemical_formula_sum   'La4 B12 O24'
_cell_volume   371.95185894
_cell_formula_units_Z   4
loop_
 _symmetry_equiv_pos_site_id
 _symmetry_equiv_pos_as_xyz
  1  'x, y, z'
loop_
 _atom_site_type_symbol
 _atom_site_label
 _atom_site_symmetry_multiplicity
 _atom_site_fract_x
 _atom_site_fract_y
 _atom_site_fract_z
 _atom_site_occupancy
  La  La0  1  0.216051  0.880125  0.377334  1
  La  La1  1  0.783949  0.119875  0.622666  1
  La  La2  1  0.783949  0.619875  0.877334  1
  La  La3  1  0.216051  0.380125  0.122666  1
  B  B4  1  0.677151  0.710947  0.166046  1
  B  B5  1  0.322849  0.289053  0.833954  1
  B  B6  1  0.803974  0.626136  0.593654  1
  B  B7  1  0.322849  0.789053  0.666046  1
  B  B8  1  0.310859  0.427508  0.621895  1
  B  B9  1  0.689141  0.072492  0.121895  1
  B  B10  1  0.196026  0.873864  0.093654  1
  B  B11  1  0.677151  0.210947  0.333954  1
  B  B12  1  0.689141  0.572492  0.378105  1
  B  B13  1  0.310859  0.927508  0.878105  1
  B  B14  1  0.196026  0.373864  0.406346  1
  B  B15  1  0.803974  0.126136  0.906346  1
  O  O16  1  0.152071  0.610804  0.627572  1
  O  O17  1  0.220323  0.307565  0.715736  1
  O  O18  1  0.249505  0.437711  0.909471  1
  O  O19  1  0.794979  0.180736  0.024297  1
  O  O20  1  0.750495  0.062289  0.409471  1
  O  O21  1  0.649687  0.453544  0.620272  1
  O  O22  1  0.847929  0.889196  0.127572  1
  O  O23  1  0.779677  0.192435  0.215736  1
  O  O24  1  0.205021  0.819264  0.975703  1
  O  O25  1  0.152071  0.110804  0.872428  1
  O  O26  1  0.666348  0.264005  0.832564  1
  O  O27  1  0.794979  0.680736  0.475703  1
  O  O28  1  0.333652  0.235995  0.332564  1
  O  O29  1  0.205021  0.319264  0.524297  1
  O  O30  1  0.350313  0.046456  0.120272  1
  O  O31  1  0.333652  0.735995  0.167436  1
  O  O32  1  0.249505  0.937711  0.590529  1
  O  O33  1  0.779677  0.692435  0.284264  1
  O  O34  1  0.847929  0.389196  0.372428  1
  O  O35  1  0.220323  0.807565  0.784264  1
  O  O36  1  0.649687  0.953544  0.879728  1
  O  O37  1  0.750495  0.562289  0.090529  1
  O  O38  1  0.666348  0.764005  0.667436  1
  O  O39  1  0.350313  0.546456  0.379728  1
