# generated using pymatgen
data_SrCrO4
_symmetry_space_group_name_H-M   'P 1'
_cell_length_a   6.84166858
_cell_length_b   7.20560261
_cell_length_c   7.50389491
_cell_angle_alpha   90.00000000
_cell_angle_beta   90.00000000
_cell_angle_gamma   103.20929513
_symmetry_Int_Tables_number   1
_chemical_formula_structural   SrCrO4
_chemical_formula_sum   'Sr4 Cr4 O16'
_cell_volume   360.14194500
_cell_formula_units_Z   4
loop_
 _symmetry_equiv_pos_site_id
 _symmetry_equiv_pos_as_xyz
  1  'x, y, z'
loop_
 _atom_site_type_symbol
 _atom_site_label
 _atom_site_symmetry_multiplicity
 _atom_site_fract_x
 _atom_site_fract_y
 _atom_site_fract_z
 _atom_site_occupancy
  Sr  Sr0  1  0.899687  0.225799  0.656002  1
  Sr  Sr1  1  0.600313  0.274201  0.156002  1
  Sr  Sr2  1  0.100313  0.774201  0.343998  1
  Sr  Sr3  1  0.399687  0.725799  0.843998  1
  Cr  Cr4  1  0.384155  0.196692  0.662845  1
  Cr  Cr5  1  0.115845  0.303308  0.162845  1
  Cr  Cr6  1  0.615845  0.803308  0.337155  1
  Cr  Cr7  1  0.884155  0.696692  0.837155  1
  O  O8  1  0.285863  0.379940  0.714892  1
  O  O9  1  0.214137  0.120060  0.214892  1
  O  O10  1  0.714137  0.620060  0.285108  1
  O  O11  1  0.785863  0.879940  0.785108  1
  O  O12  1  0.557971  0.252797  0.503501  1
  O  O13  1  0.942029  0.247203  0.003501  1
  O  O14  1  0.442029  0.747203  0.496499  1
  O  O15  1  0.057971  0.752797  0.996499  1
  O  O16  1  0.191405  0.025394  0.598520  1
  O  O17  1  0.308595  0.474606  0.098520  1
  O  O18  1  0.808595  0.974606  0.401480  1
  O  O19  1  0.691405  0.525394  0.901480  1
  O  O20  1  0.494190  0.118842  0.838213  1
  O  O21  1  0.005810  0.381158  0.338213  1
  O  O22  1  0.505810  0.881158  0.161787  1
  O  O23  1  0.994190  0.618842  0.661787  1
