# generated using pymatgen
data_Li2UI6
_symmetry_space_group_name_H-M   'P 1'
_cell_length_a   7.45959408
_cell_length_b   7.45959334
_cell_length_c   14.56155069
_cell_angle_alpha   90.00000000
_cell_angle_beta   90.00000000
_cell_angle_gamma   119.99999792
_symmetry_Int_Tables_number   1
_chemical_formula_structural   Li2UI6
_chemical_formula_sum   'Li4 U2 I12'
_cell_volume   701.72769214
_cell_formula_units_Z   2
loop_
 _symmetry_equiv_pos_site_id
 _symmetry_equiv_pos_as_xyz
  1  'x, y, z'
loop_
 _atom_site_type_symbol
 _atom_site_label
 _atom_site_symmetry_multiplicity
 _atom_site_fract_x
 _atom_site_fract_y
 _atom_site_fract_z
 _atom_site_occupancy
  Li  Li0  1  0.666667  0.333333  0.250000  1
  Li  Li1  1  0.333333  0.666667  0.750000  1
  Li  Li2  1  -0.000000  -0.000000  0.250000  1
  Li  Li3  1  -0.000000  -0.000000  0.750000  1
  U  U4  1  0.666667  0.333333  0.750000  1
  U  U5  1  0.333333  0.666667  0.250000  1
  I  I6  1  0.333183  0.997032  0.130554  1
  I  I7  1  0.997032  0.333183  0.630554  1
  I  I8  1  0.666817  0.663849  0.630554  1
  I  I9  1  0.666817  0.002968  0.869446  1
  I  I10  1  0.333183  0.336151  0.369446  1
  I  I11  1  0.002968  0.666817  0.369446  1
  I  I12  1  0.336151  0.333183  0.869446  1
  I  I13  1  0.663849  0.666817  0.130554  1
  I  I14  1  0.997032  0.663849  0.869446  1
  I  I15  1  0.002968  0.336151  0.130554  1
  I  I16  1  0.663849  0.997032  0.369446  1
  I  I17  1  0.336151  0.002968  0.630554  1
