# generated using pymatgen
data_MnP2O7
_symmetry_space_group_name_H-M   'P 1'
_cell_length_a   6.84287539
_cell_length_b   7.92962952
_cell_length_c   9.59613126
_cell_angle_alpha   90.00000000
_cell_angle_beta   66.58784970
_cell_angle_gamma   90.00000000
_symmetry_Int_Tables_number   1
_chemical_formula_structural   MnP2O7
_chemical_formula_sum   'Mn4 P8 O28'
_cell_volume   477.83111357
_cell_formula_units_Z   4
loop_
 _symmetry_equiv_pos_site_id
 _symmetry_equiv_pos_as_xyz
  1  'x, y, z'
loop_
 _atom_site_type_symbol
 _atom_site_label
 _atom_site_symmetry_multiplicity
 _atom_site_fract_x
 _atom_site_fract_y
 _atom_site_fract_z
 _atom_site_occupancy
  Mn  Mn0  1  0.213176  0.722292  0.507586  1
  Mn  Mn1  1  0.713176  0.777708  0.007586  1
  Mn  Mn2  1  0.286824  0.222292  0.992414  1
  Mn  Mn3  1  0.786824  0.277708  0.492414  1
  O  O4  1  0.025133  0.885065  0.204527  1
  O  O5  1  0.098667  0.261454  0.390211  1
  O  O6  1  0.268947  0.406229  0.128380  1
  O  O7  1  0.160257  0.579350  0.366504  1
  O  O8  1  0.339743  0.079350  0.133496  1
  O  O9  1  0.231053  0.906229  0.371620  1
  O  O10  1  0.401333  0.761454  0.109789  1
  O  O11  1  0.011620  0.824849  0.906416  1
  O  O12  1  0.200744  0.549912  0.654597  1
  O  O13  1  0.257328  0.897735  0.633965  1
  O  O14  1  0.474867  0.385065  0.295473  1
  O  O15  1  0.242672  0.397735  0.866035  1
  O  O16  1  0.511620  0.675151  0.406416  1
  O  O17  1  0.299256  0.049912  0.845403  1
  O  O18  1  0.700744  0.950088  0.154597  1
  O  O19  1  0.488380  0.324849  0.593584  1
  O  O20  1  0.757328  0.602265  0.133965  1
  O  O21  1  0.525133  0.614935  0.704527  1
  O  O22  1  0.742672  0.102265  0.366035  1
  O  O23  1  0.799256  0.450088  0.345403  1
  O  O24  1  0.988380  0.175151  0.093584  1
  O  O25  1  0.598667  0.238546  0.890211  1
  O  O26  1  0.768947  0.093771  0.628380  1
  O  O27  1  0.660257  0.920650  0.866504  1
  O  O28  1  0.839743  0.420650  0.633496  1
  O  O29  1  0.731053  0.593771  0.871620  1
  O  O30  1  0.901333  0.738546  0.609789  1
  O  O31  1  0.974867  0.114935  0.795473  1
  P  P32  1  0.259995  0.905560  0.204696  1
  P  P33  1  0.240006  0.405560  0.295304  1
  P  P34  1  0.136623  0.965037  0.794949  1
  P  P35  1  0.363377  0.465037  0.705051  1
  P  P36  1  0.636623  0.534963  0.294949  1
  P  P37  1  0.863377  0.034963  0.205051  1
  P  P38  1  0.759995  0.594440  0.704696  1
  P  P39  1  0.740005  0.094440  0.795304  1
