# generated using pymatgen
data_Rb2Co2O3
_symmetry_space_group_name_H-M   'P 1'
_cell_length_a   6.17454310
_cell_length_b   7.92422744
_cell_length_c   12.06011067
_cell_angle_alpha   90.00000000
_cell_angle_beta   90.00000000
_cell_angle_gamma   90.00000000
_symmetry_Int_Tables_number   1
_chemical_formula_structural   Rb2Co2O3
_chemical_formula_sum   'Rb8 Co8 O12'
_cell_volume   590.08293030
_cell_formula_units_Z   4
loop_
 _symmetry_equiv_pos_site_id
 _symmetry_equiv_pos_as_xyz
  1  'x, y, z'
loop_
 _atom_site_type_symbol
 _atom_site_label
 _atom_site_symmetry_multiplicity
 _atom_site_fract_x
 _atom_site_fract_y
 _atom_site_fract_z
 _atom_site_occupancy
  Rb  Rb0  1  0.250000  0.005350  0.379404  1
  Rb  Rb1  1  0.750000  0.994650  0.620596  1
  Rb  Rb2  1  0.750000  0.505350  0.120596  1
  Rb  Rb3  1  0.250000  0.494650  0.879404  1
  Rb  Rb4  1  0.250000  0.875473  0.058000  1
  Rb  Rb5  1  0.750000  0.124527  0.942000  1
  Rb  Rb6  1  0.750000  0.375473  0.442000  1
  Rb  Rb7  1  0.250000  0.624527  0.558000  1
  Co  Co8  1  0.250000  0.590033  0.265066  1
  Co  Co9  1  0.750000  0.409967  0.734934  1
  Co  Co10  1  0.750000  0.090033  0.234934  1
  Co  Co11  1  0.250000  0.909967  0.765066  1
  Co  Co12  1  0.250000  0.275196  0.151415  1
  Co  Co13  1  0.750000  0.724804  0.848585  1
  Co  Co14  1  0.750000  0.775196  0.348585  1
  Co  Co15  1  0.250000  0.224804  0.651415  1
  O  O16  1  0.250000  0.515330  0.120822  1
  O  O17  1  0.750000  0.484670  0.879178  1
  O  O18  1  0.750000  0.015330  0.379178  1
  O  O19  1  0.250000  0.984670  0.620822  1
  O  O20  1  0.991955  0.160337  0.150216  1
  O  O21  1  0.491955  0.839663  0.849784  1
  O  O22  1  0.008045  0.660337  0.349784  1
  O  O23  1  0.508045  0.339663  0.650216  1
  O  O24  1  0.008045  0.839663  0.849784  1
  O  O25  1  0.508045  0.160337  0.150216  1
  O  O26  1  0.991955  0.339663  0.650216  1
  O  O27  1  0.491955  0.660337  0.349784  1
