# generated using pymatgen
data_K2SrP2O7
_symmetry_space_group_name_H-M   'P 1'
_cell_length_a   5.79651527
_cell_length_b   9.28772167
_cell_length_c   14.94606584
_cell_angle_alpha   105.84183714
_cell_angle_beta   90.00000000
_cell_angle_gamma   90.00000000
_symmetry_Int_Tables_number   1
_chemical_formula_structural   K2SrP2O7
_chemical_formula_sum   'K8 Sr4 P8 O28'
_cell_volume   774.08148649
_cell_formula_units_Z   4
loop_
 _symmetry_equiv_pos_site_id
 _symmetry_equiv_pos_as_xyz
  1  'x, y, z'
loop_
 _atom_site_type_symbol
 _atom_site_label
 _atom_site_symmetry_multiplicity
 _atom_site_fract_x
 _atom_site_fract_y
 _atom_site_fract_z
 _atom_site_occupancy
  K  K0  1  0.738209  0.465702  0.163681  1
  K  K1  1  0.266387  0.968183  0.386505  1
  K  K2  1  0.733613  0.031817  0.613495  1
  K  K3  1  0.238209  0.534298  0.336319  1
  K  K4  1  0.261791  0.534298  0.836319  1
  K  K5  1  0.766387  0.031817  0.113495  1
  K  K6  1  0.233613  0.968183  0.886505  1
  K  K7  1  0.761791  0.465702  0.663681  1
  Sr  Sr8  1  0.273689  0.736783  0.132490  1
  Sr  Sr9  1  0.226311  0.736783  0.632490  1
  Sr  Sr10  1  0.773689  0.263217  0.367510  1
  Sr  Sr11  1  0.726311  0.263217  0.867510  1
  P  P12  1  0.800061  0.691214  0.965645  1
  P  P13  1  0.731164  0.818925  0.806183  1
  P  P14  1  0.699939  0.691214  0.465645  1
  P  P15  1  0.231164  0.181075  0.693817  1
  P  P16  1  0.768836  0.818925  0.306183  1
  P  P17  1  0.300061  0.308786  0.534355  1
  P  P18  1  0.268836  0.181075  0.193817  1
  P  P19  1  0.199939  0.308786  0.034355  1
  O  O20  1  0.519463  0.734351  0.756941  1
  O  O21  1  0.019463  0.265649  0.743059  1
  O  O22  1  0.554805  0.265763  0.513038  1
  O  O23  1  0.728257  0.986092  0.812810  1
  O  O24  1  0.271743  0.013908  0.187190  1
  O  O25  1  0.445195  0.734237  0.486962  1
  O  O26  1  0.961028  0.741967  0.771755  1
  O  O27  1  0.155411  0.282866  0.445825  1
  O  O28  1  0.228257  0.013908  0.687190  1
  O  O29  1  0.480537  0.265649  0.243059  1
  O  O30  1  0.038972  0.258033  0.228245  1
  O  O31  1  0.844589  0.717134  0.554175  1
  O  O32  1  0.234544  0.461288  0.104688  1
  O  O33  1  0.461028  0.258033  0.728245  1
  O  O34  1  0.945195  0.265763  0.013038  1
  O  O35  1  0.655411  0.717134  0.054175  1
  O  O36  1  0.344589  0.282866  0.945825  1
  O  O37  1  0.734544  0.538712  0.395312  1
  O  O38  1  0.538972  0.741967  0.271755  1
  O  O39  1  0.054805  0.734237  0.986962  1
  O  O40  1  0.771743  0.986092  0.312810  1
  O  O41  1  0.765456  0.538712  0.895312  1
  O  O42  1  0.980537  0.734351  0.256941  1
  O  O43  1  0.699550  0.819465  0.917023  1
  O  O44  1  0.265456  0.461288  0.604688  1
  O  O45  1  0.300450  0.180535  0.082977  1
  O  O46  1  0.199550  0.180535  0.582977  1
  O  O47  1  0.800450  0.819465  0.417023  1
