# generated using pymatgen
data_Tl2Ni4P4O15
_symmetry_space_group_name_H-M   'P 1'
_cell_length_a   8.75320504
_cell_length_b   8.75320534
_cell_length_c   18.40634363
_cell_angle_alpha   97.90960060
_cell_angle_beta   97.90960086
_cell_angle_gamma   106.28228125
_symmetry_Int_Tables_number   1
_chemical_formula_structural   Tl2Ni4P4O15
_chemical_formula_sum   'Tl8 Ni16 P16 O60'
_cell_volume   1317.60189839
_cell_formula_units_Z   4
loop_
 _symmetry_equiv_pos_site_id
 _symmetry_equiv_pos_as_xyz
  1  'x, y, z'
loop_
 _atom_site_type_symbol
 _atom_site_label
 _atom_site_symmetry_multiplicity
 _atom_site_fract_x
 _atom_site_fract_y
 _atom_site_fract_z
 _atom_site_occupancy
  Tl  Tl0  1  0.111444  0.587668  0.299876  1
  Tl  Tl1  1  0.350522  0.549668  0.051207  1
  Tl  Tl2  1  0.450332  0.649478  0.448793  1
  Tl  Tl3  1  0.888556  0.412332  0.700124  1
  Tl  Tl4  1  0.649478  0.450332  0.948793  1
  Tl  Tl5  1  0.587668  0.111444  0.799876  1
  Tl  Tl6  1  0.412332  0.888556  0.200124  1
  Tl  Tl7  1  0.549668  0.350522  0.551207  1
  Ni  Ni8  1  0.913582  0.269943  0.068242  1
  Ni  Ni9  1  0.848659  0.961122  0.932505  1
  Ni  Ni10  1  0.539557  0.460443  0.250000  1
  Ni  Ni11  1  0.827938  0.172062  0.250000  1
  Ni  Ni12  1  0.460443  0.539557  0.750000  1
  Ni  Ni13  1  0.000000  0.500000  0.500000  1
  Ni  Ni14  1  0.151341  0.038878  0.067495  1
  Ni  Ni15  1  0.269943  0.913582  0.568242  1
  Ni  Ni16  1  0.038878  0.151341  0.567495  1
  Ni  Ni17  1  0.046443  0.953557  0.250000  1
  Ni  Ni18  1  0.172062  0.827938  0.750000  1
  Ni  Ni19  1  0.961122  0.848659  0.432505  1
  Ni  Ni20  1  0.953557  0.046443  0.750000  1
  Ni  Ni21  1  0.500000  0.000000  0.000000  1
  Ni  Ni22  1  0.730057  0.086418  0.431758  1
  Ni  Ni23  1  0.086418  0.730057  0.931758  1
  P  P24  1  0.442174  0.772421  0.878840  1
  P  P25  1  0.102279  0.220448  0.402514  1
  P  P26  1  0.986964  0.687495  0.097948  1
  P  P27  1  0.312505  0.013036  0.402052  1
  P  P28  1  0.779552  0.897721  0.097486  1
  P  P29  1  0.160179  0.276746  0.178883  1
  P  P30  1  0.723254  0.839821  0.321117  1
  P  P31  1  0.557826  0.227579  0.121160  1
  P  P32  1  0.220448  0.102279  0.902514  1
  P  P33  1  0.276746  0.160179  0.678883  1
  P  P34  1  0.839821  0.723254  0.821117  1
  P  P35  1  0.897721  0.779552  0.597486  1
  P  P36  1  0.013036  0.312505  0.902052  1
  P  P37  1  0.772421  0.442174  0.378840  1
  P  P38  1  0.687495  0.986964  0.597948  1
  P  P39  1  0.227579  0.557826  0.621160  1
  O  O40  1  0.131909  0.399248  0.429248  1
  O  O41  1  0.781677  0.330547  0.438454  1
  O  O42  1  0.702977  0.590894  0.767344  1
  O  O43  1  0.748448  0.050581  0.681307  1
  O  O44  1  0.251552  0.949419  0.318693  1
  O  O45  1  0.600904  0.457627  0.359100  1
  O  O46  1  0.050581  0.748448  0.181307  1
  O  O47  1  0.614339  0.172533  0.193243  1
  O  O48  1  0.945934  0.508408  0.071045  1
  O  O49  1  0.827467  0.385661  0.306757  1
  O  O50  1  0.172533  0.614339  0.693243  1
  O  O51  1  0.960174  0.836512  0.681598  1
  O  O52  1  0.990684  0.297162  0.187471  1
  O  O53  1  0.054066  0.491592  0.928955  1
  O  O54  1  0.949419  0.251552  0.818693  1
  O  O55  1  0.836512  0.960174  0.181598  1
  O  O56  1  0.111329  0.992070  0.948712  1
  O  O57  1  0.163488  0.039826  0.818402  1
  O  O58  1  0.605033  0.904521  0.920434  1
  O  O59  1  0.702838  0.009316  0.312529  1
  O  O60  1  0.099443  0.787249  0.050689  1
  O  O61  1  0.188317  0.275641  0.920889  1
  O  O62  1  0.212751  0.900557  0.449311  1
  O  O63  1  0.330547  0.781677  0.938454  1
  O  O64  1  0.170298  0.102422  0.183632  1
  O  O65  1  0.385661  0.827467  0.806757  1
  O  O66  1  0.284270  0.160929  0.592978  1
  O  O67  1  0.009316  0.702838  0.812529  1
  O  O68  1  0.275641  0.188317  0.420889  1
  O  O69  1  0.904521  0.605033  0.420434  1
  O  O70  1  0.888671  0.007930  0.051288  1
  O  O71  1  0.787249  0.099443  0.550690  1
  O  O72  1  0.811683  0.724359  0.079111  1
  O  O73  1  0.218323  0.669453  0.561546  1
  O  O74  1  0.297162  0.990684  0.687471  1
  O  O75  1  0.102422  0.170298  0.683632  1
  O  O76  1  0.399248  0.131909  0.929248  1
  O  O77  1  0.715730  0.839071  0.407022  1
  O  O78  1  0.297023  0.409106  0.232656  1
  O  O79  1  0.839071  0.715730  0.907022  1
  O  O80  1  0.724359  0.811683  0.579111  1
  O  O81  1  0.095479  0.394967  0.579566  1
  O  O82  1  0.669453  0.218323  0.061546  1
  O  O83  1  0.590894  0.702977  0.267344  1
  O  O84  1  0.007930  0.888671  0.551288  1
  O  O85  1  0.394967  0.095479  0.079566  1
  O  O86  1  0.868091  0.600752  0.570752  1
  O  O87  1  0.829702  0.897578  0.816368  1
  O  O88  1  0.160929  0.284270  0.092978  1
  O  O89  1  0.508408  0.945934  0.571045  1
  O  O90  1  0.600752  0.868091  0.070752  1
  O  O91  1  0.039826  0.163488  0.318402  1
  O  O92  1  0.457627  0.600904  0.859100  1
  O  O93  1  0.491592  0.054066  0.428955  1
  O  O94  1  0.992070  0.111329  0.448712  1
  O  O95  1  0.542373  0.399096  0.140900  1
  O  O96  1  0.399096  0.542373  0.640900  1
  O  O97  1  0.409106  0.297023  0.732656  1
  O  O98  1  0.897578  0.829702  0.316368  1
  O  O99  1  0.900557  0.212751  0.949310  1
