# generated using pymatgen
data_B4COF6
_symmetry_space_group_name_H-M   'P 1'
_cell_length_a   11.07003888
_cell_length_b   11.27696916
_cell_length_c   11.65851074
_cell_angle_alpha   90.00000000
_cell_angle_beta   90.00000000
_cell_angle_gamma   90.49058181
_symmetry_Int_Tables_number   1
_chemical_formula_structural   B4COF6
_chemical_formula_sum   'B32 C8 O8 F48'
_cell_volume   1455.35417481
_cell_formula_units_Z   8
loop_
 _symmetry_equiv_pos_site_id
 _symmetry_equiv_pos_as_xyz
  1  'x, y, z'
loop_
 _atom_site_type_symbol
 _atom_site_label
 _atom_site_symmetry_multiplicity
 _atom_site_fract_x
 _atom_site_fract_y
 _atom_site_fract_z
 _atom_site_occupancy
  B  B0  1  0.251415  0.756332  0.895227  1
  B  B1  1  0.333807  0.815191  0.293991  1
  B  B2  1  0.833807  0.315191  0.206009  1
  B  B3  1  0.704129  0.653056  0.739381  1
  B  B4  1  0.353988  0.167997  0.414648  1
  B  B5  1  0.238033  0.238294  0.347162  1
  B  B6  1  0.630527  0.173290  0.170289  1
  B  B7  1  0.738033  0.738294  0.152838  1
  B  B8  1  0.853988  0.667997  0.085352  1
  B  B9  1  0.748585  0.243668  0.104773  1
  B  B10  1  0.248585  0.743668  0.395227  1
  B  B11  1  0.295871  0.346944  0.260619  1
  B  B12  1  0.804759  0.149946  0.514222  1
  B  B13  1  0.651717  0.803095  0.049448  1
  B  B14  1  0.761967  0.761706  0.652838  1
  B  B15  1  0.795871  0.846944  0.239381  1
  B  B16  1  0.695241  0.350054  0.014222  1
  B  B17  1  0.304759  0.649946  0.985778  1
  B  B18  1  0.369473  0.826710  0.829711  1
  B  B19  1  0.261967  0.261706  0.847162  1
  B  B20  1  0.151717  0.303095  0.450552  1
  B  B21  1  0.348283  0.196905  0.950552  1
  B  B22  1  0.204129  0.153056  0.760619  1
  B  B23  1  0.848283  0.696905  0.549448  1
  B  B24  1  0.146012  0.332003  0.914648  1
  B  B25  1  0.666193  0.184809  0.706009  1
  B  B26  1  0.166193  0.684809  0.793991  1
  B  B27  1  0.751415  0.256332  0.604773  1
  B  B28  1  0.130527  0.673290  0.329711  1
  B  B29  1  0.646012  0.832003  0.585352  1
  B  B30  1  0.195241  0.850054  0.485778  1
  B  B31  1  0.869473  0.326710  0.670289  1
  C  C32  1  0.836502  0.847171  0.721294  1
  C  C33  1  0.324175  0.657156  0.460005  1
  C  C34  1  0.163498  0.152829  0.278706  1
  C  C35  1  0.675825  0.342844  0.539995  1
  C  C36  1  0.663498  0.652829  0.221294  1
  C  C37  1  0.824175  0.157156  0.039995  1
  C  C38  1  0.175825  0.842844  0.960005  1
  C  C39  1  0.336502  0.347171  0.778706  1
  O  O40  1  0.605961  0.587899  0.274056  1
  O  O41  1  0.394039  0.412101  0.725944  1
  O  O42  1  0.618328  0.409302  0.490222  1
  O  O43  1  0.894039  0.912101  0.774056  1
  O  O44  1  0.381672  0.590698  0.509778  1
  O  O45  1  0.118328  0.909302  0.009778  1
  O  O46  1  0.881672  0.090698  0.990222  1
  O  O47  1  0.105961  0.087899  0.225944  1
  F  F48  1  0.388278  0.944462  0.832828  1
  F  F49  1  0.376846  0.563825  0.948238  1
  F  F50  1  0.723548  0.648957  0.853268  1
  F  F51  1  0.723087  0.354569  0.901887  1
  F  F52  1  0.223548  0.148957  0.646732  1
  F  F53  1  0.776452  0.851043  0.353268  1
  F  F54  1  0.136229  0.065096  0.803004  1
  F  F55  1  0.876846  0.063825  0.551762  1
  F  F56  1  0.698191  0.883859  0.977695  1
  F  F57  1  0.636229  0.565096  0.696996  1
  F  F58  1  0.873400  0.550640  0.091724  1
  F  F59  1  0.067720  0.271384  0.979645  1
  F  F60  1  0.863771  0.934904  0.196996  1
  F  F61  1  0.888278  0.444462  0.667172  1
  F  F62  1  0.801809  0.616141  0.477695  1
  F  F63  1  0.611722  0.055538  0.167172  1
  F  F64  1  0.546338  0.197280  0.715600  1
  F  F65  1  0.451074  0.765806  0.768833  1
  F  F66  1  0.453662  0.802720  0.284400  1
  F  F67  1  0.198191  0.383859  0.522305  1
  F  F68  1  0.033968  0.277492  0.466782  1
  F  F69  1  0.048926  0.734194  0.268833  1
  F  F70  1  0.966032  0.722508  0.533218  1
  F  F71  1  0.567720  0.771384  0.520355  1
  F  F72  1  0.283157  0.888888  0.218444  1
  F  F73  1  0.548926  0.234194  0.231167  1
  F  F74  1  0.046338  0.697280  0.784400  1
  F  F75  1  0.953662  0.302720  0.215600  1
  F  F76  1  0.716843  0.111112  0.781556  1
  F  F77  1  0.223087  0.854569  0.598113  1
  F  F78  1  0.123154  0.936175  0.448238  1
  F  F79  1  0.932280  0.728616  0.020355  1
  F  F80  1  0.216843  0.611112  0.718444  1
  F  F81  1  0.626600  0.949360  0.591724  1
  F  F82  1  0.783157  0.388888  0.281556  1
  F  F83  1  0.466032  0.222508  0.966782  1
  F  F84  1  0.533968  0.777492  0.033218  1
  F  F85  1  0.432280  0.228616  0.479645  1
  F  F86  1  0.111722  0.555538  0.332828  1
  F  F87  1  0.301809  0.116141  0.022305  1
  F  F88  1  0.951074  0.265806  0.731167  1
  F  F89  1  0.363771  0.434904  0.303004  1
  F  F90  1  0.126600  0.449360  0.908276  1
  F  F91  1  0.373400  0.050640  0.408276  1
  F  F92  1  0.623154  0.436175  0.051762  1
  F  F93  1  0.776913  0.145431  0.401887  1
  F  F94  1  0.276913  0.645431  0.098113  1
  F  F95  1  0.276452  0.351043  0.146732  1
