# generated using pymatgen
data_TlCr3O8
_symmetry_space_group_name_H-M   'P 1'
_cell_length_a   5.29174164
_cell_length_b   5.29174091
_cell_length_c   15.94326260
_cell_angle_alpha   92.57083642
_cell_angle_beta   92.57083432
_cell_angle_gamma   62.90877900
_symmetry_Int_Tables_number   1
_chemical_formula_structural   TlCr3O8
_chemical_formula_sum   'Tl2 Cr6 O16'
_cell_volume   396.91827538
_cell_formula_units_Z   2
loop_
 _symmetry_equiv_pos_site_id
 _symmetry_equiv_pos_as_xyz
  1  'x, y, z'
loop_
 _atom_site_type_symbol
 _atom_site_label
 _atom_site_symmetry_multiplicity
 _atom_site_fract_x
 _atom_site_fract_y
 _atom_site_fract_z
 _atom_site_occupancy
  Tl  Tl0  1  0.999999  0.999999  0.999995  1
  Tl  Tl1  1  0.999967  0.999967  0.500023  1
  Cr  Cr2  1  0.361531  0.361531  0.351986  1
  Cr  Cr3  1  0.361488  0.361488  0.851955  1
  Cr  Cr4  1  0.638482  0.638482  0.147994  1
  Cr  Cr5  1  0.638508  0.638508  0.648074  1
  Cr  Cr6  1  0.000016  0.000016  0.249983  1
  Cr  Cr7  1  -0.000003  -0.000003  0.750013  1
  O  O8  1  0.212771  0.212771  0.286225  1
  O  O9  1  0.212772  0.212772  0.786256  1
  O  O10  1  0.787229  0.787229  0.213742  1
  O  O11  1  0.787235  0.787235  0.713764  1
  O  O12  1  0.315871  0.315871  0.449277  1
  O  O13  1  0.315830  0.315830  0.949322  1
  O  O14  1  0.684151  0.684151  0.050698  1
  O  O15  1  0.684166  0.684166  0.550703  1
  O  O16  1  0.714963  0.213691  0.336993  1
  O  O17  1  0.714944  0.213696  0.837042  1
  O  O18  1  0.786299  0.285029  0.162973  1
  O  O19  1  0.786313  0.285053  0.662987  1
  O  O20  1  0.285029  0.786299  0.162973  1
  O  O21  1  0.285053  0.786313  0.662987  1
  O  O22  1  0.213691  0.714963  0.336993  1
  O  O23  1  0.213696  0.714944  0.837042  1
