# generated using pymatgen
data_Cs2Zr(IO3)6
_symmetry_space_group_name_H-M   'P 1'
_cell_length_a   8.05073133
_cell_length_b   8.05073161
_cell_length_c   8.05073132
_cell_angle_alpha   97.29798021
_cell_angle_beta   97.29798052
_cell_angle_gamma   97.29798295
_symmetry_Int_Tables_number   1
_chemical_formula_structural   Cs2Zr(IO3)6
_chemical_formula_sum   'Cs2 Zr1 I6 O18'
_cell_volume   507.91788582
_cell_formula_units_Z   1
loop_
 _symmetry_equiv_pos_site_id
 _symmetry_equiv_pos_as_xyz
  1  'x, y, z'
loop_
 _atom_site_type_symbol
 _atom_site_label
 _atom_site_symmetry_multiplicity
 _atom_site_fract_x
 _atom_site_fract_y
 _atom_site_fract_z
 _atom_site_occupancy
  Cs  Cs0  1  0.163793  0.163793  0.163793  1
  Cs  Cs1  1  0.836207  0.836207  0.836207  1
  Zr  Zr2  1  0.500000  0.500000  0.500000  1
  I  I3  1  0.338764  0.701634  0.122482  1
  I  I4  1  0.877518  0.661236  0.298366  1
  I  I5  1  0.701634  0.122482  0.338764  1
  I  I6  1  0.298366  0.877518  0.661236  1
  I  I7  1  0.661236  0.298366  0.877518  1
  I  I8  1  0.122482  0.338764  0.701634  1
  O  O9  1  0.401282  0.892398  0.277943  1
  O  O10  1  0.722057  0.598718  0.107602  1
  O  O11  1  0.107602  0.722057  0.598718  1
  O  O12  1  0.723991  0.642800  0.455262  1
  O  O13  1  0.109850  0.689043  0.094855  1
  O  O14  1  0.642800  0.455262  0.723991  1
  O  O15  1  0.544738  0.276009  0.357200  1
  O  O16  1  0.276009  0.357200  0.544738  1
  O  O17  1  0.094855  0.109850  0.689043  1
  O  O18  1  0.310957  0.905145  0.890150  1
  O  O19  1  0.455262  0.723991  0.642800  1
  O  O20  1  0.598718  0.107602  0.722057  1
  O  O21  1  0.357200  0.544738  0.276009  1
  O  O22  1  0.890150  0.310957  0.905145  1
  O  O23  1  0.905145  0.890150  0.310957  1
  O  O24  1  0.277943  0.401282  0.892398  1
  O  O25  1  0.892398  0.277943  0.401282  1
  O  O26  1  0.689043  0.094855  0.109850  1
