# generated using pymatgen
data_Ba7Sc6Al2O19
_symmetry_space_group_name_H-M   'P 1'
_cell_length_a   5.85715545
_cell_length_b   5.85715538
_cell_length_c   35.67451707
_cell_angle_alpha   90.00000000
_cell_angle_beta   90.00000000
_cell_angle_gamma   120.00000045
_symmetry_Int_Tables_number   1
_chemical_formula_structural   Ba7Sc6Al2O19
_chemical_formula_sum   'Ba14 Sc12 Al4 O38'
_cell_volume   1059.89349848
_cell_formula_units_Z   2
loop_
 _symmetry_equiv_pos_site_id
 _symmetry_equiv_pos_as_xyz
  1  'x, y, z'
loop_
 _atom_site_type_symbol
 _atom_site_label
 _atom_site_symmetry_multiplicity
 _atom_site_fract_x
 _atom_site_fract_y
 _atom_site_fract_z
 _atom_site_occupancy
  Ba  Ba0  1  0.000000  0.000000  0.053618  1
  Ba  Ba1  1  0.333333  0.666667  0.892553  1
  Ba  Ba2  1  0.333333  0.666667  0.327650  1
  Ba  Ba3  1  0.000000  0.000000  0.946382  1
  Ba  Ba4  1  0.000000  0.000000  0.446382  1
  Ba  Ba5  1  0.666667  0.333333  0.392553  1
  Ba  Ba6  1  0.333333  0.666667  0.172350  1
  Ba  Ba7  1  0.000000  0.000000  0.750000  1
  Ba  Ba8  1  0.333333  0.666667  0.607447  1
  Ba  Ba9  1  0.666667  0.333333  0.107447  1
  Ba  Ba10  1  0.000000  0.000000  0.553618  1
  Ba  Ba11  1  0.666667  0.333333  0.827650  1
  Ba  Ba12  1  0.000000  0.000000  0.250000  1
  Ba  Ba13  1  0.666667  0.333333  0.672350  1
  Sc  Sc14  1  0.000000  0.000000  0.851643  1
  Sc  Sc15  1  0.333333  0.666667  0.505520  1
  Sc  Sc16  1  0.666667  0.333333  0.494480  1
  Sc  Sc17  1  0.666667  0.333333  0.921268  1
  Sc  Sc18  1  0.333333  0.666667  0.994480  1
  Sc  Sc19  1  0.333333  0.666667  0.421268  1
  Sc  Sc20  1  0.666667  0.333333  0.005520  1
  Sc  Sc21  1  0.666667  0.333333  0.578732  1
  Sc  Sc22  1  0.000000  0.000000  0.351643  1
  Sc  Sc23  1  0.000000  0.000000  0.148357  1
  Sc  Sc24  1  0.333333  0.666667  0.078732  1
  Sc  Sc25  1  0.000000  0.000000  0.648357  1
  Al  Al26  1  0.333333  0.666667  0.798794  1
  Al  Al27  1  0.666667  0.333333  0.298794  1
  Al  Al28  1  0.333333  0.666667  0.701206  1
  Al  Al29  1  0.666667  0.333333  0.201206  1
  O  O30  1  0.332214  0.166107  0.887582  1
  O  O31  1  0.168342  0.336684  0.684949  1
  O  O32  1  0.336684  0.168342  0.184949  1
  O  O33  1  0.166107  0.332214  0.112418  1
  O  O34  1  0.333333  0.666667  0.750000  1
  O  O35  1  0.990282  0.495141  0.538062  1
  O  O36  1  0.667786  0.833893  0.387582  1
  O  O37  1  0.663316  0.831658  0.815051  1
  O  O38  1  0.009718  0.504859  0.038062  1
  O  O39  1  0.168342  0.336684  0.815051  1
  O  O40  1  0.168342  0.831658  0.815051  1
  O  O41  1  0.504859  0.009718  0.961938  1
  O  O42  1  0.831658  0.168342  0.315051  1
  O  O43  1  0.166107  0.833893  0.387582  1
  O  O44  1  0.009718  0.504859  0.461938  1
  O  O45  1  0.666667  0.333333  0.250000  1
  O  O46  1  0.833893  0.667786  0.887582  1
  O  O47  1  0.168342  0.831658  0.684949  1
  O  O48  1  0.504859  0.495141  0.961938  1
  O  O49  1  0.833893  0.166107  0.887582  1
  O  O50  1  0.166107  0.332214  0.387582  1
  O  O51  1  0.504859  0.495141  0.538062  1
  O  O52  1  0.663316  0.831658  0.684949  1
  O  O53  1  0.336684  0.168342  0.315051  1
  O  O54  1  0.831658  0.168342  0.184949  1
  O  O55  1  0.667786  0.833893  0.112418  1
  O  O56  1  0.990282  0.495141  0.961938  1
  O  O57  1  0.833893  0.667786  0.612418  1
  O  O58  1  0.831658  0.663316  0.315051  1
  O  O59  1  0.504859  0.009718  0.538062  1
  O  O60  1  0.833893  0.166107  0.612418  1
  O  O61  1  0.495141  0.504859  0.461938  1
  O  O62  1  0.166107  0.833893  0.112418  1
  O  O63  1  0.495141  0.990282  0.461938  1
  O  O64  1  0.495141  0.504859  0.038062  1
  O  O65  1  0.495141  0.990282  0.038062  1
  O  O66  1  0.831658  0.663316  0.184949  1
  O  O67  1  0.332214  0.166107  0.612418  1
