# generated using pymatgen
data_Sc6Si7Ni16
_symmetry_space_group_name_H-M   'P 1'
_cell_length_a   8.07865806
_cell_length_b   8.07865806
_cell_length_c   8.07865806
_cell_angle_alpha   59.99999998
_cell_angle_beta   60.00000001
_cell_angle_gamma   60.00000000
_symmetry_Int_Tables_number   1
_chemical_formula_structural   Sc6Si7Ni16
_chemical_formula_sum   'Sc6 Si7 Ni16'
_cell_volume   372.82298667
_cell_formula_units_Z   1
loop_
 _symmetry_equiv_pos_site_id
 _symmetry_equiv_pos_as_xyz
  1  'x, y, z'
loop_
 _atom_site_type_symbol
 _atom_site_label
 _atom_site_symmetry_multiplicity
 _atom_site_fract_x
 _atom_site_fract_y
 _atom_site_fract_z
 _atom_site_occupancy
  Si  Si0  1  0.500000  0.500000  0.500000  1
  Si  Si1  1  0.500000  0.000000  0.000000  1
  Si  Si2  1  0.000000  0.000000  0.500000  1
  Si  Si3  1  0.500000  0.500000  0.000000  1
  Si  Si4  1  0.000000  0.500000  0.500000  1
  Si  Si5  1  0.000000  0.500000  0.000000  1
  Si  Si6  1  0.500000  0.000000  0.500000  1
  Sc  Sc7  1  0.206948  0.793052  0.793052  1
  Sc  Sc8  1  0.206948  0.793052  0.206948  1
  Sc  Sc9  1  0.793052  0.206948  0.793052  1
  Sc  Sc10  1  0.206948  0.206948  0.793052  1
  Sc  Sc11  1  0.793052  0.793052  0.206948  1
  Sc  Sc12  1  0.793052  0.206948  0.206948  1
  Ni  Ni13  1  0.168897  0.168897  0.493310  1
  Ni  Ni14  1  0.831103  0.831103  0.831103  1
  Ni  Ni15  1  0.619120  0.619120  0.142641  1
  Ni  Ni16  1  0.142641  0.619120  0.619120  1
  Ni  Ni17  1  0.619120  0.142641  0.619120  1
  Ni  Ni18  1  0.857359  0.380880  0.380880  1
  Ni  Ni19  1  0.380880  0.857359  0.380880  1
  Ni  Ni20  1  0.380880  0.380880  0.857359  1
  Ni  Ni21  1  0.619120  0.619120  0.619120  1
  Ni  Ni22  1  0.168897  0.493310  0.168897  1
  Ni  Ni23  1  0.493310  0.168897  0.168897  1
  Ni  Ni24  1  0.831103  0.506690  0.831103  1
  Ni  Ni25  1  0.506690  0.831103  0.831103  1
  Ni  Ni26  1  0.831103  0.831103  0.506690  1
  Ni  Ni27  1  0.168897  0.168897  0.168897  1
  Ni  Ni28  1  0.380880  0.380880  0.380880  1
