# generated using pymatgen
data_Ce3Si2S8I
_symmetry_space_group_name_H-M   'P 1'
_cell_length_a   7.89006672
_cell_length_b   8.95993037
_cell_length_c   10.91205916
_cell_angle_alpha   97.09863383
_cell_angle_beta   90.00000000
_cell_angle_gamma   116.12285308
_symmetry_Int_Tables_number   1
_chemical_formula_structural   Ce3Si2S8I
_chemical_formula_sum   'Ce6 Si4 S16 I2'
_cell_volume   686.03092233
_cell_formula_units_Z   2
loop_
 _symmetry_equiv_pos_site_id
 _symmetry_equiv_pos_as_xyz
  1  'x, y, z'
loop_
 _atom_site_type_symbol
 _atom_site_label
 _atom_site_symmetry_multiplicity
 _atom_site_fract_x
 _atom_site_fract_y
 _atom_site_fract_z
 _atom_site_occupancy
  Ce  Ce0  1  0.678974  0.602090  0.819020  1
  Ce  Ce1  1  0.404647  0.000000  0.750000  1
  Ce  Ce2  1  0.321026  0.397910  0.180980  1
  Ce  Ce3  1  0.076884  0.397910  0.680980  1
  Ce  Ce4  1  0.595353  0.000000  0.250000  1
  Ce  Ce5  1  0.923116  0.602090  0.319020  1
  Si  Si6  1  0.303325  0.680297  0.970189  1
  Si  Si7  1  0.376972  0.680297  0.470189  1
  Si  Si8  1  0.623028  0.319703  0.529811  1
  Si  Si9  1  0.696675  0.319703  0.029811  1
  S  S10  1  0.888988  0.289206  0.148091  1
  S  S11  1  0.550185  0.299973  0.338917  1
  S  S12  1  0.449815  0.700027  0.661084  1
  S  S13  1  0.149610  0.436737  0.414120  1
  S  S14  1  0.414771  0.137372  0.043435  1
  S  S15  1  0.850390  0.563263  0.585880  1
  S  S16  1  0.749788  0.299973  0.838916  1
  S  S17  1  0.722601  0.137372  0.543435  1
  S  S18  1  0.287127  0.436737  0.914120  1
  S  S19  1  0.599782  0.710794  0.351909  1
  S  S20  1  0.111012  0.710794  0.851909  1
  S  S21  1  0.250212  0.700027  0.161083  1
  S  S22  1  0.585229  0.862628  0.956565  1
  S  S23  1  0.400218  0.289206  0.648091  1
  S  S24  1  0.277399  0.862628  0.456565  1
  S  S25  1  0.712873  0.563263  0.085880  1
  I  I26  1  0.986318  0.000000  0.750000  1
  I  I27  1  0.013682  0.000000  0.250000  1
