# generated using pymatgen
data_Na2ZrSiO5
_symmetry_space_group_name_H-M   'P 1'
_cell_length_a   5.53856480
_cell_length_b   13.85916342
_cell_length_c   14.08959692
_cell_angle_alpha   119.73201624
_cell_angle_beta   90.00000000
_cell_angle_gamma   90.00000000
_symmetry_Int_Tables_number   1
_chemical_formula_structural   Na2ZrSiO5
_chemical_formula_sum   'Na16 Zr8 Si8 O40'
_cell_volume   939.13904304
_cell_formula_units_Z   8
loop_
 _symmetry_equiv_pos_site_id
 _symmetry_equiv_pos_as_xyz
  1  'x, y, z'
loop_
 _atom_site_type_symbol
 _atom_site_label
 _atom_site_symmetry_multiplicity
 _atom_site_fract_x
 _atom_site_fract_y
 _atom_site_fract_z
 _atom_site_occupancy
  Na  Na0  1  0.265406  0.069611  0.922987  1
  Na  Na1  1  0.262749  0.852737  0.181393  1
  Na  Na2  1  0.237251  0.352737  0.181393  1
  Na  Na3  1  0.765936  0.646731  0.578401  1
  Na  Na4  1  0.762749  0.647263  0.818607  1
  Na  Na5  1  0.242113  0.329635  0.681900  1
  Na  Na6  1  0.257887  0.829635  0.681900  1
  Na  Na7  1  0.234594  0.569611  0.922987  1
  Na  Na8  1  0.734064  0.146731  0.578401  1
  Na  Na9  1  0.234064  0.353269  0.421599  1
  Na  Na10  1  0.742113  0.170365  0.318100  1
  Na  Na11  1  0.734594  0.930389  0.077013  1
  Na  Na12  1  0.265936  0.853269  0.421599  1
  Na  Na13  1  0.737251  0.147263  0.818607  1
  Na  Na14  1  0.765406  0.430389  0.077013  1
  Na  Na15  1  0.757887  0.670365  0.318100  1
  Zr  Zr16  1  0.263506  0.807212  0.934825  1
  Zr  Zr17  1  0.736494  0.192788  0.065175  1
  Zr  Zr18  1  0.739219  0.872013  0.564952  1
  Zr  Zr19  1  0.239219  0.627987  0.435048  1
  Zr  Zr20  1  0.236494  0.307212  0.934825  1
  Zr  Zr21  1  0.260781  0.127987  0.435048  1
  Zr  Zr22  1  0.760781  0.372013  0.564952  1
  Zr  Zr23  1  0.763506  0.692788  0.065175  1
  Si  Si24  1  0.278701  0.592032  0.159076  1
  Si  Si25  1  0.224550  0.067935  0.659348  1
  Si  Si26  1  0.724550  0.432065  0.340652  1
  Si  Si27  1  0.721299  0.407968  0.840924  1
  Si  Si28  1  0.275450  0.567935  0.659348  1
  Si  Si29  1  0.775450  0.932065  0.340652  1
  Si  Si30  1  0.778701  0.907968  0.840924  1
  Si  Si31  1  0.221299  0.092032  0.159076  1
  O  O32  1  0.749702  0.359931  0.708785  1
  O  O33  1  0.750298  0.859931  0.708785  1
  O  O34  1  0.564217  0.530923  0.641219  1
  O  O35  1  0.711128  0.869037  0.410643  1
  O  O36  1  0.400618  0.163615  0.124374  1
  O  O37  1  0.199559  0.460023  0.089181  1
  O  O38  1  0.788872  0.369037  0.410643  1
  O  O39  1  0.288872  0.130963  0.589357  1
  O  O40  1  0.597441  0.039847  0.381653  1
  O  O41  1  0.900618  0.336385  0.875626  1
  O  O42  1  0.599382  0.836385  0.875626  1
  O  O43  1  0.973246  0.767737  0.997526  1
  O  O44  1  0.250298  0.640069  0.291215  1
  O  O45  1  0.300441  0.960023  0.089181  1
  O  O46  1  0.566517  0.605572  0.134904  1
  O  O47  1  0.026754  0.232263  0.002474  1
  O  O48  1  0.099382  0.663615  0.124374  1
  O  O49  1  0.433483  0.394428  0.865096  1
  O  O50  1  0.526754  0.267737  0.997526  1
  O  O51  1  0.965669  0.227670  0.492950  1
  O  O52  1  0.211128  0.630963  0.589357  1
  O  O53  1  0.249702  0.140069  0.291215  1
  O  O54  1  0.435783  0.469077  0.358781  1
  O  O55  1  0.402559  0.960153  0.618347  1
  O  O56  1  0.034331  0.772330  0.507050  1
  O  O57  1  0.800441  0.539977  0.910819  1
  O  O58  1  0.097441  0.460153  0.618347  1
  O  O59  1  0.223121  0.651676  0.790414  1
  O  O60  1  0.699559  0.039977  0.910819  1
  O  O61  1  0.066517  0.894428  0.865096  1
  O  O62  1  0.534331  0.727670  0.492950  1
  O  O63  1  0.902559  0.539847  0.381653  1
  O  O64  1  0.465669  0.272330  0.507050  1
  O  O65  1  0.064217  0.969077  0.358781  1
  O  O66  1  0.776879  0.348324  0.209586  1
  O  O67  1  0.935783  0.030923  0.641219  1
  O  O68  1  0.473246  0.732263  0.002474  1
  O  O69  1  0.723121  0.848324  0.209586  1
  O  O70  1  0.933483  0.105572  0.134904  1
  O  O71  1  0.276879  0.151676  0.790414  1
