# generated using pymatgen
data_K3Na2InO4
_symmetry_space_group_name_H-M   'P 1'
_cell_length_a   7.35206390
_cell_length_b   9.81555613
_cell_length_c   10.27983824
_cell_angle_alpha   90.00000000
_cell_angle_beta   90.84645181
_cell_angle_gamma   90.00000000
_symmetry_Int_Tables_number   1
_chemical_formula_structural   K3Na2InO4
_chemical_formula_sum   'K12 Na8 In4 O16'
_cell_volume   741.75941924
_cell_formula_units_Z   4
loop_
 _symmetry_equiv_pos_site_id
 _symmetry_equiv_pos_as_xyz
  1  'x, y, z'
loop_
 _atom_site_type_symbol
 _atom_site_label
 _atom_site_symmetry_multiplicity
 _atom_site_fract_x
 _atom_site_fract_y
 _atom_site_fract_z
 _atom_site_occupancy
  K  K0  1  0.736356  0.993045  0.518036  1
  K  K1  1  0.326755  0.662158  0.397701  1
  K  K2  1  0.896299  0.254728  0.337552  1
  K  K3  1  0.173245  0.162158  0.102299  1
  K  K4  1  0.673245  0.337842  0.602299  1
  K  K5  1  0.236356  0.506955  0.018036  1
  K  K6  1  0.826755  0.837842  0.897701  1
  K  K7  1  0.263644  0.006955  0.481964  1
  K  K8  1  0.763644  0.493045  0.981964  1
  K  K9  1  0.603701  0.754728  0.162448  1
  K  K10  1  0.103701  0.745272  0.662448  1
  K  K11  1  0.396299  0.245272  0.837552  1
  Na  Na12  1  0.244154  0.834678  0.992458  1
  Na  Na13  1  0.540376  0.067614  0.225226  1
  Na  Na14  1  0.459624  0.932386  0.774774  1
  Na  Na15  1  0.040376  0.432386  0.725226  1
  Na  Na16  1  0.959624  0.567614  0.274774  1
  Na  Na17  1  0.744154  0.665322  0.492458  1
  Na  Na18  1  0.755846  0.165322  0.007542  1
  Na  Na19  1  0.255846  0.334678  0.507542  1
  In  In20  1  0.476148  0.366460  0.270857  1
  In  In21  1  0.976148  0.133540  0.770857  1
  In  In22  1  0.523852  0.633540  0.729143  1
  In  In23  1  0.023852  0.866460  0.229143  1
  O  O24  1  0.342518  0.475652  0.682365  1
  O  O25  1  0.301352  0.918164  0.209892  1
  O  O26  1  0.987041  0.705539  0.091778  1
  O  O27  1  0.842518  0.024348  0.182365  1
  O  O28  1  0.486872  0.712640  0.917210  1
  O  O29  1  0.013128  0.212640  0.582790  1
  O  O30  1  0.487041  0.794461  0.591778  1
  O  O31  1  0.512959  0.205539  0.408222  1
  O  O32  1  0.157482  0.975652  0.817635  1
  O  O33  1  0.198648  0.418164  0.290108  1
  O  O34  1  0.657482  0.524348  0.317635  1
  O  O35  1  0.801352  0.581836  0.709892  1
  O  O36  1  0.698648  0.081836  0.790108  1
  O  O37  1  0.986872  0.787360  0.417210  1
  O  O38  1  0.513128  0.287360  0.082790  1
  O  O39  1  0.012959  0.294461  0.908222  1
