# generated using pymatgen
data_Yb14MnSb11
_symmetry_space_group_name_H-M   'P 1'
_cell_length_a   16.14745604
_cell_length_b   16.14745680
_cell_length_c   16.14745594
_cell_angle_alpha   94.24658479
_cell_angle_beta   117.57927651
_cell_angle_gamma   117.57927686
_symmetry_Int_Tables_number   1
_chemical_formula_structural   Yb14MnSb11
_chemical_formula_sum   'Yb56 Mn4 Sb44'
_cell_volume   3076.91472666
_cell_formula_units_Z   4
loop_
 _symmetry_equiv_pos_site_id
 _symmetry_equiv_pos_as_xyz
  1  'x, y, z'
loop_
 _atom_site_type_symbol
 _atom_site_label
 _atom_site_symmetry_multiplicity
 _atom_site_fract_x
 _atom_site_fract_y
 _atom_site_fract_z
 _atom_site_occupancy
  Yb  Yb0  1  0.644170  0.394170  0.250000  1
  Yb  Yb1  1  0.729517  0.566734  0.477209  1
  Yb  Yb2  1  0.770483  0.022791  0.933266  1
  Yb  Yb3  1  0.144170  0.750000  0.894170  1
  Yb  Yb4  1  0.383235  0.598193  0.129137  1
  Yb  Yb5  1  0.089525  0.066734  0.337217  1
  Yb  Yb6  1  0.853983  0.980134  0.377657  1
  Yb  Yb7  1  0.229517  0.752308  0.162783  1
  Yb  Yb8  1  0.897523  0.873848  0.019866  1
  Yb  Yb9  1  0.397523  0.519866  0.373848  1
  Yb  Yb10  1  0.602477  0.622343  0.976325  1
  Yb  Yb11  1  0.270483  0.337217  0.747692  1
  Yb  Yb12  1  0.383235  0.285042  0.254097  1
  Yb  Yb13  1  0.270483  0.433266  0.522791  1
  Yb  Yb14  1  0.102477  0.476325  0.122343  1
  Yb  Yb15  1  0.855830  0.250000  0.105830  1
  Yb  Yb16  1  0.910475  0.933266  0.662783  1
  Yb  Yb17  1  0.410475  0.747692  0.977209  1
  Yb  Yb18  1  0.355830  0.250000  0.605830  1
  Yb  Yb19  1  0.089525  0.522791  0.752308  1
  Yb  Yb20  1  0.897523  0.523675  0.877657  1
  Yb  Yb21  1  0.030945  0.745903  0.629137  1
  Yb  Yb22  1  0.146017  0.019866  0.622343  1
  Yb  Yb23  1  0.646017  0.023675  0.126152  1
  Yb  Yb24  1  0.144170  0.894170  0.250000  1
  Yb  Yb25  1  0.589525  0.252308  0.022791  1
  Yb  Yb26  1  0.883235  0.629137  0.098193  1
  Yb  Yb27  1  0.770483  0.247692  0.837217  1
  Yb  Yb28  1  0.410475  0.162783  0.433266  1
  Yb  Yb29  1  0.397523  0.377657  0.023675  1
  Yb  Yb30  1  0.030945  0.785042  0.401807  1
  Yb  Yb31  1  0.146017  0.626152  0.523675  1
  Yb  Yb32  1  0.589525  0.837217  0.566734  1
  Yb  Yb33  1  0.853983  0.373848  0.476325  1
  Yb  Yb34  1  0.644170  0.750000  0.394170  1
  Yb  Yb35  1  0.602477  0.480134  0.626152  1
  Yb  Yb36  1  0.530945  0.901807  0.285042  1
  Yb  Yb37  1  0.855830  0.105830  0.750000  1
  Yb  Yb38  1  0.102477  0.126152  0.980134  1
  Yb  Yb39  1  0.116765  0.245903  0.214958  1
  Yb  Yb40  1  0.969055  0.254097  0.370863  1
  Yb  Yb41  1  0.729517  0.662783  0.252308  1
  Yb  Yb42  1  0.910475  0.477209  0.247692  1
  Yb  Yb43  1  0.530945  0.129137  0.245903  1
  Yb  Yb44  1  0.353983  0.976325  0.873848  1
  Yb  Yb45  1  0.969055  0.214958  0.598193  1
  Yb  Yb46  1  0.229517  0.977209  0.066734  1
  Yb  Yb47  1  0.469055  0.870863  0.754097  1
  Yb  Yb48  1  0.616765  0.714958  0.745903  1
  Yb  Yb49  1  0.616765  0.401807  0.870863  1
  Yb  Yb50  1  0.469055  0.098193  0.714958  1
  Yb  Yb51  1  0.355830  0.605830  0.750000  1
  Yb  Yb52  1  0.646017  0.122343  0.519866  1
  Yb  Yb53  1  0.353983  0.877657  0.480134  1
  Yb  Yb54  1  0.883235  0.754097  0.785042  1
  Yb  Yb55  1  0.116765  0.370863  0.901807  1
  Mn  Mn56  1  0.750000  0.875000  0.125000  1
  Mn  Mn57  1  0.250000  0.125000  0.875000  1
  Mn  Mn58  1  0.750000  0.375000  0.625000  1
  Mn  Mn59  1  0.250000  0.625000  0.375000  1
  Sb  Sb60  1  0.884591  0.307814  0.701634  1
  Sb  Sb61  1  0.106181  0.423223  0.307814  1
  Sb  Sb62  1  0.606181  0.807814  0.923223  1
  Sb  Sb63  1  0.520901  0.510450  0.260450  1
  Sb  Sb64  1  0.343414  0.322506  0.427127  1
  Sb  Sb65  1  0.750000  0.989550  0.510450  1
  Sb  Sb66  1  0.250000  0.010450  0.489550  1
  Sb  Sb67  1  0.604622  0.083713  0.927127  1
  Sb  Sb68  1  0.656586  0.479092  0.083713  1
  Sb  Sb69  1  0.384591  0.682958  0.576777  1
  Sb  Sb70  1  0.606181  0.298366  0.682958  1
  Sb  Sb71  1  0.104622  0.427127  0.583713  1
  Sb  Sb72  1  0.479099  0.489550  0.739550  1
  Sb  Sb73  1  0.884591  0.076777  0.182958  1
  Sb  Sb74  1  0.893819  0.817042  0.201634  1
  Sb  Sb75  1  0.843414  0.927127  0.822506  1
  Sb  Sb76  1  0.395378  0.916287  0.072873  1
  Sb  Sb77  1  0.250000  0.875000  0.625000  1
  Sb  Sb78  1  0.395378  0.979092  0.322506  1
  Sb  Sb79  1  0.604622  0.020908  0.677494  1
  Sb  Sb80  1  0.106181  0.182958  0.798366  1
  Sb  Sb81  1  0.115409  0.923223  0.817042  1
  Sb  Sb82  1  0.384591  0.201634  0.807814  1
  Sb  Sb83  1  0.615409  0.317042  0.423223  1
  Sb  Sb84  1  0.393819  0.701634  0.317042  1
  Sb  Sb85  1  0.615409  0.798366  0.192186  1
  Sb  Sb86  1  0.250000  0.739550  0.760450  1
  Sb  Sb87  1  0.750000  0.625000  0.875000  1
  Sb  Sb88  1  0.656586  0.677494  0.572873  1
  Sb  Sb89  1  0.750000  0.125000  0.375000  1
  Sb  Sb90  1  0.893819  0.576777  0.692186  1
  Sb  Sb91  1  0.750000  0.260450  0.239550  1
  Sb  Sb92  1  0.895378  0.822506  0.479092  1
  Sb  Sb93  1  0.156586  0.072873  0.177494  1
  Sb  Sb94  1  0.393819  0.192186  0.076777  1
  Sb  Sb95  1  0.104622  0.177494  0.520908  1
  Sb  Sb96  1  0.156586  0.583713  0.979092  1
  Sb  Sb97  1  0.843414  0.416287  0.020908  1
  Sb  Sb98  1  0.895378  0.572873  0.416287  1
  Sb  Sb99  1  0.250000  0.375000  0.125000  1
  Sb  Sb100  1  0.115409  0.692186  0.298366  1
  Sb  Sb101  1  0.020901  0.760450  0.010450  1
  Sb  Sb102  1  0.979099  0.239550  0.989550  1
  Sb  Sb103  1  0.343414  0.520908  0.916287  1
