# generated using pymatgen
data_CaB3H5O8
_symmetry_space_group_name_H-M   'P 1'
_cell_length_a   6.14122303
_cell_length_b   8.82133484
_cell_length_c   11.31061224
_cell_angle_alpha   90.00000000
_cell_angle_beta   90.00000000
_cell_angle_gamma   110.12245418
_symmetry_Int_Tables_number   1
_chemical_formula_structural   CaB3H5O8
_chemical_formula_sum   'Ca4 B12 H20 O32'
_cell_volume   575.33679726
_cell_formula_units_Z   4
loop_
 _symmetry_equiv_pos_site_id
 _symmetry_equiv_pos_as_xyz
  1  'x, y, z'
loop_
 _atom_site_type_symbol
 _atom_site_label
 _atom_site_symmetry_multiplicity
 _atom_site_fract_x
 _atom_site_fract_y
 _atom_site_fract_z
 _atom_site_occupancy
  Ca  Ca0  1  0.259492  0.113638  0.705803  1
  Ca  Ca1  1  0.742989  0.384040  0.287772  1
  Ca  Ca2  1  0.257011  0.615960  0.787772  1
  Ca  Ca3  1  0.740508  0.886362  0.205803  1
  B  B4  1  0.165921  0.287595  0.171855  1
  B  B5  1  0.316225  0.582928  0.214867  1
  B  B6  1  0.683775  0.417072  0.714867  1
  B  B7  1  0.835459  0.211991  0.831345  1
  B  B8  1  0.834079  0.712405  0.671855  1
  B  B9  1  0.496847  0.470769  0.050236  1
  B  B10  1  0.503153  0.529231  0.550236  1
  B  B11  1  0.501356  0.030804  0.951007  1
  B  B12  1  0.686432  0.915607  0.793665  1
  B  B13  1  0.164541  0.788009  0.331345  1
  B  B14  1  0.498644  0.969196  0.451007  1
  B  B15  1  0.313568  0.084393  0.293665  1
  H  H16  1  0.866214  0.171479  0.081376  1
  H  H17  1  0.042615  0.957197  0.982021  1
  H  H18  1  0.674765  0.073074  0.602297  1
  H  H19  1  0.960127  0.543748  0.021899  1
  H  H20  1  0.300437  0.673076  0.524103  1
  H  H21  1  0.137420  0.330567  0.917568  1
  H  H22  1  0.133786  0.828521  0.581376  1
  H  H23  1  0.862580  0.669433  0.417568  1
  H  H24  1  0.304245  0.177431  0.973218  1
  H  H25  1  0.020610  0.224119  0.508968  1
  H  H26  1  0.232056  0.654418  0.029544  1
  H  H27  1  0.695755  0.822569  0.473218  1
  H  H28  1  0.039873  0.456252  0.521899  1
  H  H29  1  0.767944  0.345582  0.529544  1
  H  H30  1  0.325235  0.926926  0.102297  1
  H  H31  1  0.957385  0.042803  0.482021  1
  H  H32  1  0.344418  0.381409  0.411153  1
  H  H33  1  0.979390  0.775881  0.008968  1
  H  H34  1  0.655582  0.618591  0.911153  1
  H  H35  1  0.699563  0.326924  0.024103  1
  O  O36  1  0.301704  0.084142  0.922545  1
  O  O37  1  0.930331  0.668449  0.337889  1
  O  O38  1  0.142645  0.436841  0.231761  1
  O  O39  1  0.277287  0.334241  0.056130  1
  O  O40  1  0.705045  0.422494  0.073800  1
  O  O41  1  0.495255  0.460184  0.431041  1
  O  O42  1  0.294955  0.577506  0.573800  1
  O  O43  1  0.273852  0.833827  0.447300  1
  O  O44  1  0.919468  0.866132  0.021249  1
  O  O45  1  0.080532  0.133868  0.521249  1
  O  O46  1  0.069669  0.331551  0.837889  1
  O  O47  1  0.517384  0.038359  0.570955  1
  O  O48  1  0.142899  0.937662  0.272137  1
  O  O49  1  0.908771  0.368021  0.482158  1
  O  O50  1  0.683962  0.270786  0.755077  1
  O  O51  1  0.930574  0.170600  0.162420  1
  O  O52  1  0.069426  0.829400  0.662420  1
  O  O53  1  0.091229  0.631979  0.982158  1
  O  O54  1  0.316038  0.729214  0.255077  1
  O  O55  1  0.492950  0.406507  0.644401  1
  O  O56  1  0.698296  0.915858  0.422545  1
  O  O57  1  0.722713  0.665759  0.556130  1
  O  O58  1  0.504745  0.539816  0.931041  1
  O  O59  1  0.507050  0.593493  0.144401  1
  O  O60  1  0.684184  0.769865  0.749344  1
  O  O61  1  0.491503  0.906344  0.858897  1
  O  O62  1  0.726148  0.166173  0.947300  1
  O  O63  1  0.482616  0.961641  0.070955  1
  O  O64  1  0.857355  0.563159  0.731761  1
  O  O65  1  0.315816  0.230135  0.249344  1
  O  O66  1  0.508497  0.093656  0.358897  1
  O  O67  1  0.857101  0.062338  0.772137  1
