# generated using pymatgen
data_FeMoO4
_symmetry_space_group_name_H-M   'P 1'
_cell_length_a   7.09673593
_cell_length_b   7.09673556
_cell_length_c   7.22513064
_cell_angle_alpha   78.06424282
_cell_angle_beta   78.06424343
_cell_angle_gamma   84.35593135
_symmetry_Int_Tables_number   1
_chemical_formula_structural   FeMoO4
_chemical_formula_sum   'Fe4 Mo4 O16'
_cell_volume   347.73226204
_cell_formula_units_Z   4
loop_
 _symmetry_equiv_pos_site_id
 _symmetry_equiv_pos_as_xyz
  1  'x, y, z'
loop_
 _atom_site_type_symbol
 _atom_site_label
 _atom_site_symmetry_multiplicity
 _atom_site_fract_x
 _atom_site_fract_y
 _atom_site_fract_z
 _atom_site_occupancy
  Fe  Fe0  1  0.180966  0.819034  0.500000  1
  Fe  Fe1  1  0.819034  0.180966  0.500000  1
  Fe  Fe2  1  0.796645  0.796645  0.858384  1
  Fe  Fe3  1  0.203355  0.203355  0.141616  1
  Mo  Mo4  1  0.249918  0.750082  0.000000  1
  Mo  Mo5  1  0.750082  0.249918  1.000000  1
  Mo  Mo6  1  0.269078  0.269078  0.596640  1
  Mo  Mo7  1  0.730922  0.730922  0.403360  1
  O  O8  1  0.860241  0.860241  0.537523  1
  O  O9  1  0.139759  0.139759  0.462477  1
  O  O10  1  0.199318  0.199318  0.852241  1
  O  O11  1  0.800682  0.800682  0.147759  1
  O  O12  1  0.494954  0.782874  0.893052  1
  O  O13  1  0.217126  0.505046  0.106948  1
  O  O14  1  0.505046  0.217126  0.106948  1
  O  O15  1  0.782874  0.494954  0.893052  1
  O  O16  1  0.803445  0.109667  0.805552  1
  O  O17  1  0.890333  0.196555  0.194448  1
  O  O18  1  0.196555  0.890333  0.194448  1
  O  O19  1  0.109667  0.803445  0.805552  1
  O  O20  1  0.519038  0.211456  0.531096  1
  O  O21  1  0.788544  0.480962  0.468904  1
  O  O22  1  0.480962  0.788544  0.468904  1
  O  O23  1  0.211456  0.519038  0.531096  1
