# generated using pymatgen
data_Hg3C2(N2Cl)2
_symmetry_space_group_name_H-M   'P 1'
_cell_length_a   7.35545043
_cell_length_b   10.66005406
_cell_length_c   11.03153432
_cell_angle_alpha   90.00000000
_cell_angle_beta   90.00000000
_cell_angle_gamma   90.00000000
_symmetry_Int_Tables_number   1
_chemical_formula_structural   Hg3C2(N2Cl)2
_chemical_formula_sum   'Hg12 C8 N16 Cl8'
_cell_volume   864.97708165
_cell_formula_units_Z   4
loop_
 _symmetry_equiv_pos_site_id
 _symmetry_equiv_pos_as_xyz
  1  'x, y, z'
loop_
 _atom_site_type_symbol
 _atom_site_label
 _atom_site_symmetry_multiplicity
 _atom_site_fract_x
 _atom_site_fract_y
 _atom_site_fract_z
 _atom_site_occupancy
  Hg  Hg0  1  0.726714  0.858903  0.793292  1
  Hg  Hg1  1  0.289383  0.043324  0.912772  1
  Hg  Hg2  1  0.773286  0.358903  0.793292  1
  Hg  Hg3  1  0.504998  0.998525  0.446587  1
  Hg  Hg4  1  0.995002  0.498525  0.446587  1
  Hg  Hg5  1  0.004998  0.998525  0.553413  1
  Hg  Hg6  1  0.495002  0.498525  0.553413  1
  Hg  Hg7  1  0.789383  0.043324  0.087228  1
  Hg  Hg8  1  0.710617  0.543324  0.087228  1
  Hg  Hg9  1  0.210617  0.543324  0.912772  1
  Hg  Hg10  1  0.226714  0.858903  0.206708  1
  Hg  Hg11  1  0.273286  0.358903  0.206708  1
  C  C12  1  0.889392  0.298305  0.041605  1
  C  C13  1  0.649675  0.238969  0.558652  1
  C  C14  1  0.110608  0.798305  0.958395  1
  C  C15  1  0.389392  0.298305  0.958395  1
  C  C16  1  0.350325  0.738969  0.441348  1
  C  C17  1  0.610608  0.798305  0.041605  1
  C  C18  1  0.149675  0.238969  0.441348  1
  C  C19  1  0.850325  0.738969  0.558652  1
  N  N20  1  0.642543  0.340359  0.616663  1
  N  N21  1  0.451418  0.209637  0.902954  1
  N  N22  1  0.175706  0.143929  0.498647  1
  N  N23  1  0.951418  0.209637  0.097046  1
  N  N24  1  0.838593  0.393696  0.983766  1
  N  N25  1  0.357457  0.840359  0.383337  1
  N  N26  1  0.338593  0.393696  0.016234  1
  N  N27  1  0.548582  0.709637  0.097046  1
  N  N28  1  0.857457  0.840359  0.616663  1
  N  N29  1  0.661407  0.893696  0.983766  1
  N  N30  1  0.324294  0.643929  0.498647  1
  N  N31  1  0.048582  0.709637  0.902954  1
  N  N32  1  0.824294  0.643929  0.501353  1
  N  N33  1  0.675706  0.143929  0.501353  1
  N  N34  1  0.142543  0.340359  0.383337  1
  N  N35  1  0.161407  0.893696  0.016234  1
  Cl  Cl36  1  0.119910  0.422529  0.704046  1
  Cl  Cl37  1  0.880090  0.922529  0.295954  1
  Cl  Cl38  1  0.430426  0.097714  0.202496  1
  Cl  Cl39  1  0.619910  0.422529  0.295954  1
  Cl  Cl40  1  0.930426  0.097714  0.797504  1
  Cl  Cl41  1  0.380090  0.922529  0.704046  1
  Cl  Cl42  1  0.569574  0.597714  0.797504  1
  Cl  Cl43  1  0.069574  0.597714  0.202496  1
