# generated using pymatgen
data_Cs(TeO3)2
_symmetry_space_group_name_H-M   'P 1'
_cell_length_a   7.50973457
_cell_length_b   7.50973473
_cell_length_c   7.50973496
_cell_angle_alpha   59.21724340
_cell_angle_beta   59.21724265
_cell_angle_gamma   59.21724014
_symmetry_Int_Tables_number   1
_chemical_formula_structural   Cs(TeO3)2
_chemical_formula_sum   'Cs2 Te4 O12'
_cell_volume   294.13348227
_cell_formula_units_Z   2
loop_
 _symmetry_equiv_pos_site_id
 _symmetry_equiv_pos_as_xyz
  1  'x, y, z'
loop_
 _atom_site_type_symbol
 _atom_site_label
 _atom_site_symmetry_multiplicity
 _atom_site_fract_x
 _atom_site_fract_y
 _atom_site_fract_z
 _atom_site_occupancy
  Cs  Cs0  1  0.877578  0.877578  0.877578  1
  Cs  Cs1  1  0.122422  0.122422  0.122422  1
  Te  Te2  1  0.500000  0.000000  0.500000  1
  Te  Te3  1  0.500000  0.500000  0.000000  1
  Te  Te4  1  0.500000  0.500000  0.500000  1
  Te  Te5  1  0.000000  0.500000  0.500000  1
  O  O6  1  0.575935  0.182922  0.182922  1
  O  O7  1  0.834934  0.428424  0.428424  1
  O  O8  1  0.817078  0.424065  0.817078  1
  O  O9  1  0.182922  0.575935  0.182922  1
  O  O10  1  0.428424  0.428424  0.834934  1
  O  O11  1  0.424065  0.817078  0.817078  1
  O  O12  1  0.428424  0.834934  0.428424  1
  O  O13  1  0.571576  0.165066  0.571576  1
  O  O14  1  0.817078  0.817078  0.424065  1
  O  O15  1  0.571576  0.571576  0.165066  1
  O  O16  1  0.165066  0.571576  0.571576  1
  O  O17  1  0.182922  0.182922  0.575935  1
