# generated using pymatgen
data_Ca3(B3Rh4)2
_symmetry_space_group_name_H-M   'P 1'
_cell_length_a   5.55189440
_cell_length_b   5.63805383
_cell_length_c   9.00537499
_cell_angle_alpha   81.27037819
_cell_angle_beta   72.04593789
_cell_angle_gamma   60.50424808
_symmetry_Int_Tables_number   1
_chemical_formula_structural   Ca3(B3Rh4)2
_chemical_formula_sum   'Ca3 B6 Rh8'
_cell_volume   233.40304556
_cell_formula_units_Z   1
loop_
 _symmetry_equiv_pos_site_id
 _symmetry_equiv_pos_as_xyz
  1  'x, y, z'
loop_
 _atom_site_type_symbol
 _atom_site_label
 _atom_site_symmetry_multiplicity
 _atom_site_fract_x
 _atom_site_fract_y
 _atom_site_fract_z
 _atom_site_occupancy
  Ca  Ca0  1  0.682059  1.000000  0.635881  1
  Ca  Ca1  1  0.317941  0.000000  0.364119  1
  Ca  Ca2  1  0.500000  0.000000  0.000000  1
  B  B3  1  0.331269  0.679710  0.657753  1
  B  B4  1  0.010979  0.320290  0.657753  1
  B  B5  1  0.668731  0.320290  0.342247  1
  B  B6  1  0.989021  0.679710  0.342247  1
  B  B7  1  0.833643  0.332714  0.000000  1
  B  B8  1  0.166357  0.667286  1.000000  1
  Rh  Rh9  1  0.415236  0.500000  0.169528  1
  Rh  Rh10  1  0.086532  1.000000  0.826936  1
  Rh  Rh11  1  0.584764  0.500000  0.830472  1
  Rh  Rh12  1  0.915236  0.500000  0.169528  1
  Rh  Rh13  1  0.084764  0.500000  0.830472  1
  Rh  Rh14  1  0.750000  0.500000  0.500000  1
  Rh  Rh15  1  0.913468  0.000000  0.173064  1
  Rh  Rh16  1  0.250000  0.500000  0.500000  1
