# generated using pymatgen
data_H8C2NCl
_symmetry_space_group_name_H-M   'P 1'
_cell_length_a   4.62436474
_cell_length_b   6.04354277
_cell_length_c   8.37431548
_cell_angle_alpha   90.00000000
_cell_angle_beta   93.73342310
_cell_angle_gamma   90.00000000
_symmetry_Int_Tables_number   1
_chemical_formula_structural   H8C2NCl
_chemical_formula_sum   'H16 C4 N2 Cl2'
_cell_volume   233.54488555
_cell_formula_units_Z   2
loop_
 _symmetry_equiv_pos_site_id
 _symmetry_equiv_pos_as_xyz
  1  'x, y, z'
loop_
 _atom_site_type_symbol
 _atom_site_label
 _atom_site_symmetry_multiplicity
 _atom_site_fract_x
 _atom_site_fract_y
 _atom_site_fract_z
 _atom_site_occupancy
  H  H0  1  0.986763  0.250000  0.026230  1
  H  H1  1  0.013237  0.750000  0.973770  1
  H  H2  1  0.694009  0.602387  0.570360  1
  H  H3  1  0.044193  0.250000  0.533674  1
  H  H4  1  0.955807  0.750000  0.466326  1
  H  H5  1  0.258301  0.107938  0.125449  1
  H  H6  1  0.305990  0.397613  0.429640  1
  H  H7  1  0.175683  0.897602  0.730686  1
  H  H8  1  0.305990  0.102387  0.429640  1
  H  H9  1  0.258301  0.392062  0.125449  1
  H  H10  1  0.824317  0.102398  0.269314  1
  H  H11  1  0.741699  0.607938  0.874551  1
  H  H12  1  0.824317  0.397602  0.269314  1
  H  H13  1  0.175683  0.602398  0.730686  1
  H  H14  1  0.694009  0.897613  0.570360  1
  H  H15  1  0.741699  0.892062  0.874551  1
  C  C16  1  0.832916  0.750000  0.574105  1
  C  C17  1  0.036701  0.750000  0.723834  1
  C  C18  1  0.167084  0.250000  0.425895  1
  C  C19  1  0.963299  0.250000  0.276166  1
  N  N20  1  0.869749  0.750000  0.870958  1
  N  N21  1  0.130251  0.250000  0.129042  1
  Cl  Cl22  1  0.630663  0.250000  0.849903  1
  Cl  Cl23  1  0.369337  0.750000  0.150097  1
