# generated using pymatgen
data_K3(FeSe2)2
_symmetry_space_group_name_H-M   'P 1'
_cell_length_a   7.58327222
_cell_length_b   11.20049968
_cell_length_c   12.28398356
_cell_angle_alpha   90.00000000
_cell_angle_beta   90.00000000
_cell_angle_gamma   90.00000000
_symmetry_Int_Tables_number   1
_chemical_formula_structural   K3(FeSe2)2
_chemical_formula_sum   'K12 Fe8 Se16'
_cell_volume   1043.35780894
_cell_formula_units_Z   4
loop_
 _symmetry_equiv_pos_site_id
 _symmetry_equiv_pos_as_xyz
  1  'x, y, z'
loop_
 _atom_site_type_symbol
 _atom_site_label
 _atom_site_symmetry_multiplicity
 _atom_site_fract_x
 _atom_site_fract_y
 _atom_site_fract_z
 _atom_site_occupancy
  K  K0  1  0.083473  0.250000  0.762730  1
  K  K1  1  0.583473  0.250000  0.737270  1
  K  K2  1  0.916527  0.750000  0.237270  1
  K  K3  1  0.416527  0.750000  0.262730  1
  K  K4  1  0.070421  0.427553  0.137083  1
  K  K5  1  0.570421  0.072447  0.362917  1
  K  K6  1  0.929579  0.927553  0.862917  1
  K  K7  1  0.429579  0.572447  0.637083  1
  K  K8  1  0.929579  0.572447  0.862917  1
  K  K9  1  0.429579  0.927553  0.637083  1
  K  K10  1  0.070421  0.072447  0.137083  1
  K  K11  1  0.570421  0.427553  0.362917  1
  Fe  Fe12  1  0.050674  0.367341  0.470519  1
  Fe  Fe13  1  0.550674  0.132659  0.029481  1
  Fe  Fe14  1  0.949326  0.867341  0.529481  1
  Fe  Fe15  1  0.449326  0.632659  0.970519  1
  Fe  Fe16  1  0.949326  0.632659  0.529481  1
  Fe  Fe17  1  0.449326  0.867341  0.970519  1
  Fe  Fe18  1  0.050674  0.132659  0.470519  1
  Fe  Fe19  1  0.550674  0.367341  0.029481  1
  Se  Se20  1  0.154009  0.554778  0.391526  1
  Se  Se21  1  0.654009  0.945222  0.108474  1
  Se  Se22  1  0.845991  0.054778  0.608474  1
  Se  Se23  1  0.345991  0.445222  0.891526  1
  Se  Se24  1  0.845991  0.445222  0.608474  1
  Se  Se25  1  0.345991  0.054778  0.891526  1
  Se  Se26  1  0.154009  0.945222  0.391526  1
  Se  Se27  1  0.654009  0.554778  0.108474  1
  Se  Se28  1  0.301053  0.250000  0.534074  1
  Se  Se29  1  0.801053  0.250000  0.965926  1
  Se  Se30  1  0.698947  0.750000  0.465926  1
  Se  Se31  1  0.198947  0.750000  0.034074  1
  Se  Se32  1  0.408353  0.250000  0.167165  1
  Se  Se33  1  0.908353  0.250000  0.332835  1
  Se  Se34  1  0.591647  0.750000  0.832835  1
  Se  Se35  1  0.091647  0.750000  0.667165  1
