# generated using pymatgen
data_Rb4Te8O23
_symmetry_space_group_name_H-M   'P 1'
_cell_length_a   7.42777466
_cell_length_b   14.92283560
_cell_length_c   20.29770313
_cell_angle_alpha   90.00000000
_cell_angle_beta   90.00000000
_cell_angle_gamma   90.00000000
_symmetry_Int_Tables_number   1
_chemical_formula_structural   Rb4Te8O23
_chemical_formula_sum   'Rb16 Te32 O92'
_cell_volume   2249.86764752
_cell_formula_units_Z   4
loop_
 _symmetry_equiv_pos_site_id
 _symmetry_equiv_pos_as_xyz
  1  'x, y, z'
loop_
 _atom_site_type_symbol
 _atom_site_label
 _atom_site_symmetry_multiplicity
 _atom_site_fract_x
 _atom_site_fract_y
 _atom_site_fract_z
 _atom_site_occupancy
  Rb  Rb0  1  0.121837  0.250832  0.071555  1
  Rb  Rb1  1  0.621376  0.505772  0.313435  1
  Rb  Rb2  1  0.621837  0.750832  0.428445  1
  Rb  Rb3  1  0.120703  0.502811  0.174771  1
  Rb  Rb4  1  0.121376  0.494228  0.686565  1
  Rb  Rb5  1  0.120703  0.997189  0.674771  1
  Rb  Rb6  1  0.121459  0.757134  0.062850  1
  Rb  Rb7  1  0.621459  0.242866  0.937150  1
  Rb  Rb8  1  0.620703  0.002811  0.325229  1
  Rb  Rb9  1  0.121376  0.005772  0.186565  1
  Rb  Rb10  1  0.121459  0.742866  0.562850  1
  Rb  Rb11  1  0.621837  0.749168  0.928445  1
  Rb  Rb12  1  0.620703  0.497189  0.825229  1
  Rb  Rb13  1  0.121837  0.249168  0.571555  1
  Rb  Rb14  1  0.621459  0.257134  0.437150  1
  Rb  Rb15  1  0.621376  0.994228  0.813435  1
  Te  Te16  1  0.869676  1.000023  0.499921  1
  Te  Te17  1  0.620399  0.381879  0.128421  1
  Te  Te18  1  0.620974  0.123256  0.135473  1
  Te  Te19  1  0.620145  0.628305  0.122566  1
  Te  Te20  1  0.120145  0.128305  0.377434  1
  Te  Te21  1  0.620974  0.376744  0.635473  1
  Te  Te22  1  0.120974  0.623256  0.364527  1
  Te  Te23  1  0.620931  0.872620  0.107879  1
  Te  Te24  1  0.871174  1.000017  1.000064  1
  Te  Te25  1  0.120931  0.372620  0.392121  1
  Te  Te26  1  0.369676  0.500023  0.000079  1
  Te  Te27  1  0.370805  0.761296  0.243898  1
  Te  Te28  1  0.120399  0.618121  0.871579  1
  Te  Te29  1  0.371174  0.500017  0.499936  1
  Te  Te30  1  0.871174  0.499983  0.500064  1
  Te  Te31  1  0.870805  0.238704  0.756101  1
  Te  Te32  1  0.120931  0.127380  0.892121  1
  Te  Te33  1  0.120145  0.371695  0.877434  1
  Te  Te34  1  0.370398  0.260940  0.256193  1
  Te  Te35  1  0.120974  0.876744  0.864527  1
  Te  Te36  1  0.370398  0.239060  0.756193  1
  Te  Te37  1  0.371174  -0.000017  -0.000064  1
  Te  Te38  1  0.120399  0.881879  0.371579  1
  Te  Te39  1  0.870805  0.261296  0.256101  1
  Te  Te40  1  0.870398  0.760940  0.243807  1
  Te  Te41  1  0.870398  0.739060  0.743807  1
  Te  Te42  1  0.620931  0.627380  0.607879  1
  Te  Te43  1  0.869676  0.499977  0.999921  1
  Te  Te44  1  0.369676  -0.000023  0.500079  1
  Te  Te45  1  0.620145  0.871695  0.622566  1
  Te  Te46  1  0.620399  0.118121  0.628421  1
  Te  Te47  1  0.370805  0.738704  0.743899  1
  O  O48  1  0.120727  0.729137  0.217680  1
  O  O49  1  0.932276  0.154771  0.313075  1
  O  O50  1  0.620152  0.747587  0.081058  1
  O  O51  1  0.363121  0.679724  0.316135  1
  O  O52  1  0.808814  0.845472  0.686706  1
  O  O53  1  0.805431  0.135326  0.701330  1
  O  O54  1  0.120727  0.770863  0.717680  1
  O  O55  1  0.305430  0.864674  0.298670  1
  O  O56  1  0.420641  0.048507  0.087045  1
  O  O57  1  0.363121  0.820276  0.816135  1
  O  O58  1  0.120152  0.252413  0.918942  1
  O  O59  1  0.920641  0.548507  0.412955  1
  O  O60  1  0.935583  0.635817  0.798688  1
  O  O61  1  0.310026  0.395780  0.941327  1
  O  O62  1  0.619714  0.508275  0.160962  1
  O  O63  1  0.308814  0.154528  0.313294  1
  O  O64  1  0.888090  0.422689  0.073637  1
  O  O65  1  0.119714  0.491725  0.839038  1
  O  O66  1  0.354795  0.160594  0.830644  1
  O  O67  1  0.121239  0.526053  0.531536  1
  O  O68  1  0.810026  0.895780  0.558673  1
  O  O69  1  0.810026  0.604220  0.058673  1
  O  O70  1  0.821873  0.451321  0.587138  1
  O  O71  1  0.620727  0.229137  0.282320  1
  O  O72  1  0.120242  0.777373  0.919534  1
  O  O73  1  0.351778  0.422595  0.073719  1
  O  O74  1  0.932276  0.345229  0.813075  1
  O  O75  1  0.620152  0.752413  0.581058  1
  O  O76  1  0.620242  0.277373  0.580466  1
  O  O77  1  0.321873  0.548679  0.412862  1
  O  O78  1  0.378245  0.179034  0.184166  1
  O  O79  1  0.308051  0.380481  0.467753  1
  O  O80  1  0.808051  0.880481  0.032247  1
  O  O81  1  0.435583  0.135817  0.701312  1
  O  O82  1  0.386711  0.839808  0.169492  1
  O  O83  1  0.808814  0.654528  0.186706  1
  O  O84  1  0.886711  0.160192  0.830508  1
  O  O85  1  0.432276  0.654771  0.186925  1
  O  O86  1  0.620706  0.708966  0.769083  1
  O  O87  1  0.308814  0.345472  0.813294  1
  O  O88  1  0.308051  0.119519  0.967753  1
  O  O89  1  0.886711  0.339808  0.330508  1
  O  O90  1  0.920641  0.951493  0.912955  1
  O  O91  1  0.929339  0.104211  0.441052  1
  O  O92  1  0.821873  0.048679  0.087138  1
  O  O93  1  0.619714  0.991725  0.660962  1
  O  O94  1  0.621239  0.473947  0.468464  1
  O  O95  1  0.429339  0.604211  0.058948  1
  O  O96  1  0.420641  0.451493  0.587045  1
  O  O97  1  0.378245  0.320966  0.684166  1
  O  O98  1  0.620727  0.270863  0.782320  1
  O  O99  1  0.119741  0.956736  0.511255  1
  O  O100  1  0.621239  0.026053  0.968464  1
  O  O101  1  0.854795  0.660594  0.669356  1
  O  O102  1  0.808051  0.619519  0.532247  1
  O  O103  1  0.619741  0.456736  0.988745  1
  O  O104  1  0.386711  0.660192  0.669492  1
  O  O105  1  0.119741  0.543264  0.011255  1
  O  O106  1  0.434422  0.880479  0.032071  1
  O  O107  1  0.805431  0.364674  0.201330  1
  O  O108  1  0.851778  0.577405  0.926281  1
  O  O109  1  0.878245  0.820966  0.815834  1
  O  O110  1  0.934422  0.119521  0.967929  1
  O  O111  1  0.119714  0.008275  0.339038  1
  O  O112  1  0.351778  0.077405  0.573719  1
  O  O113  1  0.934422  0.380479  0.467929  1
  O  O114  1  0.888090  0.077311  0.573637  1
  O  O115  1  0.429339  0.895789  0.558948  1
  O  O116  1  0.863121  0.179724  0.183865  1
  O  O117  1  0.310026  0.104220  0.441327  1
  O  O118  1  0.388090  0.922689  0.426363  1
  O  O119  1  0.435583  0.364183  0.201312  1
  O  O120  1  0.354795  0.339406  0.330644  1
  O  O121  1  0.120152  0.247587  0.418942  1
  O  O122  1  0.863121  0.320276  0.683865  1
  O  O123  1  0.619741  0.043264  0.488745  1
  O  O124  1  0.854795  0.839406  0.169356  1
  O  O125  1  0.620706  0.791034  0.269083  1
  O  O126  1  0.120706  0.291034  0.230917  1
  O  O127  1  0.620242  0.222627  0.080466  1
  O  O128  1  0.851778  0.922595  0.426281  1
  O  O129  1  0.120706  0.208966  0.730917  1
  O  O130  1  0.388090  0.577311  0.926363  1
  O  O131  1  0.929339  0.395789  0.941052  1
  O  O132  1  0.120242  0.722627  0.419534  1
  O  O133  1  0.321873  0.951321  0.912862  1
  O  O134  1  0.434422  0.619521  0.532071  1
  O  O135  1  0.121239  0.973947  0.031536  1
  O  O136  1  0.305430  0.635326  0.798670  1
  O  O137  1  0.878245  0.679034  0.315834  1
  O  O138  1  0.935583  0.864183  0.298688  1
  O  O139  1  0.432276  0.845229  0.686925  1
