# generated using pymatgen
data_V8O15
_symmetry_space_group_name_H-M   'P 1'
_cell_length_a   5.57418043
_cell_length_b   7.09199966
_cell_length_c   13.45146887
_cell_angle_alpha   100.39162018
_cell_angle_beta   97.34243404
_cell_angle_gamma   108.42982151
_symmetry_Int_Tables_number   1
_chemical_formula_structural   V8O15
_chemical_formula_sum   'V16 O30'
_cell_volume   486.38602577
_cell_formula_units_Z   2
loop_
 _symmetry_equiv_pos_site_id
 _symmetry_equiv_pos_as_xyz
  1  'x, y, z'
loop_
 _atom_site_type_symbol
 _atom_site_label
 _atom_site_symmetry_multiplicity
 _atom_site_fract_x
 _atom_site_fract_y
 _atom_site_fract_z
 _atom_site_occupancy
  V  V0  1  0.873258  0.026464  0.185370  1
  V  V1  1  0.772917  0.271180  0.956456  1
  V  V2  1  0.824204  0.893141  0.561592  1
  V  V3  1  0.825741  0.391482  0.564147  1
  V  V4  1  0.175796  0.106859  0.438408  1
  V  V5  1  0.226466  0.223634  0.045386  1
  V  V6  1  0.530554  0.320255  0.305782  1
  V  V7  1  0.174259  0.608518  0.435853  1
  V  V8  1  0.483116  0.184822  0.691619  1
  V  V9  1  0.136453  0.467754  0.822277  1
  V  V10  1  0.126742  0.973536  0.814630  1
  V  V11  1  0.469446  0.679745  0.694218  1
  V  V12  1  0.227083  0.728820  0.043544  1
  V  V13  1  0.516884  0.815178  0.308381  1
  V  V14  1  0.863547  0.532246  0.177723  1
  V  V15  1  0.773534  0.776366  0.954614  1
  O  O16  1  0.272363  0.876227  0.392280  1
  O  O17  1  0.570033  0.432671  0.654981  1
  O  O18  1  0.928812  0.655845  0.523976  1
  O  O19  1  0.211591  0.675429  0.180654  1
  O  O20  1  0.727637  0.123773  0.607720  1
  O  O21  1  0.812221  0.554777  0.025489  1
  O  O22  1  0.086933  0.738909  0.893409  1
  O  O23  1  0.071188  0.344155  0.476024  1
  O  O24  1  0.762427  0.765660  0.220960  1
  O  O25  1  0.144077  0.147305  0.288124  1
  O  O26  1  0.080429  0.948398  0.081860  1
  O  O27  1  0.538453  0.282423  0.449691  1
  O  O28  1  0.509386  0.356486  0.159171  1
  O  O29  1  0.855923  0.852695  0.711876  1
  O  O30  1  0.189324  0.065545  0.574847  1
  O  O31  1  0.187779  0.445223  0.974511  1
  O  O32  1  0.090729  0.506817  0.683658  1
  O  O33  1  0.788409  0.324571  0.819346  1
  O  O34  1  0.490614  0.643514  0.840829  1
  O  O35  1  0.395327  0.937585  0.739904  1
  O  O36  1  0.557727  0.855130  0.054182  1
  O  O37  1  0.461547  0.717577  0.550309  1
  O  O38  1  0.429967  0.567329  0.345019  1
  O  O39  1  0.913067  0.261091  0.106591  1
  O  O40  1  0.919571  0.051602  0.918140  1
  O  O41  1  0.909271  0.493183  0.316342  1
  O  O42  1  0.237573  0.234340  0.779040  1
  O  O43  1  0.604673  0.062415  0.260096  1
  O  O44  1  0.442273  0.144870  0.945818  1
  O  O45  1  0.810676  0.934455  0.425153  1
