# generated using pymatgen
data_Cd2Fe(CN)6
_symmetry_space_group_name_H-M   'P 1'
_cell_length_a   6.38199625
_cell_length_b   6.38199664
_cell_length_c   6.37754858
_cell_angle_alpha   90.00000000
_cell_angle_beta   90.00000000
_cell_angle_gamma   119.99999803
_symmetry_Int_Tables_number   1
_chemical_formula_structural   Cd2Fe(CN)6
_chemical_formula_sum   'Cd2 Fe1 C6 N6'
_cell_volume   224.95597452
_cell_formula_units_Z   1
loop_
 _symmetry_equiv_pos_site_id
 _symmetry_equiv_pos_as_xyz
  1  'x, y, z'
loop_
 _atom_site_type_symbol
 _atom_site_label
 _atom_site_symmetry_multiplicity
 _atom_site_fract_x
 _atom_site_fract_y
 _atom_site_fract_z
 _atom_site_occupancy
  Cd  Cd0  1  0.333333  0.666667  0.505151  1
  Cd  Cd1  1  0.666667  0.333333  0.494849  1
  Fe  Fe2  1  0.000000  0.000000  0.000000  1
  C  C3  1  0.765844  0.767588  0.176578  1
  C  C4  1  0.001745  0.234156  0.176578  1
  C  C5  1  0.234156  0.232412  0.823422  1
  C  C6  1  0.232412  0.998255  0.176578  1
  C  C7  1  0.998255  0.765844  0.823422  1
  C  C8  1  0.767588  0.001745  0.823422  1
  N  N9  1  0.625485  0.627740  0.298657  1
  N  N10  1  0.002255  0.374515  0.298657  1
  N  N11  1  0.372260  0.997745  0.298657  1
  N  N12  1  0.627740  0.002255  0.701343  1
  N  N13  1  0.997745  0.625485  0.701343  1
  N  N14  1  0.374515  0.372260  0.701343  1
