# generated using pymatgen
data_Nb3Se10Cl3
_symmetry_space_group_name_H-M   'P 1'
_cell_length_a   7.81168148
_cell_length_b   12.51835118
_cell_length_c   19.29286525
_cell_angle_alpha   90.00000000
_cell_angle_beta   90.00000000
_cell_angle_gamma   97.68812809
_symmetry_Int_Tables_number   1
_chemical_formula_structural   Nb3Se10Cl3
_chemical_formula_sum   'Nb12 Se40 Cl12'
_cell_volume   1869.67808634
_cell_formula_units_Z   4
loop_
 _symmetry_equiv_pos_site_id
 _symmetry_equiv_pos_as_xyz
  1  'x, y, z'
loop_
 _atom_site_type_symbol
 _atom_site_label
 _atom_site_symmetry_multiplicity
 _atom_site_fract_x
 _atom_site_fract_y
 _atom_site_fract_z
 _atom_site_occupancy
  Nb  Nb0  1  0.153241  0.157900  0.148799  1
  Nb  Nb1  1  0.754433  0.749319  0.500258  1
  Nb  Nb2  1  0.245567  0.250681  0.499742  1
  Nb  Nb3  1  0.846759  0.842100  0.851201  1
  Nb  Nb4  1  0.153241  0.157900  0.351201  1
  Nb  Nb5  1  0.668140  0.655198  0.351558  1
  Nb  Nb6  1  0.245567  0.250681  0.000258  1
  Nb  Nb7  1  0.846759  0.842100  0.648799  1
  Nb  Nb8  1  0.754433  0.749319  0.999742  1
  Nb  Nb9  1  0.668140  0.655198  0.148442  1
  Nb  Nb10  1  0.331860  0.344802  0.648442  1
  Nb  Nb11  1  0.331860  0.344802  0.851558  1
  Se  Se12  1  0.048601  0.739642  0.925973  1
  Se  Se13  1  0.460012  0.629561  0.462985  1
  Se  Se14  1  0.507068  0.800526  0.087518  1
  Se  Se15  1  0.917845  0.604517  0.428741  1
  Se  Se16  1  0.082155  0.395483  0.571259  1
  Se  Se17  1  0.629889  0.802204  0.250000  1
  Se  Se18  1  0.550965  0.850742  0.914191  1
  Se  Se19  1  0.733293  0.970243  0.750000  1
  Se  Se20  1  0.449035  0.149258  0.085809  1
  Se  Se21  1  0.604768  0.790779  0.750000  1
  Se  Se22  1  0.395232  0.209221  0.250000  1
  Se  Se23  1  0.787205  0.957228  0.535689  1
  Se  Se24  1  0.421038  0.649932  0.250000  1
  Se  Se25  1  0.953378  0.785627  0.111247  1
  Se  Se26  1  0.460012  0.629561  0.037015  1
  Se  Se27  1  0.492932  0.199474  0.912482  1
  Se  Se28  1  0.792094  0.633506  0.886684  1
  Se  Se29  1  0.207906  0.366494  0.386684  1
  Se  Se30  1  0.539988  0.370439  0.962985  1
  Se  Se31  1  0.539988  0.370439  0.537015  1
  Se  Se32  1  0.951399  0.260358  0.425973  1
  Se  Se33  1  0.792094  0.633506  0.613316  1
  Se  Se34  1  0.370111  0.197796  0.750000  1
  Se  Se35  1  0.492932  0.199474  0.587518  1
  Se  Se36  1  0.787205  0.957228  0.964311  1
  Se  Se37  1  0.917845  0.604517  0.071259  1
  Se  Se38  1  0.449035  0.149258  0.414191  1
  Se  Se39  1  0.266707  0.029757  0.250000  1
  Se  Se40  1  0.578962  0.350068  0.750000  1
  Se  Se41  1  0.207906  0.366494  0.113316  1
  Se  Se42  1  0.550965  0.850742  0.585809  1
  Se  Se43  1  0.507068  0.800526  0.412482  1
  Se  Se44  1  0.046622  0.214373  0.611247  1
  Se  Se45  1  0.082155  0.395483  0.928741  1
  Se  Se46  1  0.212795  0.042772  0.464311  1
  Se  Se47  1  0.212795  0.042772  0.035689  1
  Se  Se48  1  0.046622  0.214373  0.888753  1
  Se  Se49  1  0.951399  0.260358  0.074027  1
  Se  Se50  1  0.048601  0.739642  0.574027  1
  Se  Se51  1  0.953378  0.785627  0.388753  1
  Cl  Cl52  1  0.891521  0.015197  0.149568  1
  Cl  Cl53  1  0.583435  0.453439  0.149039  1
  Cl  Cl54  1  0.416565  0.546561  0.649039  1
  Cl  Cl55  1  0.141966  0.397019  0.750000  1
  Cl  Cl56  1  0.891521  0.015197  0.350432  1
  Cl  Cl57  1  0.108479  0.984803  0.649568  1
  Cl  Cl58  1  0.583435  0.453439  0.350961  1
  Cl  Cl59  1  0.108479  0.984803  0.850432  1
  Cl  Cl60  1  0.017943  0.773109  0.750000  1
  Cl  Cl61  1  0.416565  0.546561  0.850961  1
  Cl  Cl62  1  0.982057  0.226891  0.250000  1
  Cl  Cl63  1  0.858034  0.602981  0.250000  1
