# generated using pymatgen
data_Cs2LiCl3
_symmetry_space_group_name_H-M   'P 1'
_cell_length_a   4.27380965
_cell_length_b   7.88965532
_cell_length_c   11.92362500
_cell_angle_alpha   90.00000000
_cell_angle_beta   100.32409623
_cell_angle_gamma   90.00000000
_symmetry_Int_Tables_number   1
_chemical_formula_structural   Cs2LiCl3
_chemical_formula_sum   'Cs4 Li2 Cl6'
_cell_volume   395.54203036
_cell_formula_units_Z   2
loop_
 _symmetry_equiv_pos_site_id
 _symmetry_equiv_pos_as_xyz
  1  'x, y, z'
loop_
 _atom_site_type_symbol
 _atom_site_label
 _atom_site_symmetry_multiplicity
 _atom_site_fract_x
 _atom_site_fract_y
 _atom_site_fract_z
 _atom_site_occupancy
  Cs  Cs0  1  0.002962  0.750000  0.005924  1
  Cs  Cs1  1  0.178196  0.250000  0.356393  1
  Cs  Cs2  1  0.821804  0.750000  0.643607  1
  Cs  Cs3  1  0.997038  0.250000  0.994076  1
  Li  Li4  1  0.647824  0.750000  0.295648  1
  Li  Li5  1  0.352176  0.250000  0.704352  1
  Cl  Cl6  1  0.798058  0.250000  0.596117  1
  Cl  Cl7  1  0.201942  0.750000  0.403883  1
  Cl  Cl8  1  0.588504  0.997814  0.177008  1
  Cl  Cl9  1  0.411496  0.002186  0.822992  1
  Cl  Cl10  1  0.588504  0.502186  0.177008  1
  Cl  Cl11  1  0.411496  0.497814  0.822992  1
