# generated using pymatgen
data_K2U(PSe3)3
_symmetry_space_group_name_H-M   'P 1'
_cell_length_a   10.24464757
_cell_length_b   10.61673570
_cell_length_c   16.78328242
_cell_angle_alpha   90.03854678
_cell_angle_beta   107.29165253
_cell_angle_gamma   91.67715172
_symmetry_Int_Tables_number   1
_chemical_formula_structural   K2U(PSe3)3
_chemical_formula_sum   'K8 U4 P12 Se36'
_cell_volume   1742.09640775
_cell_formula_units_Z   4
loop_
 _symmetry_equiv_pos_site_id
 _symmetry_equiv_pos_as_xyz
  1  'x, y, z'
loop_
 _atom_site_type_symbol
 _atom_site_label
 _atom_site_symmetry_multiplicity
 _atom_site_fract_x
 _atom_site_fract_y
 _atom_site_fract_z
 _atom_site_occupancy
  K  K0  1  0.971450  0.246321  0.466447  1
  K  K1  1  0.247916  0.814070  0.866750  1
  K  K2  1  0.552439  0.760372  0.548587  1
  K  K3  1  0.447561  0.239628  0.451413  1
  K  K4  1  0.704157  0.669447  0.850089  1
  K  K5  1  0.028550  0.753679  0.533553  1
  K  K6  1  0.752084  0.185930  0.133250  1
  K  K7  1  0.295843  0.330553  0.149911  1
  U  U8  1  0.193651  0.277768  0.775699  1
  U  U9  1  0.222530  0.780141  0.168364  1
  U  U10  1  0.777470  0.219859  0.831636  1
  U  U11  1  0.806349  0.722232  0.224301  1
  P  P12  1  0.510190  0.571886  0.053770  1
  P  P13  1  0.463390  0.997540  0.718751  1
  P  P14  1  0.724137  0.932237  0.378484  1
  P  P15  1  0.781620  0.414024  0.650640  1
  P  P16  1  0.218380  0.585976  0.349360  1
  P  P17  1  0.927317  0.924353  0.008627  1
  P  P18  1  0.072683  0.075647  0.991373  1
  P  P19  1  0.489810  0.428114  0.946230  1
  P  P20  1  0.275863  0.067763  0.621516  1
  P  P21  1  0.951383  0.542980  0.726649  1
  P  P22  1  0.536610  0.002460  0.281249  1
  P  P23  1  0.048617  0.457020  0.273351  1
  Se  Se24  1  0.715235  0.467668  0.521268  1
  Se  Se25  1  0.011508  0.743297  0.985936  1
  Se  Se26  1  0.106074  0.770380  0.325547  1
  Se  Se27  1  0.749439  0.017073  0.499388  1
  Se  Se28  1  0.031259  0.070139  0.851513  1
  Se  Se29  1  0.886542  0.496067  0.332663  1
  Se  Se30  1  0.627186  0.414371  0.720037  1
  Se  Se31  1  0.005881  0.438404  0.850651  1
  Se  Se32  1  0.533763  0.875036  0.171970  1
  Se  Se33  1  0.107673  0.262606  0.277587  1
  Se  Se34  1  0.423921  0.796091  0.725108  1
  Se  Se35  1  0.994120  0.561596  0.149349  1
  Se  Se36  1  0.892327  0.737394  0.722413  1
  Se  Se37  1  0.707776  0.379655  0.963071  1
  Se  Se38  1  0.988492  0.256703  0.014064  1
  Se  Se39  1  0.124148  0.020270  0.689689  1
  Se  Se40  1  0.374005  0.509110  0.824154  1
  Se  Se41  1  0.250561  0.982927  0.500612  1
  Se  Se42  1  0.710017  0.723676  0.374016  1
  Se  Se43  1  0.875852  0.979730  0.310311  1
  Se  Se44  1  0.625995  0.490890  0.175846  1
  Se  Se45  1  0.576079  0.203909  0.274892  1
  Se  Se46  1  0.357453  0.270020  0.964608  1
  Se  Se47  1  0.372814  0.585629  0.279963  1
  Se  Se48  1  0.292224  0.620345  0.036929  1
  Se  Se49  1  0.289983  0.276324  0.625984  1
  Se  Se50  1  0.284765  0.532332  0.478732  1
  Se  Se51  1  0.276055  0.008981  0.068109  1
  Se  Se52  1  0.652236  0.054712  0.686885  1
  Se  Se53  1  0.347764  0.945288  0.313115  1
  Se  Se54  1  0.893926  0.229620  0.674453  1
  Se  Se55  1  0.466237  0.124964  0.828030  1
  Se  Se56  1  0.723945  0.991019  0.931891  1
  Se  Se57  1  0.642547  0.729980  0.035392  1
  Se  Se58  1  0.968741  0.929861  0.148487  1
  Se  Se59  1  0.113458  0.503933  0.667337  1
