# generated using pymatgen
data_CdI2
_symmetry_space_group_name_H-M   'P 1'
_cell_length_a   4.33181388
_cell_length_b   4.33181414
_cell_length_c   74.82742339
_cell_angle_alpha   90.00000000
_cell_angle_beta   90.00000000
_cell_angle_gamma   119.99999798
_symmetry_Int_Tables_number   1
_chemical_formula_structural   CdI2
_chemical_formula_sum   'Cd10 I20'
_cell_volume   1215.99288858
_cell_formula_units_Z   10
loop_
 _symmetry_equiv_pos_site_id
 _symmetry_equiv_pos_as_xyz
  1  'x, y, z'
loop_
 _atom_site_type_symbol
 _atom_site_label
 _atom_site_symmetry_multiplicity
 _atom_site_fract_x
 _atom_site_fract_y
 _atom_site_fract_z
 _atom_site_occupancy
  Cd  Cd0  1  0.000000  0.000000  0.924985  1
  Cd  Cd1  1  0.000000  0.000000  0.725022  1
  Cd  Cd2  1  0.000000  0.000000  0.424986  1
  Cd  Cd3  1  0.666667  0.333333  0.024998  1
  Cd  Cd4  1  0.000000  0.000000  0.225022  1
  Cd  Cd5  1  0.000000  0.000000  0.325001  1
  Cd  Cd6  1  0.000000  0.000000  0.524978  1
  Cd  Cd7  1  0.000000  0.000000  0.125004  1
  Cd  Cd8  1  0.000000  0.000000  0.825007  1
  Cd  Cd9  1  0.000000  0.000000  0.625000  1
  I  I10  1  0.333333  0.666667  0.448062  1
  I  I11  1  0.333333  0.666667  0.348069  1
  I  I12  1  0.666667  0.333333  0.101930  1
  I  I13  1  0.666667  0.333333  0.901917  1
  I  I14  1  0.333333  0.666667  0.948060  1
  I  I15  1  0.666667  0.333333  0.701942  1
  I  I16  1  0.666667  0.333333  0.801934  1
  I  I17  1  0.333333  0.666667  0.048069  1
  I  I18  1  0.666667  0.333333  0.601928  1
  I  I19  1  0.000000  0.000000  0.001915  1
  I  I20  1  0.333333  0.666667  0.548060  1
  I  I21  1  0.666667  0.333333  0.301930  1
  I  I22  1  0.333333  0.666667  0.148077  1
  I  I23  1  0.666667  0.333333  0.401917  1
  I  I24  1  0.333333  0.666667  0.248097  1
  I  I25  1  0.666667  0.333333  0.501900  1
  I  I26  1  0.333333  0.666667  0.848075  1
  I  I27  1  0.333333  0.666667  0.648073  1
  I  I28  1  0.666667  0.333333  0.201942  1
  I  I29  1  0.333333  0.666667  0.748098  1
