# generated using pymatgen
data_S4N5Cl
_symmetry_space_group_name_H-M   'P 1'
_cell_length_a   10.65002512
_cell_length_b   12.23020625
_cell_length_c   12.84270727
_cell_angle_alpha   90.00000000
_cell_angle_beta   90.00000000
_cell_angle_gamma   93.54704874
_symmetry_Int_Tables_number   1
_chemical_formula_structural   S4N5Cl
_chemical_formula_sum   'S32 N40 Cl8'
_cell_volume   1669.58384879
_cell_formula_units_Z   8
loop_
 _symmetry_equiv_pos_site_id
 _symmetry_equiv_pos_as_xyz
  1  'x, y, z'
loop_
 _atom_site_type_symbol
 _atom_site_label
 _atom_site_symmetry_multiplicity
 _atom_site_fract_x
 _atom_site_fract_y
 _atom_site_fract_z
 _atom_site_occupancy
  S  S0  1  0.803550  0.869302  0.640376  1
  S  S1  1  0.377871  0.341517  0.111714  1
  S  S2  1  0.600057  0.890591  0.149825  1
  S  S3  1  0.931932  0.078365  0.152229  1
  S  S4  1  0.622129  0.158483  0.611714  1
  S  S5  1  0.399943  0.609409  0.649825  1
  S  S6  1  0.056979  0.806244  0.653868  1
  S  S7  1  0.387613  0.743588  0.830954  1
  S  S8  1  0.399006  0.519904  0.854668  1
  S  S9  1  0.612387  0.256412  0.169046  1
  S  S10  1  0.377871  0.841517  0.388286  1
  S  S11  1  0.012817  0.526819  0.842439  1
  S  S12  1  0.068068  0.421635  0.652229  1
  S  S13  1  0.387613  0.243588  0.669046  1
  S  S14  1  0.612387  0.756412  0.330954  1
  S  S15  1  0.600994  0.480096  0.145332  1
  S  S16  1  0.622129  0.658483  0.888286  1
  S  S17  1  0.012817  0.026819  0.657561  1
  S  S18  1  0.600994  0.980096  0.354668  1
  S  S19  1  0.931932  0.578365  0.347771  1
  S  S20  1  0.399006  0.019904  0.645332  1
  S  S21  1  0.196450  0.130698  0.359624  1
  S  S22  1  0.987183  0.973181  0.342439  1
  S  S23  1  0.056979  0.306244  0.846132  1
  S  S24  1  0.196450  0.630698  0.140376  1
  S  S25  1  0.987183  0.473181  0.157561  1
  S  S26  1  0.943021  0.693756  0.153868  1
  S  S27  1  0.068068  0.921635  0.847771  1
  S  S28  1  0.803550  0.369302  0.859624  1
  S  S29  1  0.943021  0.193756  0.346132  1
  S  S30  1  0.600057  0.390591  0.350175  1
  S  S31  1  0.399943  0.109409  0.850175  1
  N  N32  1  0.663476  0.367518  0.108319  1
  N  N33  1  0.607073  0.493710  0.272680  1
  N  N34  1  0.084239  0.313332  0.719650  1
  N  N35  1  0.854468  0.990996  0.656197  1
  N  N36  1  0.615960  0.274030  0.296910  1
  N  N37  1  0.102662  0.224002  0.353962  1
  N  N38  1  0.145532  0.509004  0.156197  1
  N  N39  1  0.919710  0.573106  0.099331  1
  N  N40  1  0.336524  0.132482  0.608319  1
  N  N41  1  0.453209  0.241195  0.143389  1
  N  N42  1  0.556902  0.040249  0.618815  1
  N  N43  1  0.919710  0.073106  0.400669  1
  N  N44  1  0.854468  0.490996  0.843803  1
  N  N45  1  0.615960  0.774030  0.203090  1
  N  N46  1  0.392927  0.006290  0.772680  1
  N  N47  1  0.897338  0.275998  0.853962  1
  N  N48  1  0.384040  0.725970  0.703090  1
  N  N49  1  0.047469  0.530633  0.717188  1
  N  N50  1  0.084239  0.813332  0.780350  1
  N  N51  1  0.443098  0.959751  0.381185  1
  N  N52  1  0.915761  0.686668  0.280350  1
  N  N53  1  0.336524  0.632482  0.891681  1
  N  N54  1  0.453209  0.741195  0.356611  1
  N  N55  1  0.952531  0.469367  0.282812  1
  N  N56  1  0.080290  0.426894  0.900669  1
  N  N57  1  0.952531  0.969367  0.217188  1
  N  N58  1  0.392927  0.506290  0.727320  1
  N  N59  1  0.546791  0.758805  0.856611  1
  N  N60  1  0.556902  0.540249  0.881185  1
  N  N61  1  0.915761  0.186668  0.219650  1
  N  N62  1  0.384040  0.225970  0.796910  1
  N  N63  1  0.897338  0.775998  0.646038  1
  N  N64  1  0.080290  0.926894  0.599331  1
  N  N65  1  0.663476  0.867518  0.391681  1
  N  N66  1  0.047469  0.030633  0.782812  1
  N  N67  1  0.546791  0.258805  0.643389  1
  N  N68  1  0.145532  0.009004  0.343803  1
  N  N69  1  0.443098  0.459751  0.118815  1
  N  N70  1  0.607073  0.993710  0.227320  1
  N  N71  1  0.102662  0.724002  0.146038  1
  Cl  Cl72  1  0.118203  0.614628  0.431376  1
  Cl  Cl73  1  0.399223  0.883054  0.093067  1
  Cl  Cl74  1  0.881797  0.385372  0.568624  1
  Cl  Cl75  1  0.600777  0.116946  0.906933  1
  Cl  Cl76  1  0.881797  0.885372  0.931376  1
  Cl  Cl77  1  0.118203  0.114628  0.068624  1
  Cl  Cl78  1  0.600777  0.616946  0.593067  1
  Cl  Cl79  1  0.399223  0.383054  0.406933  1
