# generated using pymatgen
data_Pr2NiO4
_symmetry_space_group_name_H-M   'P 1'
_cell_length_a   5.58380420
_cell_length_b   5.58380420
_cell_length_c   12.29241866
_cell_angle_alpha   90.00000000
_cell_angle_beta   90.00000000
_cell_angle_gamma   90.00000000
_symmetry_Int_Tables_number   1
_chemical_formula_structural   Pr2NiO4
_chemical_formula_sum   'Pr8 Ni4 O16'
_cell_volume   383.26371532
_cell_formula_units_Z   4
loop_
 _symmetry_equiv_pos_site_id
 _symmetry_equiv_pos_as_xyz
  1  'x, y, z'
loop_
 _atom_site_type_symbol
 _atom_site_label
 _atom_site_symmetry_multiplicity
 _atom_site_fract_x
 _atom_site_fract_y
 _atom_site_fract_z
 _atom_site_occupancy
  Pr  Pr0  1  0.984935  0.984935  0.363304  1
  Pr  Pr1  1  0.515065  0.984935  0.863304  1
  Pr  Pr2  1  0.984935  0.515065  0.863304  1
  Pr  Pr3  1  0.484935  0.015065  0.136696  1
  Pr  Pr4  1  0.015065  0.484935  0.136696  1
  Pr  Pr5  1  0.515065  0.515065  0.363304  1
  Pr  Pr6  1  0.484935  0.484935  0.636696  1
  Pr  Pr7  1  0.015065  0.015065  0.636696  1
  Ni  Ni8  1  0.000000  0.000000  0.000000  1
  Ni  Ni9  1  0.500000  0.000000  0.500000  1
  Ni  Ni10  1  0.000000  0.500000  0.500000  1
  Ni  Ni11  1  0.500000  0.500000  0.000000  1
  O  O12  1  0.250000  0.250000  0.973059  1
  O  O13  1  0.250000  0.250000  0.473059  1
  O  O14  1  0.750000  0.750000  0.526941  1
  O  O15  1  0.750000  0.750000  0.026941  1
  O  O16  1  0.750000  0.250000  0.000000  1
  O  O17  1  0.250000  0.750000  0.500000  1
  O  O18  1  0.250000  0.750000  0.000000  1
  O  O19  1  0.750000  0.250000  0.500000  1
  O  O20  1  0.049592  0.049592  0.179087  1
  O  O21  1  0.450408  0.049592  0.679087  1
  O  O22  1  0.049592  0.450408  0.679087  1
  O  O23  1  0.549592  0.950408  0.320913  1
  O  O24  1  0.950408  0.549592  0.320913  1
  O  O25  1  0.450408  0.450408  0.179087  1
  O  O26  1  0.549592  0.549592  0.820913  1
  O  O27  1  0.950408  0.950408  0.820913  1
