# generated using pymatgen
data_Na4Nb9(P2O13)3
_symmetry_space_group_name_H-M   'P 1'
_cell_length_a   5.50569305
_cell_length_b   14.69566259
_cell_length_c   20.20459405
_cell_angle_alpha   90.00000000
_cell_angle_beta   90.00000000
_cell_angle_gamma   90.00000000
_symmetry_Int_Tables_number   1
_chemical_formula_structural   Na4Nb9(P2O13)3
_chemical_formula_sum   'Na8 Nb18 P12 O78'
_cell_volume   1634.74981292
_cell_formula_units_Z   2
loop_
 _symmetry_equiv_pos_site_id
 _symmetry_equiv_pos_as_xyz
  1  'x, y, z'
loop_
 _atom_site_type_symbol
 _atom_site_label
 _atom_site_symmetry_multiplicity
 _atom_site_fract_x
 _atom_site_fract_y
 _atom_site_fract_z
 _atom_site_occupancy
  Na  Na0  1  0.748097  0.203345  0.377264  1
  Na  Na1  1  0.245663  0.286756  0.558847  1
  Na  Na2  1  0.245663  0.713244  0.441153  1
  Na  Na3  1  0.251903  0.703345  0.122736  1
  Na  Na4  1  0.251903  0.296655  0.877264  1
  Na  Na5  1  0.754337  0.786756  0.941153  1
  Na  Na6  1  0.748097  0.796655  0.622736  1
  Na  Na7  1  0.754337  0.213244  0.058847  1
  Nb  Nb8  1  0.763726  0.400664  0.616243  1
  Nb  Nb9  1  0.256277  0.888445  0.222866  1
  Nb  Nb10  1  0.748610  0.596128  0.064311  1
  Nb  Nb11  1  0.245023  0.520651  0.830894  1
  Nb  Nb12  1  0.251390  0.096128  0.435689  1
  Nb  Nb13  1  0.743723  0.388445  0.277134  1
  Nb  Nb14  1  0.735904  0.000000  0.000000  1
  Nb  Nb15  1  0.245023  0.479349  0.169106  1
  Nb  Nb16  1  0.754977  0.979349  0.330894  1
  Nb  Nb17  1  0.264096  0.500000  0.500000  1
  Nb  Nb18  1  0.236274  0.099336  0.116243  1
  Nb  Nb19  1  0.763726  0.599336  0.383757  1
  Nb  Nb20  1  0.743723  0.611555  0.722866  1
  Nb  Nb21  1  0.748610  0.403872  0.935689  1
  Nb  Nb22  1  0.251390  0.903872  0.564311  1
  Nb  Nb23  1  0.236274  0.900664  0.883757  1
  Nb  Nb24  1  0.256277  0.111555  0.777134  1
  Nb  Nb25  1  0.754977  0.020651  0.669106  1
  P  P26  1  0.255907  0.678467  0.962425  1
  P  P27  1  0.239845  0.671293  0.615770  1
  P  P28  1  0.760155  0.828707  0.115770  1
  P  P29  1  0.733180  0.164812  0.215895  1
  P  P30  1  0.266820  0.335188  0.715895  1
  P  P31  1  0.239845  0.328707  0.384230  1
  P  P32  1  0.744093  0.178467  0.537575  1
  P  P33  1  0.744093  0.821533  0.462425  1
  P  P34  1  0.733180  0.835188  0.784105  1
  P  P35  1  0.760155  0.171293  0.884230  1
  P  P36  1  0.255907  0.321533  0.037575  1
  P  P37  1  0.266820  0.664812  0.284105  1
  O  O38  1  0.484649  0.167200  0.510298  1
  O  O39  1  0.960862  0.831840  0.828066  1
  O  O40  1  0.486542  0.949058  0.939172  1
  O  O41  1  0.259484  0.374263  0.454058  1
  O  O42  1  0.732512  0.752419  0.736375  1
  O  O43  1  0.729410  0.078451  0.260564  1
  O  O44  1  0.960862  0.168159  0.171934  1
  O  O45  1  0.515351  0.332800  0.010298  1
  O  O46  1  0.270590  0.578451  0.239436  1
  O  O47  1  0.240095  0.993073  0.817653  1
  O  O48  1  0.267488  0.252419  0.763625  1
  O  O49  1  0.983012  0.949987  0.938062  1
  O  O50  1  0.270590  0.421549  0.760564  1
  O  O51  1  0.978750  0.908781  0.277179  1
  O  O52  1  0.491659  0.330423  0.670849  1
  O  O53  1  0.772112  0.722961  0.436243  1
  O  O54  1  0.471527  0.443732  0.890668  1
  O  O55  1  0.018639  0.157488  0.857389  1
  O  O56  1  0.713916  0.724886  0.107062  1
  O  O57  1  0.941343  0.165580  0.484303  1
  O  O58  1  0.212899  0.610645  0.904670  1
  O  O59  1  0.227888  0.777039  0.936243  1
  O  O60  1  0.787101  0.889355  0.404670  1
  O  O61  1  0.442334  0.365531  0.339849  1
  O  O62  1  0.491659  0.669577  0.329151  1
  O  O63  1  0.787101  0.110645  0.595330  1
  O  O64  1  0.978750  0.091219  0.722821  1
  O  O65  1  0.527044  0.582822  0.792896  1
  O  O66  1  0.941343  0.834420  0.515697  1
  O  O67  1  0.778606  0.500000  0.000000  1
  O  O68  1  0.016988  0.550013  0.438062  1
  O  O69  1  0.227888  0.222961  0.063757  1
  O  O70  1  0.976185  0.555382  0.127093  1
  O  O71  1  0.267488  0.747581  0.236375  1
  O  O72  1  0.759905  0.493073  0.682347  1
  O  O73  1  0.484649  0.832800  0.489702  1
  O  O74  1  0.557666  0.134469  0.839849  1
  O  O75  1  0.740516  0.125737  0.954058  1
  O  O76  1  0.471527  0.556268  0.109332  1
  O  O77  1  0.981361  0.342512  0.357389  1
  O  O78  1  0.527044  0.417178  0.207104  1
  O  O79  1  0.528473  0.056268  0.390668  1
  O  O80  1  0.557666  0.865531  0.160151  1
  O  O81  1  0.713916  0.275114  0.892938  1
  O  O82  1  0.508341  0.169577  0.170849  1
  O  O83  1  0.472956  0.917178  0.292896  1
  O  O84  1  0.442334  0.634469  0.660151  1
  O  O85  1  0.508341  0.830423  0.829151  1
  O  O86  1  0.021250  0.408781  0.222821  1
  O  O87  1  0.039138  0.331840  0.671934  1
  O  O88  1  0.023815  0.944618  0.627093  1
  O  O89  1  0.058657  0.665580  0.015697  1
  O  O90  1  0.513458  0.550942  0.439172  1
  O  O91  1  0.732512  0.247581  0.263625  1
  O  O92  1  0.515351  0.667200  0.989702  1
  O  O93  1  0.983012  0.050013  0.061938  1
  O  O94  1  0.018639  0.842512  0.142611  1
  O  O95  1  0.759905  0.506927  0.317653  1
  O  O96  1  0.021250  0.591219  0.777179  1
  O  O97  1  0.221394  0.000000  0.500000  1
  O  O98  1  0.240095  0.006927  0.182347  1
  O  O99  1  0.976185  0.444618  0.872907  1
  O  O100  1  0.486542  0.050942  0.060828  1
  O  O101  1  0.286084  0.224886  0.392938  1
  O  O102  1  0.740516  0.874263  0.045942  1
  O  O103  1  0.212899  0.389355  0.095330  1
  O  O104  1  0.023815  0.055382  0.372907  1
  O  O105  1  0.981361  0.657488  0.642611  1
  O  O106  1  0.016988  0.449987  0.561938  1
  O  O107  1  0.259484  0.625737  0.545942  1
  O  O108  1  0.286084  0.775114  0.607062  1
  O  O109  1  0.039138  0.668160  0.328066  1
  O  O110  1  0.528473  0.943732  0.609332  1
  O  O111  1  0.772112  0.277039  0.563757  1
  O  O112  1  0.513458  0.449058  0.560828  1
  O  O113  1  0.058657  0.334420  0.984303  1
  O  O114  1  0.472956  0.082822  0.707104  1
  O  O115  1  0.729410  0.921549  0.739436  1
