# generated using pymatgen
data_Nd10S14O
_symmetry_space_group_name_H-M   'P 1'
_cell_length_a   14.67889232
_cell_length_b   14.67889280
_cell_length_c   14.67889231
_cell_angle_alpha   93.71015051
_cell_angle_beta   117.88156806
_cell_angle_gamma   117.88156561
_symmetry_Int_Tables_number   1
_chemical_formula_structural   Nd10S14O
_chemical_formula_sum   'Nd40 S56 O4'
_cell_volume   2302.86870721
_cell_formula_units_Z   4
loop_
 _symmetry_equiv_pos_site_id
 _symmetry_equiv_pos_as_xyz
  1  'x, y, z'
loop_
 _atom_site_type_symbol
 _atom_site_label
 _atom_site_symmetry_multiplicity
 _atom_site_fract_x
 _atom_site_fract_y
 _atom_site_fract_z
 _atom_site_occupancy
  Nd  Nd0  1  0.750000  0.259878  0.240122  1
  Nd  Nd1  1  0.344857  0.325462  0.425910  1
  Nd  Nd2  1  0.344857  0.519395  0.918947  1
  Nd  Nd3  1  0.980245  0.240122  0.990122  1
  Nd  Nd4  1  0.600448  0.081053  0.925910  1
  Nd  Nd5  1  0.111440  0.425422  0.301271  1
  Nd  Nd6  1  0.124151  0.698729  0.310169  1
  Nd  Nd7  1  0.655143  0.674538  0.574090  1
  Nd  Nd8  1  0.100448  0.425910  0.581053  1
  Nd  Nd9  1  0.611440  0.310169  0.686018  1
  Nd  Nd10  1  0.875849  0.074578  0.186018  1
  Nd  Nd11  1  0.844857  0.925910  0.825462  1
  Nd  Nd12  1  0.388560  0.198729  0.074578  1
  Nd  Nd13  1  0.844857  0.418947  0.019395  1
  Nd  Nd14  1  0.519755  0.509878  0.259878  1
  Nd  Nd15  1  0.250000  0.009878  0.490122  1
  Nd  Nd16  1  0.124151  0.925422  0.813982  1
  Nd  Nd17  1  0.250000  0.740122  0.759878  1
  Nd  Nd18  1  0.600448  0.019395  0.674538  1
  Nd  Nd19  1  0.888560  0.813982  0.189831  1
  Nd  Nd20  1  0.624151  0.313982  0.425422  1
  Nd  Nd21  1  0.899552  0.825462  0.480605  1
  Nd  Nd22  1  0.111440  0.186018  0.810169  1
  Nd  Nd23  1  0.875849  0.301271  0.689831  1
  Nd  Nd24  1  0.375849  0.189831  0.801271  1
  Nd  Nd25  1  0.155143  0.581053  0.980605  1
  Nd  Nd26  1  0.399552  0.980605  0.325462  1
  Nd  Nd27  1  0.655143  0.480605  0.081053  1
  Nd  Nd28  1  0.888560  0.574578  0.698729  1
  Nd  Nd29  1  0.100448  0.174538  0.519395  1
  Nd  Nd30  1  0.155143  0.074090  0.174538  1
  Nd  Nd31  1  0.388560  0.689831  0.313982  1
  Nd  Nd32  1  0.611440  0.801271  0.925422  1
  Nd  Nd33  1  0.480245  0.490122  0.740122  1
  Nd  Nd34  1  0.750000  0.990122  0.509878  1
  Nd  Nd35  1  0.375849  0.686018  0.574578  1
  Nd  Nd36  1  0.019755  0.759878  0.009878  1
  Nd  Nd37  1  0.624151  0.810169  0.198729  1
  Nd  Nd38  1  0.899552  0.574090  0.418947  1
  Nd  Nd39  1  0.399552  0.918947  0.074090  1
  S  S40  1  0.891158  0.633292  0.100900  1
  S  S41  1  0.092656  0.471886  0.113761  1
  S  S42  1  0.092656  0.120769  0.978895  1
  S  S43  1  0.416232  0.750178  0.979491  1
  S  S44  1  0.352151  0.250000  0.602151  1
  S  S45  1  0.770687  0.020509  0.936741  1
  S  S46  1  0.358126  0.971886  0.879231  1
  S  S47  1  0.592656  0.613761  0.971886  1
  S  S48  1  0.583768  0.249822  0.020509  1
  S  S49  1  0.916232  0.479491  0.250178  1
  S  S50  1  0.907344  0.879231  0.021105  1
  S  S51  1  0.729313  0.666053  0.249822  1
  S  S52  1  0.467608  0.866708  0.757866  1
  S  S53  1  0.891158  0.757866  0.790258  1
  S  S54  1  0.592656  0.478895  0.620769  1
  S  S55  1  0.108842  0.366708  0.899100  1
  S  S56  1  0.967608  0.209742  0.600900  1
  S  S57  1  0.641874  0.113761  0.521105  1
  S  S58  1  0.083768  0.520509  0.749822  1
  S  S59  1  0.032392  0.790258  0.399100  1
  S  S60  1  0.407344  0.521105  0.379231  1
  S  S61  1  0.352151  0.602151  0.750000  1
  S  S62  1  0.967608  0.257866  0.366708  1
  S  S63  1  0.032392  0.742134  0.633292  1
  S  S64  1  0.608842  0.709742  0.742134  1
  S  S65  1  0.141874  0.021105  0.613761  1
  S  S66  1  0.916232  0.936741  0.666053  1
  S  S67  1  0.416232  0.166053  0.436741  1
  S  S68  1  0.467608  0.100900  0.709742  1
  S  S69  1  0.147849  0.897849  0.250000  1
  S  S70  1  0.907344  0.528114  0.886239  1
  S  S71  1  0.391158  0.600900  0.133292  1
  S  S72  1  0.108842  0.242134  0.209742  1
  S  S73  1  0.852151  0.250000  0.102151  1
  S  S74  1  0.770687  0.250178  0.833947  1
  S  S75  1  0.270687  0.333947  0.750178  1
  S  S76  1  0.270687  0.436741  0.520509  1
  S  S77  1  0.858126  0.379231  0.471886  1
  S  S78  1  0.641874  0.028114  0.120769  1
  S  S79  1  0.083768  0.063259  0.333947  1
  S  S80  1  0.147849  0.750000  0.897849  1
  S  S81  1  0.358126  0.886239  0.478895  1
  S  S82  1  0.229313  0.979491  0.063259  1
  S  S83  1  0.532392  0.133292  0.242134  1
  S  S84  1  0.391158  0.290258  0.257866  1
  S  S85  1  0.532392  0.899100  0.290258  1
  S  S86  1  0.647849  0.397849  0.250000  1
  S  S87  1  0.647849  0.750000  0.397849  1
  S  S88  1  0.229313  0.749822  0.166053  1
  S  S89  1  0.407344  0.386239  0.028114  1
  S  S90  1  0.852151  0.102151  0.750000  1
  S  S91  1  0.141874  0.620769  0.528114  1
  S  S92  1  0.608842  0.399100  0.866708  1
  S  S93  1  0.858126  0.978895  0.386239  1
  S  S94  1  0.729313  0.563259  0.479491  1
  S  S95  1  0.583768  0.833947  0.563259  1
  O  O96  1  0.750000  0.875000  0.125000  1
  O  O97  1  0.250000  0.625000  0.375000  1
  O  O98  1  0.250000  0.125000  0.875000  1
  O  O99  1  0.750000  0.375000  0.625000  1
