# generated using pymatgen
data_Na2Mn2Si2O7
_symmetry_space_group_name_H-M   'P 1'
_cell_length_a   5.82160061
_cell_length_b   8.88358086
_cell_length_c   13.47781531
_cell_angle_alpha   90.00000000
_cell_angle_beta   90.00000000
_cell_angle_gamma   89.91501713
_symmetry_Int_Tables_number   1
_chemical_formula_structural   Na2Mn2Si2O7
_chemical_formula_sum   'Na8 Mn8 Si8 O28'
_cell_volume   697.02682137
_cell_formula_units_Z   4
loop_
 _symmetry_equiv_pos_site_id
 _symmetry_equiv_pos_as_xyz
  1  'x, y, z'
loop_
 _atom_site_type_symbol
 _atom_site_label
 _atom_site_symmetry_multiplicity
 _atom_site_fract_x
 _atom_site_fract_y
 _atom_site_fract_z
 _atom_site_occupancy
  Mn  Mn0  1  0.137941  0.709314  0.007129  1
  Mn  Mn1  1  0.362059  0.790686  0.507129  1
  Mn  Mn2  1  0.862059  0.290686  0.992871  1
  Mn  Mn3  1  0.637941  0.209314  0.492871  1
  Mn  Mn4  1  0.336319  0.116809  0.080820  1
  Mn  Mn5  1  0.163681  0.383191  0.580820  1
  Mn  Mn6  1  0.663681  0.883191  0.919180  1
  Mn  Mn7  1  0.836319  0.616809  0.419180  1
  Si  Si8  1  0.180275  0.028452  0.880757  1
  Si  Si9  1  0.319725  0.471548  0.380757  1
  Si  Si10  1  0.819725  0.971548  0.119243  1
  Si  Si11  1  0.680275  0.528452  0.619243  1
  Si  Si12  1  0.183985  0.450349  0.166546  1
  Si  Si13  1  0.316015  0.049651  0.666546  1
  Si  Si14  1  0.816015  0.549651  0.833454  1
  Si  Si15  1  0.683985  0.950349  0.333454  1
  Na  Na16  1  0.716345  0.305350  0.246640  1
  Na  Na17  1  0.783655  0.194650  0.746640  1
  Na  Na18  1  0.283655  0.694650  0.753360  1
  Na  Na19  1  0.216345  0.805350  0.253360  1
  Na  Na20  1  0.668476  0.616482  0.159534  1
  Na  Na21  1  0.831524  0.883518  0.659534  1
  Na  Na22  1  0.331524  0.383518  0.840466  1
  Na  Na23  1  0.168476  0.116482  0.340466  1
  O  O24  1  0.622716  0.958063  0.209922  1
  O  O25  1  0.877284  0.541937  0.709922  1
  O  O26  1  0.377284  0.041937  0.790078  1
  O  O27  1  0.122716  0.458063  0.290078  1
  O  O28  1  0.697242  0.091639  0.040855  1
  O  O29  1  0.802758  0.408361  0.540855  1
  O  O30  1  0.302758  0.908361  0.959145  1
  O  O31  1  0.197242  0.591639  0.459145  1
  O  O32  1  0.277412  0.617715  0.133421  1
  O  O33  1  0.222588  0.882285  0.633421  1
  O  O34  1  0.722588  0.382285  0.866579  1
  O  O35  1  0.777412  0.117715  0.366579  1
  O  O36  1  0.066215  0.022841  0.164423  1
  O  O37  1  0.433785  0.477159  0.664423  1
  O  O38  1  0.933785  0.977159  0.835577  1
  O  O39  1  0.566215  0.522841  0.335577  1
  O  O40  1  0.377259  0.319848  0.152368  1
  O  O41  1  0.122741  0.180152  0.652368  1
  O  O42  1  0.622741  0.680152  0.847632  1
  O  O43  1  0.877259  0.819848  0.347632  1
  O  O44  1  0.828067  0.809388  0.059535  1
  O  O45  1  0.671933  0.690612  0.559535  1
  O  O46  1  0.171933  0.190612  0.940465  1
  O  O47  1  0.328067  0.309388  0.440465  1
  O  O48  1  0.932235  0.417339  0.116572  1
  O  O49  1  0.567765  0.082661  0.616572  1
  O  O50  1  0.067765  0.582661  0.883428  1
  O  O51  1  0.432235  0.917339  0.383428  1
