# generated using pymatgen
data_RuOF4
_symmetry_space_group_name_H-M   'P 1'
_cell_length_a   6.26700064
_cell_length_b   6.47823883
_cell_length_c   8.84944860
_cell_angle_alpha   90.00000000
_cell_angle_beta   90.00000000
_cell_angle_gamma   91.32849294
_symmetry_Int_Tables_number   1
_chemical_formula_structural   RuOF4
_chemical_formula_sum   'Ru4 O4 F16'
_cell_volume   359.18331332
_cell_formula_units_Z   4
loop_
 _symmetry_equiv_pos_site_id
 _symmetry_equiv_pos_as_xyz
  1  'x, y, z'
loop_
 _atom_site_type_symbol
 _atom_site_label
 _atom_site_symmetry_multiplicity
 _atom_site_fract_x
 _atom_site_fract_y
 _atom_site_fract_z
 _atom_site_occupancy
  Ru  Ru0  1  0.045612  0.850928  0.177806  1
  Ru  Ru1  1  0.545612  0.350928  0.322194  1
  Ru  Ru2  1  0.454388  0.649072  0.677806  1
  Ru  Ru3  1  0.954388  0.149072  0.822194  1
  O  O4  1  0.962671  0.139262  0.636800  1
  O  O5  1  0.537329  0.360738  0.136800  1
  O  O6  1  0.462671  0.639262  0.863200  1
  O  O7  1  0.037329  0.860738  0.363200  1
  F  F8  1  0.042408  0.880678  0.888443  1
  F  F9  1  0.863903  0.411619  0.876806  1
  F  F10  1  0.322375  0.937408  0.120817  1
  F  F11  1  0.636097  0.088381  0.376806  1
  F  F12  1  0.822375  0.437408  0.379183  1
  F  F13  1  0.136097  0.588381  0.123194  1
  F  F14  1  0.274416  0.255576  0.385295  1
  F  F15  1  0.542408  0.380678  0.611557  1
  F  F16  1  0.363903  0.911619  0.623194  1
  F  F17  1  0.957592  0.119322  0.111557  1
  F  F18  1  0.725584  0.744424  0.614705  1
  F  F19  1  0.457592  0.619322  0.388443  1
  F  F20  1  0.677625  0.062592  0.879183  1
  F  F21  1  0.177625  0.562592  0.620817  1
  F  F22  1  0.774416  0.755576  0.114705  1
  F  F23  1  0.225584  0.244424  0.885295  1
