# generated using pymatgen
data_Rb3Ti3Te11
_symmetry_space_group_name_H-M   'P 1'
_cell_length_a   10.81737391
_cell_length_b   15.04308731
_cell_length_c   15.67103680
_cell_angle_alpha   90.00000000
_cell_angle_beta   90.00000000
_cell_angle_gamma   91.71365299
_symmetry_Int_Tables_number   1
_chemical_formula_structural   Rb3Ti3Te11
_chemical_formula_sum   'Rb12 Ti12 Te44'
_cell_volume   2548.95560959
_cell_formula_units_Z   4
loop_
 _symmetry_equiv_pos_site_id
 _symmetry_equiv_pos_as_xyz
  1  'x, y, z'
loop_
 _atom_site_type_symbol
 _atom_site_label
 _atom_site_symmetry_multiplicity
 _atom_site_fract_x
 _atom_site_fract_y
 _atom_site_fract_z
 _atom_site_occupancy
  Rb  Rb0  1  0.424493  0.851631  0.525826  1
  Rb  Rb1  1  0.575507  0.148369  0.474174  1
  Rb  Rb2  1  0.732012  0.442901  0.622077  1
  Rb  Rb3  1  0.050165  0.123744  0.610655  1
  Rb  Rb4  1  0.449835  0.376256  0.110655  1
  Rb  Rb5  1  0.924493  0.351631  0.974174  1
  Rb  Rb6  1  0.949835  0.876256  0.389345  1
  Rb  Rb7  1  0.767988  0.057099  0.122077  1
  Rb  Rb8  1  0.232012  0.942901  0.877923  1
  Rb  Rb9  1  0.075507  0.648369  0.025826  1
  Rb  Rb10  1  0.267988  0.557099  0.377923  1
  Rb  Rb11  1  0.550165  0.623744  0.889345  1
  Ti  Ti12  1  0.722649  0.675999  0.188580  1
  Ti  Ti13  1  0.679892  0.022105  0.715148  1
  Ti  Ti14  1  0.969670  0.319206  0.298945  1
  Ti  Ti15  1  0.179892  0.522105  0.784852  1
  Ti  Ti16  1  0.820108  0.477895  0.215148  1
  Ti  Ti17  1  0.469670  0.819206  0.201055  1
  Ti  Ti18  1  0.222649  0.175999  0.311420  1
  Ti  Ti19  1  0.277351  0.324001  0.811420  1
  Ti  Ti20  1  0.530330  0.180794  0.798945  1
  Ti  Ti21  1  0.777351  0.824001  0.688580  1
  Ti  Ti22  1  0.030330  0.680794  0.701055  1
  Ti  Ti23  1  0.320108  0.977895  0.284852  1
  Te  Te24  1  0.663443  0.808901  0.071226  1
  Te  Te25  1  0.441928  0.130643  0.218536  1
  Te  Te26  1  0.262315  0.045576  0.435746  1
  Te  Te27  1  0.558072  0.869357  0.781464  1
  Te  Te28  1  0.747534  0.193888  0.709666  1
  Te  Te29  1  0.035589  0.867878  0.664990  1
  Te  Te30  1  0.836557  0.691099  0.571226  1
  Te  Te31  1  0.601470  0.688673  0.653299  1
  Te  Te32  1  0.888781  0.473734  0.389653  1
  Te  Te33  1  0.163443  0.308901  0.428774  1
  Te  Te34  1  0.111219  0.526266  0.610347  1
  Te  Te35  1  0.398530  0.311327  0.346701  1
  Te  Te36  1  0.585499  0.949042  0.303741  1
  Te  Te37  1  0.464411  0.632122  0.164990  1
  Te  Te38  1  0.085499  0.449042  0.196259  1
  Te  Te39  1  0.126048  0.721906  0.537268  1
  Te  Te40  1  0.941928  0.630643  0.281464  1
  Te  Te41  1  0.626048  0.221906  0.962732  1
  Te  Te42  1  0.058072  0.369357  0.718536  1
  Te  Te43  1  0.101470  0.188673  0.846701  1
  Te  Te44  1  0.414501  0.050958  0.696259  1
  Te  Te45  1  0.392734  0.456415  0.704253  1
  Te  Te46  1  0.378028  0.236250  0.663918  1
  Te  Te47  1  0.121972  0.263750  0.163918  1
  Te  Te48  1  0.252466  0.806112  0.290334  1
  Te  Te49  1  0.878028  0.736250  0.836082  1
  Te  Te50  1  0.752466  0.306112  0.209666  1
  Te  Te51  1  0.762315  0.545576  0.064254  1
  Te  Te52  1  0.107266  0.043585  0.204253  1
  Te  Te53  1  0.237685  0.454424  0.935746  1
  Te  Te54  1  0.336557  0.191099  0.928774  1
  Te  Te55  1  0.873952  0.278094  0.462732  1
  Te  Te56  1  0.607266  0.543585  0.295747  1
  Te  Te57  1  0.892734  0.956415  0.795747  1
  Te  Te58  1  0.611219  0.026266  0.889653  1
  Te  Te59  1  0.964411  0.132122  0.335010  1
  Te  Te60  1  0.388781  0.973734  0.110347  1
  Te  Te61  1  0.737685  0.954424  0.564254  1
  Te  Te62  1  0.373952  0.778094  0.037268  1
  Te  Te63  1  0.914501  0.550958  0.803741  1
  Te  Te64  1  0.247534  0.693888  0.790334  1
  Te  Te65  1  0.621972  0.763750  0.336082  1
  Te  Te66  1  0.535589  0.367878  0.835010  1
  Te  Te67  1  0.898530  0.811327  0.153299  1
