# generated using pymatgen
data_Ba2TaBiO6
_symmetry_space_group_name_H-M   'P 1'
_cell_length_a   6.14260535
_cell_length_b   6.14260610
_cell_length_c   6.14260641
_cell_angle_alpha   59.99999839
_cell_angle_beta   59.99999432
_cell_angle_gamma   60.00001036
_symmetry_Int_Tables_number   1
_chemical_formula_structural   Ba2TaBiO6
_chemical_formula_sum   'Ba2 Ta1 Bi1 O6'
_cell_volume   163.88642474
_cell_formula_units_Z   1
loop_
 _symmetry_equiv_pos_site_id
 _symmetry_equiv_pos_as_xyz
  1  'x, y, z'
loop_
 _atom_site_type_symbol
 _atom_site_label
 _atom_site_symmetry_multiplicity
 _atom_site_fract_x
 _atom_site_fract_y
 _atom_site_fract_z
 _atom_site_occupancy
  O  O0  1  0.730779  0.730779  0.269221  1
  O  O1  1  0.269221  0.730779  0.730779  1
  O  O2  1  0.269221  0.730779  0.269221  1
  O  O3  1  0.269221  0.269222  0.730779  1
  Ba  Ba4  1  0.750000  0.750000  0.750000  1
  O  O5  1  0.730778  0.269221  0.269221  1
  O  O6  1  0.730778  0.269221  0.730779  1
  Ba  Ba7  1  0.250000  0.250000  0.250000  1
  Ta  Ta8  1  0.500000  0.500000  0.500000  1
  Bi  Bi9  1  -0.000000  -0.000000  1.000000  1
