# generated using pymatgen
data_K3VCO8
_symmetry_space_group_name_H-M   'P 1'
_cell_length_a   5.71178537
_cell_length_b   6.57163933
_cell_length_c   6.57163872
_cell_angle_alpha   91.34429974
_cell_angle_beta   112.63149772
_cell_angle_gamma   112.63149689
_symmetry_Int_Tables_number   1
_chemical_formula_structural   K3VCO8
_chemical_formula_sum   'K3 V1 C1 O8'
_cell_volume   205.84238522
_cell_formula_units_Z   1
loop_
 _symmetry_equiv_pos_site_id
 _symmetry_equiv_pos_as_xyz
  1  'x, y, z'
loop_
 _atom_site_type_symbol
 _atom_site_label
 _atom_site_symmetry_multiplicity
 _atom_site_fract_x
 _atom_site_fract_y
 _atom_site_fract_z
 _atom_site_occupancy
  K  K0  1  0.091700  0.594331  0.594331  1
  K  K1  1  0.637614  0.351776  0.918161  1
  K  K2  1  0.637614  0.918161  0.351776  1
  V  V3  1  0.002128  0.001634  0.001634  1
  C  C4  1  0.350844  0.338328  0.338328  1
  O  O5  1  0.071307  0.246312  0.246312  1
  O  O6  1  0.652997  0.894189  0.894189  1
  O  O7  1  0.091291  0.029991  0.750326  1
  O  O8  1  0.065566  0.817995  0.232182  1
  O  O9  1  0.065566  0.232182  0.817995  1
  O  O10  1  0.494733  0.503764  0.503764  1
  O  O11  1  0.457828  0.244602  0.244602  1
  O  O12  1  0.091291  0.750326  0.029991  1
