# generated using pymatgen
data_Na2PtO3
_symmetry_space_group_name_H-M   'P 1'
_cell_length_a   5.57786928
_cell_length_b   5.57787494
_cell_length_c   10.06289181
_cell_angle_alpha   100.73805973
_cell_angle_beta   100.73793426
_cell_angle_gamma   109.12912093
_symmetry_Int_Tables_number   1
_chemical_formula_structural   Na2PtO3
_chemical_formula_sum   'Na8 Pt4 O12'
_cell_volume   280.10603498
_cell_formula_units_Z   4
loop_
 _symmetry_equiv_pos_site_id
 _symmetry_equiv_pos_as_xyz
  1  'x, y, z'
loop_
 _atom_site_type_symbol
 _atom_site_label
 _atom_site_symmetry_multiplicity
 _atom_site_fract_x
 _atom_site_fract_y
 _atom_site_fract_z
 _atom_site_occupancy
  Na  Na0  1  0.619225  0.869206  0.738417  1
  Na  Na1  1  0.295254  0.545210  0.090407  1
  Na  Na2  1  0.380775  0.130794  0.261582  1
  Na  Na3  1  0.869204  0.619224  0.238413  1
  Na  Na4  1  0.545211  0.295255  0.590407  1
  Na  Na5  1  0.704746  0.454790  0.909593  1
  Na  Na6  1  0.130796  0.380776  0.761587  1
  Na  Na7  1  0.454789  0.704745  0.409593  1
  Pt  Pt8  1  0.958570  0.208591  0.417179  1
  Pt  Pt9  1  0.041430  0.791409  0.582821  1
  Pt  Pt10  1  0.791410  0.041430  0.082821  1
  Pt  Pt11  1  0.208590  0.958570  0.917179  1
  O  O12  1  0.083720  0.333735  0.250001  1
  O  O13  1  0.532573  0.240695  0.070722  1
  O  O14  1  0.038149  0.830041  0.070737  1
  O  O15  1  0.759306  0.467427  0.429278  1
  O  O16  1  0.961851  0.169959  0.929263  1
  O  O17  1  0.169959  0.961850  0.429263  1
  O  O18  1  0.467427  0.759305  0.929278  1
  O  O19  1  0.333735  0.083720  0.750001  1
  O  O20  1  0.240694  0.532573  0.570722  1
  O  O21  1  0.830041  0.038150  0.570737  1
  O  O22  1  0.916280  0.666265  0.749999  1
  O  O23  1  0.666265  0.916280  0.249999  1
