# generated using pymatgen
data_Na2Al17Si11B7(H3O31)2
_symmetry_space_group_name_H-M   'P 1'
_cell_length_a   9.48960884
_cell_length_b   9.48484672
_cell_length_c   18.91580092
_cell_angle_alpha   113.64181067
_cell_angle_beta   113.53775304
_cell_angle_gamma   114.40586684
_symmetry_Int_Tables_number   1
_chemical_formula_structural   Na2Al17Si11B7(H3O31)2
_chemical_formula_sum   'Na2 Al17 Si11 B7 H6 O62'
_cell_volume   1044.85850978
_cell_formula_units_Z   1
loop_
 _symmetry_equiv_pos_site_id
 _symmetry_equiv_pos_as_xyz
  1  'x, y, z'
loop_
 _atom_site_type_symbol
 _atom_site_label
 _atom_site_symmetry_multiplicity
 _atom_site_fract_x
 _atom_site_fract_y
 _atom_site_fract_z
 _atom_site_occupancy
  Al  Al0  1  0.376360  0.940943  0.807328  1
  Al  Al1  1  0.379396  0.605277  0.970375  1
  Al  Al2  1  0.610778  0.792602  0.806136  1
  Al  Al3  1  0.611836  0.609470  0.896633  1
  Al  Al4  1  0.593777  0.370717  0.969167  1
  Al  Al5  1  0.603111  0.934953  0.689106  1
  Al  Al6  1  0.382010  0.942955  0.302076  1
  Al  Al7  1  0.383576  0.597494  0.464097  1
  Al  Al8  1  0.808261  0.627751  0.811346  1
  Al  Al9  1  0.631514  0.801430  0.320661  1
  Al  Al10  1  0.601005  0.386570  0.465910  1
  Al  Al11  1  0.603534  0.938389  0.191721  1
  Al  Al12  1  0.937405  0.379362  0.804363  1
  Al  Al13  1  0.941299  0.614956  0.693708  1
  Al  Al14  1  0.801001  0.630995  0.319641  1
  Al  Al15  1  0.938565  0.605061  0.191568  1
  Al  Al16  1  0.941311  0.381482  0.301435  1
  B  B17  1  0.265122  0.594144  0.798161  1
  B  B18  1  0.223496  0.026640  0.919281  1
  B  B19  1  0.270299  0.599210  0.294840  1
  B  B20  1  0.596990  0.268240  0.800595  1
  B  B21  1  0.598197  0.599143  0.635559  1
  B  B22  1  0.600511  0.271885  0.295760  1
  B  B23  1  0.597445  0.597564  0.136073  1
  H  H24  1  0.278962  0.654000  0.641122  1
  H  H25  1  0.274540  0.275099  0.827065  1
  H  H26  1  0.278893  0.661992  0.140938  1
  H  H27  1  0.303280  0.301132  0.333125  1
  H  H28  1  0.654710  0.286214  0.641735  1
  H  H29  1  0.658725  0.279839  0.139374  1
  Na  Na30  1  0.208186  0.207730  0.603994  1
  Na  Na31  1  0.285706  0.278879  0.143206  1
  O  O32  1  0.000157  0.623883  0.898472  1
  O  O33  1  0.016216  0.809595  0.820232  1
  O  O34  1  0.110022  0.390169  0.911875  1
  O  O35  1  0.114148  0.826566  0.700022  1
  O  O36  1  0.200077  0.531167  0.841388  1
  O  O37  1  0.198853  0.676914  0.765472  1
  O  O38  1  0.200750  0.182790  0.952825  1
  O  O39  1  0.204216  0.931169  0.603176  1
  O  O40  1  0.006127  0.629993  0.398717  1
  O  O41  1  1.000502  0.795663  0.312201  1
  O  O42  1  0.039735  0.324658  0.520137  1
  O  O43  1  0.028192  0.029438  0.658075  1
  O  O44  1  0.410482  0.411259  0.896783  1
  O  O45  1  0.414348  0.794556  0.708790  1
  O  O46  1  0.405323  0.585794  0.794181  1
  O  O47  1  0.380595  0.100654  0.910032  1
  O  O48  1  0.391333  0.821131  0.557426  1
  O  O49  1  0.104586  0.821623  0.195305  1
  O  O50  1  0.107659  0.396958  0.410642  1
  O  O51  1  0.198428  0.520842  0.333465  1
  O  O52  1  0.201389  0.690573  0.269201  1
  O  O53  1  0.794011  0.796152  0.898619  1
  O  O54  1  0.200336  0.919537  0.096807  1
  O  O55  1  0.201788  0.203080  0.462427  1
  O  O56  1  0.530994  0.201045  0.842608  1
  O  O57  1  0.529304  0.679131  0.601465  1
  O  O58  1  0.590317  0.589625  0.706049  1
  O  O59  1  0.590333  0.408336  0.796062  1
  O  O60  1  0.323909  0.041612  0.519888  1
  O  O61  1  0.038924  0.307910  0.016928  1
  O  O62  1  0.038137  0.037343  0.154416  1
  O  O63  1  0.610746  0.805378  0.501830  1
  O  O64  1  0.623753  -0.001323  0.898012  1
  O  O65  1  0.407639  0.809286  0.204178  1
  O  O66  1  0.395414  0.394855  0.409035  1
  O  O67  1  0.394530  0.589996  0.279534  1
  O  O68  1  0.680064  0.200170  0.768180  1
  O  O69  1  0.683512  0.536355  0.603607  1
  O  O70  1  0.396472  0.824570  0.052853  1
  O  O71  1  0.396896  0.109171  0.410910  1
  O  O72  1  0.796609  0.418518  0.709810  1
  O  O73  1  0.805648  0.612496  0.501624  1
  O  O74  1  0.794227  0.996411  0.812297  1
  O  O75  1  0.848944  0.848777  0.410517  1
  O  O76  1  0.522943  0.200389  0.334617  1
  O  O77  1  0.527676  0.677162  0.100041  1
  O  O78  1  0.593550  0.593745  0.207092  1
  O  O79  1  0.591459  0.396240  0.280605  1
  O  O80  1  0.820654  0.394306  0.558642  1
  O  O81  1  0.825040  0.113755  0.700664  1
  O  O82  1  0.311340  0.034237  0.008943  1
  O  O83  1  0.624673  0.792713  0.999250  1
  O  O84  1  0.629264  0.006609  0.399486  1
  O  O85  1  0.928591  0.205017  0.603572  1
  O  O86  1  0.690903  0.202232  0.269523  1
  O  O87  1  0.680523  0.532368  0.101343  1
  O  O88  1  0.806606  0.407682  0.203598  1
  O  O89  1  0.793869  1.000316  0.312573  1
  O  O90  1  0.792164  0.623101  0.999228  1
  O  O91  1  0.821989  0.101884  0.196762  1
  O  O92  1  0.822238  0.394564  0.052430  1
  O  O93  1  0.914833  0.200297  0.099671  1
  Si  Si94  1  0.038658  0.213434  0.921118  1
  Si  Si95  1  0.023606  0.836139  0.609446  1
  Si  Si96  1  0.227333  0.847555  0.517793  1
  Si  Si97  1  0.030575  0.225353  0.421598  1
  Si  Si98  1  0.031713  0.843265  0.110106  1
  Si  Si99  1  0.224796  0.032395  0.421458  1
  Si  Si100  1  0.230441  0.852673  0.012988  1
  Si  Si101  1  0.834468  0.023590  0.609447  1
  Si  Si102  1  0.846190  0.229428  0.518612  1
  Si  Si103  1  0.844652  0.030318  0.112072  1
  Si  Si104  1  0.845872  0.225346  0.015070  1
