# generated using pymatgen
data_EuP5O14
_symmetry_space_group_name_H-M   'P 1'
_cell_length_a   8.70929693
_cell_length_b   8.94350504
_cell_length_c   13.01538627
_cell_angle_alpha   90.00000000
_cell_angle_beta   90.91013127
_cell_angle_gamma   90.00000000
_symmetry_Int_Tables_number   1
_chemical_formula_structural   EuP5O14
_chemical_formula_sum   'Eu4 P20 O56'
_cell_volume   1013.66189441
_cell_formula_units_Z   4
loop_
 _symmetry_equiv_pos_site_id
 _symmetry_equiv_pos_as_xyz
  1  'x, y, z'
loop_
 _atom_site_type_symbol
 _atom_site_label
 _atom_site_symmetry_multiplicity
 _atom_site_fract_x
 _atom_site_fract_y
 _atom_site_fract_z
 _atom_site_occupancy
  Eu  Eu0  1  0.221661  0.308915  0.000968  1
  Eu  Eu1  1  0.778339  0.691085  0.999032  1
  Eu  Eu2  1  0.221661  0.191085  0.500968  1
  Eu  Eu3  1  0.778339  0.808915  0.499032  1
  P  P4  1  0.813978  0.255113  -0.000104  1
  P  P5  1  0.724667  0.448069  0.663447  1
  P  P6  1  0.275333  0.551931  0.336553  1
  P  P7  1  0.507456  0.503250  0.172461  1
  P  P8  1  0.724667  0.051931  0.163447  1
  P  P9  1  0.009012  0.505807  0.203125  1
  P  P10  1  0.745906  0.452902  0.335259  1
  P  P11  1  0.813978  0.244887  0.499896  1
  P  P12  1  0.275333  0.948069  0.836553  1
  P  P13  1  0.492544  0.003250  0.327539  1
  P  P14  1  0.254094  0.547098  0.664741  1
  P  P15  1  0.186022  0.744887  1.000104  1
  P  P16  1  0.254094  0.952902  0.164741  1
  P  P17  1  0.186022  0.755113  0.500104  1
  P  P18  1  0.507456  0.996750  0.672461  1
  P  P19  1  0.009012  0.994193  0.703125  1
  P  P20  1  0.990988  0.005807  0.296875  1
  P  P21  1  0.745906  0.047098  0.835259  1
  P  P22  1  0.990988  0.494193  0.796875  1
  P  P23  1  0.492544  0.496750  0.827539  1
  O  O24  1  0.911810  0.427374  0.293206  1
  O  O25  1  0.129424  0.898581  0.771961  1
  O  O26  1  0.582963  0.616869  0.877869  1
  O  O27  1  0.719763  0.306370  0.399618  1
  O  O28  1  0.719763  0.193630  0.899618  1
  O  O29  1  0.417037  0.116869  0.622131  1
  O  O30  1  0.362641  0.918326  0.259088  1
  O  O31  1  0.417037  0.383131  0.122131  1
  O  O32  1  0.413166  0.584067  0.263245  1
  O  O33  1  0.088717  0.381377  0.150329  1
  O  O34  1  0.870576  0.398581  0.728039  1
  O  O35  1  0.911283  0.618623  0.849671  1
  O  O36  1  0.586834  0.415933  0.736755  1
  O  O37  1  0.702990  0.187486  0.087971  1
  O  O38  1  0.730693  0.902697  0.115934  1
  O  O39  1  0.422690  0.374352  0.888101  1
  O  O40  1  0.129424  0.601419  0.271961  1
  O  O41  1  0.088190  0.927374  0.206794  1
  O  O42  1  0.577310  0.874351  0.611899  1
  O  O43  1  0.297010  0.812514  0.912029  1
  O  O44  1  0.790573  0.080451  0.500836  1
  O  O45  1  0.031383  0.816109  0.994298  1
  O  O46  1  0.582963  0.883131  0.377869  1
  O  O47  1  0.280237  0.693630  0.600382  1
  O  O48  1  0.280237  0.806370  0.100382  1
  O  O49  1  0.031383  0.683891  0.494298  1
  O  O50  1  0.086134  0.379654  0.850781  1
  O  O51  1  0.577310  0.625649  0.111899  1
  O  O52  1  0.718584  0.594047  0.389817  1
  O  O53  1  0.269307  0.097303  0.884066  1
  O  O54  1  0.281416  0.094047  0.110183  1
  O  O55  1  0.209427  0.919549  0.499164  1
  O  O56  1  0.088717  0.118623  0.650329  1
  O  O57  1  0.730693  0.597303  0.615934  1
  O  O58  1  0.637359  0.418326  0.240912  1
  O  O59  1  0.718584  0.905953  0.889817  1
  O  O60  1  0.088190  0.572626  0.706794  1
  O  O61  1  0.870576  0.101419  0.228039  1
  O  O62  1  0.281416  0.405953  0.610183  1
  O  O63  1  0.913866  0.620346  0.149219  1
  O  O64  1  0.702990  0.312514  0.587971  1
  O  O65  1  0.586834  0.084067  0.236755  1
  O  O66  1  0.913866  0.879654  0.649219  1
  O  O67  1  0.297010  0.687486  0.412029  1
  O  O68  1  0.968617  0.316109  0.505702  1
  O  O69  1  0.911810  0.072626  0.793206  1
  O  O70  1  0.911283  0.881377  0.349671  1
  O  O71  1  0.790573  0.419549  0.000836  1
  O  O72  1  0.413166  0.915933  0.763245  1
  O  O73  1  0.209427  0.580451  0.999164  1
  O  O74  1  0.086134  0.120346  0.350781  1
  O  O75  1  0.968617  0.183891  0.005702  1
  O  O76  1  0.422690  0.125648  0.388101  1
  O  O77  1  0.269307  0.402697  0.384066  1
  O  O78  1  0.362641  0.581674  0.759088  1
  O  O79  1  0.637359  0.081674  0.740912  1
