# generated using pymatgen
data_Ba4Ho(RuO4)3
_symmetry_space_group_name_H-M   'P 1'
_cell_length_a   10.39434137
_cell_length_b   10.39434150
_cell_length_c   10.39434165
_cell_angle_alpha   33.21631429
_cell_angle_beta   33.21631320
_cell_angle_gamma   33.21631293
_symmetry_Int_Tables_number   1
_chemical_formula_structural   Ba4Ho(RuO4)3
_chemical_formula_sum   'Ba4 Ho1 Ru3 O12'
_cell_volume   300.01144491
_cell_formula_units_Z   1
loop_
 _symmetry_equiv_pos_site_id
 _symmetry_equiv_pos_as_xyz
  1  'x, y, z'
loop_
 _atom_site_type_symbol
 _atom_site_label
 _atom_site_symmetry_multiplicity
 _atom_site_fract_x
 _atom_site_fract_y
 _atom_site_fract_z
 _atom_site_occupancy
  Ba  Ba0  1  0.714499  0.714499  0.714499  1
  Ba  Ba1  1  0.285501  0.285501  0.285501  1
  Ba  Ba2  1  0.129153  0.129153  0.129153  1
  Ba  Ba3  1  0.870847  0.870847  0.870847  1
  Ho  Ho4  1  0.000000  0.000000  0.000000  1
  Ru  Ru5  1  0.413125  0.413125  0.413125  1
  Ru  Ru6  1  0.500000  0.500000  0.500000  1
  Ru  Ru7  1  0.586875  0.586875  0.586875  1
  O  O8  1  0.218530  0.218530  0.692474  1
  O  O9  1  0.612495  0.147424  0.612495  1
  O  O10  1  0.852576  0.387505  0.387505  1
  O  O11  1  0.612495  0.612495  0.147424  1
  O  O12  1  0.387505  0.387505  0.852576  1
  O  O13  1  0.781470  0.781470  0.307526  1
  O  O14  1  0.692474  0.218530  0.218530  1
  O  O15  1  0.218530  0.692474  0.218530  1
  O  O16  1  0.781470  0.307526  0.781470  1
  O  O17  1  0.387505  0.852576  0.387505  1
  O  O18  1  0.147424  0.612495  0.612495  1
  O  O19  1  0.307526  0.781470  0.781470  1
