# generated using pymatgen
data_K4CO4
_symmetry_space_group_name_H-M   'P 1'
_cell_length_a   5.95129538
_cell_length_b   5.95130436
_cell_length_c   5.95128425
_cell_angle_alpha   102.23453309
_cell_angle_beta   102.23474723
_cell_angle_gamma   125.18160909
_symmetry_Int_Tables_number   1
_chemical_formula_structural   K4CO4
_chemical_formula_sum   'K4 C1 O4'
_cell_volume   152.93887432
_cell_formula_units_Z   1
loop_
 _symmetry_equiv_pos_site_id
 _symmetry_equiv_pos_as_xyz
  1  'x, y, z'
loop_
 _atom_site_type_symbol
 _atom_site_label
 _atom_site_symmetry_multiplicity
 _atom_site_fract_x
 _atom_site_fract_y
 _atom_site_fract_z
 _atom_site_occupancy
  K  K0  1  0.661196  0.812561  0.606968  1
  O  O1  1  0.689085  0.497321  0.887671  1
  K  K2  1  0.945770  0.338805  0.151371  1
  K  K3  1  0.205597  0.054228  0.393033  1
  C  C4  1  0.500000  0.500001  1.000000  1
  O  O5  1  0.198586  0.310916  0.808234  1
  O  O6  1  0.502680  0.390352  0.191765  1
  K  K7  1  0.187437  0.794403  0.848631  1
  O  O8  1  0.609649  0.801414  0.112328  1
