# generated using pymatgen
data_Sb4Au(Xe2F11)2
_symmetry_space_group_name_H-M   'P 1'
_cell_length_a   8.15956868
_cell_length_b   9.42745265
_cell_length_c   17.88227618
_cell_angle_alpha   99.78963213
_cell_angle_beta   92.68401911
_cell_angle_gamma   94.62175149
_symmetry_Int_Tables_number   1
_chemical_formula_structural   Sb4Au(Xe2F11)2
_chemical_formula_sum   'Sb8 Au2 Xe8 F44'
_cell_volume   1348.56947579
_cell_formula_units_Z   2
loop_
 _symmetry_equiv_pos_site_id
 _symmetry_equiv_pos_as_xyz
  1  'x, y, z'
loop_
 _atom_site_type_symbol
 _atom_site_label
 _atom_site_symmetry_multiplicity
 _atom_site_fract_x
 _atom_site_fract_y
 _atom_site_fract_z
 _atom_site_occupancy
  Sb  Sb0  1  0.786788  0.299108  0.416908  1
  Sb  Sb1  1  0.704351  0.834082  0.915331  1
  Sb  Sb2  1  0.896249  0.392467  0.126369  1
  Sb  Sb3  1  0.643639  0.946366  0.634695  1
  Sb  Sb4  1  0.103751  0.607533  0.873631  1
  Sb  Sb5  1  0.356361  0.053634  0.365305  1
  Sb  Sb6  1  0.295649  0.165918  0.084669  1
  Sb  Sb7  1  0.213212  0.700892  0.583092  1
  Au  Au8  1  0.600280  0.721034  0.256612  1
  Au  Au9  1  0.399720  0.278966  0.743388  1
  Xe  Xe10  1  0.632436  0.304788  0.867023  1
  Xe  Xe11  1  0.842604  0.742090  0.375499  1
  Xe  Xe12  1  0.367564  0.695212  0.132977  1
  Xe  Xe13  1  0.816460  0.890600  0.181700  1
  Xe  Xe14  1  0.157396  0.257910  0.624501  1
  Xe  Xe15  1  0.380111  0.555753  0.331859  1
  Xe  Xe16  1  0.183540  0.109400  0.818300  1
  Xe  Xe17  1  0.619889  0.444247  0.668141  1
  F  F18  1  0.841757  0.117555  0.365044  1
  F  F19  1  0.692858  0.462657  0.470358  1
  F  F20  1  0.511391  0.979080  0.720630  1
  F  F21  1  0.307142  0.537343  0.529642  1
  F  F22  1  0.612205  0.713994  0.981161  1
  F  F23  1  -0.001167  0.397206  0.416300  1
  F  F24  1  0.247380  0.096947  0.456723  1
  F  F25  1  0.182114  0.046553  0.998534  1
  F  F26  1  0.023406  0.443622  0.915011  1
  F  F27  1  0.813880  0.086032  0.683691  1
  F  F28  1  0.031722  0.468349  0.216375  1
  F  F29  1  0.781029  0.312123  0.031915  1
  F  F30  1  0.904323  0.704736  0.917622  1
  F  F31  1  0.186120  0.913968  0.316309  1
  F  F32  1  0.727810  0.786697  0.670118  1
  F  F33  1  0.168073  0.761579  0.488295  1
  F  F34  1  0.838681  0.221859  0.165396  1
  F  F35  1  0.829274  0.936848  0.850806  1
  F  F36  1  0.170726  0.063152  0.149194  1
  F  F37  1  0.548224  0.198393  0.418905  1
  F  F38  1  0.476030  0.052035  0.087866  1
  F  F39  1  0.218971  0.687877  0.968085  1
  F  F40  1  0.968278  0.531651  0.783625  1
  F  F41  1  0.376907  0.307695  0.169698  1
  F  F42  1  0.817886  0.953447  0.001466  1
  F  F43  1  0.752620  0.903053  0.543277  1
  F  F44  1  0.288949  0.649556  0.676224  1
  F  F45  1  0.158243  0.882445  0.634956  1
  F  F46  1  0.976594  0.556378  0.084989  1
  F  F47  1  0.529244  0.088351  0.594368  1
  F  F48  1  0.488609  0.020920  0.279370  1
  F  F49  1  0.161319  0.778141  0.834604  1
  F  F50  1  0.288577  0.511281  0.834747  1
  F  F51  1  0.623093  0.692305  0.830302  1
  F  F52  1  0.470756  0.911649  0.405632  1
  F  F53  1  0.711051  0.350444  0.323776  1
  F  F54  1  0.711423  0.488719  0.165253  1
  F  F55  1  0.387795  0.286006  0.018839  1
  F  F56  1  0.523970  0.947965  0.912134  1
  F  F57  1  1.001167  0.602794  0.583700  1
  F  F58  1  0.272190  0.213303  0.329882  1
  F  F59  1  0.451776  0.801607  0.581095  1
  F  F60  1  0.095677  0.295264  0.082378  1
  F  F61  1  0.831927  0.238421  0.511705  1
