# generated using pymatgen
data_RbMn4(PO4)3
_symmetry_space_group_name_H-M   'P 1'
_cell_length_a   6.53298694
_cell_length_b   10.04498244
_cell_length_c   16.97967606
_cell_angle_alpha   90.00000000
_cell_angle_beta   90.00000000
_cell_angle_gamma   90.00000000
_symmetry_Int_Tables_number   1
_chemical_formula_structural   RbMn4(PO4)3
_chemical_formula_sum   'Rb4 Mn16 P12 O48'
_cell_volume   1114.26983165
_cell_formula_units_Z   4
loop_
 _symmetry_equiv_pos_site_id
 _symmetry_equiv_pos_as_xyz
  1  'x, y, z'
loop_
 _atom_site_type_symbol
 _atom_site_label
 _atom_site_symmetry_multiplicity
 _atom_site_fract_x
 _atom_site_fract_y
 _atom_site_fract_z
 _atom_site_occupancy
  Rb  Rb0  1  0.000000  0.706755  0.532838  1
  Rb  Rb1  1  0.500000  0.793245  0.032838  1
  Rb  Rb2  1  0.000000  0.293245  0.467162  1
  Rb  Rb3  1  0.500000  0.206755  0.967162  1
  Mn  Mn4  1  0.000000  0.020419  0.860496  1
  Mn  Mn5  1  0.748610  0.248276  0.203677  1
  Mn  Mn6  1  0.000000  0.539904  0.095643  1
  Mn  Mn7  1  0.500000  0.520419  0.639504  1
  Mn  Mn8  1  0.500000  0.039904  0.404357  1
  Mn  Mn9  1  0.500000  0.960096  0.595643  1
  Mn  Mn10  1  0.000000  0.979581  0.139504  1
  Mn  Mn11  1  0.748610  0.751724  0.796323  1
  Mn  Mn12  1  0.000000  0.460096  0.904357  1
  Mn  Mn13  1  0.248610  0.748276  0.296323  1
  Mn  Mn14  1  0.500000  0.479581  0.360496  1
  Mn  Mn15  1  0.251390  0.248276  0.203677  1
  Mn  Mn16  1  0.751390  0.251724  0.703677  1
  Mn  Mn17  1  0.251390  0.751724  0.796323  1
  Mn  Mn18  1  0.248610  0.251724  0.703677  1
  Mn  Mn19  1  0.751390  0.748276  0.296323  1
  P  P20  1  0.500000  0.539845  0.168434  1
  P  P21  1  0.500000  0.460155  0.831566  1
  P  P22  1  0.500000  0.713940  0.463060  1
  P  P23  1  0.000000  0.960155  0.668434  1
  P  P24  1  0.000000  0.541033  0.717047  1
  P  P25  1  0.000000  0.458967  0.282953  1
  P  P26  1  0.000000  0.213940  0.036940  1
  P  P27  1  0.500000  0.958967  0.217047  1
  P  P28  1  0.000000  0.039845  0.331566  1
  P  P29  1  0.000000  0.786060  0.963060  1
  P  P30  1  0.500000  0.041033  0.782953  1
  P  P31  1  0.500000  0.286060  0.536940  1
  O  O32  1  0.689197  0.329706  0.587604  1
  O  O33  1  0.000000  0.114363  0.685032  1
  O  O34  1  0.310803  0.329706  0.587604  1
  O  O35  1  0.803167  0.408392  0.323093  1
  O  O36  1  0.306274  0.581400  0.124015  1
  O  O37  1  0.500000  0.614363  0.814968  1
  O  O38  1  0.500000  0.612426  0.252711  1
  O  O39  1  0.500000  0.113676  0.226710  1
  O  O40  1  0.189197  0.170294  0.087604  1
  O  O41  1  0.303167  0.091608  0.823093  1
  O  O42  1  0.000000  0.885637  0.314968  1
  O  O43  1  0.000000  0.887574  0.752711  1
  O  O44  1  0.803167  0.591608  0.676907  1
  O  O45  1  0.693726  0.581400  0.124015  1
  O  O46  1  0.696833  0.908392  0.176907  1
  O  O47  1  0.500000  0.105572  0.697346  1
  O  O48  1  0.500000  0.354064  0.456401  1
  O  O49  1  0.500000  0.645936  0.543599  1
  O  O50  1  0.689197  0.670294  0.412396  1
  O  O51  1  0.000000  0.613676  0.273290  1
  O  O52  1  0.000000  0.386324  0.726710  1
  O  O53  1  0.696833  0.091608  0.823093  1
  O  O54  1  0.000000  0.605572  0.802654  1
  O  O55  1  0.500000  0.886324  0.773290  1
  O  O56  1  0.810803  0.170294  0.087604  1
  O  O57  1  0.000000  0.145936  0.956401  1
  O  O58  1  0.500000  0.894428  0.302654  1
  O  O59  1  0.000000  0.632982  0.978089  1
  O  O60  1  0.196833  0.591608  0.676907  1
  O  O61  1  0.303167  0.908392  0.176907  1
  O  O62  1  0.193726  0.081400  0.375985  1
  O  O63  1  0.806274  0.918600  0.624015  1
  O  O64  1  0.806274  0.081400  0.375985  1
  O  O65  1  0.500000  0.867018  0.478089  1
  O  O66  1  0.000000  0.394428  0.197346  1
  O  O67  1  0.693726  0.418600  0.875985  1
  O  O68  1  0.500000  0.132982  0.521911  1
  O  O69  1  0.810803  0.829706  0.912396  1
  O  O70  1  0.500000  0.385637  0.185032  1
  O  O71  1  0.189197  0.829706  0.912396  1
  O  O72  1  0.000000  0.112426  0.247289  1
  O  O73  1  0.306274  0.418600  0.875985  1
  O  O74  1  0.000000  0.854064  0.043599  1
  O  O75  1  0.000000  0.367018  0.021911  1
  O  O76  1  0.500000  0.387574  0.747289  1
  O  O77  1  0.310803  0.670294  0.412396  1
  O  O78  1  0.193726  0.918600  0.624015  1
  O  O79  1  0.196833  0.408392  0.323093  1
