# generated using pymatgen
data_CeAlCo
_symmetry_space_group_name_H-M   'P 1'
_cell_length_a   4.43275868
_cell_length_b   4.73843142
_cell_length_c   5.96698285
_cell_angle_alpha   104.52256112
_cell_angle_beta   111.80448663
_cell_angle_gamma   90.00000360
_symmetry_Int_Tables_number   1
_chemical_formula_structural   CeAlCo
_chemical_formula_sum   'Ce2 Al2 Co2'
_cell_volume   112.04121957
_cell_formula_units_Z   2
loop_
 _symmetry_equiv_pos_site_id
 _symmetry_equiv_pos_as_xyz
  1  'x, y, z'
loop_
 _atom_site_type_symbol
 _atom_site_label
 _atom_site_symmetry_multiplicity
 _atom_site_fract_x
 _atom_site_fract_y
 _atom_site_fract_z
 _atom_site_occupancy
  Ce  Ce0  1  0.869170  0.670829  0.738341  1
  Ce  Ce1  1  0.130830  0.329171  0.261659  1
  Al  Al2  1  0.586307  0.813175  0.172613  1
  Al  Al3  1  0.413693  0.186825  0.827387  1
  Co  Co4  1  0.190303  0.848678  0.380607  1
  Co  Co5  1  0.809697  0.151322  0.619393  1
