# generated using pymatgen
data_Sr14MnBi11
_symmetry_space_group_name_H-M   'P 1'
_cell_length_a   17.42021565
_cell_length_b   17.42021634
_cell_length_c   17.42021620
_cell_angle_alpha   94.33263319
_cell_angle_beta   117.53088279
_cell_angle_gamma   117.53088365
_symmetry_Int_Tables_number   1
_chemical_formula_structural   Sr14MnBi11
_chemical_formula_sum   'Sr56 Mn4 Bi44'
_cell_volume   3865.60412778
_cell_formula_units_Z   4
loop_
 _symmetry_equiv_pos_site_id
 _symmetry_equiv_pos_as_xyz
  1  'x, y, z'
loop_
 _atom_site_type_symbol
 _atom_site_label
 _atom_site_symmetry_multiplicity
 _atom_site_fract_x
 _atom_site_fract_y
 _atom_site_fract_z
 _atom_site_occupancy
  Sr  Sr0  1  0.101913  0.125261  0.978948  1
  Sr  Sr1  1  0.354718  0.250000  0.604718  1
  Sr  Sr2  1  0.031493  0.785501  0.401116  1
  Sr  Sr3  1  0.087415  0.522217  0.750846  1
  Sr  Sr4  1  0.645282  0.750000  0.395282  1
  Sr  Sr5  1  0.645282  0.395282  0.250000  1
  Sr  Sr6  1  0.884386  0.754008  0.785501  1
  Sr  Sr7  1  0.398087  0.377035  0.023348  1
  Sr  Sr8  1  0.271371  0.336569  0.749154  1
  Sr  Sr9  1  0.087415  0.065198  0.336569  1
  Sr  Sr10  1  0.912585  0.934802  0.663431  1
  Sr  Sr11  1  0.728629  0.663431  0.250846  1
  Sr  Sr12  1  0.646313  0.122965  0.521052  1
  Sr  Sr13  1  0.853687  0.978948  0.377035  1
  Sr  Sr14  1  0.145282  0.750000  0.895282  1
  Sr  Sr15  1  0.601913  0.622965  0.976652  1
  Sr  Sr16  1  0.728629  0.565198  0.477783  1
  Sr  Sr17  1  0.587415  0.250846  0.022217  1
  Sr  Sr18  1  0.398087  0.521052  0.374739  1
  Sr  Sr19  1  0.228629  0.977783  0.065198  1
  Sr  Sr20  1  0.412585  0.749154  0.977783  1
  Sr  Sr21  1  0.146313  0.625261  0.523348  1
  Sr  Sr22  1  0.384386  0.285501  0.254008  1
  Sr  Sr23  1  0.531493  0.130378  0.245992  1
  Sr  Sr24  1  0.912585  0.477783  0.249154  1
  Sr  Sr25  1  0.587415  0.836569  0.565198  1
  Sr  Sr26  1  0.884386  0.630378  0.098884  1
  Sr  Sr27  1  0.115614  0.369622  0.901116  1
  Sr  Sr28  1  0.353687  0.877035  0.478948  1
  Sr  Sr29  1  0.468507  0.869622  0.754008  1
  Sr  Sr30  1  0.353687  0.976652  0.874739  1
  Sr  Sr31  1  0.898087  0.874739  0.021052  1
  Sr  Sr32  1  0.853687  0.374739  0.476652  1
  Sr  Sr33  1  0.854718  0.250000  0.104718  1
  Sr  Sr34  1  0.898087  0.523348  0.877035  1
  Sr  Sr35  1  0.101913  0.476652  0.122965  1
  Sr  Sr36  1  0.115614  0.245992  0.214499  1
  Sr  Sr37  1  0.531493  0.901116  0.285501  1
  Sr  Sr38  1  0.601913  0.478948  0.625261  1
  Sr  Sr39  1  0.228629  0.750846  0.163431  1
  Sr  Sr40  1  0.615614  0.401116  0.869622  1
  Sr  Sr41  1  0.384386  0.598884  0.130378  1
  Sr  Sr42  1  0.031493  0.745992  0.630378  1
  Sr  Sr43  1  0.968507  0.214499  0.598884  1
  Sr  Sr44  1  0.771371  0.249154  0.836569  1
  Sr  Sr45  1  0.354718  0.604718  0.750000  1
  Sr  Sr46  1  0.412585  0.163431  0.434802  1
  Sr  Sr47  1  0.146313  0.021052  0.622965  1
  Sr  Sr48  1  0.646313  0.023348  0.125261  1
  Sr  Sr49  1  0.854718  0.104718  0.750000  1
  Sr  Sr50  1  0.615614  0.714499  0.745992  1
  Sr  Sr51  1  0.271371  0.434802  0.522217  1
  Sr  Sr52  1  0.145282  0.895282  0.250000  1
  Sr  Sr53  1  0.468507  0.098884  0.714499  1
  Sr  Sr54  1  0.771371  0.022217  0.934802  1
  Sr  Sr55  1  0.968507  0.254008  0.369622  1
  Mn  Mn56  1  0.750000  0.875000  0.125000  1
  Mn  Mn57  1  0.750000  0.375000  0.625000  1
  Mn  Mn58  1  0.250000  0.625000  0.375000  1
  Mn  Mn59  1  0.250000  0.125000  0.875000  1
  Bi  Bi60  1  0.480618  0.490309  0.740309  1
  Bi  Bi61  1  0.395434  0.916116  0.073889  1
  Bi  Bi62  1  0.519382  0.509691  0.259691  1
  Bi  Bi63  1  0.104566  0.178455  0.520682  1
  Bi  Bi64  1  0.895434  0.573889  0.416116  1
  Bi  Bi65  1  0.750000  0.990309  0.509691  1
  Bi  Bi66  1  0.604566  0.083884  0.926111  1
  Bi  Bi67  1  0.395434  0.979318  0.321545  1
  Bi  Bi68  1  0.382489  0.681686  0.573055  1
  Bi  Bi69  1  0.657773  0.678455  0.573889  1
  Bi  Bi70  1  0.750000  0.125000  0.375000  1
  Bi  Bi71  1  0.895434  0.821545  0.479318  1
  Bi  Bi72  1  0.108631  0.426945  0.309434  1
  Bi  Bi73  1  0.882489  0.309434  0.700804  1
  Bi  Bi74  1  0.882489  0.073055  0.181686  1
  Bi  Bi75  1  0.617511  0.799196  0.190566  1
  Bi  Bi76  1  0.391369  0.190566  0.073055  1
  Bi  Bi77  1  0.608631  0.299196  0.681686  1
  Bi  Bi78  1  0.391369  0.700804  0.318314  1
  Bi  Bi79  1  0.250000  0.375000  0.125000  1
  Bi  Bi80  1  0.108631  0.181686  0.799196  1
  Bi  Bi81  1  0.250000  0.009691  0.490309  1
  Bi  Bi82  1  0.117511  0.690566  0.299196  1
  Bi  Bi83  1  0.750000  0.625000  0.875000  1
  Bi  Bi84  1  0.117511  0.926945  0.818314  1
  Bi  Bi85  1  0.104566  0.426111  0.583884  1
  Bi  Bi86  1  0.250000  0.875000  0.625000  1
  Bi  Bi87  1  0.604566  0.020682  0.678455  1
  Bi  Bi88  1  0.842227  0.926111  0.821545  1
  Bi  Bi89  1  0.342227  0.321545  0.426111  1
  Bi  Bi90  1  0.842227  0.416116  0.020682  1
  Bi  Bi91  1  0.891369  0.818314  0.200804  1
  Bi  Bi92  1  0.157773  0.583884  0.979318  1
  Bi  Bi93  1  0.250000  0.740309  0.759691  1
  Bi  Bi94  1  0.891369  0.573055  0.690566  1
  Bi  Bi95  1  0.750000  0.259691  0.240309  1
  Bi  Bi96  1  0.617511  0.318314  0.426945  1
  Bi  Bi97  1  0.382489  0.200804  0.809434  1
  Bi  Bi98  1  0.657773  0.479318  0.083884  1
  Bi  Bi99  1  0.342227  0.520682  0.916116  1
  Bi  Bi100  1  0.157773  0.073889  0.178455  1
  Bi  Bi101  1  0.019382  0.759691  0.009691  1
  Bi  Bi102  1  0.980618  0.240309  0.990309  1
  Bi  Bi103  1  0.608631  0.809434  0.926945  1
