# generated using pymatgen
data_Ni3(AsO4)2
_symmetry_space_group_name_H-M   'P 1'
_cell_length_a   5.99801882
_cell_length_b   6.43306454
_cell_length_c   8.28179964
_cell_angle_alpha   90.00000000
_cell_angle_beta   90.00000000
_cell_angle_gamma   117.78705314
_symmetry_Int_Tables_number   1
_chemical_formula_structural   Ni3(AsO4)2
_chemical_formula_sum   'Ni6 As4 O16'
_cell_volume   282.70909053
_cell_formula_units_Z   2
loop_
 _symmetry_equiv_pos_site_id
 _symmetry_equiv_pos_as_xyz
  1  'x, y, z'
loop_
 _atom_site_type_symbol
 _atom_site_label
 _atom_site_symmetry_multiplicity
 _atom_site_fract_x
 _atom_site_fract_y
 _atom_site_fract_z
 _atom_site_occupancy
  Ni  Ni0  1  0.000000  0.000000  0.000000  1
  Ni  Ni1  1  0.500000  0.000000  0.500000  1
  Ni  Ni2  1  0.883115  0.266230  0.750000  1
  Ni  Ni3  1  0.616885  0.733770  0.250000  1
  Ni  Ni4  1  0.116885  0.733770  0.250000  1
  Ni  Ni5  1  0.383115  0.266230  0.750000  1
  As  As6  1  0.376189  0.752379  0.884993  1
  As  As7  1  0.623811  0.247621  0.115007  1
  As  As8  1  0.123811  0.247621  0.384993  1
  As  As9  1  0.876189  0.752379  0.615007  1
  O  O10  1  0.252256  0.504511  0.766197  1
  O  O11  1  0.747744  0.495489  0.233803  1
  O  O12  1  0.247744  0.495489  0.266197  1
  O  O13  1  0.752256  0.504511  0.733803  1
  O  O14  1  0.998974  0.997948  0.750042  1
  O  O15  1  0.001026  0.002052  0.249958  1
  O  O16  1  0.501026  0.002052  0.250042  1
  O  O17  1  0.498974  0.997948  0.749958  1
  O  O18  1  0.858963  0.241665  0.998898  1
  O  O19  1  0.617297  0.758335  0.001102  1
  O  O20  1  0.641037  0.758335  0.498898  1
  O  O21  1  0.882703  0.241665  0.501102  1
  O  O22  1  0.141037  0.758335  0.001102  1
  O  O23  1  0.382703  0.241665  0.998898  1
  O  O24  1  0.358963  0.241665  0.501102  1
  O  O25  1  0.117297  0.758335  0.498898  1
