# generated using pymatgen
data_H11C10NO8
_symmetry_space_group_name_H-M   'P 1'
_cell_length_a   6.13664083
_cell_length_b   12.41297746
_cell_length_c   15.96027305
_cell_angle_alpha   90.00000000
_cell_angle_beta   90.00000000
_cell_angle_gamma   90.00000000
_symmetry_Int_Tables_number   1
_chemical_formula_structural   H11C10NO8
_chemical_formula_sum   'H44 C40 N4 O32'
_cell_volume   1215.75758878
_cell_formula_units_Z   4
loop_
 _symmetry_equiv_pos_site_id
 _symmetry_equiv_pos_as_xyz
  1  'x, y, z'
loop_
 _atom_site_type_symbol
 _atom_site_label
 _atom_site_symmetry_multiplicity
 _atom_site_fract_x
 _atom_site_fract_y
 _atom_site_fract_z
 _atom_site_occupancy
  H  H0  1  0.878630  0.529049  0.825093  1
  H  H1  1  0.621370  0.029049  0.825093  1
  H  H2  1  0.563580  0.362600  0.304301  1
  H  H3  1  0.698336  0.861280  0.945639  1
  H  H4  1  0.436420  0.637400  0.695699  1
  H  H5  1  0.936420  0.362600  0.195699  1
  H  H6  1  0.298405  0.797445  0.298512  1
  H  H7  1  0.701595  0.702555  0.798512  1
  H  H8  1  0.621370  0.529049  0.674907  1
  H  H9  1  0.500890  0.542139  0.777257  1
  H  H10  1  0.701595  0.202555  0.701488  1
  H  H11  1  0.801664  0.861280  0.554361  1
  H  H12  1  0.298405  0.297445  0.201488  1
  H  H13  1  0.436420  0.137400  0.804301  1
  H  H14  1  0.198336  0.638720  0.054361  1
  H  H15  1  1.000890  0.457861  0.277257  1
  H  H16  1  0.878630  0.029049  0.674907  1
  H  H17  1  0.201595  0.797445  0.201488  1
  H  H18  1  1.000890  0.957861  0.222743  1
  H  H19  1  0.121370  0.970951  0.325093  1
  H  H20  1  0.121370  0.470951  0.174907  1
  H  H21  1  0.750000  0.184974  0.250000  1
  H  H22  1  -0.000890  0.542139  0.722743  1
  H  H23  1  0.698336  0.361280  0.554361  1
  H  H24  1  0.063580  0.637400  0.804301  1
  H  H25  1  0.063580  0.137400  0.695699  1
  H  H26  1  0.563580  0.862600  0.195699  1
  H  H27  1  0.201595  0.297445  0.298512  1
  H  H28  1  0.936420  0.862600  0.304301  1
  H  H29  1  -0.000890  0.042139  0.777257  1
  H  H30  1  0.499110  0.957861  0.277257  1
  H  H31  1  0.378630  0.470951  0.325093  1
  H  H32  1  0.750000  0.684974  0.250000  1
  H  H33  1  0.798405  0.202555  0.798512  1
  H  H34  1  0.378630  0.970951  0.174907  1
  H  H35  1  0.250000  0.315026  0.750000  1
  H  H36  1  0.250000  0.815026  0.750000  1
  H  H37  1  0.798405  0.702555  0.701488  1
  H  H38  1  0.301664  0.638720  0.445639  1
  H  H39  1  0.500890  0.042139  0.722743  1
  H  H40  1  0.499110  0.457861  0.222743  1
  H  H41  1  0.301664  0.138720  0.054361  1
  H  H42  1  0.198336  0.138720  0.445639  1
  H  H43  1  0.801664  0.361280  0.945639  1
  C  C44  1  0.062230  0.914660  0.277613  1
  C  C45  1  0.213283  0.341327  0.879947  1
  C  C46  1  0.062230  0.414660  0.222387  1
  C  C47  1  0.162042  0.377536  0.501027  1
  C  C48  1  0.286717  0.341327  0.620053  1
  C  C49  1  0.786717  0.658673  0.120053  1
  C  C50  1  0.378658  0.867634  0.959723  1
  C  C51  1  0.437770  0.414660  0.277613  1
  C  C52  1  0.213283  0.841327  0.620053  1
  C  C53  1  0.934638  0.149010  0.085472  1
  C  C54  1  0.713283  0.658673  0.379947  1
  C  C55  1  0.434638  0.350990  0.914528  1
  C  C56  1  0.065362  0.850990  0.914528  1
  C  C57  1  0.837958  0.122464  0.001027  1
  C  C58  1  0.565362  0.149010  0.414528  1
  C  C59  1  0.065362  0.350990  0.585472  1
  C  C60  1  0.121342  0.867634  0.540277  1
  C  C61  1  0.337958  0.377536  0.998973  1
  C  C62  1  0.662042  0.622464  0.001027  1
  C  C63  1  0.562230  0.585340  0.722387  1
  C  C64  1  0.786717  0.158673  0.379947  1
  C  C65  1  0.437770  0.914660  0.222387  1
  C  C66  1  0.937770  0.085340  0.722387  1
  C  C67  1  0.878658  0.132366  0.459723  1
  C  C68  1  0.162042  0.877536  0.998973  1
  C  C69  1  0.713283  0.158673  0.120053  1
  C  C70  1  0.937770  0.585340  0.777613  1
  C  C71  1  0.562230  0.085340  0.777613  1
  C  C72  1  0.337958  0.877536  0.501027  1
  C  C73  1  0.286717  0.841327  0.879947  1
  C  C74  1  0.621342  0.132366  0.040277  1
  C  C75  1  0.565362  0.649010  0.085472  1
  C  C76  1  0.378658  0.367634  0.540277  1
  C  C77  1  0.662042  0.122464  0.498973  1
  C  C78  1  0.837958  0.622464  0.498973  1
  C  C79  1  0.121342  0.367634  0.959723  1
  C  C80  1  0.934638  0.649010  0.414528  1
  C  C81  1  0.434638  0.850990  0.585472  1
  C  C82  1  0.878658  0.632366  0.040277  1
  C  C83  1  0.621342  0.632366  0.459723  1
  N  N84  1  0.250000  0.347162  0.250000  1
  N  N85  1  0.750000  0.152838  0.750000  1
  N  N86  1  0.250000  0.847162  0.250000  1
  N  N87  1  0.750000  0.652838  0.750000  1
  O  O88  1  0.376473  0.662053  0.113871  1
  O  O89  1  0.873259  0.683150  0.191017  1
  O  O90  1  0.590236  0.105448  0.569944  1
  O  O91  1  0.926029  0.376927  0.989932  1
  O  O92  1  0.123527  0.162053  0.113871  1
  O  O93  1  0.126741  0.816850  0.691017  1
  O  O94  1  0.909764  0.605448  0.569944  1
  O  O95  1  0.373259  0.816850  0.808983  1
  O  O96  1  0.590236  0.605448  0.930056  1
  O  O97  1  0.426029  0.123073  0.010068  1
  O  O98  1  0.409764  0.394552  0.069944  1
  O  O99  1  0.926029  0.876927  0.510068  1
  O  O100  1  0.426029  0.623073  0.489932  1
  O  O101  1  0.573971  0.876927  0.989932  1
  O  O102  1  0.909764  0.105448  0.930056  1
  O  O103  1  0.573971  0.376927  0.510068  1
  O  O104  1  0.090236  0.394552  0.430056  1
  O  O105  1  0.623527  0.337947  0.886129  1
  O  O106  1  0.626741  0.683150  0.308983  1
  O  O107  1  0.623527  0.837947  0.613871  1
  O  O108  1  0.409764  0.894552  0.430056  1
  O  O109  1  0.073971  0.123073  0.489932  1
  O  O110  1  0.126741  0.316850  0.808983  1
  O  O111  1  0.073971  0.623073  0.010068  1
  O  O112  1  0.123527  0.662053  0.386129  1
  O  O113  1  0.376473  0.162053  0.386129  1
  O  O114  1  0.090236  0.894552  0.069944  1
  O  O115  1  0.873259  0.183150  0.308983  1
  O  O116  1  0.373259  0.316850  0.691017  1
  O  O117  1  0.876473  0.837947  0.886129  1
  O  O118  1  0.626741  0.183150  0.191017  1
  O  O119  1  0.876473  0.337947  0.613871  1
