# generated using pymatgen
data_Co3P4PbO14
_symmetry_space_group_name_H-M   'P 1'
_cell_length_a   7.58671461
_cell_length_b   7.86420308
_cell_length_c   9.60662968
_cell_angle_alpha   90.00000000
_cell_angle_beta   111.93939402
_cell_angle_gamma   90.00000000
_symmetry_Int_Tables_number   1
_chemical_formula_structural   Co3P4PbO14
_chemical_formula_sum   'Co6 P8 Pb2 O28'
_cell_volume   531.65597518
_cell_formula_units_Z   2
loop_
 _symmetry_equiv_pos_site_id
 _symmetry_equiv_pos_as_xyz
  1  'x, y, z'
loop_
 _atom_site_type_symbol
 _atom_site_label
 _atom_site_symmetry_multiplicity
 _atom_site_fract_x
 _atom_site_fract_y
 _atom_site_fract_z
 _atom_site_occupancy
  Co  Co0  1  0.314044  0.374774  0.472574  1
  Co  Co1  1  0.314044  0.125226  0.972574  1
  Co  Co2  1  0.685956  0.625226  0.527426  1
  Co  Co3  1  0.685956  0.874774  0.027426  1
  Co  Co4  1  0.500000  0.500000  0.000000  1
  Co  Co5  1  0.500000  0.000000  0.500000  1
  P  P6  1  0.894560  0.944594  0.798961  1
  P  P7  1  0.390192  0.703076  0.693796  1
  P  P8  1  0.609808  0.203076  0.806204  1
  P  P9  1  0.894560  0.555406  0.298961  1
  P  P10  1  0.609808  0.296924  0.306204  1
  P  P11  1  0.105440  0.055406  0.201039  1
  P  P12  1  0.105440  0.444594  0.701039  1
  P  P13  1  0.390192  0.796924  0.193796  1
  Pb  Pb14  1  0.000000  0.000000  0.500000  1
  Pb  Pb15  1  0.000000  0.500000  0.000000  1
  O  O16  1  0.185033  0.629131  0.677911  1
  O  O17  1  0.770521  0.885649  0.636485  1
  O  O18  1  0.474660  0.922338  0.112600  1
  O  O19  1  0.229479  0.385649  0.863515  1
  O  O20  1  0.474660  0.577662  0.612600  1
  O  O21  1  0.229479  0.114351  0.363515  1
  O  O22  1  0.126224  0.324318  0.583386  1
  O  O23  1  0.347232  0.625427  0.113096  1
  O  O24  1  0.499912  0.710060  0.864340  1
  O  O25  1  0.499912  0.789940  0.364340  1
  O  O26  1  0.814967  0.129131  0.822089  1
  O  O27  1  0.525340  0.077662  0.887400  1
  O  O28  1  0.525340  0.422338  0.387400  1
  O  O29  1  0.126224  0.175682  0.083386  1
  O  O30  1  0.814967  0.370869  0.322089  1
  O  O31  1  0.873776  0.675682  0.416614  1
  O  O32  1  0.873776  0.824318  0.916614  1
  O  O33  1  0.500088  0.210060  0.635660  1
  O  O34  1  0.902986  0.482050  0.690630  1
  O  O35  1  0.347232  0.874573  0.613096  1
  O  O36  1  0.770521  0.614351  0.136485  1
  O  O37  1  0.097014  0.982050  0.809370  1
  O  O38  1  0.652768  0.374573  0.886904  1
  O  O39  1  0.652768  0.125427  0.386904  1
  O  O40  1  0.185033  0.870869  0.177911  1
  O  O41  1  0.902986  0.017950  0.190630  1
  O  O42  1  0.097014  0.517950  0.309370  1
  O  O43  1  0.500088  0.289940  0.135660  1
