# generated using pymatgen
data_W(CO)6
_symmetry_space_group_name_H-M   'P 1'
_cell_length_a   6.58040828
_cell_length_b   11.58306368
_cell_length_c   12.16580628
_cell_angle_alpha   90.00000000
_cell_angle_beta   90.00000000
_cell_angle_gamma   90.00000000
_symmetry_Int_Tables_number   1
_chemical_formula_structural   W(CO)6
_chemical_formula_sum   'W4 C24 O24'
_cell_volume   927.29342602
_cell_formula_units_Z   4
loop_
 _symmetry_equiv_pos_site_id
 _symmetry_equiv_pos_as_xyz
  1  'x, y, z'
loop_
 _atom_site_type_symbol
 _atom_site_label
 _atom_site_symmetry_multiplicity
 _atom_site_fract_x
 _atom_site_fract_y
 _atom_site_fract_z
 _atom_site_occupancy
  W  W0  1  0.937589  0.750000  0.872708  1
  W  W1  1  0.062411  0.250000  0.127292  1
  W  W2  1  0.562411  0.750000  0.372708  1
  W  W3  1  0.437589  0.250000  0.627292  1
  C  C4  1  0.937985  0.378032  0.227408  1
  C  C5  1  0.685258  0.623247  0.474587  1
  C  C6  1  0.562015  0.121968  0.727408  1
  C  C7  1  0.674150  0.750000  0.777772  1
  C  C8  1  0.325850  0.250000  0.222228  1
  C  C9  1  0.314742  0.376753  0.525413  1
  C  C10  1  0.701362  0.250000  0.532688  1
  C  C11  1  0.798638  0.250000  0.032688  1
  C  C12  1  0.201362  0.750000  0.967312  1
  C  C13  1  0.174150  0.250000  0.722228  1
  C  C14  1  0.185258  0.376753  0.025413  1
  C  C15  1  0.937985  0.121968  0.227408  1
  C  C16  1  0.062015  0.878032  0.772592  1
  C  C17  1  0.814742  0.623247  0.974587  1
  C  C18  1  0.437985  0.621968  0.272592  1
  C  C19  1  0.062015  0.621968  0.772592  1
  C  C20  1  0.298638  0.750000  0.467312  1
  C  C21  1  0.814742  0.876753  0.974587  1
  C  C22  1  0.562015  0.378032  0.727408  1
  C  C23  1  0.825850  0.750000  0.277772  1
  C  C24  1  0.314742  0.123247  0.525413  1
  C  C25  1  0.185258  0.123247  0.025413  1
  C  C26  1  0.685258  0.876753  0.474587  1
  C  C27  1  0.437985  0.878032  0.272592  1
  O  O28  1  0.752617  0.946813  0.532176  1
  O  O29  1  0.849286  0.250000  0.480681  1
  O  O30  1  0.247383  0.053187  0.467824  1
  O  O31  1  0.252617  0.446813  0.967824  1
  O  O32  1  0.150714  0.750000  0.519319  1
  O  O33  1  0.349286  0.750000  0.019319  1
  O  O34  1  0.752617  0.553187  0.532176  1
  O  O35  1  0.526541  0.750000  0.725384  1
  O  O36  1  0.747383  0.553187  0.032176  1
  O  O37  1  0.473459  0.250000  0.274616  1
  O  O38  1  0.369380  0.949935  0.217606  1
  O  O39  1  0.869380  0.050065  0.282394  1
  O  O40  1  0.630620  0.050065  0.782394  1
  O  O41  1  0.869380  0.449935  0.282394  1
  O  O42  1  0.747383  0.946813  0.032176  1
  O  O43  1  0.247383  0.446813  0.467824  1
  O  O44  1  0.130620  0.550065  0.717606  1
  O  O45  1  0.130620  0.949935  0.717606  1
  O  O46  1  0.650714  0.250000  0.980681  1
  O  O47  1  0.630620  0.449935  0.782394  1
  O  O48  1  0.252617  0.053187  0.967824  1
  O  O49  1  0.973459  0.750000  0.225384  1
  O  O50  1  0.369380  0.550065  0.217606  1
  O  O51  1  0.026541  0.250000  0.774616  1
