# generated using pymatgen
data_USeO6
_symmetry_space_group_name_H-M   'P 1'
_cell_length_a   5.74059767
_cell_length_b   6.98045821
_cell_length_c   13.49384516
_cell_angle_alpha   104.31945916
_cell_angle_beta   90.00000000
_cell_angle_gamma   90.00000000
_symmetry_Int_Tables_number   1
_chemical_formula_structural   USeO6
_chemical_formula_sum   'U4 Se4 O24'
_cell_volume   523.92602114
_cell_formula_units_Z   4
loop_
 _symmetry_equiv_pos_site_id
 _symmetry_equiv_pos_as_xyz
  1  'x, y, z'
loop_
 _atom_site_type_symbol
 _atom_site_label
 _atom_site_symmetry_multiplicity
 _atom_site_fract_x
 _atom_site_fract_y
 _atom_site_fract_z
 _atom_site_occupancy
  U  U0  1  0.211088  0.663152  0.850318  1
  U  U1  1  0.711088  0.336848  0.649682  1
  U  U2  1  0.788912  0.336848  0.149682  1
  U  U3  1  0.288912  0.663152  0.350318  1
  Se  Se4  1  0.049698  0.202321  0.387235  1
  Se  Se5  1  0.450302  0.202321  0.887235  1
  Se  Se6  1  0.950302  0.797679  0.612765  1
  Se  Se7  1  0.549698  0.797679  0.112765  1
  O  O8  1  0.482095  0.570713  0.779849  1
  O  O9  1  0.282305  0.347478  0.386181  1
  O  O10  1  0.064214  0.267274  0.088959  1
  O  O11  1  0.435786  0.267274  0.588959  1
  O  O12  1  0.564214  0.732726  0.411041  1
  O  O13  1  0.604837  0.175463  0.779792  1
  O  O14  1  0.517905  0.429287  0.220151  1
  O  O15  1  0.356898  0.982091  0.896739  1
  O  O16  1  0.104837  0.824537  0.720208  1
  O  O17  1  0.782305  0.652522  0.113819  1
  O  O18  1  0.935786  0.732726  0.911041  1
  O  O19  1  0.856898  0.017909  0.603261  1
  O  O20  1  0.982095  0.429287  0.720151  1
  O  O21  1  0.643102  0.017909  0.103261  1
  O  O22  1  0.395163  0.824537  0.220208  1
  O  O23  1  0.877552  0.299028  0.486075  1
  O  O24  1  0.143102  0.982091  0.396739  1
  O  O25  1  0.122448  0.700972  0.513925  1
  O  O26  1  0.217695  0.347478  0.886181  1
  O  O27  1  0.622448  0.299028  0.986075  1
  O  O28  1  0.895163  0.175463  0.279792  1
  O  O29  1  0.377552  0.700972  0.013925  1
  O  O30  1  0.017905  0.570713  0.279849  1
  O  O31  1  0.717695  0.652522  0.613819  1
