# generated using pymatgen
data_K2Cu3S3O13
_symmetry_space_group_name_H-M   'P 1'
_cell_length_a   9.69682205
_cell_length_b   10.78844229
_cell_length_c   14.48270327
_cell_angle_alpha   108.62193436
_cell_angle_beta   90.00000000
_cell_angle_gamma   116.70570073
_symmetry_Int_Tables_number   1
_chemical_formula_structural   K2Cu3S3O13
_chemical_formula_sum   'K8 Cu12 S12 O52'
_cell_volume   1264.04633209
_cell_formula_units_Z   4
loop_
 _symmetry_equiv_pos_site_id
 _symmetry_equiv_pos_as_xyz
  1  'x, y, z'
loop_
 _atom_site_type_symbol
 _atom_site_label
 _atom_site_symmetry_multiplicity
 _atom_site_fract_x
 _atom_site_fract_y
 _atom_site_fract_z
 _atom_site_occupancy
  K  K0  1  0.544246  0.610253  0.874434  1
  K  K1  1  0.572159  0.652450  0.439879  1
  K  K2  1  0.066008  0.610253  0.374434  1
  K  K3  1  0.919708  0.347550  0.060121  1
  K  K4  1  0.455754  0.389747  0.125566  1
  K  K5  1  0.080292  0.652450  0.939879  1
  K  K6  1  0.427841  0.347550  0.560121  1
  K  K7  1  0.933992  0.389747  0.625566  1
  Cu  Cu8  1  0.832434  0.156087  0.293810  1
  Cu  Cu9  1  0.987500  0.026929  0.857049  1
  Cu  Cu10  1  0.500483  0.961419  0.840788  1
  Cu  Cu11  1  0.039429  0.026929  0.357049  1
  Cu  Cu12  1  0.167566  0.843913  0.706190  1
  Cu  Cu13  1  0.460936  0.961419  0.340788  1
  Cu  Cu14  1  0.323653  0.156087  0.793810  1
  Cu  Cu15  1  0.539064  0.038581  0.659212  1
  Cu  Cu16  1  0.676347  0.843913  0.206190  1
  Cu  Cu17  1  0.960571  0.973071  0.642951  1
  Cu  Cu18  1  0.012500  0.973071  0.142951  1
  Cu  Cu19  1  0.499517  0.038581  0.159212  1
  S  S20  1  0.818872  0.703363  0.714412  1
  S  S21  1  0.884491  0.703363  0.214412  1
  S  S22  1  0.741587  0.984672  0.007882  1
  S  S23  1  0.330072  0.706376  0.135942  1
  S  S24  1  0.243084  0.984672  0.507882  1
  S  S25  1  0.623696  0.293624  0.364058  1
  S  S26  1  0.756916  0.015328  0.492118  1
  S  S27  1  0.115509  0.296637  0.785588  1
  S  S28  1  0.258413  0.015328  0.992118  1
  S  S29  1  0.669928  0.293624  0.864058  1
  S  S30  1  0.376304  0.706376  0.635942  1
  S  S31  1  0.181128  0.296637  0.285588  1
  O  O32  1  0.552028  0.242347  0.258415  1
  O  O33  1  0.968071  0.768434  0.141113  1
  O  O34  1  0.887067  0.072593  0.972243  1
  O  O35  1  0.625600  0.432271  0.423194  1
  O  O36  1  0.626415  0.904163  0.408821  1
  O  O37  1  0.374400  0.567729  0.576806  1
  O  O38  1  0.209085  0.679846  0.631640  1
  O  O39  1  0.690319  0.242347  0.758415  1
  O  O40  1  0.373585  0.095837  0.591179  1
  O  O41  1  0.601646  0.901085  0.926852  1
  O  O42  1  0.299439  0.901085  0.426852  1
  O  O43  1  0.037160  0.190673  0.681531  1
  O  O44  1  0.241484  0.126897  0.961098  1
  O  O45  1  0.958947  0.676401  0.700244  1
  O  O46  1  0.153513  0.190673  0.181531  1
  O  O47  1  0.700561  0.098915  0.573148  1
  O  O48  1  0.185526  0.072593  0.472243  1
  O  O49  1  0.644505  0.177894  0.908489  1
  O  O50  1  0.309681  0.757653  0.241585  1
  O  O51  1  0.962840  0.809327  0.318469  1
  O  O52  1  0.319943  0.437762  0.298538  1
  O  O53  1  0.680057  0.562238  0.701462  1
  O  O54  1  0.106508  0.000000  0.750000  1
  O  O55  1  0.717453  0.676401  0.200244  1
  O  O56  1  0.806671  0.432271  0.923194  1
  O  O57  1  0.398354  0.098915  0.073148  1
  O  O58  1  0.355495  0.822106  0.091511  1
  O  O59  1  0.114588  0.873103  0.538902  1
  O  O60  1  0.112933  0.927407  0.027757  1
  O  O61  1  0.758516  0.873103  0.038902  1
  O  O62  1  0.613004  0.000000  0.250000  1
  O  O63  1  0.533388  0.177894  0.408489  1
  O  O64  1  0.041053  0.323599  0.299756  1
  O  O65  1  0.199637  0.231566  0.358887  1
  O  O66  1  0.447972  0.757653  0.741585  1
  O  O67  1  0.117819  0.437762  0.798538  1
  O  O68  1  0.893492  0.000000  0.250000  1
  O  O69  1  0.282547  0.323599  0.799756  1
  O  O70  1  0.277749  0.904163  0.908821  1
  O  O71  1  0.882181  0.562238  0.201462  1
  O  O72  1  0.529239  0.320154  0.868360  1
  O  O73  1  0.466612  0.822106  0.591511  1
  O  O74  1  0.790915  0.320154  0.368360  1
  O  O75  1  0.386996  0.000000  0.750000  1
  O  O76  1  0.814474  0.927407  0.527757  1
  O  O77  1  0.885412  0.126897  0.461098  1
  O  O78  1  0.800363  0.768434  0.641113  1
  O  O79  1  0.722251  0.095837  0.091179  1
  O  O80  1  0.193329  0.567729  0.076806  1
  O  O81  1  0.470761  0.679846  0.131640  1
  O  O82  1  0.031929  0.231566  0.858887  1
  O  O83  1  0.846487  0.809327  0.818469  1
