# generated using pymatgen
data_CdI2
_symmetry_space_group_name_H-M   'P 1'
_cell_length_a   4.33217933
_cell_length_b   4.33217960
_cell_length_c   44.38878253
_cell_angle_alpha   90.00000000
_cell_angle_beta   90.00000000
_cell_angle_gamma   119.99999803
_symmetry_Int_Tables_number   1
_chemical_formula_structural   CdI2
_chemical_formula_sum   'Cd6 I12'
_cell_volume   721.46746741
_cell_formula_units_Z   6
loop_
 _symmetry_equiv_pos_site_id
 _symmetry_equiv_pos_as_xyz
  1  'x, y, z'
loop_
 _atom_site_type_symbol
 _atom_site_label
 _atom_site_symmetry_multiplicity
 _atom_site_fract_x
 _atom_site_fract_y
 _atom_site_fract_z
 _atom_site_occupancy
  Cd  Cd0  1  0.666667  0.333333  0.041636  1
  Cd  Cd1  1  0.333333  0.666667  0.208361  1
  Cd  Cd2  1  0.333333  0.666667  0.541664  1
  Cd  Cd3  1  0.333333  0.666667  0.708362  1
  Cd  Cd4  1  0.000000  0.000000  0.374977  1
  Cd  Cd5  1  0.333333  0.666667  0.874970  1
  I  I6  1  0.000000  0.000000  0.169464  1
  I  I7  1  0.333333  0.666667  0.080562  1
  I  I8  1  0.333333  0.666667  0.336042  1
  I  I9  1  0.000000  0.000000  0.836059  1
  I  I10  1  0.666667  0.333333  0.580589  1
  I  I11  1  0.666667  0.333333  0.413911  1
  I  I12  1  0.000000  0.000000  0.002716  1
  I  I13  1  0.666667  0.333333  0.913906  1
  I  I14  1  0.666667  0.333333  0.247283  1
  I  I15  1  0.000000  0.000000  0.669465  1
  I  I16  1  0.000000  0.000000  0.502754  1
  I  I17  1  0.666667  0.333333  0.747281  1
