# generated using pymatgen
data_Cu7P12S9Cl7
_symmetry_space_group_name_H-M   'P 1'
_cell_length_a   16.77040998
_cell_length_b   16.77040982
_cell_length_c   6.28894436
_cell_angle_alpha   90.00000000
_cell_angle_beta   90.00000000
_cell_angle_gamma   120.00000032
_symmetry_Int_Tables_number   1
_chemical_formula_structural   Cu7P12S9Cl7
_chemical_formula_sum   'Cu14 P24 S18 Cl14'
_cell_volume   1531.77768405
_cell_formula_units_Z   2
loop_
 _symmetry_equiv_pos_site_id
 _symmetry_equiv_pos_as_xyz
  1  'x, y, z'
loop_
 _atom_site_type_symbol
 _atom_site_label
 _atom_site_symmetry_multiplicity
 _atom_site_fract_x
 _atom_site_fract_y
 _atom_site_fract_z
 _atom_site_occupancy
  Cu  Cu0  1  0.079338  0.920699  0.525108  1
  Cu  Cu1  1  0.158638  0.079301  0.025108  1
  Cu  Cu2  1  0.455923  0.544140  0.037081  1
  Cu  Cu3  1  0.333333  0.666667  0.476444  1
  Cu  Cu4  1  0.079301  0.158638  0.525108  1
  Cu  Cu5  1  0.920699  0.079338  0.025108  1
  Cu  Cu6  1  0.544077  0.088217  0.537081  1
  Cu  Cu7  1  0.666667  0.333333  0.976444  1
  Cu  Cu8  1  0.544140  0.455923  0.537081  1
  Cu  Cu9  1  0.455860  0.911783  0.037081  1
  Cu  Cu10  1  0.920662  0.841362  0.025108  1
  Cu  Cu11  1  0.841362  0.920662  0.525108  1
  Cu  Cu12  1  0.911783  0.455860  0.537081  1
  Cu  Cu13  1  0.088217  0.544077  0.037081  1
  P  P14  1  0.524114  0.692268  0.907714  1
  P  P15  1  0.739275  0.478543  0.118391  1
  P  P16  1  0.850446  0.149533  0.142660  1
  P  P17  1  0.692268  0.524114  0.407714  1
  P  P18  1  0.307732  0.831846  0.907714  1
  P  P19  1  0.831846  0.307732  0.407714  1
  P  P20  1  0.700913  0.850467  0.642660  1
  P  P21  1  0.524103  0.831849  0.907733  1
  P  P22  1  0.521457  0.260732  0.118391  1
  P  P23  1  0.149554  0.299087  0.642660  1
  P  P24  1  0.260732  0.521457  0.618391  1
  P  P25  1  0.299087  0.149554  0.142660  1
  P  P26  1  0.475897  0.307746  0.407733  1
  P  P27  1  0.168151  0.692254  0.907733  1
  P  P28  1  0.739268  0.260725  0.118391  1
  P  P29  1  0.149533  0.850446  0.642660  1
  P  P30  1  0.260725  0.739268  0.618391  1
  P  P31  1  0.168154  0.475886  0.907714  1
  P  P32  1  0.692254  0.168151  0.407733  1
  P  P33  1  0.850467  0.700913  0.142660  1
  P  P34  1  0.475886  0.168154  0.407714  1
  P  P35  1  0.831849  0.524103  0.407733  1
  P  P36  1  0.307746  0.475897  0.907733  1
  P  P37  1  0.478543  0.739275  0.618391  1
  S  S38  1  0.339162  0.071841  0.334708  1
  S  S39  1  0.928159  0.267321  0.334708  1
  S  S40  1  0.339170  0.267339  0.334724  1
  S  S41  1  0.267339  0.339170  0.834724  1
  S  S42  1  0.267321  0.928159  0.834708  1
  S  S43  1  0.071841  0.339162  0.834708  1
  S  S44  1  0.660838  0.732679  0.834708  1
  S  S45  1  0.203748  0.796232  0.416441  1
  S  S46  1  0.203768  0.407516  0.416441  1
  S  S47  1  0.732661  0.071832  0.334724  1
  S  S48  1  0.796252  0.592484  0.916441  1
  S  S49  1  0.407516  0.203768  0.916441  1
  S  S50  1  0.071832  0.732661  0.834724  1
  S  S51  1  0.732679  0.660838  0.334708  1
  S  S52  1  0.796232  0.203748  0.916441  1
  S  S53  1  0.660830  0.928168  0.834724  1
  S  S54  1  0.928168  0.660830  0.334724  1
  S  S55  1  0.592484  0.796252  0.416441  1
  Cl  Cl56  1  0.853248  0.926623  0.152216  1
  Cl  Cl57  1  0.926625  0.073377  0.652216  1
  Cl  Cl58  1  0.666667  0.333333  0.614333  1
  Cl  Cl59  1  0.926623  0.853248  0.652216  1
  Cl  Cl60  1  0.939421  0.469700  0.898272  1
  Cl  Cl61  1  0.060579  0.530280  0.398272  1
  Cl  Cl62  1  0.073375  0.146752  0.152216  1
  Cl  Cl63  1  0.146752  0.073375  0.652216  1
  Cl  Cl64  1  0.333333  0.666667  0.114333  1
  Cl  Cl65  1  0.530280  0.060579  0.898272  1
  Cl  Cl66  1  0.469700  0.939421  0.398272  1
  Cl  Cl67  1  0.073377  0.926625  0.152216  1
  Cl  Cl68  1  0.530300  0.469720  0.898272  1
  Cl  Cl69  1  0.469720  0.530300  0.398272  1
