# generated using pymatgen
data_CuB2(CN)8
_symmetry_space_group_name_H-M   'P 1'
_cell_length_a   6.10543469
_cell_length_b   7.30810702
_cell_length_c   7.63773479
_cell_angle_alpha   118.58233653
_cell_angle_beta   93.36865555
_cell_angle_gamma   89.99999532
_symmetry_Int_Tables_number   1
_chemical_formula_structural   CuB2(CN)8
_chemical_formula_sum   'Cu1 B2 C8 N8'
_cell_volume   298.58682327
_cell_formula_units_Z   1
loop_
 _symmetry_equiv_pos_site_id
 _symmetry_equiv_pos_as_xyz
  1  'x, y, z'
loop_
 _atom_site_type_symbol
 _atom_site_label
 _atom_site_symmetry_multiplicity
 _atom_site_fract_x
 _atom_site_fract_y
 _atom_site_fract_z
 _atom_site_occupancy
  Cu  Cu0  1  0.500000  0.000000  0.000000  1
  B  B1  1  0.149998  0.335029  0.670057  1
  B  B2  1  0.850002  0.664971  0.329943  1
  C  C3  1  0.250584  0.567064  0.780722  1
  C  C4  1  0.784881  0.777460  0.554920  1
  C  C5  1  0.891283  0.339051  0.678102  1
  C  C6  1  0.749416  0.786342  0.219278  1
  C  C7  1  0.215119  0.222540  0.445080  1
  C  C8  1  0.250584  0.213658  0.780722  1
  C  C9  1  0.749416  0.432936  0.219278  1
  C  C10  1  0.108717  0.660949  0.321898  1
  N  N11  1  0.700797  0.341311  0.682622  1
  N  N12  1  0.739404  0.860321  0.720643  1
  N  N13  1  0.324103  0.125242  0.861191  1
  N  N14  1  0.675897  0.874758  0.138809  1
  N  N15  1  0.260596  0.139679  0.279357  1
  N  N16  1  0.675897  0.264051  0.138809  1
  N  N17  1  0.324103  0.735949  0.861191  1
  N  N18  1  0.299204  0.658689  0.317378  1
