# generated using pymatgen
data_RbNa3SnO4
_symmetry_space_group_name_H-M   'P 1'
_cell_length_a   11.92883306
_cell_length_b   11.92882833
_cell_length_c   11.92882023
_cell_angle_alpha   100.46027009
_cell_angle_beta   114.15630126
_cell_angle_gamma   114.15624471
_symmetry_Int_Tables_number   1
_chemical_formula_structural   RbNa3SnO4
_chemical_formula_sum   'Rb8 Na24 Sn8 O32'
_cell_volume   1282.99252502
_cell_formula_units_Z   8
loop_
 _symmetry_equiv_pos_site_id
 _symmetry_equiv_pos_as_xyz
  1  'x, y, z'
loop_
 _atom_site_type_symbol
 _atom_site_label
 _atom_site_symmetry_multiplicity
 _atom_site_fract_x
 _atom_site_fract_y
 _atom_site_fract_z
 _atom_site_occupancy
  Rb  Rb0  1  0.217070  0.569973  0.814328  1
  Rb  Rb1  1  0.255644  0.852901  0.069972  1
  Rb  Rb2  1  0.282930  0.097258  0.352902  1
  Rb  Rb3  1  0.755644  0.685672  0.402742  1
  Rb  Rb4  1  0.782930  0.430027  0.185672  1
  Rb  Rb5  1  0.744356  0.147099  0.930028  1
  Rb  Rb6  1  0.717070  0.902742  0.647098  1
  Rb  Rb7  1  0.244356  0.314328  0.597258  1
  Na  Na8  1  0.060397  0.654782  0.533842  1
  Na  Na9  1  0.610040  0.292308  0.675593  1
  Na  Na10  1  0.116717  0.182268  0.792309  1
  Na  Na11  1  0.879060  0.033842  0.473445  1
  Na  Na12  1  0.110041  0.434448  0.317731  1
  Na  Na13  1  0.113885  0.465172  0.034991  1
  Na  Na14  1  0.560398  0.026555  0.405615  1
  Na  Na15  1  0.886115  0.534828  0.965009  1
  Na  Na16  1  0.379061  0.905614  0.845217  1
  Na  Na17  1  0.883283  0.817732  0.207691  1
  Na  Na18  1  0.389960  0.707692  0.324407  1
  Na  Na19  1  0.430181  0.465009  0.078895  1
  Na  Na20  1  0.569819  0.534991  0.921105  1
  Na  Na21  1  0.386114  0.421105  0.351287  1
  Na  Na22  1  0.889959  0.565552  0.682269  1
  Na  Na23  1  0.613886  0.578895  0.648713  1
  Na  Na24  1  0.620939  0.094386  0.154783  1
  Na  Na25  1  0.616716  0.824407  0.934447  1
  Na  Na26  1  0.383284  0.175593  0.065553  1
  Na  Na27  1  0.939603  0.345218  0.466158  1
  Na  Na28  1  0.120940  0.966158  0.526555  1
  Na  Na29  1  0.439602  0.973445  0.594385  1
  Na  Na30  1  0.069818  0.148713  0.034826  1
  Na  Na31  1  0.930182  0.851287  0.965174  1
  Sn  Sn32  1  0.889489  0.267615  0.731213  1
  Sn  Sn33  1  0.036401  0.878126  0.767615  1
  Sn  Sn34  1  0.610513  0.341727  0.378127  1
  Sn  Sn35  1  0.536401  0.768786  0.158274  1
  Sn  Sn36  1  0.110511  0.732385  0.268787  1
  Sn  Sn37  1  0.463599  0.231214  0.841726  1
  Sn  Sn38  1  0.389487  0.658273  0.621873  1
  Sn  Sn39  1  0.963599  0.121874  0.232385  1
  O  O40  1  0.940273  0.455437  0.816176  1
  O  O41  1  0.870610  0.225088  0.247018  1
  O  O42  1  0.495123  0.860954  0.037391  1
  O  O43  1  0.995123  0.957731  0.634168  1
  O  O44  1  0.860738  0.984835  0.044562  1
  O  O45  1  0.639260  0.683824  0.124097  1
  O  O46  1  0.823564  0.462609  0.457732  1
  O  O47  1  0.521930  0.145521  0.274912  1
  O  O48  1  0.360740  0.316176  0.875903  1
  O  O49  1  0.129390  0.774912  0.752982  1
  O  O50  1  0.653799  0.389473  0.894364  1
  O  O51  1  0.370609  0.123591  0.645521  1
  O  O52  1  0.629391  0.876409  0.354479  1
  O  O53  1  0.440272  0.624097  0.484836  1
  O  O54  1  0.323564  0.865832  0.360955  1
  O  O55  1  0.504890  0.394363  0.240564  1
  O  O56  1  0.559728  0.375903  0.515164  1
  O  O57  1  0.495110  0.605637  0.759436  1
  O  O58  1  0.846201  0.740564  0.735674  1
  O  O59  1  0.059727  0.544563  0.183824  1
  O  O60  1  0.176436  0.537391  0.542268  1
  O  O61  1  0.153799  0.259436  0.264326  1
  O  O62  1  0.995110  0.235674  0.889472  1
  O  O63  1  0.004890  0.764326  0.110528  1
  O  O64  1  0.478070  0.854479  0.725088  1
  O  O65  1  0.978070  0.252982  0.623591  1
  O  O66  1  0.676436  0.134168  0.639045  1
  O  O67  1  0.346201  0.610527  0.105636  1
  O  O68  1  0.004877  0.042269  0.365832  1
  O  O69  1  0.021930  0.747018  0.376409  1
  O  O70  1  0.139262  0.015165  0.955438  1
  O  O71  1  0.504877  0.139046  0.962609  1
