# generated using pymatgen
data_ThSe2O7
_symmetry_space_group_name_H-M   'P 1'
_cell_length_a   7.14157205
_cell_length_b   9.16590228
_cell_length_c   9.66736981
_cell_angle_alpha   90.00000000
_cell_angle_beta   90.00000000
_cell_angle_gamma   103.27303569
_symmetry_Int_Tables_number   1
_chemical_formula_structural   ThSe2O7
_chemical_formula_sum   'Th4 Se8 O28'
_cell_volume   615.91149994
_cell_formula_units_Z   4
loop_
 _symmetry_equiv_pos_site_id
 _symmetry_equiv_pos_as_xyz
  1  'x, y, z'
loop_
 _atom_site_type_symbol
 _atom_site_label
 _atom_site_symmetry_multiplicity
 _atom_site_fract_x
 _atom_site_fract_y
 _atom_site_fract_z
 _atom_site_occupancy
  Th  Th0  1  0.792230  0.134154  0.460430  1
  Th  Th1  1  0.792230  0.634154  0.039570  1
  Th  Th2  1  0.207770  0.865846  0.539570  1
  Th  Th3  1  0.207770  0.365846  0.960430  1
  Se  Se4  1  0.327812  0.248640  0.595866  1
  Se  Se5  1  0.327812  0.748640  0.904134  1
  Se  Se6  1  0.120942  0.017514  0.182064  1
  Se  Se7  1  0.879058  0.482486  0.682064  1
  Se  Se8  1  0.672188  0.751360  0.404134  1
  Se  Se9  1  0.120942  0.517514  0.317936  1
  Se  Se10  1  0.879058  0.982486  0.817936  1
  Se  Se11  1  0.672188  0.251360  0.095866  1
  O  O12  1  0.046415  0.865082  0.085561  1
  O  O13  1  0.745750  0.525021  0.810188  1
  O  O14  1  0.104039  0.624986  0.940382  1
  O  O15  1  0.449383  0.607183  0.939203  1
  O  O16  1  0.046415  0.365082  0.414439  1
  O  O17  1  0.550617  0.392817  0.060797  1
  O  O18  1  0.336890  0.257145  0.773209  1
  O  O19  1  0.745750  0.025021  0.689812  1
  O  O20  1  0.730887  0.851740  0.912592  1
  O  O21  1  0.254250  0.974979  0.310188  1
  O  O22  1  0.336890  0.757145  0.726791  1
  O  O23  1  0.663110  0.242855  0.273209  1
  O  O24  1  0.940147  0.592426  0.264830  1
  O  O25  1  0.059853  0.907574  0.764830  1
  O  O26  1  0.895961  0.375014  0.059618  1
  O  O27  1  0.254250  0.474979  0.189812  1
  O  O28  1  0.550617  0.892817  0.439203  1
  O  O29  1  0.269113  0.148260  0.087408  1
  O  O30  1  0.269113  0.648260  0.412592  1
  O  O31  1  0.104039  0.124986  0.559618  1
  O  O32  1  0.730887  0.351740  0.587408  1
  O  O33  1  0.449383  0.107183  0.560797  1
  O  O34  1  0.895961  0.875014  0.440382  1
  O  O35  1  0.953585  0.634918  0.585561  1
  O  O36  1  0.059853  0.407574  0.735170  1
  O  O37  1  0.953585  0.134918  0.914439  1
  O  O38  1  0.940147  0.092426  0.235170  1
  O  O39  1  0.663110  0.742855  0.226791  1
