# generated using pymatgen
data_K4Nb2Si8O23
_symmetry_space_group_name_H-M   'P 1'
_cell_length_a   6.88604620
_cell_length_b   7.96641994
_cell_length_c   11.16873960
_cell_angle_alpha   75.91406013
_cell_angle_beta   89.20492664
_cell_angle_gamma   72.08246954
_symmetry_Int_Tables_number   1
_chemical_formula_structural   K4Nb2Si8O23
_chemical_formula_sum   'K4 Nb2 Si8 O23'
_cell_volume   564.20473604
_cell_formula_units_Z   1
loop_
 _symmetry_equiv_pos_site_id
 _symmetry_equiv_pos_as_xyz
  1  'x, y, z'
loop_
 _atom_site_type_symbol
 _atom_site_label
 _atom_site_symmetry_multiplicity
 _atom_site_fract_x
 _atom_site_fract_y
 _atom_site_fract_z
 _atom_site_occupancy
  Si  Si0  1  0.030236  0.894407  0.787845  1
  Si  Si1  1  0.969764  0.105593  0.212155  1
  Si  Si2  1  0.826884  0.696220  0.624046  1
  Si  Si3  1  0.173116  0.303780  0.375954  1
  Si  Si4  1  0.486149  0.818106  0.785169  1
  Si  Si5  1  0.513851  0.181894  0.214831  1
  Si  Si6  1  0.830894  0.695933  0.995292  1
  Si  Si7  1  0.169106  0.304067  0.004708  1
  Nb  Nb8  1  0.215431  0.272981  0.689890  1
  Nb  Nb9  1  0.784569  0.727019  0.310110  1
  K  K10  1  0.722439  0.243543  0.519003  1
  K  K11  1  0.277561  0.756457  0.480997  1
  K  K12  1  0.667445  0.298678  0.852206  1
  K  K13  1  0.332555  0.701322  0.147794  1
  O  O14  1  0.625219  0.708609  0.915769  1
  O  O15  1  0.374781  0.291391  0.084231  1
  O  O16  1  0.594222  0.722369  0.675150  1
  O  O17  1  0.405778  0.277631  0.324850  1
  O  O18  1  0.273154  0.768572  0.810352  1
  O  O19  1  0.726846  0.231428  0.189648  1
  O  O20  1  0.452331  0.033674  0.745995  1
  O  O21  1  0.547669  0.966326  0.254005  1
  O  O22  1  0.949216  0.479482  0.661517  1
  O  O23  1  0.050784  0.520518  0.338483  1
  O  O24  1  -0.002273  0.107541  0.739453  1
  O  O25  1  1.002273  0.892459  0.260547  1
  O  O26  1  0.385638  0.403511  0.636614  1
  O  O27  1  0.614362  0.596489  0.363386  1
  O  O28  1  0.925670  0.855442  0.922101  1
  O  O29  1  0.074330  0.144558  0.077899  1
  O  O30  1  0.230174  0.283132  0.869401  1
  O  O31  1  0.769826  0.716868  0.130599  1
  O  O32  1  0.000000  0.500000  0.000000  1
  O  O33  1  0.931196  0.814983  0.689206  1
  O  O34  1  0.068804  0.185017  0.310794  1
  O  O35  1  0.181732  0.217897  0.523454  1
  O  O36  1  0.818268  0.782103  0.476546  1
