# generated using pymatgen
data_Lu6AgTe2
_symmetry_space_group_name_H-M   'P 1'
_cell_length_a   3.98268710
_cell_length_b   11.38229228
_cell_length_c   21.46912452
_cell_angle_alpha   90.00000000
_cell_angle_beta   90.00000000
_cell_angle_gamma   90.00000000
_symmetry_Int_Tables_number   1
_chemical_formula_structural   Lu6AgTe2
_chemical_formula_sum   'Lu24 Ag4 Te8'
_cell_volume   973.24068497
_cell_formula_units_Z   4
loop_
 _symmetry_equiv_pos_site_id
 _symmetry_equiv_pos_as_xyz
  1  'x, y, z'
loop_
 _atom_site_type_symbol
 _atom_site_label
 _atom_site_symmetry_multiplicity
 _atom_site_fract_x
 _atom_site_fract_y
 _atom_site_fract_z
 _atom_site_occupancy
  Lu  Lu0  1  0.750000  0.682216  0.891232  1
  Lu  Lu1  1  0.250000  0.379162  0.471348  1
  Lu  Lu2  1  0.750000  0.879162  0.028652  1
  Lu  Lu3  1  0.750000  0.971218  0.839862  1
  Lu  Lu4  1  0.250000  0.182216  0.608768  1
  Lu  Lu5  1  0.250000  0.740753  0.267625  1
  Lu  Lu6  1  0.750000  0.111301  0.491227  1
  Lu  Lu7  1  0.750000  0.560983  0.140144  1
  Lu  Lu8  1  0.250000  0.317784  0.108768  1
  Lu  Lu9  1  0.250000  0.028782  0.160138  1
  Lu  Lu10  1  0.250000  0.471218  0.660138  1
  Lu  Lu11  1  0.250000  0.759247  0.767625  1
  Lu  Lu12  1  0.750000  0.528782  0.339862  1
  Lu  Lu13  1  0.750000  0.939017  0.640144  1
  Lu  Lu14  1  0.250000  0.611301  0.008773  1
  Lu  Lu15  1  0.750000  0.259247  0.732375  1
  Lu  Lu16  1  0.750000  0.240753  0.232375  1
  Lu  Lu17  1  0.750000  0.620838  0.528652  1
  Lu  Lu18  1  0.750000  0.817784  0.391232  1
  Lu  Lu19  1  0.250000  0.120838  0.971348  1
  Lu  Lu20  1  0.250000  0.888699  0.508773  1
  Lu  Lu21  1  0.750000  0.388699  0.991227  1
  Lu  Lu22  1  0.250000  0.439017  0.859856  1
  Lu  Lu23  1  0.250000  0.060983  0.359856  1
  Ag  Ag24  1  0.750000  0.133597  0.076161  1
  Ag  Ag25  1  0.250000  0.633597  0.423839  1
  Ag  Ag26  1  0.250000  0.866403  0.923839  1
  Ag  Ag27  1  0.750000  0.366403  0.576161  1
  Te  Te28  1  0.250000  0.768250  0.127039  1
  Te  Te29  1  0.250000  0.731750  0.627039  1
  Te  Te30  1  0.250000  0.042979  0.736537  1
  Te  Te31  1  0.750000  0.268250  0.372961  1
  Te  Te32  1  0.750000  0.542979  0.763463  1
  Te  Te33  1  0.250000  0.457021  0.236537  1
  Te  Te34  1  0.750000  0.957021  0.263463  1
  Te  Te35  1  0.750000  0.231750  0.872961  1
