# generated using pymatgen
data_LiMnGaF6
_symmetry_space_group_name_H-M   'P 1'
_cell_length_a   8.80922944
_cell_length_b   8.80922903
_cell_length_c   4.79466990
_cell_angle_alpha   90.00000000
_cell_angle_beta   90.00000000
_cell_angle_gamma   120.00000154
_symmetry_Int_Tables_number   1
_chemical_formula_structural   LiMnGaF6
_chemical_formula_sum   'Li3 Mn3 Ga3 F18'
_cell_volume   322.22939830
_cell_formula_units_Z   3
loop_
 _symmetry_equiv_pos_site_id
 _symmetry_equiv_pos_as_xyz
  1  'x, y, z'
loop_
 _atom_site_type_symbol
 _atom_site_label
 _atom_site_symmetry_multiplicity
 _atom_site_fract_x
 _atom_site_fract_y
 _atom_site_fract_z
 _atom_site_occupancy
  Ga  Ga0  1  0.000000  0.000000  0.000000  1
  Ga  Ga1  1  0.333333  0.666667  0.503017  1
  Ga  Ga2  1  0.666667  0.333333  0.496983  1
  Mn  Mn3  1  0.639089  0.000000  0.000000  1
  Mn  Mn4  1  0.000000  0.639089  0.000000  1
  Mn  Mn5  1  0.360911  0.360911  0.000000  1
  Li  Li6  1  0.298216  0.000000  0.500000  1
  Li  Li7  1  1.000000  0.298216  0.500000  1
  Li  Li8  1  0.701784  0.701784  0.500000  1
  F  F9  1  0.099044  0.888819  0.777765  1
  F  F10  1  0.111181  0.210225  0.777765  1
  F  F11  1  0.789775  0.900956  0.777765  1
  F  F12  1  0.210225  0.111181  0.222235  1
  F  F13  1  0.900956  0.789775  0.222235  1
  F  F14  1  0.888819  0.099044  0.222235  1
  F  F15  1  0.453917  0.579353  0.728683  1
  F  F16  1  0.420647  0.874564  0.728683  1
  F  F17  1  0.125436  0.546083  0.728683  1
  F  F18  1  0.874564  0.420647  0.271317  1
  F  F19  1  0.546083  0.125436  0.271317  1
  F  F20  1  0.579353  0.453917  0.271317  1
  F  F21  1  0.223491  0.767057  0.281733  1
  F  F22  1  0.232943  0.456434  0.281733  1
  F  F23  1  0.543566  0.776509  0.281733  1
  F  F24  1  0.456434  0.232943  0.718267  1
  F  F25  1  0.776509  0.543566  0.718267  1
  F  F26  1  0.767057  0.223491  0.718267  1
