# generated using pymatgen
data_NaGa3Se5
_symmetry_space_group_name_H-M   'P 1'
_cell_length_a   9.98622567
_cell_length_b   13.92243202
_cell_length_c   27.56890720
_cell_angle_alpha   90.00000000
_cell_angle_beta   90.00000000
_cell_angle_gamma   90.00000000
_symmetry_Int_Tables_number   1
_chemical_formula_structural   NaGa3Se5
_chemical_formula_sum   'Na16 Ga48 Se80'
_cell_volume   3832.97541433
_cell_formula_units_Z   16
loop_
 _symmetry_equiv_pos_site_id
 _symmetry_equiv_pos_as_xyz
  1  'x, y, z'
loop_
 _atom_site_type_symbol
 _atom_site_label
 _atom_site_symmetry_multiplicity
 _atom_site_fract_x
 _atom_site_fract_y
 _atom_site_fract_z
 _atom_site_occupancy
  Na  Na0  1  0.495848  0.252095  0.809693  1
  Na  Na1  1  0.744818  0.883340  0.878180  1
  Na  Na2  1  0.499841  0.759288  0.560385  1
  Na  Na3  1  0.995848  0.747905  0.690307  1
  Na  Na4  1  0.239270  0.131206  0.128406  1
  Na  Na5  1  0.000159  0.259288  0.439615  1
  Na  Na6  1  0.004152  0.752095  0.190307  1
  Na  Na7  1  0.255182  0.616660  0.378180  1
  Na  Na8  1  0.999841  0.240712  0.939615  1
  Na  Na9  1  0.760730  0.368794  0.628406  1
  Na  Na10  1  0.244818  0.116660  0.621820  1
  Na  Na11  1  0.500159  0.740712  0.060385  1
  Na  Na12  1  0.504152  0.247905  0.309693  1
  Na  Na13  1  0.260730  0.631206  0.871594  1
  Na  Na14  1  0.739270  0.868794  0.371594  1
  Na  Na15  1  0.755182  0.383340  0.121820  1
  Ga  Ga16  1  0.418326  0.069430  0.901710  1
  Ga  Ga17  1  0.935734  0.102975  0.694887  1
  Ga  Ga18  1  0.614819  0.971298  0.257309  1
  Ga  Ga19  1  0.098374  0.721338  0.982757  1
  Ga  Ga20  1  0.685448  0.894573  0.697888  1
  Ga  Ga21  1  0.114819  0.028702  0.242691  1
  Ga  Ga22  1  0.862015  0.277919  0.795136  1
  Ga  Ga23  1  0.314552  0.605427  0.197888  1
  Ga  Ga24  1  0.103344  0.007304  0.474635  1
  Ga  Ga25  1  0.115371  0.910888  0.895311  1
  Ga  Ga26  1  0.665035  0.699253  0.784127  1
  Ga  Ga27  1  0.334965  0.800747  0.284127  1
  Ga  Ga28  1  0.564266  0.602975  0.305113  1
  Ga  Ga29  1  0.885181  0.471298  0.742691  1
  Ga  Ga30  1  0.165035  0.300747  0.715873  1
  Ga  Ga31  1  0.396656  0.507304  0.525365  1
  Ga  Ga32  1  0.064266  0.397025  0.194887  1
  Ga  Ga33  1  0.901626  0.778662  0.482757  1
  Ga  Ga34  1  0.256080  0.983037  0.016658  1
  Ga  Ga35  1  0.401626  0.221338  0.017243  1
  Ga  Ga36  1  0.435734  0.897025  0.805113  1
  Ga  Ga37  1  0.884629  0.589112  0.395311  1
  Ga  Ga38  1  0.171988  0.534762  0.640443  1
  Ga  Ga39  1  0.743920  0.516963  0.516658  1
  Ga  Ga40  1  0.362015  0.722081  0.704864  1
  Ga  Ga41  1  0.834965  0.199253  0.215873  1
  Ga  Ga42  1  0.328012  0.034762  0.359557  1
  Ga  Ga43  1  0.892505  0.942359  0.997052  1
  Ga  Ga44  1  0.107495  0.557641  0.497052  1
  Ga  Ga45  1  0.243920  0.483037  0.983342  1
  Ga  Ga46  1  0.896656  0.492696  0.974635  1
  Ga  Ga47  1  0.814552  0.394573  0.302112  1
  Ga  Ga48  1  0.671988  0.465238  0.859557  1
  Ga  Ga49  1  0.581674  0.430570  0.401710  1
  Ga  Ga50  1  0.615371  0.089112  0.604689  1
  Ga  Ga51  1  0.603344  0.992696  0.025365  1
  Ga  Ga52  1  0.137985  0.222081  0.295136  1
  Ga  Ga53  1  0.918326  0.930570  0.598290  1
  Ga  Ga54  1  0.828012  0.965238  0.140443  1
  Ga  Ga55  1  0.384629  0.410888  0.104689  1
  Ga  Ga56  1  0.385181  0.528702  0.757309  1
  Ga  Ga57  1  0.392505  0.057641  0.502948  1
  Ga  Ga58  1  0.756080  0.016963  0.483342  1
  Ga  Ga59  1  0.081674  0.569430  0.098290  1
  Ga  Ga60  1  0.637985  0.777919  0.204864  1
  Ga  Ga61  1  0.185448  0.105427  0.802112  1
  Ga  Ga62  1  0.607495  0.442359  0.002948  1
  Ga  Ga63  1  0.598374  0.278662  0.517243  1
  Se  Se64  1  0.481437  0.251807  0.098634  1
  Se  Se65  1  0.066047  0.869792  0.531858  1
  Se  Se66  1  0.180494  0.148538  0.020168  1
  Se  Se67  1  0.686156  0.332012  0.234624  1
  Se  Se68  1  0.987387  0.253306  0.153114  1
  Se  Se69  1  0.213661  0.653435  0.765306  1
  Se  Se70  1  0.562796  0.609973  0.214246  1
  Se  Se71  1  0.565984  0.042783  0.335189  1
  Se  Se72  1  0.981437  0.748193  0.401366  1
  Se  Se73  1  0.946491  0.024738  0.921321  1
  Se  Se74  1  0.935042  0.118428  0.286773  1
  Se  Se75  1  0.675448  0.075077  0.185511  1
  Se  Se76  1  0.687102  0.073222  0.691183  1
  Se  Se77  1  0.433953  0.369792  0.468142  1
  Se  Se78  1  0.012613  0.246694  0.653114  1
  Se  Se79  1  0.518563  0.248193  0.598634  1
  Se  Se80  1  0.814713  0.057710  0.061631  1
  Se  Se81  1  0.753489  0.813043  0.624098  1
  Se  Se82  1  0.713661  0.346565  0.734694  1
  Se  Se83  1  0.286339  0.153435  0.234694  1
  Se  Se84  1  0.824552  0.575077  0.814489  1
  Se  Se85  1  0.332715  0.918760  0.937845  1
  Se  Se86  1  0.685287  0.557710  0.938369  1
  Se  Se87  1  0.921957  0.045205  0.421176  1
  Se  Se88  1  0.311443  0.648567  0.484273  1
  Se  Se89  1  0.313844  0.167988  0.734624  1
  Se  Se90  1  0.185287  0.442290  0.561631  1
  Se  Se91  1  0.553509  0.524738  0.078679  1
  Se  Se92  1  0.747267  0.800626  0.127845  1
  Se  Se93  1  0.819506  0.351462  0.520168  1
  Se  Se94  1  0.446491  0.975262  0.578679  1
  Se  Se95  1  0.812898  0.573222  0.308817  1
  Se  Se96  1  0.935556  0.533562  0.166060  1
  Se  Se97  1  0.578043  0.545205  0.578824  1
  Se  Se98  1  0.566047  0.130208  0.968142  1
  Se  Se99  1  0.187102  0.926778  0.808817  1
  Se  Se100  1  0.933953  0.630208  0.031858  1
  Se  Se101  1  0.065984  0.957217  0.164811  1
  Se  Se102  1  0.018563  0.751807  0.901366  1
  Se  Se103  1  0.667285  0.581240  0.437845  1
  Se  Se104  1  0.580845  0.136121  0.461911  1
  Se  Se105  1  0.512613  0.753306  0.846886  1
  Se  Se106  1  0.680494  0.851462  0.479832  1
  Se  Se107  1  0.062796  0.390027  0.285754  1
  Se  Se108  1  0.746511  0.313043  0.375902  1
  Se  Se109  1  0.934016  0.542783  0.664811  1
  Se  Se110  1  0.487387  0.746694  0.346886  1
  Se  Se111  1  0.688557  0.851433  0.984273  1
  Se  Se112  1  0.419155  0.363879  0.961911  1
  Se  Se113  1  0.813844  0.832012  0.765376  1
  Se  Se114  1  0.186156  0.667988  0.265376  1
  Se  Se115  1  0.752733  0.300626  0.872155  1
  Se  Se116  1  0.064444  0.966438  0.666060  1
  Se  Se117  1  0.437204  0.890027  0.714246  1
  Se  Se118  1  0.080845  0.863879  0.038089  1
  Se  Se119  1  0.832715  0.081240  0.562155  1
  Se  Se120  1  0.937204  0.109973  0.785754  1
  Se  Se121  1  0.188557  0.148567  0.515727  1
  Se  Se122  1  0.247268  0.199374  0.372155  1
  Se  Se123  1  0.078043  0.454795  0.921176  1
  Se  Se124  1  0.246511  0.686957  0.124098  1
  Se  Se125  1  0.053509  0.475262  0.421321  1
  Se  Se126  1  0.564958  0.618428  0.713227  1
  Se  Se127  1  0.252733  0.699374  0.627845  1
  Se  Se128  1  0.314713  0.942290  0.438369  1
  Se  Se129  1  0.175448  0.924923  0.314489  1
  Se  Se130  1  0.319506  0.648538  0.979832  1
  Se  Se131  1  0.564444  0.033562  0.833940  1
  Se  Se132  1  0.324552  0.424923  0.685511  1
  Se  Se133  1  0.811443  0.351433  0.015727  1
  Se  Se134  1  0.435556  0.466438  0.333940  1
  Se  Se135  1  0.064958  0.381572  0.786773  1
  Se  Se136  1  0.435042  0.881572  0.213227  1
  Se  Se137  1  0.312898  0.426778  0.191183  1
  Se  Se138  1  0.786339  0.846565  0.265306  1
  Se  Se139  1  0.919155  0.636121  0.538089  1
  Se  Se140  1  0.167285  0.418760  0.062155  1
  Se  Se141  1  0.434016  0.457217  0.835189  1
  Se  Se142  1  0.421957  0.954795  0.078824  1
  Se  Se143  1  0.253489  0.186957  0.875902  1
