# generated using pymatgen
data_LiB(CO2)4
_symmetry_space_group_name_H-M   'P 1'
_cell_length_a   6.53195607
_cell_length_b   7.66581367
_cell_length_c   13.46607937
_cell_angle_alpha   90.00000000
_cell_angle_beta   90.00000000
_cell_angle_gamma   90.00000000
_symmetry_Int_Tables_number   1
_chemical_formula_structural   LiB(CO2)4
_chemical_formula_sum   'Li4 B4 C16 O32'
_cell_volume   674.28373530
_cell_formula_units_Z   4
loop_
 _symmetry_equiv_pos_site_id
 _symmetry_equiv_pos_as_xyz
  1  'x, y, z'
loop_
 _atom_site_type_symbol
 _atom_site_label
 _atom_site_symmetry_multiplicity
 _atom_site_fract_x
 _atom_site_fract_y
 _atom_site_fract_z
 _atom_site_occupancy
  Li  Li0  1  0.972377  0.750000  0.818124  1
  Li  Li1  1  0.027623  0.250000  0.181876  1
  Li  Li2  1  0.527623  0.250000  0.318124  1
  Li  Li3  1  0.472377  0.750000  0.681876  1
  B  B4  1  0.096598  0.250000  0.542016  1
  B  B5  1  0.403402  0.750000  0.042016  1
  B  B6  1  0.903402  0.750000  0.457984  1
  B  B7  1  0.596598  0.250000  0.957984  1
  C  C8  1  0.419257  0.250000  0.105416  1
  C  C9  1  0.145782  0.648687  0.143851  1
  C  C10  1  0.645782  0.851313  0.356149  1
  C  C11  1  0.854218  0.351313  0.856149  1
  C  C12  1  0.854218  0.148687  0.856149  1
  C  C13  1  0.145782  0.851313  0.143851  1
  C  C14  1  0.731649  0.750000  0.981348  1
  C  C15  1  0.645782  0.648687  0.356149  1
  C  C16  1  0.768351  0.250000  0.481348  1
  C  C17  1  0.580743  0.750000  0.894584  1
  C  C18  1  0.268351  0.250000  0.018652  1
  C  C19  1  0.231649  0.750000  0.518652  1
  C  C20  1  0.919257  0.250000  0.394584  1
  C  C21  1  0.354218  0.351313  0.643851  1
  C  C22  1  0.080743  0.750000  0.605416  1
  C  C23  1  0.354218  0.148687  0.643851  1
  O  O24  1  0.107160  0.250000  0.429718  1
  O  O25  1  0.700867  0.402406  0.915788  1
  O  O26  1  0.917974  0.750000  0.970879  1
  O  O27  1  0.299133  0.902406  0.084212  1
  O  O28  1  0.969564  0.448802  0.812048  1
  O  O29  1  0.530436  0.948802  0.312048  1
  O  O30  1  0.607160  0.250000  0.070282  1
  O  O31  1  0.134562  0.750000  0.692893  1
  O  O32  1  0.634562  0.750000  0.807107  1
  O  O33  1  0.626990  0.750000  0.065012  1
  O  O34  1  0.892840  0.750000  0.570282  1
  O  O35  1  0.469564  0.051198  0.687952  1
  O  O36  1  0.799133  0.902406  0.415788  1
  O  O37  1  0.126990  0.750000  0.434988  1
  O  O38  1  0.082026  0.250000  0.029121  1
  O  O39  1  0.392840  0.750000  0.929718  1
  O  O40  1  0.700867  0.097594  0.915788  1
  O  O41  1  0.030436  0.948802  0.187952  1
  O  O42  1  0.200867  0.097594  0.584212  1
  O  O43  1  0.365438  0.250000  0.192893  1
  O  O44  1  0.030436  0.551198  0.187952  1
  O  O45  1  0.373010  0.250000  0.934988  1
  O  O46  1  0.873010  0.250000  0.565012  1
  O  O47  1  0.299133  0.597594  0.084212  1
  O  O48  1  0.469564  0.448802  0.687952  1
  O  O49  1  0.417974  0.750000  0.529121  1
  O  O50  1  0.530436  0.551198  0.312048  1
  O  O51  1  0.582026  0.250000  0.470879  1
  O  O52  1  0.865438  0.250000  0.307107  1
  O  O53  1  0.200867  0.402406  0.584212  1
  O  O54  1  0.799133  0.597594  0.415788  1
  O  O55  1  0.969564  0.051198  0.812048  1
