# generated using pymatgen
data_PuH18C3S3(O2F)9
_symmetry_space_group_name_H-M   'P 1'
_cell_length_a   14.07100357
_cell_length_b   14.07100390
_cell_length_c   7.38538183
_cell_angle_alpha   90.00000000
_cell_angle_beta   90.00000000
_cell_angle_gamma   119.99999924
_symmetry_Int_Tables_number   1
_chemical_formula_structural   PuH18C3S3(O2F)9
_chemical_formula_sum   'Pu2 H36 C6 S6 O36 F18'
_cell_volume   1266.34997218
_cell_formula_units_Z   2
loop_
 _symmetry_equiv_pos_site_id
 _symmetry_equiv_pos_as_xyz
  1  'x, y, z'
loop_
 _atom_site_type_symbol
 _atom_site_label
 _atom_site_symmetry_multiplicity
 _atom_site_fract_x
 _atom_site_fract_y
 _atom_site_fract_z
 _atom_site_occupancy
  Pu  Pu0  1  0.333333  0.666667  0.750000  1
  Pu  Pu1  1  0.666667  0.333333  0.250000  1
  S  S2  1  0.058460  0.380364  0.250000  1
  S  S3  1  0.678096  0.058460  0.750000  1
  S  S4  1  0.380364  0.321904  0.750000  1
  S  S5  1  0.619636  0.678096  0.250000  1
  S  S6  1  0.321904  0.941540  0.250000  1
  S  S7  1  0.941540  0.619636  0.750000  1
  O  O8  1  0.142643  0.491326  0.750000  1
  O  O9  1  0.651317  0.142643  0.250000  1
  O  O10  1  0.491326  0.348683  0.250000  1
  O  O11  1  0.508674  0.651317  0.750000  1
  O  O12  1  0.348683  0.857357  0.750000  1
  O  O13  1  0.857357  0.508674  0.250000  1
  O  O14  1  0.336893  0.544511  0.507372  1
  O  O15  1  0.792382  0.336893  0.007372  1
  O  O16  1  0.544511  0.207618  0.007372  1
  O  O17  1  0.455489  0.792382  0.507372  1
  O  O18  1  0.207618  0.663107  0.507372  1
  O  O19  1  0.663107  0.455489  0.007372  1
  O  O20  1  0.663107  0.455489  0.492628  1
  O  O21  1  0.207618  0.663107  0.992628  1
  O  O22  1  0.455489  0.792382  0.992628  1
  O  O23  1  0.544511  0.207618  0.492628  1
  O  O24  1  0.792382  0.336893  0.492628  1
  O  O25  1  0.336893  0.544511  0.992628  1
  O  O26  1  0.014652  0.399375  0.417503  1
  O  O27  1  0.615276  0.014652  0.917503  1
  O  O28  1  0.399375  0.384724  0.917503  1
  O  O29  1  0.600625  0.615276  0.417503  1
  O  O30  1  0.384724  0.985348  0.417503  1
  O  O31  1  0.985348  0.600625  0.917503  1
  O  O32  1  0.985348  0.600625  0.582497  1
  O  O33  1  0.384724  0.985348  0.082497  1
  O  O34  1  0.600625  0.615276  0.082497  1
  O  O35  1  0.399375  0.384724  0.582497  1
  O  O36  1  0.615276  0.014652  0.582497  1
  O  O37  1  0.014652  0.399375  0.082497  1
  O  O38  1  0.178147  0.429191  0.250000  1
  O  O39  1  0.748956  0.178147  0.750000  1
  O  O40  1  0.429191  0.251044  0.750000  1
  O  O41  1  0.570809  0.748956  0.250000  1
  O  O42  1  0.251044  0.821853  0.250000  1
  O  O43  1  0.821853  0.570809  0.750000  1
  C  C44  1  0.005878  0.229128  0.250000  1
  C  C45  1  0.776750  0.005878  0.750000  1
  C  C46  1  0.229128  0.223250  0.750000  1
  C  C47  1  0.770872  0.776750  0.250000  1
  C  C48  1  0.223250  0.994122  0.250000  1
  C  C49  1  0.994122  0.770872  0.750000  1
  F  F50  1  0.041316  0.200272  0.398750  1
  F  F51  1  0.841044  0.041316  0.898750  1
  F  F52  1  0.200272  0.158956  0.898750  1
  F  F53  1  0.799728  0.841044  0.398750  1
  F  F54  1  0.158956  0.958684  0.398750  1
  F  F55  1  0.958684  0.799728  0.898750  1
  F  F56  1  0.958684  0.799728  0.601250  1
  F  F57  1  0.158956  0.958684  0.101250  1
  F  F58  1  0.799728  0.841044  0.101250  1
  F  F59  1  0.200272  0.158956  0.601250  1
  F  F60  1  0.841044  0.041316  0.601250  1
  F  F61  1  0.041316  0.200272  0.101250  1
  F  F62  1  0.894766  0.174626  0.250000  1
  F  F63  1  0.720140  0.894766  0.750000  1
  F  F64  1  0.174626  0.279860  0.750000  1
  F  F65  1  0.825374  0.720140  0.250000  1
  F  F66  1  0.279860  0.105234  0.250000  1
  F  F67  1  0.105234  0.825374  0.750000  1
  H  H68  1  0.097992  0.455196  0.642487  1
  H  H69  1  0.642796  0.097992  0.142487  1
  H  H70  1  0.455196  0.357204  0.142487  1
  H  H71  1  0.544804  0.642796  0.642487  1
  H  H72  1  0.357204  0.902008  0.642487  1
  H  H73  1  0.902008  0.544804  0.142487  1
  H  H74  1  0.902008  0.544804  0.357513  1
  H  H75  1  0.357204  0.902008  0.857513  1
  H  H76  1  0.544804  0.642796  0.857513  1
  H  H77  1  0.455196  0.357204  0.357513  1
  H  H78  1  0.642796  0.097992  0.357513  1
  H  H79  1  0.097992  0.455196  0.857513  1
  H  H80  1  0.275578  0.506464  0.421335  1
  H  H81  1  0.769114  0.275578  0.921335  1
  H  H82  1  0.506464  0.230886  0.921335  1
  H  H83  1  0.493536  0.769114  0.421335  1
  H  H84  1  0.230886  0.724422  0.421335  1
  H  H85  1  0.724422  0.493536  0.921335  1
  H  H86  1  0.724422  0.493536  0.578665  1
  H  H87  1  0.230886  0.724422  0.078665  1
  H  H88  1  0.493536  0.769114  0.078665  1
  H  H89  1  0.506464  0.230886  0.578665  1
  H  H90  1  0.769114  0.275578  0.578665  1
  H  H91  1  0.275578  0.506464  0.078665  1
  H  H92  1  0.362928  0.492865  0.535076  1
  H  H93  1  0.870063  0.362928  0.035076  1
  H  H94  1  0.492865  0.129937  0.035076  1
  H  H95  1  0.507135  0.870063  0.535076  1
  H  H96  1  0.129937  0.637072  0.535076  1
  H  H97  1  0.637072  0.507135  0.035076  1
  H  H98  1  0.637072  0.507135  0.464924  1
  H  H99  1  0.129937  0.637072  0.964924  1
  H  H100  1  0.507135  0.870063  0.964924  1
  H  H101  1  0.492865  0.129937  0.464924  1
  H  H102  1  0.870063  0.362928  0.464924  1
  H  H103  1  0.362928  0.492865  0.964924  1
