# generated using pymatgen
data_VH16C6N6O7F2
_symmetry_space_group_name_H-M   'P 1'
_cell_length_a   7.73668236
_cell_length_b   10.82367538
_cell_length_c   10.96639914
_cell_angle_alpha   63.10602766
_cell_angle_beta   71.47341600
_cell_angle_gamma   84.77486499
_symmetry_Int_Tables_number   1
_chemical_formula_structural   VH16C6N6O7F2
_chemical_formula_sum   'V2 H32 C12 N12 O14 F4'
_cell_volume   775.04767110
_cell_formula_units_Z   2
loop_
 _symmetry_equiv_pos_site_id
 _symmetry_equiv_pos_as_xyz
  1  'x, y, z'
loop_
 _atom_site_type_symbol
 _atom_site_label
 _atom_site_symmetry_multiplicity
 _atom_site_fract_x
 _atom_site_fract_y
 _atom_site_fract_z
 _atom_site_occupancy
  V  V0  1  0.627151  0.040304  0.327966  1
  V  V1  1  0.372849  0.959696  0.672034  1
  H  H2  1  0.099461  0.824604  0.406771  1
  H  H3  1  0.047996  0.462427  0.713893  1
  H  H4  1  0.785649  0.958789  0.972453  1
  H  H5  1  0.267800  0.298344  0.827848  1
  H  H6  1  0.769536  0.311238  0.608903  1
  H  H7  1  0.430456  0.722813  0.161495  1
  H  H8  1  0.038608  0.372177  0.330498  1
  H  H9  1  0.048702  0.702523  0.043291  1
  H  H10  1  0.396103  0.862188  0.007789  1
  H  H11  1  0.759935  0.681436  0.828500  1
  H  H12  1  0.684168  0.567527  0.013613  1
  H  H13  1  0.800611  0.794805  0.224211  1
  H  H14  1  0.732200  0.701656  0.172152  1
  H  H15  1  0.779962  0.332984  0.086529  1
  H  H16  1  0.900539  0.175396  0.593229  1
  H  H17  1  0.998858  0.133543  0.362761  1
  H  H18  1  0.952004  0.537573  0.286107  1
  H  H19  1  0.168235  0.108676  0.420807  1
  H  H20  1  0.240065  0.318564  0.171500  1
  H  H21  1  0.199389  0.205195  0.775789  1
  H  H22  1  0.001142  0.866457  0.637239  1
  H  H23  1  0.831765  0.891324  0.579193  1
  H  H24  1  0.961392  0.627823  0.669502  1
  H  H25  1  0.315832  0.432473  0.986387  1
  H  H26  1  0.937698  0.987039  0.804910  1
  H  H27  1  0.230464  0.688762  0.391097  1
  H  H28  1  0.220038  0.667016  0.913471  1
  H  H29  1  0.062302  0.012961  0.195090  1
  H  H30  1  0.603897  0.137812  0.992211  1
  H  H31  1  0.951298  0.297477  0.956709  1
  H  H32  1  0.214351  0.041211  0.027547  1
  H  H33  1  0.569544  0.277187  0.838505  1
  C  C34  1  0.639131  0.573627  0.549579  1
  C  C35  1  0.502020  0.541896  0.692637  1
  C  C36  1  0.360869  0.426373  0.450421  1
  C  C37  1  0.858522  0.491175  0.879937  1
  C  C38  1  0.612551  0.723587  0.507230  1
  C  C39  1  0.516971  0.309777  0.351302  1
  C  C40  1  0.497980  0.458104  0.307363  1
  C  C41  1  0.387449  0.276413  0.492770  1
  C  C42  1  0.483029  0.690223  0.648698  1
  C  C43  1  0.755317  0.138808  0.801398  1
  C  C44  1  0.244683  0.861192  0.198602  1
  C  C45  1  0.141478  0.508825  0.120063  1
  N  N46  1  0.626333  0.184612  0.882989  1
  N  N47  1  0.253602  0.416756  0.090594  1
  N  N48  1  0.811537  0.213084  0.657661  1
  N  N49  1  0.827063  0.017928  0.863725  1
  N  N50  1  0.133116  0.634324  0.016141  1
  N  N51  1  0.172937  0.982072  0.136275  1
  N  N52  1  0.040622  0.473024  0.256946  1
  N  N53  1  0.188463  0.786916  0.342339  1
  N  N54  1  0.866884  0.365676  0.983859  1
  N  N55  1  0.746398  0.583244  0.909406  1
  N  N56  1  0.959378  0.526976  0.743054  1
  N  N57  1  0.373667  0.815388  0.117011  1
  O  O58  1  0.831797  0.768650  0.145017  1
  O  O59  1  0.734608  0.504061  0.491842  1
  O  O60  1  0.680732  0.832665  0.390900  1
  O  O61  1  0.568863  0.566837  0.194572  1
  O  O62  1  0.431137  0.433163  0.805428  1
  O  O63  1  0.319268  0.167335  0.609100  1
  O  O64  1  0.385408  0.755260  0.716115  1
  O  O65  1  0.168203  0.231350  0.854983  1
  O  O66  1  0.926932  0.826388  0.603418  1
  O  O67  1  0.598647  0.061015  0.177760  1
  O  O68  1  0.614592  0.244740  0.283885  1
  O  O69  1  0.265392  0.495939  0.508158  1
  O  O70  1  0.401353  0.938985  0.822240  1
  O  O71  1  0.073068  0.173612  0.396582  1
  F  F72  1  0.114224  0.924672  0.715360  1
  F  F73  1  0.885776  0.075328  0.284640  1
  F  F74  1  0.368811  0.003756  0.456330  1
  F  F75  1  0.631189  0.996244  0.543670  1
