# generated using pymatgen
data_Rb2CaV2O7
_symmetry_space_group_name_H-M   'P 1'
_cell_length_a   6.07979962
_cell_length_b   10.50108063
_cell_length_c   14.22824832
_cell_angle_alpha   104.95517701
_cell_angle_beta   90.00000000
_cell_angle_gamma   90.00000000
_symmetry_Int_Tables_number   1
_chemical_formula_structural   Rb2CaV2O7
_chemical_formula_sum   'Rb8 Ca4 V8 O28'
_cell_volume   877.62577012
_cell_formula_units_Z   4
loop_
 _symmetry_equiv_pos_site_id
 _symmetry_equiv_pos_as_xyz
  1  'x, y, z'
loop_
 _atom_site_type_symbol
 _atom_site_label
 _atom_site_symmetry_multiplicity
 _atom_site_fract_x
 _atom_site_fract_y
 _atom_site_fract_z
 _atom_site_occupancy
  Rb  Rb0  1  0.234628  0.857439  0.830541  1
  Rb  Rb1  1  0.274915  0.629709  0.130906  1
  Rb  Rb2  1  0.765372  0.142561  0.169459  1
  Rb  Rb3  1  0.734628  0.642561  0.669459  1
  Rb  Rb4  1  0.265372  0.357439  0.330541  1
  Rb  Rb5  1  0.725085  0.370291  0.869094  1
  Rb  Rb6  1  0.774915  0.870291  0.369094  1
  Rb  Rb7  1  0.225085  0.129709  0.630906  1
  Ca  Ca8  1  0.760424  0.748467  0.978433  1
  Ca  Ca9  1  0.739576  0.248467  0.478433  1
  Ca  Ca10  1  0.260424  0.751533  0.521567  1
  Ca  Ca11  1  0.239576  0.251533  0.021567  1
  V  V12  1  0.265606  0.023207  0.360972  1
  V  V13  1  0.271683  0.949234  0.122301  1
  V  V14  1  0.728316  0.050766  0.877699  1
  V  V15  1  0.734394  0.976793  0.639028  1
  V  V16  1  0.228317  0.449234  0.622301  1
  V  V17  1  0.234394  0.523207  0.860972  1
  V  V18  1  0.765606  0.476793  0.139028  1
  V  V19  1  0.771684  0.550766  0.377699  1
  O  O20  1  0.813417  0.078465  0.760037  1
  O  O21  1  0.053922  0.131598  0.401813  1
  O  O22  1  0.729059  0.884241  0.870041  1
  O  O23  1  0.229059  0.615759  0.629959  1
  O  O24  1  0.083605  0.864471  0.040435  1
  O  O25  1  0.270941  0.115759  0.129959  1
  O  O26  1  0.509669  0.104808  0.356380  1
  O  O27  1  0.530764  0.883762  0.096011  1
  O  O28  1  0.916395  0.135529  0.959565  1
  O  O29  1  0.446078  0.631598  0.901813  1
  O  O30  1  0.490331  0.895192  0.643620  1
  O  O31  1  0.009669  0.395192  0.143620  1
  O  O32  1  0.946078  0.868402  0.598187  1
  O  O33  1  0.030764  0.616238  0.403989  1
  O  O34  1  0.969236  0.383762  0.596011  1
  O  O35  1  0.416395  0.364471  0.540435  1
  O  O36  1  0.553922  0.368402  0.098187  1
  O  O37  1  0.707830  0.084802  0.567318  1
  O  O38  1  0.292170  0.915198  0.432682  1
  O  O39  1  0.186583  0.921535  0.239963  1
  O  O40  1  0.583605  0.635529  0.459565  1
  O  O41  1  0.207830  0.415198  0.932682  1
  O  O42  1  0.990331  0.604808  0.856380  1
  O  O43  1  0.770941  0.384241  0.370041  1
  O  O44  1  0.686583  0.578465  0.260037  1
  O  O45  1  0.313417  0.421535  0.739963  1
  O  O46  1  0.792170  0.584802  0.067318  1
  O  O47  1  0.469236  0.116238  0.903989  1
