# generated using pymatgen
data_Li3Ni3(PO4)4
_symmetry_space_group_name_H-M   'P 1'
_cell_length_a   13.03138204
_cell_length_b   8.02762532
_cell_length_c   8.91297579
_cell_angle_alpha   90.08336468
_cell_angle_beta   86.23829382
_cell_angle_gamma   90.22238649
_symmetry_Int_Tables_number   1
_chemical_formula_structural   Li3Ni3(PO4)4
_chemical_formula_sum   'Li9 Ni9 P12 O48'
_cell_volume   930.37928766
_cell_formula_units_Z   3
loop_
 _symmetry_equiv_pos_site_id
 _symmetry_equiv_pos_as_xyz
  1  'x, y, z'
loop_
 _atom_site_type_symbol
 _atom_site_label
 _atom_site_symmetry_multiplicity
 _atom_site_fract_x
 _atom_site_fract_y
 _atom_site_fract_z
 _atom_site_occupancy
  Li  Li0  1  0.163077  0.864404  0.228890  1
  Li  Li1  1  0.499793  0.136999  0.101776  1
  Li  Li2  1  0.167922  0.637320  0.735498  1
  Li  Li3  1  0.495082  0.634242  0.403397  1
  Li  Li4  1  0.833420  0.639434  0.065963  1
  Li  Li5  1  0.171865  0.367973  0.930768  1
  Li  Li6  1  0.499322  0.363802  0.595223  1
  Li  Li7  1  0.834672  0.863766  0.570460  1
  Li  Li8  1  0.833328  0.133108  0.762019  1
  O  O9  1  0.562859  0.920093  0.082553  1
  O  O10  1  0.901839  0.627822  0.848463  1
  O  O11  1  0.905432  0.925289  0.751628  1
  O  O12  1  0.934636  0.297879  0.677737  1
  O  O13  1  0.740633  0.360480  0.809674  1
  O  O14  1  0.927640  0.635996  0.526748  1
  O  O15  1  0.586076  0.656306  0.858665  1
  O  O16  1  0.402191  0.703415  0.992137  1
  O  O17  1  0.763469  0.070039  0.581698  1
  O  O18  1  0.235519  0.878462  0.014399  1
  O  O19  1  0.100643  0.380801  0.153619  1
  O  O20  1  0.101065  0.081762  0.250152  1
  O  O21  1  0.063055  0.699295  0.319894  1
  O  O22  1  0.260819  0.650173  0.192375  1
  O  O23  1  0.079376  0.342868  0.474915  1
  O  O24  1  0.404743  0.352312  0.139956  1
  O  O25  1  0.263616  0.298285  0.340670  1
  O  O26  1  0.230496  0.934247  0.416031  1
  O  O27  1  0.603065  0.299105  0.013406  1
  O  O28  1  0.767481  0.123633  0.984478  1
  O  O29  1  0.227664  0.634995  0.508655  1
  O  O30  1  0.104483  0.127934  0.652251  1
  O  O31  1  0.565496  0.622687  0.181052  1
  O  O32  1  0.430211  0.124191  0.317765  1
  O  O33  1  0.101404  0.427994  0.750493  1
  O  O34  1  0.068160  0.802538  0.830232  1
  O  O35  1  0.427224  0.422799  0.415993  1
  O  O36  1  0.395011  0.803944  0.485718  1
  O  O37  1  0.772200  0.421052  0.081610  1
  O  O38  1  0.730237  0.799356  0.156577  1
  O  O39  1  0.256976  0.860117  0.691194  1
  O  O40  1  0.590002  0.860250  0.356048  1
  O  O41  1  0.926318  0.854506  0.028784  1
  O  O42  1  0.075660  0.146448  0.977154  1
  O  O43  1  0.407753  0.141006  0.639332  1
  O  O44  1  0.271152  0.197356  0.846790  1
  O  O45  1  0.747449  0.156347  0.304746  1
  O  O46  1  0.238304  0.580396  0.916328  1
  O  O47  1  0.599280  0.200586  0.502135  1
  O  O48  1  0.568401  0.571981  0.581164  1
  O  O49  1  0.934222  0.203706  0.176861  1
  O  O50  1  0.898633  0.566837  0.251728  1
  O  O51  1  0.563337  0.871303  0.681081  1
  O  O52  1  0.438819  0.365081  0.822806  1
  O  O53  1  0.895975  0.865223  0.346984  1
  O  O54  1  0.769714  0.370665  0.483658  1
  O  O55  1  0.435493  0.065299  0.913686  1
  O  O56  1  0.733722  0.701183  0.660741  1
  P  P57  1  0.949488  0.804056  0.862494  1
  P  P58  1  0.720587  0.299909  0.973590  1
  P  P59  1  0.945946  0.691776  0.361947  1
  P  P60  1  0.616749  0.692294  0.685269  1
  P  P61  1  0.716379  0.191477  0.478088  1
  P  P62  1  0.388186  0.191611  0.805659  1
  P  P63  1  0.612363  0.799569  0.192533  1
  P  P64  1  0.277869  0.809146  0.525073  1
  P  P65  1  0.383290  0.300124  0.305902  1
  P  P66  1  0.053380  0.204881  0.140986  1
  P  P67  1  0.051243  0.307011  0.649008  1
  P  P68  1  0.282558  0.702448  0.026655  1
  Ni  Ni69  1  0.166018  0.507826  0.329244  1
  Ni  Ni70  1  0.500386  0.492818  0.003778  1
  Ni  Ni71  1  0.159353  0.139906  0.440115  1
  Ni  Ni72  1  0.169931  1.000554  0.840303  1
  Ni  Ni73  1  0.495780  0.002617  0.492408  1
  Ni  Ni74  1  0.833352  0.994610  0.164364  1
  Ni  Ni75  1  0.827891  0.360276  0.272800  1
  Ni  Ni76  1  0.506621  0.859631  0.891389  1
  Ni  Ni77  1  0.836201  0.502354  0.673635  1
