# generated using pymatgen
data_Cs2Al2As2O7
_symmetry_space_group_name_H-M   'P 1'
_cell_length_a   5.56240766
_cell_length_b   7.34830677
_cell_length_c   7.34830710
_cell_angle_alpha   76.01021258
_cell_angle_beta   67.76029586
_cell_angle_gamma   67.76030185
_symmetry_Int_Tables_number   1
_chemical_formula_structural   Cs2Al2As2O7
_chemical_formula_sum   'Cs2 Al2 As2 O7'
_cell_volume   255.62464764
_cell_formula_units_Z   1
loop_
 _symmetry_equiv_pos_site_id
 _symmetry_equiv_pos_as_xyz
  1  'x, y, z'
loop_
 _atom_site_type_symbol
 _atom_site_label
 _atom_site_symmetry_multiplicity
 _atom_site_fract_x
 _atom_site_fract_y
 _atom_site_fract_z
 _atom_site_occupancy
  Cs  Cs0  1  1.000000  0.655522  0.344478  1
  Cs  Cs1  1  0.500000  0.301078  0.698922  1
  Al  Al2  1  0.162017  0.900359  0.775607  1
  Al  Al3  1  0.837983  0.224393  0.099641  1
  As  As4  1  0.299957  0.083748  0.316338  1
  As  As5  1  0.700043  0.683662  0.916252  1
  O  O6  1  0.490532  0.253750  0.253175  1
  O  O7  1  0.000000  0.999911  0.000089  1
  O  O8  1  0.162276  0.097547  0.577901  1
  O  O9  1  0.002542  0.253750  0.253175  1
  O  O10  1  0.509468  0.746825  0.746250  1
  O  O11  1  0.997458  0.746825  0.746250  1
  O  O12  1  0.837724  0.422099  0.902453  1
