# generated using pymatgen
data_La2B3Br
_symmetry_space_group_name_H-M   'P 1'
_cell_length_a   7.84123770
_cell_length_b   7.84123751
_cell_length_c   8.56859945
_cell_angle_alpha   90.00000000
_cell_angle_beta   90.00000000
_cell_angle_gamma   120.00000080
_symmetry_Int_Tables_number   1
_chemical_formula_structural   La2B3Br
_chemical_formula_sum   'La8 B12 Br4'
_cell_volume   456.25716526
_cell_formula_units_Z   4
loop_
 _symmetry_equiv_pos_site_id
 _symmetry_equiv_pos_as_xyz
  1  'x, y, z'
loop_
 _atom_site_type_symbol
 _atom_site_label
 _atom_site_symmetry_multiplicity
 _atom_site_fract_x
 _atom_site_fract_y
 _atom_site_fract_z
 _atom_site_occupancy
  La  La0  1  0.499997  0.000667  0.216914  1
  La  La1  1  0.500670  0.500003  0.216914  1
  La  La2  1  0.000000  0.000000  0.768679  1
  La  La3  1  0.999333  0.499330  0.216914  1
  La  La4  1  0.500670  0.500003  0.783086  1
  La  La5  1  0.000000  0.000000  0.231321  1
  La  La6  1  0.499997  0.000667  0.783086  1
  La  La7  1  0.999333  0.499330  0.783086  1
  B  B8  1  0.737568  0.474887  0.000000  1
  B  B9  1  0.525113  0.262681  0.000000  1
  B  B10  1  0.861171  0.138696  0.000000  1
  B  B11  1  0.474667  0.737334  0.000000  1
  B  B12  1  0.721861  0.860830  0.000000  1
  B  B13  1  0.861304  0.722474  0.000000  1
  B  B14  1  0.737319  0.262432  0.000000  1
  B  B15  1  0.139170  0.861031  0.000000  1
  B  B16  1  0.138969  0.278139  0.000000  1
  B  B17  1  0.262666  0.737333  0.000000  1
  B  B18  1  0.277526  0.138829  0.000000  1
  B  B19  1  0.262667  0.525333  0.000000  1
  Br  Br20  1  0.339041  0.169566  0.500000  1
  Br  Br21  1  0.830524  0.660959  0.500000  1
  Br  Br22  1  0.830434  0.169476  0.500000  1
  Br  Br23  1  0.333333  0.666667  0.500000  1
