# generated using pymatgen
data_Ti(AlCl4)2
_symmetry_space_group_name_H-M   'P 1'
_cell_length_a   8.05239954
_cell_length_b   9.80367544
_cell_length_c   10.19662456
_cell_angle_alpha   72.71266580
_cell_angle_beta   66.74300111
_cell_angle_gamma   65.75227445
_symmetry_Int_Tables_number   1
_chemical_formula_structural   Ti(AlCl4)2
_chemical_formula_sum   'Ti2 Al4 Cl16'
_cell_volume   665.48685251
_cell_formula_units_Z   2
loop_
 _symmetry_equiv_pos_site_id
 _symmetry_equiv_pos_as_xyz
  1  'x, y, z'
loop_
 _atom_site_type_symbol
 _atom_site_label
 _atom_site_symmetry_multiplicity
 _atom_site_fract_x
 _atom_site_fract_y
 _atom_site_fract_z
 _atom_site_occupancy
  Ti  Ti0  1  0.002530  0.750000  0.250000  1
  Ti  Ti1  1  0.997470  0.250000  0.750000  1
  Al  Al2  1  0.332288  0.356494  0.468021  1
  Al  Al3  1  0.156804  0.143506  0.031979  1
  Al  Al4  1  0.667712  0.643506  0.531979  1
  Al  Al5  1  0.843196  0.856494  0.968021  1
  Cl  Cl6  1  0.622850  0.233292  0.447748  1
  Cl  Cl7  1  0.854431  0.045648  0.786811  1
  Cl  Cl8  1  0.303889  0.266708  0.052252  1
  Cl  Cl9  1  0.696111  0.733292  0.947748  1
  Cl  Cl10  1  0.714171  0.943003  0.173685  1
  Cl  Cl11  1  0.686890  0.454352  0.713189  1
  Cl  Cl12  1  0.145569  0.954352  0.213189  1
  Cl  Cl13  1  0.313110  0.545648  0.286811  1
  Cl  Cl14  1  0.869253  0.280810  0.016655  1
  Cl  Cl15  1  0.830859  0.556997  0.326315  1
  Cl  Cl16  1  0.130747  0.719190  0.983345  1
  Cl  Cl17  1  0.377150  0.766708  0.552252  1
  Cl  Cl18  1  0.833282  0.780810  0.516655  1
  Cl  Cl19  1  0.166718  0.219190  0.483345  1
  Cl  Cl20  1  0.169141  0.443003  0.673685  1
  Cl  Cl21  1  0.285829  0.056997  0.826315  1
