# generated using pymatgen
data_CIN2(O2F)3
_symmetry_space_group_name_H-M   'P 1'
_cell_length_a   9.16915371
_cell_length_b   8.92249860
_cell_length_c   10.55431982
_cell_angle_alpha   90.00000000
_cell_angle_beta   104.28555671
_cell_angle_gamma   90.00000000
_symmetry_Int_Tables_number   1
_chemical_formula_structural   CIN2(O2F)3
_chemical_formula_sum   'C4 I4 N8 O24 F12'
_cell_volume   836.76731945
_cell_formula_units_Z   4
loop_
 _symmetry_equiv_pos_site_id
 _symmetry_equiv_pos_as_xyz
  1  'x, y, z'
loop_
 _atom_site_type_symbol
 _atom_site_label
 _atom_site_symmetry_multiplicity
 _atom_site_fract_x
 _atom_site_fract_y
 _atom_site_fract_z
 _atom_site_occupancy
  C  C0  1  0.810931  0.936833  0.601674  1
  C  C1  1  0.689069  0.436833  0.398326  1
  C  C2  1  0.310931  0.563167  0.601674  1
  C  C3  1  0.189069  0.063167  0.398326  1
  I  I4  1  0.670088  0.414710  0.181183  1
  I  I5  1  0.829912  0.914710  0.818816  1
  I  I6  1  0.329912  0.585290  0.818816  1
  I  I7  1  0.170088  0.085290  0.181183  1
  N  N8  1  0.841917  0.582198  0.772597  1
  N  N9  1  0.202759  0.305981  0.883652  1
  N  N10  1  0.797241  0.694019  0.116348  1
  N  N11  1  0.158083  0.417802  0.227403  1
  N  N12  1  0.341917  0.917802  0.772597  1
  N  N13  1  0.702759  0.194019  0.883652  1
  N  N14  1  0.297241  0.805981  0.116348  1
  N  N15  1  0.658083  0.082198  0.227403  1
  O  O16  1  0.720033  0.139723  0.770279  1
  O  O17  1  0.131257  0.189004  0.880693  1
  O  O18  1  0.212095  0.892365  0.713146  1
  O  O19  1  0.287905  0.392365  0.286854  1
  O  O20  1  0.868743  0.810996  0.119307  1
  O  O21  1  0.593431  0.962751  0.201472  1
  O  O22  1  0.368743  0.689004  0.119307  1
  O  O23  1  0.938007  0.707741  0.817430  1
  O  O24  1  0.712095  0.607635  0.713146  1
  O  O25  1  0.061993  0.292259  0.182570  1
  O  O26  1  0.561993  0.207741  0.182570  1
  O  O27  1  0.261329  0.379254  0.984885  1
  O  O28  1  0.238671  0.879254  0.015115  1
  O  O29  1  0.279967  0.860277  0.229721  1
  O  O30  1  0.406569  0.037249  0.798528  1
  O  O31  1  0.779967  0.639723  0.229721  1
  O  O32  1  0.761329  0.120746  0.984885  1
  O  O33  1  0.906569  0.462751  0.798528  1
  O  O34  1  0.787905  0.107635  0.286854  1
  O  O35  1  0.631257  0.310996  0.880693  1
  O  O36  1  0.093431  0.537249  0.201472  1
  O  O37  1  0.220033  0.360277  0.770279  1
  O  O38  1  0.438007  0.792259  0.817430  1
  O  O39  1  0.738671  0.620746  0.015115  1
  F  F40  1  0.618751  0.562283  0.419031  1
  F  F41  1  0.374945  0.682495  0.561096  1
  F  F42  1  0.625055  0.317505  0.438904  1
  F  F43  1  0.125055  0.182495  0.438904  1
  F  F44  1  0.335149  0.055983  0.461759  1
  F  F45  1  0.664851  0.944017  0.538241  1
  F  F46  1  0.381249  0.437717  0.580969  1
  F  F47  1  0.874945  0.817505  0.561096  1
  F  F48  1  0.164851  0.555983  0.538241  1
  F  F49  1  0.118751  0.937717  0.419031  1
  F  F50  1  0.835149  0.444017  0.461759  1
  F  F51  1  0.881249  0.062283  0.580969  1
