# generated using pymatgen
data_CaNb2P2O11
_symmetry_space_group_name_H-M   'P 1'
_cell_length_a   5.29637450
_cell_length_b   9.35094122
_cell_length_c   9.35094081
_cell_angle_alpha   71.87545141
_cell_angle_beta   87.06536528
_cell_angle_gamma   87.06536351
_symmetry_Int_Tables_number   1
_chemical_formula_structural   CaNb2P2O11
_chemical_formula_sum   'Ca2 Nb4 P4 O22'
_cell_volume   439.25609103
_cell_formula_units_Z   2
loop_
 _symmetry_equiv_pos_site_id
 _symmetry_equiv_pos_as_xyz
  1  'x, y, z'
loop_
 _atom_site_type_symbol
 _atom_site_label
 _atom_site_symmetry_multiplicity
 _atom_site_fract_x
 _atom_site_fract_y
 _atom_site_fract_z
 _atom_site_occupancy
  Ca  Ca0  1  0.250000  0.394229  0.605771  1
  Ca  Ca1  1  0.750000  0.605771  0.394229  1
  Nb  Nb2  1  0.261541  0.245466  0.005033  1
  Nb  Nb3  1  0.761541  0.005033  0.245466  1
  Nb  Nb4  1  0.238459  0.994967  0.754534  1
  Nb  Nb5  1  0.738459  0.754534  0.994967  1
  P  P6  1  0.245237  0.520205  0.185872  1
  P  P7  1  0.754763  0.479795  0.814128  1
  P  P8  1  0.254763  0.814128  0.479795  1
  P  P9  1  0.745237  0.185872  0.520205  1
  O  O10  1  0.553071  0.077066  0.625708  1
  O  O11  1  0.572579  0.137583  0.088989  1
  O  O12  1  0.053071  0.625708  0.077066  1
  O  O13  1  0.495043  0.404714  0.831704  1
  O  O14  1  0.250000  0.166195  0.833805  1
  O  O15  1  0.995043  0.831704  0.404714  1
  O  O16  1  0.004957  0.168296  0.595286  1
  O  O17  1  0.785867  0.139801  0.373922  1
  O  O18  1  0.427421  0.862417  0.911011  1
  O  O19  1  0.072579  0.088989  0.137583  1
  O  O20  1  0.946929  0.374292  0.922934  1
  O  O21  1  0.365282  0.653335  0.515129  1
  O  O22  1  0.134718  0.484871  0.346665  1
  O  O23  1  0.714133  0.626078  0.860199  1
  O  O24  1  0.750000  0.833805  0.166195  1
  O  O25  1  0.927421  0.911011  0.862417  1
  O  O26  1  0.504957  0.595286  0.168296  1
  O  O27  1  0.214133  0.860199  0.626078  1
  O  O28  1  0.865282  0.515129  0.653335  1
  O  O29  1  0.446929  0.922934  0.374292  1
  O  O30  1  0.634718  0.346665  0.484871  1
  O  O31  1  0.285867  0.373922  0.139801  1
