# generated using pymatgen
data_YZr5Si5PO24
_symmetry_space_group_name_H-M   'P 1'
_cell_length_a   5.64987831
_cell_length_b   5.64987745
_cell_length_c   33.97305535
_cell_angle_alpha   106.45937054
_cell_angle_beta   106.45936772
_cell_angle_gamma   115.60064346
_symmetry_Int_Tables_number   1
_chemical_formula_structural   YZr5Si5PO24
_chemical_formula_sum   'Y2 Zr10 Si10 P2 O48'
_cell_volume   828.28665408
_cell_formula_units_Z   2
loop_
 _symmetry_equiv_pos_site_id
 _symmetry_equiv_pos_as_xyz
  1  'x, y, z'
loop_
 _atom_site_type_symbol
 _atom_site_label
 _atom_site_symmetry_multiplicity
 _atom_site_fract_x
 _atom_site_fract_y
 _atom_site_fract_z
 _atom_site_occupancy
  O  O0  1  0.222531  0.652389  0.990258  1
  O  O1  1  0.359625  0.789509  0.929971  1
  O  O2  1  0.220202  0.290317  0.929971  1
  O  O3  1  0.210491  0.640375  0.820029  1
  O  O4  1  0.719019  0.789161  0.990258  1
  O  O5  1  0.347611  0.777469  0.759742  1
  O  O6  1  0.260612  0.188543  0.845285  1
  O  O7  1  0.210839  0.280981  0.759742  1
  O  O8  1  0.184973  0.618429  0.652421  1
  O  O9  1  0.811457  0.739388  0.904715  1
  O  O10  1  0.709683  0.779798  0.820029  1
  O  O11  1  0.616832  0.188901  0.904715  1
  O  O12  1  0.364110  0.796503  0.591976  1
  O  O13  1  0.247130  0.183934  0.673307  1
  O  O14  1  0.187748  0.255354  0.591976  1
  O  O15  1  0.191522  0.623917  0.487647  1
  O  O16  1  0.811099  0.383168  0.845285  1
  O  O17  1  0.799102  0.722699  0.733061  1
  O  O18  1  0.729552  0.796095  0.652421  1
  O  O19  1  0.599266  0.175669  0.733061  1
  O  O20  1  0.370648  0.803244  0.427250  1
  O  O21  1  0.256663  0.189289  0.509479  1
  O  O22  1  0.192850  0.260254  0.427250  1
  O  O23  1  0.196756  0.629352  0.322750  1
  O  O24  1  0.792709  0.355905  0.673307  1
  O  O25  1  0.798054  0.730347  0.569747  1
  O  O26  1  0.734359  0.801964  0.487647  1
  O  O27  1  0.620428  0.188135  0.569747  1
  O  O28  1  0.376083  0.808478  0.262353  1
  O  O29  1  0.262953  0.195470  0.344820  1
  O  O30  1  0.198036  0.265641  0.262353  1
  O  O31  1  0.203497  0.635890  0.158024  1
  O  O32  1  0.800209  0.367583  0.509479  1
  O  O33  1  0.804530  0.737047  0.405180  1
  O  O34  1  0.739746  0.807150  0.322750  1
  O  O35  1  0.626548  0.194031  0.405180  1
  O  O36  1  0.381571  0.815027  0.097579  1
  O  O37  1  0.269653  0.201946  0.180253  1
  O  O38  1  0.203905  0.270448  0.097579  1
  O  O39  1  0.805969  0.373452  0.344820  1
  O  O40  1  0.810711  0.743337  0.240521  1
  O  O41  1  0.744646  0.812252  0.158024  1
  O  O42  1  0.632417  0.199791  0.240521  1
  O  O43  1  0.277301  0.200898  0.016939  1
  O  O44  1  0.811865  0.379572  0.180253  1
  O  O45  1  0.816066  0.752870  0.076693  1
  O  O46  1  0.644095  0.207291  0.076693  1
  O  O47  1  0.824331  0.400734  0.016939  1
  P  P48  1  0.380219  0.630219  0.960072  1
  P  P49  1  0.369781  0.619781  0.789928  1
  Si  Si50  1  0.625000  0.375000  0.875000  1
  Si  Si51  1  0.366787  0.616787  0.622262  1
  Si  Si52  1  0.610395  0.360395  0.703465  1
  Si  Si53  1  0.372317  0.622317  0.457439  1
  Si  Si54  1  0.618564  0.368564  0.539522  1
  Si  Si55  1  0.377683  0.627683  0.292561  1
  Si  Si56  1  0.625000  0.375000  0.375000  1
  Si  Si57  1  0.383213  0.633213  0.127738  1
  Si  Si58  1  0.631436  0.381436  0.210478  1
  Si  Si59  1  0.639605  0.389605  0.046535  1
  Y  Y60  1  0.882681  0.132681  0.960893  1
  Y  Y61  1  0.867319  0.117319  0.789107  1
  Zr  Zr62  1  0.125000  0.875000  0.875000  1
  Zr  Zr63  1  0.110673  0.860673  0.703557  1
  Zr  Zr64  1  0.119058  0.869058  0.539686  1
  Zr  Zr65  1  0.125000  0.875000  0.375000  1
  Zr  Zr66  1  0.130942  0.880942  0.210314  1
  Zr  Zr67  1  0.139327  0.889327  0.046443  1
  Zr  Zr68  1  0.864803  0.114803  0.621601  1
  Zr  Zr69  1  0.871983  0.121983  0.457327  1
  Zr  Zr70  1  0.878017  0.128017  0.292673  1
  Zr  Zr71  1  0.885197  0.135197  0.128399  1
