# generated using pymatgen
data_Cu(HO)2
_symmetry_space_group_name_H-M   'P 1'
_cell_length_a   2.96958599
_cell_length_b   5.60887789
_cell_length_c   5.43136028
_cell_angle_alpha   90.00000000
_cell_angle_beta   105.86515112
_cell_angle_gamma   90.00000000
_symmetry_Int_Tables_number   1
_chemical_formula_structural   Cu(HO)2
_chemical_formula_sum   'Cu2 H4 O4'
_cell_volume   87.01896864
_cell_formula_units_Z   2
loop_
 _symmetry_equiv_pos_site_id
 _symmetry_equiv_pos_as_xyz
  1  'x, y, z'
loop_
 _atom_site_type_symbol
 _atom_site_label
 _atom_site_symmetry_multiplicity
 _atom_site_fract_x
 _atom_site_fract_y
 _atom_site_fract_z
 _atom_site_occupancy
  Cu  Cu0  1  0.818294  0.248760  0.636589  1
  Cu  Cu1  1  0.181706  0.748760  0.363411  1
  O  O2  1  0.447186  0.257059  0.894372  1
  O  O3  1  0.552814  0.757059  0.105628  1
  O  O4  1  0.204406  0.157194  0.408813  1
  O  O5  1  0.795594  0.657194  0.591187  1
  H  H6  1  0.481378  0.421074  0.962756  1
  H  H7  1  0.518622  0.921074  0.037244  1
  H  H8  1  0.116592  0.219214  0.233184  1
  H  H9  1  0.883408  0.719214  0.766816  1
