# generated using pymatgen
data_Sr4Ti5(Si2O11)2
_symmetry_space_group_name_H-M   'P 1'
_cell_length_a   5.68281855
_cell_length_b   7.61799110
_cell_length_c   11.48677237
_cell_angle_alpha   74.83067608
_cell_angle_beta   75.67844757
_cell_angle_gamma   68.10007057
_symmetry_Int_Tables_number   1
_chemical_formula_structural   Sr4Ti5(Si2O11)2
_chemical_formula_sum   'Sr4 Ti5 Si4 O22'
_cell_volume   439.04779680
_cell_formula_units_Z   1
loop_
 _symmetry_equiv_pos_site_id
 _symmetry_equiv_pos_as_xyz
  1  'x, y, z'
loop_
 _atom_site_type_symbol
 _atom_site_label
 _atom_site_symmetry_multiplicity
 _atom_site_fract_x
 _atom_site_fract_y
 _atom_site_fract_z
 _atom_site_occupancy
  Sr  Sr0  1  0.953764  0.352833  0.739638  1
  Sr  Sr1  1  0.765079  0.202577  0.267265  1
  Sr  Sr2  1  0.046236  0.647167  0.260362  1
  Sr  Sr3  1  0.234921  0.797423  0.732735  1
  Ti  Ti4  1  0.242357  0.000000  0.000000  1
  Ti  Ti5  1  0.500000  0.500000  0.500000  1
  Ti  Ti6  1  0.725479  0.548285  0.000756  1
  Ti  Ti7  1  0.757643  1.000000  1.000000  1
  Ti  Ti8  1  0.274521  0.451715  0.999244  1
  Si  Si9  1  0.594303  0.082008  0.729385  1
  Si  Si10  1  0.157510  0.231508  0.453472  1
  Si  Si11  1  0.842490  0.768492  0.546528  1
  Si  Si12  1  0.405697  0.917991  0.270615  1
  O  O13  1  0.671701  0.943917  0.182199  1
  O  O14  1  0.866389  0.370128  0.418227  1
  O  O15  1  0.654744  0.629872  0.581773  1
  O  O16  1  0.458238  0.465959  0.117933  1
  O  O17  1  0.908002  0.183977  1.000020  1
  O  O18  1  0.404842  0.189340  0.000976  1
  O  O19  1  0.146666  0.116107  0.590562  1
  O  O20  1  0.853334  0.883893  0.409438  1
  O  O21  1  0.797816  0.056083  0.817801  1
  O  O22  1  0.469255  0.704293  0.357198  1
  O  O23  1  0.328299  0.056083  0.817801  1
  O  O24  1  0.278664  0.097890  0.344782  1
  O  O25  1  0.541762  0.534041  0.882067  1
  O  O26  1  0.595158  0.810660  0.999024  1
  O  O27  1  0.042130  0.534041  0.882067  1
  O  O28  1  0.530745  0.295707  0.642802  1
  O  O29  1  0.091998  0.816023  -0.000020  1
  O  O30  1  0.957870  0.465959  0.117933  1
  O  O31  1  0.133611  0.629872  0.581773  1
  O  O32  1  0.721336  0.902110  0.655218  1
  O  O33  1  0.345256  0.370128  0.418227  1
  O  O34  1  0.202184  0.943917  0.182199  1
