# generated using pymatgen
data_Rb2V4O9
_symmetry_space_group_name_H-M   'P 1'
_cell_length_a   5.78066336
_cell_length_b   5.78066336
_cell_length_c   15.24357084
_cell_angle_alpha   90.00000000
_cell_angle_beta   90.00000000
_cell_angle_gamma   90.00000000
_symmetry_Int_Tables_number   1
_chemical_formula_structural   Rb2V4O9
_chemical_formula_sum   'Rb4 V8 O18'
_cell_volume   509.38021319
_cell_formula_units_Z   2
loop_
 _symmetry_equiv_pos_site_id
 _symmetry_equiv_pos_as_xyz
  1  'x, y, z'
loop_
 _atom_site_type_symbol
 _atom_site_label
 _atom_site_symmetry_multiplicity
 _atom_site_fract_x
 _atom_site_fract_y
 _atom_site_fract_z
 _atom_site_occupancy
  Rb  Rb0  1  0.265210  0.243987  0.500000  1
  Rb  Rb1  1  0.756013  0.265210  0.000000  1
  Rb  Rb2  1  0.243987  0.734790  0.000000  1
  Rb  Rb3  1  0.734790  0.756013  0.500000  1
  V  V4  1  0.286762  0.148866  0.200428  1
  V  V5  1  0.851134  0.286762  0.700428  1
  V  V6  1  0.148866  0.713238  0.700428  1
  V  V7  1  0.713238  0.851134  0.200428  1
  V  V8  1  0.713238  0.851134  0.799572  1
  V  V9  1  0.148866  0.713238  0.299572  1
  V  V10  1  0.851134  0.286762  0.299572  1
  V  V11  1  0.286762  0.148866  0.799572  1
  O  O12  1  0.000000  0.000000  0.250000  1
  O  O13  1  0.000000  0.000000  0.750000  1
  O  O14  1  0.227883  0.229841  0.097587  1
  O  O15  1  0.770159  0.227883  0.597587  1
  O  O16  1  0.229841  0.772117  0.597587  1
  O  O17  1  0.772117  0.770159  0.097587  1
  O  O18  1  0.772117  0.770159  0.902413  1
  O  O19  1  0.229841  0.772117  0.402413  1
  O  O20  1  0.770159  0.227883  0.402413  1
  O  O21  1  0.227883  0.229841  0.902413  1
  O  O22  1  0.182784  0.378372  0.286824  1
  O  O23  1  0.621628  0.182784  0.786824  1
  O  O24  1  0.378372  0.817216  0.786824  1
  O  O25  1  0.817216  0.621628  0.286824  1
  O  O26  1  0.817216  0.621628  0.713176  1
  O  O27  1  0.378372  0.817216  0.213176  1
  O  O28  1  0.621628  0.182784  0.213176  1
  O  O29  1  0.182784  0.378372  0.713176  1
