# generated using pymatgen
data_Ba2Sc2B4O11
_symmetry_space_group_name_H-M   'P 1'
_cell_length_a   6.42403915
_cell_length_b   9.37710490
_cell_length_c   9.37710481
_cell_angle_alpha   60.59909835
_cell_angle_beta   81.30785527
_cell_angle_gamma   81.30785201
_symmetry_Int_Tables_number   1
_chemical_formula_structural   Ba2Sc2B4O11
_chemical_formula_sum   'Ba4 Sc4 B8 O22'
_cell_volume   484.51783744
_cell_formula_units_Z   2
loop_
 _symmetry_equiv_pos_site_id
 _symmetry_equiv_pos_as_xyz
  1  'x, y, z'
loop_
 _atom_site_type_symbol
 _atom_site_label
 _atom_site_symmetry_multiplicity
 _atom_site_fract_x
 _atom_site_fract_y
 _atom_site_fract_z
 _atom_site_occupancy
  Ba  Ba0  1  0.575200  0.803442  0.471655  1
  Ba  Ba1  1  0.075200  0.471655  0.803442  1
  Ba  Ba2  1  0.924800  0.528345  0.196558  1
  Ba  Ba3  1  0.424800  0.196558  0.528345  1
  Sc  Sc4  1  0.500000  0.000000  0.000000  1
  Sc  Sc5  1  0.000000  0.000000  0.500000  1
  Sc  Sc6  1  0.500000  0.500000  0.000000  1
  Sc  Sc7  1  0.000000  0.000000  0.000000  1
  B  B8  1  0.411808  0.619934  0.278760  1
  B  B9  1  0.088192  0.721240  0.380066  1
  B  B10  1  0.254991  0.831249  0.829041  1
  B  B11  1  0.745009  0.168751  0.170959  1
  B  B12  1  0.245009  0.170959  0.168751  1
  B  B13  1  0.754991  0.829041  0.831249  1
  B  B14  1  0.588192  0.380066  0.721240  1
  B  B15  1  0.911808  0.278760  0.619934  1
  O  O16  1  0.502336  0.234068  0.785871  1
  O  O17  1  0.265383  0.070930  0.333318  1
  O  O18  1  0.205831  0.101924  0.072425  1
  O  O19  1  0.263414  0.336695  0.095149  1
  O  O20  1  0.521312  0.501818  0.762475  1
  O  O21  1  0.236586  0.904851  0.663305  1
  O  O22  1  0.765383  0.333318  0.070930  1
  O  O23  1  0.294169  0.927575  0.898076  1
  O  O24  1  0.736586  0.663305  0.904851  1
  O  O25  1  0.250000  0.585747  0.414253  1
  O  O26  1  0.478688  0.498182  0.237525  1
  O  O27  1  0.794169  0.898076  0.927575  1
  O  O28  1  0.750000  0.414253  0.585747  1
  O  O29  1  0.978688  0.237525  0.498182  1
  O  O30  1  0.705831  0.072425  0.101924  1
  O  O31  1  0.234617  0.666682  0.929070  1
  O  O32  1  0.997664  0.214129  0.765932  1
  O  O33  1  0.497664  0.765932  0.214129  1
  O  O34  1  0.002336  0.785871  0.234068  1
  O  O35  1  0.763414  0.095149  0.336695  1
  O  O36  1  0.021312  0.762475  0.501818  1
  O  O37  1  0.734617  0.929070  0.666682  1
