# generated using pymatgen
data_AgH11C4(SO)3
_symmetry_space_group_name_H-M   'P 1'
_cell_length_a   7.69177770
_cell_length_b   9.80431626
_cell_length_c   13.94596315
_cell_angle_alpha   91.33936735
_cell_angle_beta   90.00000000
_cell_angle_gamma   90.00000000
_symmetry_Int_Tables_number   1
_chemical_formula_structural   AgH11C4(SO)3
_chemical_formula_sum   'Ag4 H44 C16 S12 O12'
_cell_volume   1051.41429522
_cell_formula_units_Z   4
loop_
 _symmetry_equiv_pos_site_id
 _symmetry_equiv_pos_as_xyz
  1  'x, y, z'
loop_
 _atom_site_type_symbol
 _atom_site_label
 _atom_site_symmetry_multiplicity
 _atom_site_fract_x
 _atom_site_fract_y
 _atom_site_fract_z
 _atom_site_occupancy
  Ag  Ag0  1  0.189396  0.539308  0.041364  1
  Ag  Ag1  1  0.810604  0.460692  0.958636  1
  Ag  Ag2  1  0.689396  0.960692  0.458636  1
  Ag  Ag3  1  0.310604  0.039308  0.541364  1
  H  H4  1  0.952953  0.320688  0.736710  1
  H  H5  1  0.750582  0.588978  0.414497  1
  H  H6  1  0.635612  0.805031  0.657815  1
  H  H7  1  0.489699  0.351286  0.342687  1
  H  H8  1  0.452953  0.179312  0.763290  1
  H  H9  1  0.155231  0.352277  0.474693  1
  H  H10  1  0.248856  0.747830  0.222347  1
  H  H11  1  0.989699  0.148714  0.157313  1
  H  H12  1  0.156127  0.715351  0.549221  1
  H  H13  1  0.237162  0.676906  0.338939  1
  H  H14  1  0.181876  0.985622  0.975911  1
  H  H15  1  0.541446  0.711660  0.850600  1
  H  H16  1  0.844769  0.647723  0.525307  1
  H  H17  1  0.249418  0.411022  0.585503  1
  H  H18  1  0.818124  0.014378  0.024089  1
  H  H19  1  0.547047  0.820688  0.236710  1
  H  H20  1  0.958554  0.211660  0.350600  1
  H  H21  1  0.510301  0.648714  0.657313  1
  H  H22  1  0.318124  0.485622  0.475911  1
  H  H23  1  0.748856  0.752170  0.277653  1
  H  H24  1  0.047047  0.679312  0.263290  1
  H  H25  1  0.843873  0.284649  0.450779  1
  H  H26  1  0.676289  0.858992  0.833318  1
  H  H27  1  0.681876  0.514378  0.524089  1
  H  H28  1  0.135612  0.694969  0.842185  1
  H  H29  1  0.262838  0.176906  0.838939  1
  H  H30  1  0.751144  0.252170  0.777653  1
  H  H31  1  0.251144  0.247830  0.722347  1
  H  H32  1  0.323711  0.141008  0.166682  1
  H  H33  1  0.010301  0.851286  0.842687  1
  H  H34  1  0.458554  0.288340  0.149400  1
  H  H35  1  0.344769  0.852277  0.974693  1
  H  H36  1  0.749418  0.088978  0.914497  1
  H  H37  1  0.762838  0.323094  0.661061  1
  H  H38  1  0.343873  0.215351  0.049221  1
  H  H39  1  0.737162  0.823094  0.161061  1
  H  H40  1  0.041446  0.788340  0.649400  1
  H  H41  1  0.655231  0.147723  0.025307  1
  H  H42  1  0.864388  0.305031  0.157815  1
  H  H43  1  0.656127  0.784649  0.950779  1
  H  H44  1  0.176289  0.641008  0.666682  1
  H  H45  1  0.364388  0.194969  0.342185  1
  H  H46  1  0.823711  0.358992  0.333318  1
  H  H47  1  0.250582  0.911022  0.085503  1
  C  C48  1  0.024129  0.749633  0.873683  1
  C  C49  1  0.773910  0.108805  0.991023  1
  C  C50  1  0.665539  0.766065  0.214918  1
  C  C51  1  0.339320  0.235367  0.126758  1
  C  C52  1  0.226090  0.891195  0.008977  1
  C  C53  1  0.834461  0.266065  0.714918  1
  C  C54  1  0.975871  0.250367  0.126317  1
  C  C55  1  0.273910  0.391195  0.508977  1
  C  C56  1  0.165539  0.733935  0.285082  1
  C  C57  1  0.660680  0.764633  0.873242  1
  C  C58  1  0.160680  0.735367  0.626758  1
  C  C59  1  0.334461  0.233935  0.785082  1
  C  C60  1  0.839320  0.264633  0.373242  1
  C  C61  1  0.726090  0.608805  0.491023  1
  C  C62  1  0.524129  0.750367  0.626317  1
  C  C63  1  0.475871  0.249633  0.373683  1
  S  S64  1  0.335780  0.851267  0.658228  1
  S  S65  1  0.835780  0.648733  0.841772  1
  S  S66  1  0.946938  0.234153  0.996949  1
  S  S67  1  0.553062  0.734153  0.496949  1
  S  S68  1  0.895028  0.103182  0.664821  1
  S  S69  1  0.604972  0.603182  0.164821  1
  S  S70  1  0.164220  0.351267  0.158228  1
  S  S71  1  0.664220  0.148733  0.341772  1
  S  S72  1  0.446938  0.265847  0.503051  1
  S  S73  1  0.053062  0.765847  0.003051  1
  S  S74  1  0.395028  0.396818  0.835179  1
  S  S75  1  0.104972  0.896818  0.335179  1
  O  O76  1  0.015739  0.134359  0.585539  1
  O  O77  1  0.268572  0.960976  0.370402  1
  O  O78  1  0.515739  0.365641  0.914461  1
  O  O79  1  0.524571  0.526830  0.242732  1
  O  O80  1  0.768572  0.539024  0.129598  1
  O  O81  1  0.984261  0.865641  0.414461  1
  O  O82  1  0.475429  0.473170  0.757268  1
  O  O83  1  0.731428  0.039024  0.629598  1
  O  O84  1  0.024571  0.973170  0.257268  1
  O  O85  1  0.231428  0.460976  0.870402  1
  O  O86  1  0.975429  0.026830  0.742732  1
  O  O87  1  0.484261  0.634359  0.085539  1
