# generated using pymatgen
data_ErRu2
_symmetry_space_group_name_H-M   'P 1'
_cell_length_a   5.25103647
_cell_length_b   5.25137267
_cell_length_c   8.89341181
_cell_angle_alpha   90.00000000
_cell_angle_beta   90.00000000
_cell_angle_gamma   120.00654094
_symmetry_Int_Tables_number   1
_chemical_formula_structural   ErRu2
_chemical_formula_sum   'Er4 Ru8'
_cell_volume   212.36761045
_cell_formula_units_Z   4
loop_
 _symmetry_equiv_pos_site_id
 _symmetry_equiv_pos_as_xyz
  1  'x, y, z'
loop_
 _atom_site_type_symbol
 _atom_site_label
 _atom_site_symmetry_multiplicity
 _atom_site_fract_x
 _atom_site_fract_y
 _atom_site_fract_z
 _atom_site_occupancy
  Er  Er0  1  0.666684  0.333328  0.566537  1
  Er  Er1  1  0.333317  0.666675  0.433463  1
  Er  Er2  1  0.333316  0.666672  0.066537  1
  Er  Er3  1  0.666683  0.333325  0.933463  1
  Ru  Ru4  1  0.000001  -0.000001  0.500001  1
  Ru  Ru5  1  0.999999  0.000001  0.000001  1
  Ru  Ru6  1  0.170879  0.341766  0.750000  1
  Ru  Ru7  1  0.170904  0.829091  0.750000  1
  Ru  Ru8  1  0.658223  0.829114  0.749999  1
  Ru  Ru9  1  0.829121  0.658234  0.250000  1
  Ru  Ru10  1  0.829096  0.170909  0.250000  1
  Ru  Ru11  1  0.341777  0.170886  0.249999  1
