# generated using pymatgen
data_Ba2La2Mn(WO6)2
_symmetry_space_group_name_H-M   'P 1'
_cell_length_a   9.87515307
_cell_length_b   9.87515279
_cell_length_c   9.87515305
_cell_angle_alpha   33.66657325
_cell_angle_beta   33.66657565
_cell_angle_gamma   33.66657619
_symmetry_Int_Tables_number   1
_chemical_formula_structural   Ba2La2Mn(WO6)2
_chemical_formula_sum   'Ba2 La2 Mn1 W2 O12'
_cell_volume   263.65424648
_cell_formula_units_Z   1
loop_
 _symmetry_equiv_pos_site_id
 _symmetry_equiv_pos_as_xyz
  1  'x, y, z'
loop_
 _atom_site_type_symbol
 _atom_site_label
 _atom_site_symmetry_multiplicity
 _atom_site_fract_x
 _atom_site_fract_y
 _atom_site_fract_z
 _atom_site_occupancy
  Ba  Ba0  1  0.134683  0.134683  0.134683  1
  Ba  Ba1  1  0.865317  0.865317  0.865317  1
  La  La2  1  0.291769  0.291769  0.291769  1
  La  La3  1  0.708231  0.708231  0.708231  1
  Mn  Mn4  1  0.000000  0.000000  0.000000  1
  W  W5  1  0.416244  0.416244  0.416244  1
  W  W6  1  0.583756  0.583756  0.583756  1
  O  O7  1  0.883865  0.383384  0.383384  1
  O  O8  1  0.785473  0.316450  0.785473  1
  O  O9  1  0.116135  0.616616  0.616616  1
  O  O10  1  0.316450  0.785473  0.785473  1
  O  O11  1  0.214527  0.214527  0.683550  1
  O  O12  1  0.683550  0.214527  0.214527  1
  O  O13  1  0.383384  0.383384  0.883865  1
  O  O14  1  0.214527  0.683550  0.214527  1
  O  O15  1  0.383384  0.883865  0.383384  1
  O  O16  1  0.785473  0.785473  0.316450  1
  O  O17  1  0.616616  0.616616  0.116135  1
  O  O18  1  0.616616  0.116135  0.616616  1
