# generated using pymatgen
data_SnO2
_symmetry_space_group_name_H-M   'P 1'
_cell_length_a   5.15684552
_cell_length_b   5.24695238
_cell_length_c   10.16202777
_cell_angle_alpha   90.00000000
_cell_angle_beta   90.00000000
_cell_angle_gamma   90.00000000
_symmetry_Int_Tables_number   1
_chemical_formula_structural   SnO2
_chemical_formula_sum   'Sn8 O16'
_cell_volume   274.96133124
_cell_formula_units_Z   8
loop_
 _symmetry_equiv_pos_site_id
 _symmetry_equiv_pos_as_xyz
  1  'x, y, z'
loop_
 _atom_site_type_symbol
 _atom_site_label
 _atom_site_symmetry_multiplicity
 _atom_site_fract_x
 _atom_site_fract_y
 _atom_site_fract_z
 _atom_site_occupancy
  Sn  Sn0  1  0.768339  0.467917  0.882001  1
  Sn  Sn1  1  0.731661  0.467917  0.382001  1
  Sn  Sn2  1  0.268339  0.032083  0.882001  1
  Sn  Sn3  1  0.231661  0.532083  0.117999  1
  Sn  Sn4  1  0.768339  0.967917  0.617999  1
  Sn  Sn5  1  0.731661  0.967917  0.117999  1
  Sn  Sn6  1  0.268339  0.532083  0.617999  1
  Sn  Sn7  1  0.231661  0.032083  0.382001  1
  O  O8  1  0.869638  0.631579  0.210625  1
  O  O9  1  -0.001521  0.240710  0.021913  1
  O  O10  1  1.001521  0.759290  0.978087  1
  O  O11  1  0.630362  0.131579  0.789375  1
  O  O12  1  0.630362  0.631579  0.710625  1
  O  O13  1  0.130362  0.368421  0.789375  1
  O  O14  1  0.369638  0.868421  0.210625  1
  O  O15  1  0.869638  0.131579  0.289375  1
  O  O16  1  1.001521  0.259290  0.521913  1
  O  O17  1  0.130362  0.868421  0.710625  1
  O  O18  1  0.501521  0.240710  0.521913  1
  O  O19  1  0.369638  0.368421  0.289375  1
  O  O20  1  0.501521  0.740710  0.978087  1
  O  O21  1  0.498479  0.259290  0.021913  1
  O  O22  1  -0.001521  0.740710  0.478087  1
  O  O23  1  0.498479  0.759290  0.478087  1
