# generated using pymatgen
data_Sb2N5F11
_symmetry_space_group_name_H-M   'P 1'
_cell_length_a   8.54355159
_cell_length_b   8.54355119
_cell_length_c   17.11307915
_cell_angle_alpha   99.48708286
_cell_angle_beta   99.48708241
_cell_angle_gamma   98.16241449
_symmetry_Int_Tables_number   1
_chemical_formula_structural   Sb2N5F11
_chemical_formula_sum   'Sb8 N20 F44'
_cell_volume   1196.67802758
_cell_formula_units_Z   4
loop_
 _symmetry_equiv_pos_site_id
 _symmetry_equiv_pos_as_xyz
  1  'x, y, z'
loop_
 _atom_site_type_symbol
 _atom_site_label
 _atom_site_symmetry_multiplicity
 _atom_site_fract_x
 _atom_site_fract_y
 _atom_site_fract_z
 _atom_site_occupancy
  Sb  Sb0  1  0.239698  0.294462  0.403237  1
  Sb  Sb1  1  0.705538  0.760302  0.096763  1
  Sb  Sb2  1  0.760302  0.705538  0.596763  1
  Sb  Sb3  1  0.294462  0.239698  0.903237  1
  Sb  Sb4  1  0.643083  0.110998  0.379954  1
  Sb  Sb5  1  0.889002  0.356917  0.120046  1
  Sb  Sb6  1  0.356917  0.889002  0.620046  1
  Sb  Sb7  1  0.110998  0.643083  0.879954  1
  F  F8  1  0.352276  0.461084  0.361795  1
  F  F9  1  0.538916  0.647724  0.138205  1
  F  F10  1  0.647724  0.538916  0.638205  1
  F  F11  1  0.461084  0.352276  0.861795  1
  F  F12  1  0.198078  0.160303  0.298386  1
  F  F13  1  0.839697  0.801922  0.201614  1
  F  F14  1  0.801922  0.839697  0.701614  1
  F  F15  1  0.160303  0.198078  0.798386  1
  F  F16  1  0.156555  0.112168  0.444373  1
  F  F17  1  0.887832  0.843445  0.055627  1
  F  F18  1  0.843445  0.887832  0.555627  1
  F  F19  1  0.112168  0.156555  0.944373  1
  F  F20  1  0.315922  0.409309  0.511096  1
  F  F21  1  0.590691  0.684078  0.988904  1
  F  F22  1  0.684078  0.590691  0.488904  1
  F  F23  1  0.409309  0.315922  0.011096  1
  F  F24  1  0.045516  0.376633  0.390122  1
  F  F25  1  0.623367  0.954484  0.109878  1
  F  F26  1  0.954484  0.623367  0.609878  1
  F  F27  1  0.376633  0.045516  0.890122  1
  F  F28  1  0.456227  0.208197  0.419983  1
  F  F29  1  0.791803  0.543773  0.080017  1
  F  F30  1  0.543773  0.791803  0.580017  1
  F  F31  1  0.208197  0.456227  0.919983  1
  F  F32  1  0.695986  0.307603  0.344318  1
  F  F33  1  0.692397  0.304014  0.155682  1
  F  F34  1  0.304014  0.692397  0.655682  1
  F  F35  1  0.307603  0.695986  0.844318  1
  F  F36  1  0.499126  0.033222  0.277979  1
  F  F37  1  0.966778  0.500874  0.222021  1
  F  F38  1  0.500874  0.966778  0.722021  1
  F  F39  1  0.033222  0.499126  0.777979  1
  F  F40  1  0.556568  0.922990  0.415102  1
  F  F41  1  0.077010  0.443432  0.084898  1
  F  F42  1  0.443432  0.077010  0.584898  1
  F  F43  1  0.922990  0.556568  0.915102  1
  F  F44  1  0.761207  0.204074  0.485640  1
  F  F45  1  0.795926  0.238793  0.014360  1
  F  F46  1  0.238793  0.795926  0.514359  1
  F  F47  1  0.204074  0.761207  0.985641  1
  F  F48  1  0.814095  0.015612  0.346471  1
  F  F49  1  0.984388  0.185905  0.153529  1
  F  F50  1  0.185905  0.984388  0.653529  1
  F  F51  1  0.015612  0.814095  0.846471  1
  N  N52  1  0.210594  0.837796  0.158458  1
  N  N53  1  0.162204  0.789406  0.341542  1
  N  N54  1  0.789406  0.162204  0.841542  1
  N  N55  1  0.837796  0.210594  0.658458  1
  N  N56  1  0.253701  0.958269  0.143456  1
  N  N57  1  0.041731  0.746299  0.356544  1
  N  N58  1  0.746299  0.041731  0.856544  1
  N  N59  1  0.958269  0.253701  0.643456  1
  N  N60  1  0.298696  0.075137  0.109224  1
  N  N61  1  0.924863  0.701304  0.390776  1
  N  N62  1  0.701304  0.924863  0.890776  1
  N  N63  1  0.075137  0.298696  0.609224  1
  N  N64  1  0.338534  0.213573  0.156614  1
  N  N65  1  0.786427  0.661466  0.343386  1
  N  N66  1  0.661466  0.786427  0.843386  1
  N  N67  1  0.213573  0.338534  0.656614  1
  N  N68  1  0.378296  0.345331  0.184489  1
  N  N69  1  0.654669  0.621704  0.315511  1
  N  N70  1  0.621704  0.654669  0.815511  1
  N  N71  1  0.345331  0.378296  0.684489  1
