# generated using pymatgen
data_Sm(Mo4O7)2
_symmetry_space_group_name_H-M   'P 1'
_cell_length_a   8.27346051
_cell_length_b   8.27346051
_cell_length_c   9.41025537
_cell_angle_alpha   90.00000000
_cell_angle_beta   90.00000000
_cell_angle_gamma   99.98151188
_symmetry_Int_Tables_number   1
_chemical_formula_structural   Sm(Mo4O7)2
_chemical_formula_sum   'Sm2 Mo16 O28'
_cell_volume   634.38360674
_cell_formula_units_Z   2
loop_
 _symmetry_equiv_pos_site_id
 _symmetry_equiv_pos_as_xyz
  1  'x, y, z'
loop_
 _atom_site_type_symbol
 _atom_site_label
 _atom_site_symmetry_multiplicity
 _atom_site_fract_x
 _atom_site_fract_y
 _atom_site_fract_z
 _atom_site_occupancy
  O  O0  1  0.686913  0.313087  0.500000  1
  O  O1  1  0.186913  0.813087  0.000000  1
  O  O2  1  0.226145  0.773855  0.500000  1
  O  O3  1  0.726145  0.273855  0.000000  1
  O  O4  1  0.825991  0.669253  0.507107  1
  O  O5  1  0.330747  0.174009  0.492893  1
  O  O6  1  0.325991  0.169253  0.992893  1
  O  O7  1  0.830747  0.674009  0.007107  1
  O  O8  1  0.659356  0.509873  0.751626  1
  O  O9  1  0.490127  0.340644  0.248374  1
  O  O10  1  0.159356  0.009873  0.748374  1
  O  O11  1  0.990127  0.840644  0.251626  1
  O  O12  1  0.816362  0.915266  0.716222  1
  O  O13  1  0.084734  0.183638  0.283778  1
  O  O14  1  0.316362  0.415266  0.783778  1
  O  O15  1  0.584734  0.683638  0.216222  1
  O  O16  1  0.104151  0.432973  0.531392  1
  O  O17  1  0.567027  0.895849  0.468608  1
  O  O18  1  0.868752  0.462360  0.244266  1
  O  O19  1  0.537640  0.131248  0.755734  1
  O  O20  1  0.368752  0.962360  0.255734  1
  O  O21  1  0.037640  0.631248  0.744266  1
  O  O22  1  0.236681  0.583290  0.251750  1
  O  O23  1  0.416710  0.763319  0.748250  1
  O  O24  1  0.736681  0.083290  0.248250  1
  O  O25  1  0.916710  0.263319  0.751750  1
  O  O26  1  0.067027  0.395849  0.031392  1
  O  O27  1  0.604151  0.932973  0.968608  1
  Mo  Mo28  1  0.875274  0.461238  0.631779  1
  Mo  Mo29  1  0.538762  0.124726  0.368221  1
  Mo  Mo30  1  0.375274  0.961238  0.868221  1
  Mo  Mo31  1  0.038762  0.624726  0.131779  1
  Mo  Mo32  1  0.484572  0.330369  0.642463  1
  Mo  Mo33  1  0.669631  0.515428  0.357537  1
  Mo  Mo34  1  0.984572  0.830369  0.857537  1
  Mo  Mo35  1  0.169631  0.015428  0.142463  1
  Mo  Mo36  1  0.630617  0.734990  0.630669  1
  Mo  Mo37  1  0.265010  0.369383  0.369331  1
  Mo  Mo38  1  0.130617  0.234990  0.869331  1
  Mo  Mo39  1  0.765010  0.869383  0.130669  1
  Mo  Mo40  1  0.252819  0.597048  0.647992  1
  Mo  Mo41  1  0.402952  0.747181  0.352008  1
  Mo  Mo42  1  0.752819  0.097048  0.852008  1
  Mo  Mo43  1  0.902952  0.247181  0.147992  1
  Sm  Sm44  1  0.054086  0.945914  0.500000  1
  Sm  Sm45  1  0.554086  0.445914  0.000000  1
