# generated using pymatgen
data_Ba4Gd2Cd3S10
_symmetry_space_group_name_H-M   'P 1'
_cell_length_a   4.20719409
_cell_length_b   9.33977969
_cell_length_c   27.02985785
_cell_angle_alpha   90.00000000
_cell_angle_beta   90.00000000
_cell_angle_gamma   103.01639365
_symmetry_Int_Tables_number   1
_chemical_formula_structural   Ba4Gd2Cd3S10
_chemical_formula_sum   'Ba8 Gd4 Cd6 S20'
_cell_volume   1034.82799180
_cell_formula_units_Z   2
loop_
 _symmetry_equiv_pos_site_id
 _symmetry_equiv_pos_as_xyz
  1  'x, y, z'
loop_
 _atom_site_type_symbol
 _atom_site_label
 _atom_site_symmetry_multiplicity
 _atom_site_fract_x
 _atom_site_fract_y
 _atom_site_fract_z
 _atom_site_occupancy
  Ba  Ba0  1  0.424112  0.848225  0.156551  1
  Ba  Ba1  1  0.575888  0.151775  0.656551  1
  Ba  Ba2  1  0.403229  0.806458  0.338544  1
  Ba  Ba3  1  0.839598  0.679195  0.890897  1
  Ba  Ba4  1  0.160402  0.320805  0.390897  1
  Ba  Ba5  1  0.162063  0.324126  0.110610  1
  Ba  Ba6  1  0.596771  0.193542  0.838544  1
  Ba  Ba7  1  0.837937  0.675874  0.610610  1
  Gd  Gd8  1  0.079422  0.158844  0.253689  1
  Gd  Gd9  1  0.920578  0.841156  0.753689  1
  Gd  Gd10  1  0.496317  0.992635  0.500032  1
  Gd  Gd11  1  0.503683  0.007365  0.000032  1
  Cd  Cd12  1  0.781193  0.562387  0.231409  1
  Cd  Cd13  1  0.218807  0.437613  0.731409  1
  Cd  Cd14  1  0.161459  0.322918  0.961570  1
  Cd  Cd15  1  0.838541  0.677082  0.461570  1
  Cd  Cd16  1  0.155610  0.311219  0.543982  1
  Cd  Cd17  1  0.844390  0.688781  0.043982  1
  S  S18  1  0.575825  0.151651  0.321019  1
  S  S19  1  0.655794  0.311589  0.018235  1
  S  S20  1  0.768012  0.536025  0.767629  1
  S  S21  1  0.409549  0.819097  0.684405  1
  S  S22  1  0.073835  0.147670  0.746883  1
  S  S23  1  0.791974  0.583949  0.131401  1
  S  S24  1  0.344206  0.688411  0.518235  1
  S  S25  1  0.212847  0.425694  0.877643  1
  S  S26  1  0.011664  0.023328  0.570812  1
  S  S27  1  0.017318  0.034637  0.933362  1
  S  S28  1  0.650978  0.301956  0.489647  1
  S  S29  1  0.231988  0.463975  0.267629  1
  S  S30  1  0.926165  0.852330  0.246883  1
  S  S31  1  0.787153  0.574306  0.377643  1
  S  S32  1  0.988336  0.976672  0.070812  1
  S  S33  1  0.982682  0.965363  0.433362  1
  S  S34  1  0.349022  0.698044  0.989647  1
  S  S35  1  0.424175  0.848349  0.821019  1
  S  S36  1  0.590451  0.180903  0.184405  1
  S  S37  1  0.208026  0.416051  0.631401  1
