# generated using pymatgen
data_K2CoS2
_symmetry_space_group_name_H-M   'P 1'
_cell_length_a   5.94081299
_cell_length_b   6.81663325
_cell_length_c   7.79604351
_cell_angle_alpha   115.92443779
_cell_angle_beta   112.39654424
_cell_angle_gamma   90.00000003
_symmetry_Int_Tables_number   1
_chemical_formula_structural   K2CoS2
_chemical_formula_sum   'K4 Co2 S4'
_cell_volume   257.20234006
_cell_formula_units_Z   2
loop_
 _symmetry_equiv_pos_site_id
 _symmetry_equiv_pos_as_xyz
  1  'x, y, z'
loop_
 _atom_site_type_symbol
 _atom_site_label
 _atom_site_symmetry_multiplicity
 _atom_site_fract_x
 _atom_site_fract_y
 _atom_site_fract_z
 _atom_site_occupancy
  S  S0  1  0.401081  0.719716  0.802162  1
  S  S1  1  0.598919  0.280284  0.197838  1
  S  S2  1  0.098919  0.917554  0.197838  1
  S  S3  1  0.901081  0.082446  0.802162  1
  K  K4  1  0.353721  0.186968  0.707442  1
  K  K5  1  0.646279  0.813032  0.292558  1
  K  K6  1  0.853721  0.520474  0.707442  1
  K  K7  1  0.146279  0.479526  0.292558  1
  Co  Co8  1  0.750000  0.000000  0.000000  1
  Co  Co9  1  0.250000  0.000000  0.000000  1
