# generated using pymatgen
data_H12RhC8NO6
_symmetry_space_group_name_H-M   'P 1'
_cell_length_a   6.59822580
_cell_length_b   11.54191405
_cell_length_c   16.95506935
_cell_angle_alpha   90.00000000
_cell_angle_beta   90.00000000
_cell_angle_gamma   90.00000000
_symmetry_Int_Tables_number   1
_chemical_formula_structural   H12RhC8NO6
_chemical_formula_sum   'H48 Rh4 C32 N4 O24'
_cell_volume   1291.23289057
_cell_formula_units_Z   4
loop_
 _symmetry_equiv_pos_site_id
 _symmetry_equiv_pos_as_xyz
  1  'x, y, z'
loop_
 _atom_site_type_symbol
 _atom_site_label
 _atom_site_symmetry_multiplicity
 _atom_site_fract_x
 _atom_site_fract_y
 _atom_site_fract_z
 _atom_site_occupancy
  H  H0  1  0.432629  0.101106  0.723258  1
  H  H1  1  0.431155  0.495668  0.835173  1
  H  H2  1  0.613316  0.340330  0.772066  1
  H  H3  1  0.612561  0.358420  0.914159  1
  H  H4  1  0.567386  0.611427  0.882810  1
  H  H5  1  0.568845  0.504332  0.164827  1
  H  H6  1  0.112561  0.641580  0.085841  1
  H  H7  1  0.750000  0.444701  0.713192  1
  H  H8  1  0.067371  0.398894  0.223258  1
  H  H9  1  0.068845  0.004332  0.335173  1
  H  H10  1  0.067371  0.101106  0.723258  1
  H  H11  1  0.931155  0.504332  0.164827  1
  H  H12  1  0.567371  0.601106  0.776742  1
  H  H13  1  0.068845  0.495668  0.835173  1
  H  H14  1  0.612561  0.141580  0.414159  1
  H  H15  1  0.932629  0.898894  0.276742  1
  H  H16  1  0.932614  0.888573  0.382810  1
  H  H17  1  0.931155  0.995668  0.664827  1
  H  H18  1  0.386684  0.659670  0.227934  1
  H  H19  1  0.250000  0.525789  0.039408  1
  H  H20  1  0.932614  0.611427  0.882810  1
  H  H21  1  0.432614  0.111427  0.617190  1
  H  H22  1  0.887439  0.141580  0.414159  1
  H  H23  1  0.113316  0.840330  0.727934  1
  H  H24  1  0.250000  0.974211  0.539408  1
  H  H25  1  0.886684  0.159670  0.272066  1
  H  H26  1  0.386684  0.840330  0.727934  1
  H  H27  1  0.112561  0.858420  0.585841  1
  H  H28  1  0.067386  0.111427  0.617190  1
  H  H29  1  0.113316  0.659670  0.227934  1
  H  H30  1  0.750000  0.055299  0.213192  1
  H  H31  1  0.387439  0.858420  0.585841  1
  H  H32  1  0.750000  0.474211  0.960592  1
  H  H33  1  0.567386  0.888573  0.382810  1
  H  H34  1  0.067386  0.388573  0.117190  1
  H  H35  1  0.250000  0.944701  0.786808  1
  H  H36  1  0.887439  0.358420  0.914159  1
  H  H37  1  0.432629  0.398894  0.223258  1
  H  H38  1  0.932629  0.601106  0.776742  1
  H  H39  1  0.886684  0.340330  0.772066  1
  H  H40  1  0.750000  0.025789  0.460592  1
  H  H41  1  0.432614  0.388573  0.117190  1
  H  H42  1  0.613316  0.159670  0.272066  1
  H  H43  1  0.431155  0.004332  0.335173  1
  H  H44  1  0.567371  0.898894  0.276742  1
  H  H45  1  0.568845  0.995668  0.664827  1
  H  H46  1  0.387439  0.641580  0.085841  1
  H  H47  1  0.250000  0.555299  0.286808  1
  Rh  Rh48  1  0.750000  0.999195  0.003941  1
  Rh  Rh49  1  0.250000  0.000805  0.996059  1
  Rh  Rh50  1  0.250000  0.499195  0.496059  1
  Rh  Rh51  1  0.750000  0.500805  0.503941  1
  C  C52  1  0.250000  0.252933  0.471098  1
  C  C53  1  0.935889  0.552442  0.832209  1
  C  C54  1  0.435889  0.052442  0.667791  1
  C  C55  1  0.250000  0.588577  0.087815  1
  C  C56  1  0.935889  0.947558  0.332209  1
  C  C57  1  0.750000  0.752933  0.028902  1
  C  C58  1  0.750000  0.394062  0.767887  1
  C  C59  1  0.750000  0.088577  0.412185  1
  C  C60  1  0.750000  0.443192  0.402290  1
  C  C61  1  0.564111  0.947558  0.332209  1
  C  C62  1  0.750000  0.411423  0.912185  1
  C  C63  1  0.250000  0.648029  0.456100  1
  C  C64  1  0.250000  0.943192  0.097710  1
  C  C65  1  0.750000  0.692298  0.613078  1
  C  C66  1  0.250000  0.851971  0.956100  1
  C  C67  1  0.250000  0.894062  0.732113  1
  C  C68  1  0.250000  0.605938  0.232113  1
  C  C69  1  0.250000  0.556808  0.597710  1
  C  C70  1  0.250000  0.192298  0.886922  1
  C  C71  1  0.250000  0.247067  0.971098  1
  C  C72  1  0.750000  0.351971  0.543900  1
  C  C73  1  0.750000  0.807702  0.113078  1
  C  C74  1  0.564111  0.552442  0.832209  1
  C  C75  1  0.250000  0.307702  0.386922  1
  C  C76  1  0.750000  0.747067  0.528902  1
  C  C77  1  0.064111  0.447558  0.167791  1
  C  C78  1  0.064111  0.052442  0.667791  1
  C  C79  1  0.250000  0.911423  0.587815  1
  C  C80  1  0.750000  0.148029  0.043900  1
  C  C81  1  0.750000  0.105938  0.267887  1
  C  C82  1  0.435889  0.447558  0.167791  1
  C  C83  1  0.750000  0.056808  0.902290  1
  N  N84  1  0.250000  0.522583  0.164072  1
  N  N85  1  0.750000  0.022583  0.335928  1
  N  N86  1  0.750000  0.477417  0.835928  1
  N  N87  1  0.250000  0.977417  0.664072  1
  O  O88  1  0.250000  0.254355  0.827272  1
  O  O89  1  0.750000  0.674166  0.470309  1
  O  O90  1  0.250000  0.245645  0.327272  1
  O  O91  1  0.250000  0.740540  0.428728  1
  O  O92  1  0.750000  0.754355  0.672728  1
  O  O93  1  0.750000  0.092488  0.838105  1
  O  O94  1  0.250000  0.353963  0.978779  1
  O  O95  1  0.250000  0.759460  0.928728  1
  O  O96  1  0.750000  0.920872  0.114644  1
  O  O97  1  0.750000  0.259460  0.571272  1
  O  O98  1  0.250000  0.907512  0.161895  1
  O  O99  1  0.750000  0.579128  0.614644  1
  O  O100  1  0.750000  0.646037  0.021221  1
  O  O101  1  0.250000  0.146037  0.478779  1
  O  O102  1  0.250000  0.592488  0.661895  1
  O  O103  1  0.250000  0.420872  0.385356  1
  O  O104  1  0.750000  0.407512  0.338105  1
  O  O105  1  0.250000  0.174166  0.029691  1
  O  O106  1  0.750000  0.853963  0.521221  1
  O  O107  1  0.250000  0.079128  0.885356  1
  O  O108  1  0.750000  0.825834  0.970309  1
  O  O109  1  0.250000  0.325834  0.529691  1
  O  O110  1  0.750000  0.240540  0.071272  1
  O  O111  1  0.750000  0.745645  0.172728  1
