# generated using pymatgen
data_K4Th(MoO4)4
_symmetry_space_group_name_H-M   'P 1'
_cell_length_a   10.69356449
_cell_length_b   10.69356521
_cell_length_c   10.69356457
_cell_angle_alpha   102.95139006
_cell_angle_beta   112.82624641
_cell_angle_gamma   112.82624611
_symmetry_Int_Tables_number   1
_chemical_formula_structural   K4Th(MoO4)4
_chemical_formula_sum   'K8 Th2 Mo8 O32'
_cell_volume   932.33956310
_cell_formula_units_Z   2
loop_
 _symmetry_equiv_pos_site_id
 _symmetry_equiv_pos_as_xyz
  1  'x, y, z'
loop_
 _atom_site_type_symbol
 _atom_site_label
 _atom_site_symmetry_multiplicity
 _atom_site_fract_x
 _atom_site_fract_y
 _atom_site_fract_z
 _atom_site_occupancy
  K  K0  1  0.608791  0.453492  0.368615  1
  K  K1  1  0.584877  0.344701  0.953492  1
  K  K2  1  0.891209  0.259824  0.844701  1
  K  K3  1  0.915123  0.868615  0.759824  1
  K  K4  1  0.415123  0.655299  0.046508  1
  K  K5  1  0.084877  0.131385  0.240176  1
  K  K6  1  0.391209  0.546508  0.631385  1
  K  K7  1  0.108791  0.740176  0.155299  1
  Th  Th8  1  0.250000  0.875000  0.625000  1
  Th  Th9  1  0.750000  0.125000  0.375000  1
  Mo  Mo10  1  0.838011  0.794047  0.311970  1
  Mo  Mo11  1  0.661989  0.973960  0.956036  1
  Mo  Mo12  1  0.338011  0.026040  0.043964  1
  Mo  Mo13  1  0.017924  0.543964  0.705953  1
  Mo  Mo14  1  0.161989  0.205953  0.688030  1
  Mo  Mo15  1  0.982076  0.456036  0.294047  1
  Mo  Mo16  1  0.517924  0.811970  0.473960  1
  Mo  Mo17  1  0.482076  0.188030  0.526040  1
  O  O18  1  0.075356  0.661596  0.378568  1
  O  O19  1  0.802108  0.010774  0.897944  1
  O  O20  1  0.936801  0.848805  0.216848  1
  O  O21  1  0.016515  0.156623  0.493677  1
  O  O22  1  0.283029  0.121432  0.696789  1
  O  O23  1  0.783029  0.086240  0.161596  1
  O  O24  1  0.631957  0.283152  0.719953  1
  O  O25  1  0.697892  0.595836  0.208667  1
  O  O26  1  0.112831  0.602056  0.904164  1
  O  O27  1  0.302108  0.404164  0.791333  1
  O  O28  1  0.575356  0.196789  0.413760  1
  O  O29  1  0.612831  0.708667  0.510774  1
  O  O30  1  0.516515  0.022837  0.859892  1
  O  O31  1  0.924644  0.338404  0.621433  1
  O  O32  1  0.483485  0.977163  0.140108  1
  O  O33  1  0.662946  0.006323  0.522837  1
  O  O34  1  0.063199  0.151195  0.783152  1
  O  O35  1  0.436801  0.219953  0.087996  1
  O  O36  1  0.337054  0.993677  0.477163  1
  O  O37  1  0.716971  0.878567  0.303211  1
  O  O38  1  0.563199  0.780047  0.912004  1
  O  O39  1  0.424644  0.803211  0.586240  1
  O  O40  1  0.837054  0.359892  0.343377  1
  O  O41  1  0.197892  0.989226  0.102056  1
  O  O42  1  0.131957  0.412004  0.348805  1
  O  O43  1  0.887169  0.397944  0.095836  1
  O  O44  1  0.216971  0.913760  0.838404  1
  O  O45  1  0.368043  0.716848  0.280047  1
  O  O46  1  0.983485  0.843377  0.506323  1
  O  O47  1  0.868043  0.587996  0.651195  1
  O  O48  1  0.162946  0.640108  0.656623  1
  O  O49  1  0.387169  0.291333  0.489226  1
