# generated using pymatgen
data_Nd3S3N
_symmetry_space_group_name_H-M   'P 1'
_cell_length_a   4.03582679
_cell_length_b   12.25745575
_cell_length_c   13.17380689
_cell_angle_alpha   90.00000000
_cell_angle_beta   90.00000000
_cell_angle_gamma   90.00000000
_symmetry_Int_Tables_number   1
_chemical_formula_structural   Nd3S3N
_chemical_formula_sum   'Nd12 S12 N4'
_cell_volume   651.69463534
_cell_formula_units_Z   4
loop_
 _symmetry_equiv_pos_site_id
 _symmetry_equiv_pos_as_xyz
  1  'x, y, z'
loop_
 _atom_site_type_symbol
 _atom_site_label
 _atom_site_symmetry_multiplicity
 _atom_site_fract_x
 _atom_site_fract_y
 _atom_site_fract_z
 _atom_site_occupancy
  Nd  Nd0  1  0.750000  0.277990  0.366335  1
  Nd  Nd1  1  0.750000  0.459672  0.648630  1
  Nd  Nd2  1  0.250000  0.540328  0.351370  1
  Nd  Nd3  1  0.250000  0.722010  0.633665  1
  Nd  Nd4  1  0.250000  0.082831  0.628237  1
  Nd  Nd5  1  0.250000  0.040328  0.148630  1
  Nd  Nd6  1  0.750000  0.777990  0.133665  1
  Nd  Nd7  1  0.250000  0.222010  0.866335  1
  Nd  Nd8  1  0.750000  0.917169  0.371763  1
  Nd  Nd9  1  0.250000  0.582831  0.871763  1
  Nd  Nd10  1  0.750000  0.959672  0.851370  1
  Nd  Nd11  1  0.750000  0.417169  0.128237  1
  S  S12  1  0.750000  0.231017  0.698016  1
  S  S13  1  0.250000  0.268983  0.198016  1
  S  S14  1  0.750000  0.731017  0.801984  1
  S  S15  1  0.750000  0.918772  0.606828  1
  S  S16  1  0.750000  0.139229  0.996000  1
  S  S17  1  0.750000  0.639228  0.504000  1
  S  S18  1  0.250000  0.860772  0.004000  1
  S  S19  1  0.250000  0.581228  0.106828  1
  S  S20  1  0.750000  0.418772  0.893172  1
  S  S21  1  0.250000  0.360772  0.496000  1
  S  S22  1  0.250000  0.768983  0.301984  1
  S  S23  1  0.250000  0.081228  0.393172  1
  N  N24  1  0.250000  0.046382  0.798282  1
  N  N25  1  0.250000  0.546382  0.701718  1
  N  N26  1  0.750000  0.453618  0.298282  1
  N  N27  1  0.750000  0.953618  0.201718  1
