# generated using pymatgen
data_Tl4Ag18Te11
_symmetry_space_group_name_H-M   'P 1'
_cell_length_a   13.40809448
_cell_length_b   13.40809449
_cell_length_c   13.38536907
_cell_angle_alpha   60.05605110
_cell_angle_beta   60.05605106
_cell_angle_gamma   59.97587904
_symmetry_Int_Tables_number   1
_chemical_formula_structural   Tl4Ag18Te11
_chemical_formula_sum   'Tl8 Ag36 Te22'
_cell_volume   1702.69762646
_cell_formula_units_Z   2
loop_
 _symmetry_equiv_pos_site_id
 _symmetry_equiv_pos_as_xyz
  1  'x, y, z'
loop_
 _atom_site_type_symbol
 _atom_site_label
 _atom_site_symmetry_multiplicity
 _atom_site_fract_x
 _atom_site_fract_y
 _atom_site_fract_z
 _atom_site_occupancy
  Ag  Ag0  1  0.006369  0.256979  0.257937  1
  Ag  Ag1  1  0.006369  0.256979  0.478714  1
  Ag  Ag2  1  0.008787  0.478030  0.256591  1
  Ag  Ag3  1  0.257320  0.257320  0.007781  1
  Ag  Ag4  1  0.256979  0.006369  0.257937  1
  Ag  Ag5  1  0.256979  0.006369  0.478714  1
  Ag  Ag6  1  0.257675  0.478590  0.006223  1
  Ag  Ag7  1  0.478030  0.008787  0.256591  1
  Ag  Ag8  1  0.478590  0.257675  0.006223  1
  Ag  Ag9  1  0.257320  0.257320  0.477580  1
  Ag  Ag10  1  0.257675  0.478590  0.257512  1
  Ag  Ag11  1  -0.005457  0.522655  0.741401  1
  Ag  Ag12  1  -0.003384  0.741636  0.520800  1
  Ag  Ag13  1  0.478590  0.257675  0.257512  1
  Ag  Ag14  1  -0.003384  0.741636  0.740948  1
  Ag  Ag15  1  0.522655  -0.005457  0.741401  1
  Ag  Ag16  1  0.520940  0.740814  -0.003808  1
  Ag  Ag17  1  0.740814  0.520940  -0.003808  1
  Ag  Ag18  1  0.741636  -0.003384  0.520800  1
  Ag  Ag19  1  0.741636  -0.003384  0.740948  1
  Ag  Ag20  1  0.741891  0.741891  0.994226  1
  Ag  Ag21  1  0.386588  0.613351  1.000030  1
  Ag  Ag22  1  0.384829  0.001895  0.615954  1
  Ag  Ag23  1  0.520940  0.740814  0.742053  1
  Ag  Ag24  1  0.613351  0.386588  1.000030  1
  Ag  Ag25  1  0.614654  0.001152  0.385639  1
  Ag  Ag26  1  0.741891  0.741891  0.521992  1
  Ag  Ag27  1  0.740814  0.520940  0.742053  1
  Ag  Ag28  1  0.384829  0.001895  0.997322  1
  Ag  Ag29  1  0.001895  0.384829  0.615954  1
  Ag  Ag30  1  0.001152  0.614654  0.385639  1
  Ag  Ag31  1  0.614654  0.001152  0.998555  1
  Ag  Ag32  1  0.001895  0.384829  0.997322  1
  Ag  Ag33  1  0.999719  0.999719  0.386855  1
  Ag  Ag34  1  0.001152  0.614654  0.998555  1
  Ag  Ag35  1  0.999719  0.999719  0.613708  1
  Te  Te36  1  0.109001  0.109001  0.109335  1
  Te  Te37  1  0.109001  0.109001  0.672663  1
  Te  Te38  1  0.109936  0.673561  0.108251  1
  Te  Te39  1  0.250475  0.250475  0.249525  1
  Te  Te40  1  0.184784  0.499345  0.499678  1
  Te  Te41  1  0.673561  0.109936  0.108251  1
  Te  Te42  1  0.499494  0.499494  0.185868  1
  Te  Te43  1  0.499345  0.184784  0.499678  1
  Te  Te44  1  0.184784  0.499345  0.816193  1
  Te  Te45  1  0.186163  0.815380  0.499229  1
  Te  Te46  1  0.499345  0.184784  0.816193  1
  Te  Te47  1  0.500207  0.817496  0.183945  1
  Te  Te48  1  0.499494  0.499494  0.815144  1
  Te  Te49  1  0.500207  0.817496  0.498352  1
  Te  Te50  1  0.817496  0.500207  0.183945  1
  Te  Te51  1  0.815380  0.186163  0.499229  1
  Te  Te52  1  0.329416  0.889808  0.890388  1
  Te  Te53  1  0.817496  0.500207  0.498352  1
  Te  Te54  1  0.889808  0.329416  0.890388  1
  Te  Te55  1  0.890433  0.890433  0.329133  1
  Te  Te56  1  0.749815  0.749815  0.750185  1
  Te  Te57  1  0.890433  0.890433  0.890001  1
  Tl  Tl58  1  0.000832  0.000832  0.999168  1
  Tl  Tl59  1  0.235629  0.235629  0.764371  1
  Tl  Tl60  1  0.234256  0.764741  0.235251  1
  Tl  Tl61  1  0.234256  0.764741  0.765753  1
  Tl  Tl62  1  0.764741  0.234256  0.235251  1
  Tl  Tl63  1  0.559701  0.559701  0.440299  1
  Tl  Tl64  1  0.764741  0.234256  0.765753  1
  Tl  Tl65  1  0.772658  0.772658  0.227342  1
