# generated using pymatgen
data_KAg(PO3)2
_symmetry_space_group_name_H-M   'P 1'
_cell_length_a   6.15351548
_cell_length_b   7.62290830
_cell_length_c   13.37399725
_cell_angle_alpha   90.00000000
_cell_angle_beta   90.00000000
_cell_angle_gamma   94.34826314
_symmetry_Int_Tables_number   1
_chemical_formula_structural   KAg(PO3)2
_chemical_formula_sum   'K4 Ag4 P8 O24'
_cell_volume   625.53750848
_cell_formula_units_Z   4
loop_
 _symmetry_equiv_pos_site_id
 _symmetry_equiv_pos_as_xyz
  1  'x, y, z'
loop_
 _atom_site_type_symbol
 _atom_site_label
 _atom_site_symmetry_multiplicity
 _atom_site_fract_x
 _atom_site_fract_y
 _atom_site_fract_z
 _atom_site_occupancy
  K  K0  1  0.700302  0.768335  0.330506  1
  K  K1  1  0.700302  0.268335  0.169494  1
  K  K2  1  0.299698  0.231665  0.669494  1
  K  K3  1  0.299698  0.731665  0.830506  1
  Ag  Ag4  1  0.812991  0.196808  0.471543  1
  Ag  Ag5  1  0.187009  0.803192  0.528457  1
  Ag  Ag6  1  0.812991  0.696808  0.028457  1
  Ag  Ag7  1  0.187009  0.303192  0.971543  1
  P  P8  1  0.152385  0.006131  0.173584  1
  P  P9  1  0.847615  0.493869  0.673584  1
  P  P10  1  0.152385  0.506131  0.326416  1
  P  P11  1  0.313571  0.651310  0.131948  1
  P  P12  1  0.686429  0.848690  0.631948  1
  P  P13  1  0.686429  0.348690  0.868052  1
  P  P14  1  0.313571  0.151310  0.368052  1
  P  P15  1  0.847615  0.993869  0.826416  1
  O  O16  1  0.677957  0.146880  0.828674  1
  O  O17  1  0.677957  0.646880  0.671326  1
  O  O18  1  0.538606  0.094055  0.348970  1
  O  O19  1  0.461394  0.405945  0.848970  1
  O  O20  1  0.860613  0.453132  0.793529  1
  O  O21  1  0.538606  0.594055  0.151030  1
  O  O22  1  0.736843  0.836022  0.877519  1
  O  O23  1  0.924768  0.937624  0.146921  1
  O  O24  1  0.139387  0.546868  0.206471  1
  O  O25  1  0.736843  0.336022  0.622481  1
  O  O26  1  0.213859  0.136330  0.470788  1
  O  O27  1  0.322043  0.353120  0.328674  1
  O  O28  1  0.461394  0.905945  0.651030  1
  O  O29  1  0.860613  0.953132  0.706471  1
  O  O30  1  0.263157  0.663978  0.377519  1
  O  O31  1  0.322043  0.853120  0.171326  1
  O  O32  1  0.786141  0.863670  0.529212  1
  O  O33  1  0.139387  0.046868  0.293529  1
  O  O34  1  0.924768  0.437624  0.353079  1
  O  O35  1  0.786141  0.363670  0.970788  1
  O  O36  1  0.075232  0.562376  0.646921  1
  O  O37  1  0.263157  0.163978  0.122481  1
  O  O38  1  0.075232  0.062376  0.853079  1
  O  O39  1  0.213859  0.636330  0.029212  1
