# generated using pymatgen
data_RbBiAs6H24C8(S6N)2
_symmetry_space_group_name_H-M   'P 1'
_cell_length_a   11.17895637
_cell_length_b   11.17895629
_cell_length_c   11.17895648
_cell_angle_alpha   53.38964977
_cell_angle_beta   53.38965009
_cell_angle_gamma   53.38964966
_symmetry_Int_Tables_number   1
_chemical_formula_structural   RbBiAs6H24C8(S6N)2
_chemical_formula_sum   'Rb1 Bi1 As6 H24 C8 S12 N2'
_cell_volume   834.98925953
_cell_formula_units_Z   1
loop_
 _symmetry_equiv_pos_site_id
 _symmetry_equiv_pos_as_xyz
  1  'x, y, z'
loop_
 _atom_site_type_symbol
 _atom_site_label
 _atom_site_symmetry_multiplicity
 _atom_site_fract_x
 _atom_site_fract_y
 _atom_site_fract_z
 _atom_site_occupancy
  Rb  Rb0  1  0.500000  0.500000  0.500000  1
  Bi  Bi1  1  0.000000  0.000000  0.000000  1
  As  As2  1  0.804953  0.692576  0.421791  1
  As  As3  1  0.195047  0.307424  0.578209  1
  As  As4  1  0.692576  0.421791  0.804953  1
  As  As5  1  0.307424  0.578209  0.195047  1
  As  As6  1  0.578209  0.195047  0.307424  1
  As  As7  1  0.421791  0.804953  0.692576  1
  H  H8  1  0.011503  0.420980  0.131212  1
  H  H9  1  0.331335  0.946112  0.284728  1
  H  H10  1  0.167852  0.983409  0.256043  1
  H  H11  1  0.579020  0.868788  0.988497  1
  H  H12  1  0.715272  0.668665  0.053888  1
  H  H13  1  0.668665  0.053888  0.715272  1
  H  H14  1  0.231261  0.369977  0.167806  1
  H  H15  1  0.983409  0.256043  0.167852  1
  H  H16  1  0.420980  0.131212  0.011503  1
  H  H17  1  0.768739  0.630023  0.832194  1
  H  H18  1  0.743957  0.832148  0.016591  1
  H  H19  1  0.131212  0.011503  0.420980  1
  H  H20  1  0.053888  0.715272  0.668665  1
  H  H21  1  0.630023  0.832194  0.768739  1
  H  H22  1  0.284728  0.331335  0.946112  1
  H  H23  1  0.369977  0.167806  0.231261  1
  H  H24  1  0.946112  0.284728  0.331335  1
  H  H25  1  0.868788  0.988497  0.579020  1
  H  H26  1  0.832194  0.768739  0.630023  1
  H  H27  1  0.988497  0.579020  0.868788  1
  H  H28  1  0.016591  0.743957  0.832148  1
  H  H29  1  0.167806  0.231261  0.369977  1
  H  H30  1  0.256043  0.167852  0.983409  1
  H  H31  1  0.832148  0.016591  0.743957  1
  C  C32  1  0.794349  0.979612  0.703988  1
  C  C33  1  0.703988  0.794349  0.979612  1
  C  C34  1  0.296012  0.205651  0.020388  1
  C  C35  1  0.244122  0.244122  0.244122  1
  C  C36  1  0.979612  0.703988  0.794349  1
  C  C37  1  0.755878  0.755878  0.755878  1
  C  C38  1  0.205651  0.020388  0.296012  1
  C  C39  1  0.020388  0.296012  0.205651  1
  S  S40  1  0.826836  0.424717  0.543672  1
  S  S41  1  0.424717  0.543672  0.826836  1
  S  S42  1  0.575283  0.456328  0.173164  1
  S  S43  1  0.830100  0.051183  0.294106  1
  S  S44  1  0.948817  0.705894  0.169900  1
  S  S45  1  0.051183  0.294106  0.830100  1
  S  S46  1  0.294106  0.830100  0.051183  1
  S  S47  1  0.705894  0.169900  0.948817  1
  S  S48  1  0.543672  0.826836  0.424717  1
  S  S49  1  0.169900  0.948817  0.705894  1
  S  S50  1  0.173164  0.575283  0.456328  1
  S  S51  1  0.456328  0.173164  0.575283  1
  N  N52  1  0.808342  0.808342  0.808342  1
  N  N53  1  0.191658  0.191658  0.191658  1
