# generated using pymatgen
data_CoH20S2(NO7)2
_symmetry_space_group_name_H-M   'P 1'
_cell_length_a   6.31082809
_cell_length_b   9.27938018
_cell_length_c   12.63487764
_cell_angle_alpha   90.00000000
_cell_angle_beta   90.00000000
_cell_angle_gamma   107.58343785
_symmetry_Int_Tables_number   1
_chemical_formula_structural   CoH20S2(NO7)2
_chemical_formula_sum   'Co2 H40 S4 N4 O28'
_cell_volume   705.33582624
_cell_formula_units_Z   2
loop_
 _symmetry_equiv_pos_site_id
 _symmetry_equiv_pos_as_xyz
  1  'x, y, z'
loop_
 _atom_site_type_symbol
 _atom_site_label
 _atom_site_symmetry_multiplicity
 _atom_site_fract_x
 _atom_site_fract_y
 _atom_site_fract_z
 _atom_site_occupancy
  Co  Co0  1  0.000000  0.000000  0.000000  1
  Co  Co1  1  0.000000  0.500000  0.500000  1
  O  O2  1  0.698040  0.998172  0.068909  1
  O  O3  1  0.301960  0.501828  0.568909  1
  O  O4  1  0.301960  0.001828  0.931091  1
  O  O5  1  0.698040  0.498172  0.431091  1
  H  H6  1  0.676173  0.972722  0.145343  1
  H  H7  1  0.323827  0.527278  0.645343  1
  H  H8  1  0.323827  0.027278  0.854657  1
  H  H9  1  0.676173  0.472722  0.354657  1
  H  H10  1  0.660416  0.093491  0.059770  1
  H  H11  1  0.339584  0.406509  0.559770  1
  H  H12  1  0.339584  0.906509  0.940230  1
  H  H13  1  0.660416  0.593491  0.440230  1
  O  O14  1  0.165744  0.168493  0.111010  1
  O  O15  1  0.834256  0.331507  0.611010  1
  O  O16  1  0.834256  0.831507  0.888990  1
  O  O17  1  0.165744  0.668493  0.388990  1
  H  H18  1  0.324338  0.216900  0.092953  1
  H  H19  1  0.675662  0.283100  0.592953  1
  H  H20  1  0.675662  0.783100  0.907047  1
  H  H21  1  0.324338  0.716900  0.407047  1
  H  H22  1  0.095938  0.248629  0.124982  1
  H  H23  1  0.904062  0.251371  0.624982  1
  H  H24  1  0.904062  0.751371  0.875018  1
  H  H25  1  0.095938  0.748629  0.375018  1
  O  O26  1  0.962244  0.161908  0.888423  1
  O  O27  1  0.037756  0.338092  0.388423  1
  O  O28  1  0.037756  0.838092  0.111577  1
  O  O29  1  0.962244  0.661908  0.611577  1
  H  H30  1  0.994481  0.139230  0.814600  1
  H  H31  1  0.005519  0.360770  0.314600  1
  H  H32  1  0.005519  0.860770  0.185400  1
  H  H33  1  0.994481  0.639230  0.685400  1
  H  H34  1  0.053006  0.268630  0.901164  1
  H  H35  1  0.946994  0.231370  0.401164  1
  H  H36  1  0.946994  0.731370  0.098836  1
  H  H37  1  0.053006  0.768630  0.598836  1
  S  S38  1  0.258704  0.092808  0.637379  1
  S  S39  1  0.741296  0.407192  0.137379  1
  S  S40  1  0.741296  0.907192  0.362621  1
  S  S41  1  0.258704  0.592808  0.862621  1
  O  O42  1  0.408607  0.089587  0.729111  1
  O  O43  1  0.591393  0.410413  0.229111  1
  O  O44  1  0.591393  0.910413  0.270889  1
  O  O45  1  0.408607  0.589587  0.770889  1
  O  O46  1  0.211500  0.950073  0.577136  1
  O  O47  1  0.788500  0.549927  0.077136  1
  O  O48  1  0.788500  0.049927  0.422864  1
  O  O49  1  0.211500  0.450073  0.922864  1
  O  O50  1  0.378925  0.222354  0.566894  1
  O  O51  1  0.621075  0.277645  0.066894  1
  O  O52  1  0.621075  0.777646  0.433106  1
  O  O53  1  0.378925  0.722354  0.933106  1
  O  O54  1  0.047237  0.116146  0.677280  1
  O  O55  1  0.952763  0.383854  0.177280  1
  O  O56  1  0.952763  0.883854  0.322720  1
  O  O57  1  0.047237  0.616146  0.822720  1
  N  N58  1  0.360374  0.134190  0.349359  1
  N  N59  1  0.639626  0.365810  0.849359  1
  N  N60  1  0.639626  0.865810  0.650641  1
  N  N61  1  0.360374  0.634190  0.150641  1
  H  H62  1  0.470938  0.073152  0.337449  1
  H  H63  1  0.529062  0.426848  0.837449  1
  H  H64  1  0.529062  0.926848  0.662551  1
  H  H65  1  0.470938  0.573152  0.162551  1
  H  H66  1  0.402003  0.226552  0.298992  1
  H  H67  1  0.597997  0.273448  0.798992  1
  H  H68  1  0.597997  0.773448  0.701008  1
  H  H69  1  0.402003  0.726552  0.201008  1
  H  H70  1  0.201896  0.062498  0.334069  1
  H  H71  1  0.798104  0.437502  0.834069  1
  H  H72  1  0.798104  0.937502  0.665931  1
  H  H73  1  0.201896  0.562498  0.165931  1
  H  H74  1  0.368900  0.170559  0.427974  1
  H  H75  1  0.631100  0.329441  0.927974  1
  H  H76  1  0.631100  0.829441  0.572026  1
  H  H77  1  0.368900  0.670559  0.072026  1
