# generated using pymatgen
data_Na6Mg2C4SO16
_symmetry_space_group_name_H-M   'P 1'
_cell_length_a   10.05982380
_cell_length_b   10.05982351
_cell_length_c   10.05982320
_cell_angle_alpha   59.99999751
_cell_angle_beta   59.99999849
_cell_angle_gamma   60.00000004
_symmetry_Int_Tables_number   1
_chemical_formula_structural   Na6Mg2C4SO16
_chemical_formula_sum   'Na12 Mg4 C8 S2 O32'
_cell_volume   719.87331106
_cell_formula_units_Z   2
loop_
 _symmetry_equiv_pos_site_id
 _symmetry_equiv_pos_as_xyz
  1  'x, y, z'
loop_
 _atom_site_type_symbol
 _atom_site_label
 _atom_site_symmetry_multiplicity
 _atom_site_fract_x
 _atom_site_fract_y
 _atom_site_fract_z
 _atom_site_occupancy
  S  S0  1  0.875000  0.875000  0.875000  1
  S  S1  1  0.125000  0.125000  0.125000  1
  O  O2  1  0.935923  0.935923  0.935923  1
  O  O3  1  0.064077  0.064077  0.307770  1
  O  O4  1  0.307770  0.064077  0.064077  1
  O  O5  1  0.064077  0.307770  0.064077  1
  O  O6  1  0.692230  0.935923  0.935923  1
  O  O7  1  0.935923  0.692230  0.935923  1
  O  O8  1  0.935923  0.935923  0.692230  1
  O  O9  1  0.064077  0.064077  0.064077  1
  Mg  Mg10  1  0.500000  0.500000  0.500000  1
  Mg  Mg11  1  0.500000  0.500000  0.000000  1
  Mg  Mg12  1  0.000000  0.500000  0.500000  1
  Mg  Mg13  1  0.500000  0.000000  0.500000  1
  C  C14  1  0.281229  0.281229  0.281229  1
  C  C15  1  0.718771  0.718771  0.343687  1
  C  C16  1  0.343687  0.718771  0.718771  1
  C  C17  1  0.718771  0.343687  0.718771  1
  C  C18  1  0.656313  0.281229  0.281229  1
  C  C19  1  0.281229  0.656313  0.281229  1
  C  C20  1  0.281229  0.281229  0.656313  1
  C  C21  1  0.718771  0.718771  0.718771  1
  Na  Na22  1  0.652164  0.097836  0.097836  1
  Na  Na23  1  0.902164  0.902164  0.347836  1
  Na  Na24  1  0.347836  0.347836  0.902164  1
  Na  Na25  1  0.902164  0.347836  0.347836  1
  Na  Na26  1  0.902164  0.347836  0.902164  1
  Na  Na27  1  0.347836  0.902164  0.347836  1
  Na  Na28  1  0.097836  0.652164  0.097836  1
  Na  Na29  1  0.097836  0.097836  0.652164  1
  Na  Na30  1  0.652164  0.652164  0.097836  1
  Na  Na31  1  0.652164  0.097836  0.652164  1
  Na  Na32  1  0.347836  0.902164  0.902164  1
  Na  Na33  1  0.097836  0.652164  0.652164  1
  O  O34  1  0.354777  0.354777  0.131915  1
  O  O35  1  0.645223  0.868085  0.341470  1
  O  O36  1  0.341470  0.645223  0.645223  1
  O  O37  1  0.645223  0.341470  0.645223  1
  O  O38  1  0.868085  0.645223  0.341470  1
  O  O39  1  0.868085  0.341470  0.645223  1
  O  O40  1  0.341470  0.868085  0.645223  1
  O  O41  1  0.131915  0.354777  0.354777  1
  O  O42  1  0.354777  0.131915  0.354777  1
  O  O43  1  0.658530  0.354777  0.131915  1
  O  O44  1  0.354777  0.658530  0.131915  1
  O  O45  1  0.658530  0.354777  0.354777  1
  O  O46  1  0.131915  0.354777  0.658530  1
  O  O47  1  0.354777  0.131915  0.658530  1
  O  O48  1  0.354777  0.658530  0.354777  1
  O  O49  1  0.341470  0.645223  0.868085  1
  O  O50  1  0.645223  0.341470  0.868085  1
  O  O51  1  0.645223  0.645223  0.341470  1
  O  O52  1  0.645223  0.645223  0.868085  1
  O  O53  1  0.868085  0.645223  0.645223  1
  O  O54  1  0.645223  0.868085  0.645223  1
  O  O55  1  0.131915  0.658530  0.354777  1
  O  O56  1  0.658530  0.131915  0.354777  1
  O  O57  1  0.354777  0.354777  0.658530  1
