# generated using pymatgen
data_Cu3B7BrO13
_symmetry_space_group_name_H-M   'P 1'
_cell_length_a   8.54156176
_cell_length_b   8.54156174
_cell_length_c   8.54156251
_cell_angle_alpha   59.99999698
_cell_angle_beta   59.99999705
_cell_angle_gamma   59.99999794
_symmetry_Int_Tables_number   1
_chemical_formula_structural   Cu3B7BrO13
_chemical_formula_sum   'Cu6 B14 Br2 O26'
_cell_volume   440.65313984
_cell_formula_units_Z   2
loop_
 _symmetry_equiv_pos_site_id
 _symmetry_equiv_pos_as_xyz
  1  'x, y, z'
loop_
 _atom_site_type_symbol
 _atom_site_label
 _atom_site_symmetry_multiplicity
 _atom_site_fract_x
 _atom_site_fract_y
 _atom_site_fract_z
 _atom_site_occupancy
  Cu  Cu0  1  0.000000  0.000000  0.500000  1
  Cu  Cu1  1  0.500000  0.000000  0.500000  1
  Cu  Cu2  1  0.500000  0.500000  0.000000  1
  Cu  Cu3  1  0.000000  0.500000  0.500000  1
  Cu  Cu4  1  0.000000  0.500000  0.000000  1
  Cu  Cu5  1  0.500000  0.000000  0.000000  1
  B  B6  1  0.257207  0.580931  0.580931  1
  B  B7  1  0.080931  0.080931  0.080931  1
  B  B8  1  0.080931  0.757207  0.080931  1
  B  B9  1  0.750000  0.750000  0.250000  1
  B  B10  1  0.250000  0.750000  0.250000  1
  B  B11  1  0.580931  0.580931  0.257207  1
  B  B12  1  0.750000  0.250000  0.250000  1
  B  B13  1  0.080931  0.080931  0.757207  1
  B  B14  1  0.250000  0.250000  0.750000  1
  B  B15  1  0.250000  0.750000  0.750000  1
  B  B16  1  0.580931  0.580931  0.580931  1
  B  B17  1  0.580931  0.257207  0.580931  1
  B  B18  1  0.757207  0.080931  0.080931  1
  B  B19  1  0.750000  0.250000  0.750000  1
  Br  Br20  1  0.250000  0.250000  0.250000  1
  Br  Br21  1  0.750000  0.750000  0.750000  1
  O  O22  1  0.500000  0.500000  0.500000  1
  O  O23  1  0.203713  0.599683  0.435929  1
  O  O24  1  0.599683  0.760674  0.435929  1
  O  O25  1  0.000000  0.000000  0.000000  1
  O  O26  1  0.435929  0.599683  0.760674  1
  O  O27  1  0.203713  0.760674  0.599683  1
  O  O28  1  0.203713  0.435929  0.760674  1
  O  O29  1  0.599683  0.435929  0.203713  1
  O  O30  1  0.703713  0.099683  0.260674  1
  O  O31  1  0.703713  0.935929  0.099683  1
  O  O32  1  0.760674  0.203713  0.435929  1
  O  O33  1  0.935929  0.703713  0.260674  1
  O  O34  1  0.099683  0.935929  0.260674  1
  O  O35  1  0.599683  0.203713  0.760674  1
  O  O36  1  0.435929  0.203713  0.599683  1
  O  O37  1  0.260674  0.703713  0.099683  1
  O  O38  1  0.260674  0.935929  0.703713  1
  O  O39  1  0.760674  0.435929  0.599683  1
  O  O40  1  0.099683  0.260674  0.703713  1
  O  O41  1  0.935929  0.260674  0.099683  1
  O  O42  1  0.703713  0.260674  0.935929  1
  O  O43  1  0.435929  0.760674  0.203713  1
  O  O44  1  0.099683  0.703713  0.935929  1
  O  O45  1  0.935929  0.099683  0.703713  1
  O  O46  1  0.260674  0.099683  0.935929  1
  O  O47  1  0.760674  0.599683  0.203713  1
