# generated using pymatgen
data_MgAl2O4
_symmetry_space_group_name_H-M   'P 1'
_cell_length_a   5.76635190
_cell_length_b   5.75770326
_cell_length_c   23.11287073
_cell_angle_alpha   60.11737859
_cell_angle_beta   60.18032191
_cell_angle_gamma   60.04961263
_symmetry_Int_Tables_number   1
_chemical_formula_structural   MgAl2O4
_chemical_formula_sum   'Mg8 Al16 O32'
_cell_volume   544.03370341
_cell_formula_units_Z   8
loop_
 _symmetry_equiv_pos_site_id
 _symmetry_equiv_pos_as_xyz
  1  'x, y, z'
loop_
 _atom_site_type_symbol
 _atom_site_label
 _atom_site_symmetry_multiplicity
 _atom_site_fract_x
 _atom_site_fract_y
 _atom_site_fract_z
 _atom_site_occupancy
  Al  Al0  1  0.009827  0.495684  0.124701  1
  Al  Al1  1  0.495720  0.009707  0.124689  1
  Al  Al2  1  0.495720  0.495818  0.124689  1
  Al  Al3  1  0.002187  0.499080  0.374913  1
  Al  Al4  1  0.498771  0.001485  0.375087  1
  Al  Al5  1  0.135083  0.120146  0.531156  1
  Al  Al6  1  0.498771  0.499397  0.375087  1
  Al  Al7  1  0.503403  0.992720  0.625158  1
  Al  Al8  1  0.881833  0.881680  0.213702  1
  Al  Al9  1  0.505557  0.503128  0.497047  1
  Al  Al10  1  0.503403  0.503244  0.625158  1
  Al  Al11  1  0.005281  0.497952  0.874704  1
  Al  Al12  1  0.498238  0.006517  0.874323  1
  Al  Al13  1  0.499432  0.502422  0.748931  1
  Al  Al14  1  0.498238  0.497954  0.874323  1
  Al  Al15  1  0.877180  0.876840  0.967285  1
  Mg  Mg16  1  0.121323  0.122007  0.033666  1
  Mg  Mg17  1  0.118453  0.119390  0.285692  1
  Mg  Mg18  1  0.496650  0.496459  0.252608  1
  Mg  Mg19  1  0.997816  0.502835  0.624128  1
  Mg  Mg20  1  0.133432  0.128123  0.777581  1
  Mg  Mg21  1  0.874591  0.879184  0.466760  1
  Mg  Mg22  1  0.497745  0.498498  0.001315  1
  Mg  Mg23  1  0.864152  0.874906  0.721509  1
  O  O24  1  0.252391  0.252520  0.070811  1
  O  O25  1  0.259003  0.258531  0.180984  1
  O  O26  1  0.252391  0.711846  0.070811  1
  O  O27  1  0.711564  0.252689  0.070764  1
  O  O28  1  0.248905  0.248540  0.323865  1
  O  O29  1  0.271527  0.750068  0.182084  1
  O  O30  1  0.750430  0.271624  0.181996  1
  O  O31  1  0.744522  0.744586  0.066576  1
  O  O32  1  0.248905  0.707094  0.323865  1
  O  O33  1  0.252048  0.251840  0.436068  1
  O  O34  1  0.706651  0.248674  0.324000  1
  O  O35  1  0.750430  0.749961  0.181996  1
  O  O36  1  0.278280  0.251606  0.558966  1
  O  O37  1  0.296573  0.735700  0.433007  1
  O  O38  1  0.737304  0.299201  0.432053  1
  O  O39  1  0.749983  0.751077  0.311966  1
  O  O40  1  0.278280  0.734250  0.558966  1
  O  O41  1  0.289192  0.259248  0.673078  1
  O  O42  1  0.737304  0.735283  0.432053  1
  O  O43  1  0.741971  0.256280  0.561367  1
  O  O44  1  0.261612  0.265474  0.816031  1
  O  O45  1  0.280185  0.741438  0.684235  1
  O  O46  1  0.720086  0.748810  0.570574  1
  O  O47  1  0.263781  0.261849  0.928130  1
  O  O48  1  0.261612  0.708789  0.816031  1
  O  O49  1  0.716087  0.286091  0.687772  1
  O  O50  1  0.710989  0.264505  0.815000  1
  O  O51  1  0.716087  0.746734  0.687772  1
  O  O52  1  0.262869  0.753645  0.932460  1
  O  O53  1  0.753381  0.263012  0.932570  1
  O  O54  1  0.729470  0.730530  0.827368  1
  O  O55  1  0.753381  0.753328  0.932570  1
