# generated using pymatgen
data_La10Al5Br4
_symmetry_space_group_name_H-M   'P 1'
_cell_length_a   8.27907901
_cell_length_b   8.27907921
_cell_length_c   17.67943176
_cell_angle_alpha   103.54119286
_cell_angle_beta   103.54119327
_cell_angle_gamma   90.00000026
_symmetry_Int_Tables_number   1
_chemical_formula_structural   La10Al5Br4
_chemical_formula_sum   'La20 Al10 Br8'
_cell_volume   1143.44013771
_cell_formula_units_Z   2
loop_
 _symmetry_equiv_pos_site_id
 _symmetry_equiv_pos_as_xyz
  1  'x, y, z'
loop_
 _atom_site_type_symbol
 _atom_site_label
 _atom_site_symmetry_multiplicity
 _atom_site_fract_x
 _atom_site_fract_y
 _atom_site_fract_z
 _atom_site_occupancy
  La  La0  1  0.652242  0.652242  0.304483  1
  La  La1  1  0.100337  0.600337  0.856913  1
  La  La2  1  0.871851  0.035212  0.407063  1
  La  La3  1  0.535212  0.371851  0.407063  1
  La  La4  1  0.899663  0.399663  0.143087  1
  La  La5  1  0.243424  0.743424  0.143087  1
  La  La6  1  0.128149  0.964788  0.592937  1
  La  La7  1  0.371851  0.871851  0.407063  1
  La  La8  1  0.964788  0.464788  0.592937  1
  La  La9  1  0.347758  0.347758  0.695517  1
  La  La10  1  0.256576  0.100337  0.856913  1
  La  La11  1  0.756576  0.256576  0.856913  1
  La  La12  1  0.600337  0.756576  0.856913  1
  La  La13  1  0.628149  0.128149  0.592937  1
  La  La14  1  0.152242  0.152242  0.304483  1
  La  La15  1  0.847758  0.847758  0.695517  1
  La  La16  1  0.399663  0.243424  0.143087  1
  La  La17  1  0.035212  0.535212  0.407063  1
  La  La18  1  0.464788  0.628149  0.592937  1
  La  La19  1  0.743424  0.899663  0.143087  1
  Al  Al20  1  0.754015  0.254015  0.269869  1
  Al  Al21  1  0.745985  0.484146  0.730131  1
  Al  Al22  1  0.254015  0.515854  0.269869  1
  Al  Al23  1  0.984146  0.245985  0.730131  1
  Al  Al24  1  0.750000  0.750000  0.500000  1
  Al  Al25  1  0.245985  0.745985  0.730131  1
  Al  Al26  1  0.015855  0.754015  0.269869  1
  Al  Al27  1  0.515854  0.015855  0.269869  1
  Al  Al28  1  0.484146  0.984146  0.730131  1
  Al  Al29  1  0.250000  0.250000  0.500000  1
  Br  Br30  1  0.642167  0.142167  0.000000  1
  Br  Br31  1  0.142167  0.357833  0.000000  1
  Br  Br32  1  0.857833  0.642167  -0.000000  1
  Br  Br33  1  0.444139  0.444139  0.888278  1
  Br  Br34  1  0.944139  0.944139  0.888278  1
  Br  Br35  1  0.555861  0.555861  0.111722  1
  Br  Br36  1  0.055861  0.055861  0.111722  1
  Br  Br37  1  0.357833  0.857833  -0.000000  1
