# generated using pymatgen
data_Dy2Te4O11
_symmetry_space_group_name_H-M   'P 1'
_cell_length_a   5.17571859
_cell_length_b   6.76359859
_cell_length_c   16.06689522
_cell_angle_alpha   80.00463061
_cell_angle_beta   80.73421688
_cell_angle_gamma   67.50153910
_symmetry_Int_Tables_number   1
_chemical_formula_structural   Dy2Te4O11
_chemical_formula_sum   'Dy4 Te8 O22'
_cell_volume   508.97713626
_cell_formula_units_Z   2
loop_
 _symmetry_equiv_pos_site_id
 _symmetry_equiv_pos_as_xyz
  1  'x, y, z'
loop_
 _atom_site_type_symbol
 _atom_site_label
 _atom_site_symmetry_multiplicity
 _atom_site_fract_x
 _atom_site_fract_y
 _atom_site_fract_z
 _atom_site_occupancy
  Dy  Dy0  1  0.630842  0.201366  0.037192  1
  Dy  Dy1  1  0.869430  0.298687  0.462826  1
  Dy  Dy2  1  0.369158  0.798634  0.962808  1
  Dy  Dy3  1  0.130570  0.701313  0.537174  1
  Te  Te4  1  0.589404  0.881773  0.374720  1
  Te  Te5  1  0.845948  0.618281  0.125233  1
  Te  Te6  1  0.410596  0.118227  0.625280  1
  Te  Te7  1  0.154052  0.381719  0.874767  1
  Te  Te8  1  0.157199  0.044721  0.198360  1
  Te  Te9  1  0.400325  0.455156  0.301627  1
  Te  Te10  1  0.842801  0.955279  0.801640  1
  Te  Te11  1  0.599675  0.544844  0.698373  1
  O  O12  1  0.684801  0.132608  0.372443  1
  O  O13  1  0.189866  0.367414  0.127548  1
  O  O14  1  0.315199  0.867392  0.627557  1
  O  O15  1  0.810134  0.632586  0.872452  1
  O  O16  1  0.247097  0.967798  0.447707  1
  O  O17  1  0.662737  0.532182  0.052274  1
  O  O18  1  0.752903  0.032202  0.552293  1
  O  O19  1  0.337263  0.467818  0.947726  1
  O  O20  1  0.823665  0.683411  0.455097  1
  O  O21  1  0.962216  0.816689  0.044830  1
  O  O22  1  0.176335  0.316589  0.544903  1
  O  O23  1  0.037784  0.183311  0.955170  1
  O  O24  1  0.446953  0.547229  0.403798  1
  O  O25  1  0.398059  0.952675  0.096185  1
  O  O26  1  0.553047  0.452771  0.596202  1
  O  O27  1  0.601941  0.047325  0.903815  1
  O  O28  1  0.091848  0.369390  0.332873  1
  O  O29  1  0.794090  0.130453  0.167126  1
  O  O30  1  0.908152  0.630610  0.667127  1
  O  O31  1  0.205910  0.869547  0.832874  1
  O  O32  1  0.146057  0.749964  0.250007  1
  O  O33  1  0.853943  0.250036  0.749993  1
