# generated using pymatgen
data_Rb2Mo3O10
_symmetry_space_group_name_H-M   'P 1'
_cell_length_a   8.37299738
_cell_length_b   8.40904836
_cell_length_c   9.37047931
_cell_angle_alpha   96.87709209
_cell_angle_beta   90.00000000
_cell_angle_gamma   119.85828274
_symmetry_Int_Tables_number   1
_chemical_formula_structural   Rb2Mo3O10
_chemical_formula_sum   'Rb4 Mo6 O20'
_cell_volume   566.70798549
_cell_formula_units_Z   2
loop_
 _symmetry_equiv_pos_site_id
 _symmetry_equiv_pos_as_xyz
  1  'x, y, z'
loop_
 _atom_site_type_symbol
 _atom_site_label
 _atom_site_symmetry_multiplicity
 _atom_site_fract_x
 _atom_site_fract_y
 _atom_site_fract_z
 _atom_site_occupancy
  Rb  Rb0  1  0.769677  0.363031  0.158885  1
  Rb  Rb1  1  0.406646  0.636969  0.341115  1
  Rb  Rb2  1  0.230323  0.636969  0.841115  1
  Rb  Rb3  1  0.593354  0.363031  0.658885  1
  Mo  Mo4  1  0.966726  0.788021  0.478291  1
  Mo  Mo5  1  0.178705  0.211979  0.021709  1
  Mo  Mo6  1  0.033274  0.211979  0.521709  1
  Mo  Mo7  1  0.821295  0.788021  0.978291  1
  Mo  Mo8  1  0.285137  0.000000  0.250000  1
  Mo  Mo9  1  0.714863  0.000000  0.750000  1
  O  O10  1  0.108493  0.764490  0.320924  1
  O  O11  1  0.344003  0.235510  0.179076  1
  O  O12  1  0.891507  0.235510  0.679076  1
  O  O13  1  0.655997  0.764490  0.820924  1
  O  O14  1  0.894636  0.950946  0.592734  1
  O  O15  1  0.943690  0.049054  0.907266  1
  O  O16  1  0.105364  0.049054  0.407266  1
  O  O17  1  0.056310  0.950946  0.092734  1
  O  O18  1  0.050488  0.722731  0.616784  1
  O  O19  1  0.327757  0.277269  0.883216  1
  O  O20  1  0.949512  0.277269  0.383216  1
  O  O21  1  0.672243  0.722731  0.116784  1
  O  O22  1  0.745185  0.602725  0.419835  1
  O  O23  1  0.142460  0.397275  0.080165  1
  O  O24  1  0.254815  0.397275  0.580165  1
  O  O25  1  0.857540  0.602725  0.919835  1
  O  O26  1  0.363684  0.895754  0.117857  1
  O  O27  1  0.467930  0.104246  0.382143  1
  O  O28  1  0.636316  0.104246  0.882143  1
  O  O29  1  0.532070  0.895754  0.617857  1
