# generated using pymatgen
data_KNa3Al4(SiO4)4
_symmetry_space_group_name_H-M   'P 1'
_cell_length_a   9.83740150
_cell_length_b   9.83740127
_cell_length_c   9.82908061
_cell_angle_alpha   90.00000000
_cell_angle_beta   90.00000000
_cell_angle_gamma   120.00000074
_symmetry_Int_Tables_number   1
_chemical_formula_structural   KNa3Al4(SiO4)4
_chemical_formula_sum   'K2 Na6 Al8 Si8 O32'
_cell_volume   823.76684591
_cell_formula_units_Z   2
loop_
 _symmetry_equiv_pos_site_id
 _symmetry_equiv_pos_as_xyz
  1  'x, y, z'
loop_
 _atom_site_type_symbol
 _atom_site_label
 _atom_site_symmetry_multiplicity
 _atom_site_fract_x
 _atom_site_fract_y
 _atom_site_fract_z
 _atom_site_occupancy
  K  K0  1  0.000000  0.000000  0.987090  1
  K  K1  1  0.000000  0.000000  0.487090  1
  Si  Si2  1  0.333333  0.666667  0.823462  1
  Si  Si3  1  0.666667  0.333333  0.323462  1
  Al  Al4  1  0.333333  0.666667  0.165677  1
  Al  Al5  1  0.666667  0.333333  0.665677  1
  O  O6  1  0.333333  0.666667  0.988799  1
  O  O7  1  0.666667  0.333333  0.488799  1
  Na  Na8  1  0.019552  0.441300  0.988624  1
  Na  Na9  1  0.578252  0.019552  0.488624  1
  Na  Na10  1  0.441300  0.421748  0.488624  1
  Na  Na11  1  0.558700  0.578252  0.988624  1
  Na  Na12  1  0.421748  0.980448  0.988624  1
  Na  Na13  1  0.980448  0.558700  0.488624  1
  Si  Si14  1  0.120833  0.316302  0.254209  1
  Si  Si15  1  0.804530  0.120833  0.754209  1
  Si  Si16  1  0.316302  0.195470  0.754209  1
  Si  Si17  1  0.683698  0.804530  0.254209  1
  Si  Si18  1  0.195470  0.879167  0.254209  1
  Si  Si19  1  0.879167  0.683698  0.754209  1
  Al  Al20  1  0.086329  0.329272  0.684784  1
  Al  Al21  1  0.757057  0.086329  0.184784  1
  Al  Al22  1  0.329272  0.242943  0.184784  1
  Al  Al23  1  0.670728  0.757057  0.684784  1
  Al  Al24  1  0.242943  0.913671  0.684784  1
  Al  Al25  1  0.913671  0.670728  0.184784  1
  O  O26  1  0.098828  0.406717  0.513397  1
  O  O27  1  0.692111  0.098828  0.013397  1
  O  O28  1  0.406717  0.307889  0.013397  1
  O  O29  1  0.593283  0.692111  0.513397  1
  O  O30  1  0.307889  0.901172  0.513397  1
  O  O31  1  0.901172  0.593283  0.013397  1
  O  O32  1  0.174879  0.505086  0.776913  1
  O  O33  1  0.669793  0.174879  0.276913  1
  O  O34  1  0.505086  0.330207  0.276913  1
  O  O35  1  0.494914  0.669793  0.776913  1
  O  O36  1  0.330207  0.825121  0.776913  1
  O  O37  1  0.825121  0.494914  0.276913  1
  O  O38  1  0.163279  0.494747  0.214586  1
  O  O39  1  0.668532  0.163279  0.714586  1
  O  O40  1  0.494747  0.331468  0.714586  1
  O  O41  1  0.505253  0.668532  0.214586  1
  O  O42  1  0.331468  0.836721  0.214586  1
  O  O43  1  0.836721  0.505253  0.714586  1
  O  O44  1  1.029732  0.275001  0.412874  1
  O  O45  1  0.754731  1.029732  0.912874  1
  O  O46  1  0.275001  0.245269  0.912874  1
  O  O47  1  0.724999  0.754731  0.412874  1
  O  O48  1  0.245269  -0.029732  0.412874  1
  O  O49  1  -0.029732  0.724999  0.912874  1
  O  O50  1  0.191858  0.227456  0.666269  1
  O  O51  1  0.964402  0.191858  0.166269  1
  O  O52  1  0.227456  0.035598  0.166269  1
  O  O53  1  0.772544  0.964402  0.666269  1
  O  O54  1  0.035598  0.808142  0.666269  1
  O  O55  1  0.808142  0.772544  0.166269  1
