# generated using pymatgen
data_CsFeF4
_symmetry_space_group_name_H-M   'P 1'
_cell_length_a   6.65624738
_cell_length_b   7.93917394
_cell_length_c   7.93917394
_cell_angle_alpha   90.00000000
_cell_angle_beta   90.00000000
_cell_angle_gamma   90.00000000
_symmetry_Int_Tables_number   1
_chemical_formula_structural   CsFeF4
_chemical_formula_sum   'Cs4 Fe4 F16'
_cell_volume   419.54648633
_cell_formula_units_Z   4
loop_
 _symmetry_equiv_pos_site_id
 _symmetry_equiv_pos_as_xyz
  1  'x, y, z'
loop_
 _atom_site_type_symbol
 _atom_site_label
 _atom_site_symmetry_multiplicity
 _atom_site_fract_x
 _atom_site_fract_y
 _atom_site_fract_z
 _atom_site_occupancy
  F  F0  1  0.718712  0.971006  0.971006  1
  F  F1  1  0.718712  0.528994  0.528994  1
  F  F2  1  0.718712  0.971006  0.528994  1
  F  F3  1  0.718712  0.528994  0.971006  1
  F  F4  1  0.281288  0.471006  0.471006  1
  F  F5  1  0.281288  0.028994  0.471006  1
  F  F6  1  0.281288  0.471006  0.028994  1
  F  F7  1  0.281288  0.028994  0.028994  1
  F  F8  1  0.953166  0.250000  0.997323  1
  F  F9  1  0.953166  0.502677  0.250000  1
  F  F10  1  0.953166  0.997323  0.250000  1
  F  F11  1  0.953166  0.250000  0.502677  1
  F  F12  1  0.046834  0.750000  0.002677  1
  F  F13  1  0.046834  0.750000  0.497323  1
  F  F14  1  0.046834  0.497323  0.750000  1
  F  F15  1  0.046834  0.002677  0.750000  1
  Fe  Fe16  1  0.000000  0.500000  0.500000  1
  Fe  Fe17  1  0.000000  0.000000  0.500000  1
  Fe  Fe18  1  0.000000  0.500000  0.000000  1
  Fe  Fe19  1  0.000000  0.000000  0.000000  1
  Cs  Cs20  1  0.500000  0.250000  0.750000  1
  Cs  Cs21  1  0.500000  0.750000  0.250000  1
  Cs  Cs22  1  0.451100  0.750000  0.750000  1
  Cs  Cs23  1  0.548900  0.250000  0.250000  1
