# generated using pymatgen
data_CsHg5Cl11
_symmetry_space_group_name_H-M   'P 1'
_cell_length_a   6.94094513
_cell_length_b   9.71804887
_cell_length_c   9.71804920
_cell_angle_alpha   99.97979079
_cell_angle_beta   108.90415528
_cell_angle_gamma   108.90415270
_symmetry_Int_Tables_number   1
_chemical_formula_structural   CsHg5Cl11
_chemical_formula_sum   'Cs1 Hg5 Cl11'
_cell_volume   557.62398076
_cell_formula_units_Z   1
loop_
 _symmetry_equiv_pos_site_id
 _symmetry_equiv_pos_as_xyz
  1  'x, y, z'
loop_
 _atom_site_type_symbol
 _atom_site_label
 _atom_site_symmetry_multiplicity
 _atom_site_fract_x
 _atom_site_fract_y
 _atom_site_fract_z
 _atom_site_occupancy
  Cs  Cs0  1  0.000000  0.000000  0.000000  1
  Hg  Hg1  1  0.682145  0.015937  0.349725  1
  Hg  Hg2  1  0.000000  0.500000  0.500000  1
  Hg  Hg3  1  0.317855  0.984063  0.650275  1
  Hg  Hg4  1  0.317855  0.650275  0.984063  1
  Hg  Hg5  1  0.682145  0.349725  0.015937  1
  Cl  Cl6  1  0.941868  0.831869  0.581364  1
  Cl  Cl7  1  0.686756  0.139864  0.700615  1
  Cl  Cl8  1  0.686756  0.700615  0.139864  1
  Cl  Cl9  1  0.500000  0.000000  0.000000  1
  Cl  Cl10  1  0.313244  0.860136  0.299385  1
  Cl  Cl11  1  0.941868  0.581364  0.831869  1
  Cl  Cl12  1  0.378763  0.646567  0.646567  1
  Cl  Cl13  1  0.621237  0.353433  0.353433  1
  Cl  Cl14  1  0.058132  0.418636  0.168131  1
  Cl  Cl15  1  0.313244  0.299385  0.860136  1
  Cl  Cl16  1  0.058132  0.168131  0.418636  1
