# generated using pymatgen
data_Na3TmSi2O7
_symmetry_space_group_name_H-M   'P 1'
_cell_length_a   9.45910734
_cell_length_b   9.45910693
_cell_length_c   13.83395283
_cell_angle_alpha   90.00000000
_cell_angle_beta   90.00000000
_cell_angle_gamma   120.00000147
_symmetry_Int_Tables_number   1
_chemical_formula_structural   Na3TmSi2O7
_chemical_formula_sum   'Na18 Tm6 Si12 O42'
_cell_volume   1071.95660456
_cell_formula_units_Z   6
loop_
 _symmetry_equiv_pos_site_id
 _symmetry_equiv_pos_as_xyz
  1  'x, y, z'
loop_
 _atom_site_type_symbol
 _atom_site_label
 _atom_site_symmetry_multiplicity
 _atom_site_fract_x
 _atom_site_fract_y
 _atom_site_fract_z
 _atom_site_occupancy
  Na  Na0  1  0.331941  0.015584  0.392790  1
  Na  Na1  1  0.668059  0.984415  0.892790  1
  Na  Na2  1  0.000000  0.000000  0.481392  1
  Na  Na3  1  0.315680  0.331001  0.569867  1
  Na  Na4  1  0.683644  0.668059  0.392790  1
  Na  Na5  1  0.984415  0.316356  0.392790  1
  Na  Na6  1  0.668999  0.984679  0.569867  1
  Na  Na7  1  0.666667  0.333333  0.231584  1
  Na  Na8  1  0.316356  0.331941  0.892790  1
  Na  Na9  1  0.984679  0.315680  0.069867  1
  Na  Na10  1  0.015321  0.684320  0.569867  1
  Na  Na11  1  0.015584  0.683644  0.892790  1
  Na  Na12  1  0.684320  0.668999  0.069867  1
  Na  Na13  1  0.000000  0.000000  0.981392  1
  Na  Na14  1  0.333333  0.666667  0.731584  1
  Na  Na15  1  0.666667  0.333333  0.714559  1
  Na  Na16  1  0.331001  0.015321  0.069867  1
  Na  Na17  1  0.333333  0.666667  0.214559  1
  Tm  Tm18  1  0.666667  0.333333  0.462898  1
  Tm  Tm19  1  0.000000  0.000000  0.231845  1
  Tm  Tm20  1  0.000000  0.000000  0.731845  1
  Tm  Tm21  1  0.666667  0.333333  -0.000080  1
  Tm  Tm22  1  0.333333  0.666667  0.962898  1
  Tm  Tm23  1  0.333333  0.666667  0.499920  1
  Si  Si24  1  0.018825  0.672049  0.342003  1
  Si  Si25  1  0.652790  0.981975  0.123138  1
  Si  Si26  1  0.670815  0.652790  0.623138  1
  Si  Si27  1  0.346776  0.018825  0.842003  1
  Si  Si28  1  0.329185  0.347210  0.123138  1
  Si  Si29  1  0.981975  0.329185  0.623138  1
  Si  Si30  1  0.327951  0.346776  0.342003  1
  Si  Si31  1  0.981175  0.327951  0.842003  1
  Si  Si32  1  0.018025  0.670815  0.123138  1
  Si  Si33  1  0.672049  0.653224  0.842003  1
  Si  Si34  1  0.347210  0.018025  0.623138  1
  Si  Si35  1  0.653224  0.981175  0.342003  1
  O  O36  1  0.151267  0.954260  0.622933  1
  O  O37  1  0.554850  0.827191  0.048814  1
  O  O38  1  0.272341  0.445150  0.048814  1
  O  O39  1  0.727659  0.554850  0.548814  1
  O  O40  1  0.900794  0.323552  0.732666  1
  O  O41  1  0.829099  0.269636  0.918295  1
  O  O42  1  0.802994  0.848733  0.622933  1
  O  O43  1  0.045740  0.197006  0.622933  1
  O  O44  1  0.484754  0.612345  0.601470  1
  O  O45  1  0.099206  0.676448  0.232666  1
  O  O46  1  0.872409  0.484754  0.101470  1
  O  O47  1  0.872900  0.485847  0.363625  1
  O  O48  1  0.802748  0.849704  0.840667  1
  O  O49  1  0.514153  0.387053  0.363625  1
  O  O50  1  0.848733  0.045740  0.122933  1
  O  O51  1  0.730364  0.559463  0.918295  1
  O  O52  1  0.612345  0.127591  0.101470  1
  O  O53  1  0.422757  0.099206  0.732666  1
  O  O54  1  0.612947  0.127100  0.363625  1
  O  O55  1  0.440537  0.170901  0.918295  1
  O  O56  1  0.046955  0.197252  0.840667  1
  O  O57  1  0.676448  0.577243  0.732666  1
  O  O58  1  0.387655  0.872409  0.601470  1
  O  O59  1  0.849704  0.046955  0.340667  1
  O  O60  1  0.170901  0.730364  0.418295  1
  O  O61  1  0.827191  0.272341  0.548814  1
  O  O62  1  0.387053  0.872900  0.863625  1
  O  O63  1  0.127591  0.515246  0.601470  1
  O  O64  1  0.197006  0.151267  0.122933  1
  O  O65  1  0.172809  0.727659  0.048814  1
  O  O66  1  0.515246  0.387655  0.101470  1
  O  O67  1  0.269636  0.440537  0.418295  1
  O  O68  1  0.559463  0.829099  0.418295  1
  O  O69  1  0.953044  0.802748  0.340667  1
  O  O70  1  0.577243  0.900794  0.232666  1
  O  O71  1  0.445150  0.172809  0.548814  1
  O  O72  1  0.485847  0.612947  0.863625  1
  O  O73  1  0.197252  0.150296  0.340667  1
  O  O74  1  0.127100  0.514153  0.863625  1
  O  O75  1  0.323552  0.422757  0.232666  1
  O  O76  1  0.954260  0.802994  0.122933  1
  O  O77  1  0.150296  0.953044  0.840667  1
