# generated using pymatgen
data_SiO2
_symmetry_space_group_name_H-M   'P 1'
_cell_length_a   4.90018973
_cell_length_b   13.00000290
_cell_length_c   13.00000376
_cell_angle_alpha   114.77621031
_cell_angle_beta   76.80975843
_cell_angle_gamma   76.80976370
_symmetry_Int_Tables_number   1
_chemical_formula_structural   SiO2
_chemical_formula_sum   'Si12 O24'
_cell_volume   681.18521128
_cell_formula_units_Z   12
loop_
 _symmetry_equiv_pos_site_id
 _symmetry_equiv_pos_as_xyz
  1  'x, y, z'
loop_
 _atom_site_type_symbol
 _atom_site_label
 _atom_site_symmetry_multiplicity
 _atom_site_fract_x
 _atom_site_fract_y
 _atom_site_fract_z
 _atom_site_occupancy
  Si  Si0  1  0.173771  0.640101  0.506027  1
  Si  Si1  1  0.868240  0.876126  0.519338  1
  Si  Si2  1  0.131760  0.480662  0.123874  1
  Si  Si3  1  0.470605  0.867005  0.367868  1
  Si  Si4  1  0.826229  0.359899  0.493973  1
  Si  Si5  1  0.470605  0.367868  0.867005  1
  Si  Si6  1  0.529395  0.632132  0.132995  1
  Si  Si7  1  0.868240  0.519338  0.876126  1
  Si  Si8  1  0.826229  0.493973  0.359899  1
  Si  Si9  1  0.529395  0.132995  0.632132  1
  Si  Si10  1  0.131760  0.123874  0.480662  1
  Si  Si11  1  0.173771  0.506027  0.640101  1
  O  O12  1  0.810753  0.109460  0.520710  1
  O  O13  1  0.769076  0.829844  0.399965  1
  O  O14  1  0.054949  0.432998  0.220296  1
  O  O15  1  0.189247  0.479290  0.890540  1
  O  O16  1  0.500000  0.237200  0.762800  1
  O  O17  1  0.398415  0.997094  0.368469  1
  O  O18  1  0.398415  0.368469  0.997094  1
  O  O19  1  0.945051  0.779704  0.567002  1
  O  O20  1  1.000000  0.559100  0.440900  1
  O  O21  1  0.500000  0.599485  0.400515  1
  O  O22  1  0.768309  0.387117  0.387117  1
  O  O23  1  0.000000  0.440900  0.559100  1
  O  O24  1  0.230924  0.170156  0.600035  1
  O  O25  1  0.810753  0.520710  0.109460  1
  O  O26  1  0.769076  0.399965  0.829844  1
  O  O27  1  0.601585  0.002906  0.631531  1
  O  O28  1  0.054949  0.220296  0.432998  1
  O  O29  1  0.945051  0.567002  0.779704  1
  O  O30  1  0.500000  0.400515  0.599485  1
  O  O31  1  0.231691  0.612883  0.612883  1
  O  O32  1  0.189247  0.890540  0.479290  1
  O  O33  1  0.500000  0.762800  0.237200  1
  O  O34  1  0.601585  0.631531  0.002906  1
  O  O35  1  0.230924  0.600035  0.170156  1
