# generated using pymatgen
data_BaUI6
_symmetry_space_group_name_H-M   'P 1'
_cell_length_a   8.40541669
_cell_length_b   8.40541659
_cell_length_c   15.35449345
_cell_angle_alpha   95.57602495
_cell_angle_beta   95.57602480
_cell_angle_gamma   120.36599654
_symmetry_Int_Tables_number   1
_chemical_formula_structural   BaUI6
_chemical_formula_sum   'Ba2 U2 I12'
_cell_volume   917.94446476
_cell_formula_units_Z   2
loop_
 _symmetry_equiv_pos_site_id
 _symmetry_equiv_pos_as_xyz
  1  'x, y, z'
loop_
 _atom_site_type_symbol
 _atom_site_label
 _atom_site_symmetry_multiplicity
 _atom_site_fract_x
 _atom_site_fract_y
 _atom_site_fract_z
 _atom_site_occupancy
  Ba  Ba0  1  0.165654  0.830506  0.996670  1
  Ba  Ba1  1  0.330506  0.665654  0.496670  1
  U  U2  1  0.659550  0.333335  0.498991  1
  U  U3  1  0.833335  0.159550  0.998991  1
  I  I4  1  0.784598  0.407055  0.882364  1
  I  I5  1  0.907055  0.284598  0.382364  1
  I  I6  1  0.071819  0.111481  0.875217  1
  I  I7  1  0.423790  0.389000  0.621357  1
  I  I8  1  0.611481  0.571819  0.375217  1
  I  I9  1  0.310421  -0.000508  0.387058  1
  I  I10  1  0.499492  0.810421  0.887058  1
  I  I11  1  0.700451  0.084706  0.617688  1
  I  I12  1  0.889000  0.923790  0.121357  1
  I  I13  1  0.168774  0.499369  0.115255  1
  I  I14  1  0.999369  0.668774  0.615255  1
  I  I15  1  0.584706  0.200451  0.117688  1
