# generated using pymatgen
data_Ba4Al3Cu2F21
_symmetry_space_group_name_H-M   'P 1'
_cell_length_a   5.38013098
_cell_length_b   7.48108121
_cell_length_c   42.16759783
_cell_angle_alpha   90.00000000
_cell_angle_beta   90.00000000
_cell_angle_gamma   90.00000000
_symmetry_Int_Tables_number   1
_chemical_formula_structural   Ba4Al3Cu2F21
_chemical_formula_sum   'Ba16 Al12 Cu8 F84'
_cell_volume   1697.21194288
_cell_formula_units_Z   4
loop_
 _symmetry_equiv_pos_site_id
 _symmetry_equiv_pos_as_xyz
  1  'x, y, z'
loop_
 _atom_site_type_symbol
 _atom_site_label
 _atom_site_symmetry_multiplicity
 _atom_site_fract_x
 _atom_site_fract_y
 _atom_site_fract_z
 _atom_site_occupancy
  Ba  Ba0  1  0.747835  0.987091  0.351218  1
  Ba  Ba1  1  0.674677  0.996337  0.511375  1
  Ba  Ba2  1  0.252165  0.487091  0.148782  1
  Ba  Ba3  1  0.764327  0.017449  0.119896  1
  Ba  Ba4  1  0.748041  0.217937  0.235807  1
  Ba  Ba5  1  0.235673  0.517449  0.380104  1
  Ba  Ba6  1  0.751959  0.782063  0.735807  1
  Ba  Ba7  1  0.752165  0.012909  0.851218  1
  Ba  Ba8  1  0.247835  0.512909  0.648782  1
  Ba  Ba9  1  0.248041  0.282063  0.764193  1
  Ba  Ba10  1  0.264327  0.482551  0.880104  1
  Ba  Ba11  1  0.735673  0.982551  0.619896  1
  Ba  Ba12  1  0.325323  0.496337  0.988625  1
  Ba  Ba13  1  0.174677  0.503663  0.488625  1
  Ba  Ba14  1  0.251959  0.717937  0.264193  1
  Ba  Ba15  1  0.825323  0.003663  0.011375  1
  Al  Al16  1  0.235848  0.989634  0.680305  1
  Al  Al17  1  0.760734  0.688606  0.199819  1
  Al  Al18  1  0.239266  0.188606  0.300181  1
  Al  Al19  1  0.333501  0.208530  0.060495  1
  Al  Al20  1  0.264152  0.010366  0.180305  1
  Al  Al21  1  0.260734  0.811394  0.800181  1
  Al  Al22  1  0.739266  0.311394  0.699819  1
  Al  Al23  1  0.666499  0.708530  0.439505  1
  Al  Al24  1  0.833501  0.291470  0.939505  1
  Al  Al25  1  0.166499  0.791470  0.560495  1
  Al  Al26  1  0.764152  0.489634  0.819695  1
  Al  Al27  1  0.735848  0.510366  0.319695  1
  Cu  Cu28  1  0.180519  0.274908  0.566346  1
  Cu  Cu29  1  0.680519  0.225092  0.433654  1
  Cu  Cu30  1  0.299610  0.990657  0.925271  1
  Cu  Cu31  1  0.319481  0.725092  0.066346  1
  Cu  Cu32  1  0.819481  0.774908  0.933654  1
  Cu  Cu33  1  0.700390  0.490657  0.574729  1
  Cu  Cu34  1  0.200390  0.009343  0.425271  1
  Cu  Cu35  1  0.799610  0.509343  0.074729  1
  F  F36  1  0.982798  -0.001449  0.564894  1
  F  F37  1  0.860910  0.683319  0.550451  1
  F  F38  1  0.461514  0.182347  0.683151  1
  F  F39  1  0.493729  0.681886  0.104701  1
  F  F40  1  0.108680  0.864674  0.389899  1
  F  F41  1  0.261011  0.927248  0.837347  1
  F  F42  1  0.891320  0.364674  0.110101  1
  F  F43  1  0.446773  0.915156  0.567783  1
  F  F44  1  0.460561  0.351451  0.319851  1
  F  F45  1  0.539439  0.851451  0.180149  1
  F  F46  1  0.515056  0.692239  0.324129  1
  F  F47  1  0.187034  0.841261  0.517494  1
  F  F48  1  0.669656  0.736281  0.973714  1
  F  F49  1  0.553227  0.415156  0.932217  1
  F  F50  1  0.391956  0.262735  0.101478  1
  F  F51  1  0.640529  0.666228  0.043538  1
  F  F52  1  0.500478  0.559051  0.213733  1
  F  F53  1  0.220759  0.981978  0.722538  1
  F  F54  1  0.139090  0.183319  0.949549  1
  F  F55  1  0.720759  0.518022  0.277462  1
  F  F56  1  0.961514  0.317653  0.316849  1
  F  F57  1  0.517202  1.001449  0.064894  1
  F  F58  1  0.507817  0.333565  0.821998  1
  F  F59  1  0.039439  0.648549  0.819851  1
  F  F60  1  0.330344  0.236281  0.526286  1
  F  F61  1  0.018285  0.033631  0.283571  1
  F  F62  1  0.518285  0.466369  0.716429  1
  F  F63  1  0.252217  0.971742  0.138436  1
  F  F64  1  0.108044  0.737265  0.601478  1
  F  F65  1  0.484944  0.192239  0.175871  1
  F  F66  1  0.493964  0.290884  0.591083  1
  F  F67  1  0.747783  0.471742  0.361564  1
  F  F68  1  0.267478  0.668006  0.766099  1
  F  F69  1  0.359471  0.166228  0.456462  1
  F  F70  1  0.819737  0.918854  0.448047  1
  F  F71  1  0.639090  0.316681  0.050451  1
  F  F72  1  0.999522  0.440949  0.713733  1
  F  F73  1  0.891956  0.237265  0.898522  1
  F  F74  1  0.238989  0.072752  0.337347  1
  F  F75  1  0.506271  0.181886  0.395299  1
  F  F76  1  0.738989  0.427248  0.662653  1
  F  F77  1  0.017202  0.498551  0.935106  1
  F  F78  1  0.015056  0.807761  0.675871  1
  F  F79  1  0.053227  0.084844  0.067783  1
  F  F80  1  0.279241  0.018022  0.222538  1
  F  F81  1  0.812966  0.341261  0.982506  1
  F  F82  1  0.732522  0.168006  0.733901  1
  F  F83  1  0.180263  0.418854  0.051953  1
  F  F84  1  0.752217  0.528258  0.861564  1
  F  F85  1  0.767478  0.831994  0.233901  1
  F  F86  1  0.687034  0.658739  0.482506  1
  F  F87  1  0.000478  0.940949  0.786267  1
  F  F88  1  0.993964  0.209116  0.408917  1
  F  F89  1  0.391320  0.135326  0.889899  1
  F  F90  1  0.680263  0.081146  0.948047  1
  F  F91  1  0.006036  0.709116  0.091083  1
  F  F92  1  0.007817  0.166435  0.178002  1
  F  F93  1  0.960561  0.148549  0.680149  1
  F  F94  1  0.859471  0.333772  0.543538  1
  F  F95  1  0.761011  0.572752  0.162653  1
  F  F96  1  0.499522  0.059051  0.286267  1
  F  F97  1  0.140529  0.833772  0.956462  1
  F  F98  1  0.360910  0.816681  0.449549  1
  F  F99  1  0.608044  0.762735  0.398522  1
  F  F100  1  0.038486  0.817653  0.183151  1
  F  F101  1  0.992183  0.666435  0.321998  1
  F  F102  1  0.993729  0.818114  0.895299  1
  F  F103  1  0.482798  0.501449  0.435106  1
  F  F104  1  0.006271  0.318114  0.604701  1
  F  F105  1  0.319737  0.581146  0.551953  1
  F  F106  1  0.492183  0.833565  0.678002  1
  F  F107  1  0.779241  0.481978  0.777462  1
  F  F108  1  0.830344  0.263719  0.473714  1
  F  F109  1  0.247783  0.028258  0.638436  1
  F  F110  1  0.984944  0.307761  0.824129  1
  F  F111  1  0.981715  0.533631  0.216429  1
  F  F112  1  0.312966  0.158739  0.017494  1
  F  F113  1  0.946773  0.584844  0.432217  1
  F  F114  1  0.169656  0.763719  0.026286  1
  F  F115  1  0.538486  0.682347  0.816849  1
  F  F116  1  0.481715  0.966369  0.783571  1
  F  F117  1  0.608680  0.635326  0.610101  1
  F  F118  1  0.506036  0.790884  0.908917  1
  F  F119  1  0.232522  0.331994  0.266099  1
