# generated using pymatgen
data_CaP2H20C4(N2O3)4
_symmetry_space_group_name_H-M   'P 1'
_cell_length_a   5.67911663
_cell_length_b   7.44867227
_cell_length_c   21.95284701
_cell_angle_alpha   90.00000000
_cell_angle_beta   90.00000000
_cell_angle_gamma   90.67188640
_symmetry_Int_Tables_number   1
_chemical_formula_structural   CaP2H20C4(N2O3)4
_chemical_formula_sum   'Ca2 P4 H40 C8 N16 O24'
_cell_volume   928.58281760
_cell_formula_units_Z   2
loop_
 _symmetry_equiv_pos_site_id
 _symmetry_equiv_pos_as_xyz
  1  'x, y, z'
loop_
 _atom_site_type_symbol
 _atom_site_label
 _atom_site_symmetry_multiplicity
 _atom_site_fract_x
 _atom_site_fract_y
 _atom_site_fract_z
 _atom_site_occupancy
  Ca  Ca0  1  0.000000  0.000000  0.000000  1
  Ca  Ca1  1  0.500000  0.500000  0.500000  1
  P  P2  1  0.504277  0.111597  0.090423  1
  P  P3  1  0.995723  0.388403  0.590423  1
  P  P4  1  0.495723  0.888403  0.909577  1
  P  P5  1  0.004277  0.611597  0.409577  1
  O  O6  1  0.316616  0.155419  0.043731  1
  O  O7  1  0.183384  0.344581  0.543731  1
  O  O8  1  0.683384  0.844581  0.956269  1
  O  O9  1  0.816616  0.655419  0.456269  1
  O  O10  1  0.760345  0.146648  0.072484  1
  O  O11  1  0.739655  0.353352  0.572484  1
  O  O12  1  0.239655  0.853352  0.927516  1
  O  O13  1  0.260345  0.646648  0.427516  1
  O  O14  1  0.449151  0.221998  0.150626  1
  O  O15  1  0.050849  0.278002  0.650626  1
  O  O16  1  0.550849  0.778002  0.849374  1
  O  O17  1  0.949151  0.721998  0.349374  1
  O  O18  1  0.483658  0.902552  0.108698  1
  O  O19  1  0.016342  0.597448  0.608698  1
  O  O20  1  0.516342  0.097448  0.891302  1
  O  O21  1  0.983658  0.402552  0.391302  1
  O  O22  1  0.073456  0.769276  0.072487  1
  O  O23  1  0.426544  0.730724  0.572487  1
  O  O24  1  0.926544  0.230724  0.927513  1
  O  O25  1  0.573456  0.269276  0.427513  1
  O  O26  1  0.788852  0.253621  0.230093  1
  O  O27  1  0.711148  0.246379  0.730093  1
  O  O28  1  0.211148  0.746379  0.769907  1
  O  O29  1  0.288852  0.753621  0.269907  1
  C  C30  1  0.981611  0.612687  0.079827  1
  C  C31  1  0.518389  0.887313  0.579827  1
  C  C32  1  0.018389  0.387313  0.920173  1
  C  C33  1  0.481611  0.112687  0.420173  1
  C  C34  1  0.940384  0.132670  0.240286  1
  C  C35  1  0.559616  0.367330  0.740286  1
  C  C36  1  0.059616  0.867330  0.759714  1
  C  C37  1  0.440384  0.632670  0.259714  1
  N  N38  1  0.789692  0.561177  0.048249  1
  N  N39  1  0.710308  0.938823  0.548249  1
  N  N40  1  0.210308  0.438823  0.951751  1
  N  N41  1  0.289692  0.061177  0.451751  1
  N  N42  1  0.068735  0.497294  0.121446  1
  N  N43  1  0.431265  1.002706  0.621446  1
  N  N44  1  0.931265  0.502706  0.878554  1
  N  N45  1  0.568735  -0.002706  0.378554  1
  N  N46  1  0.975606  0.995065  0.201357  1
  N  N47  1  0.524394  0.504935  0.701357  1
  N  N48  1  0.024394  0.004935  0.798643  1
  N  N49  1  0.475606  0.495065  0.298643  1
  N  N50  1  0.067373  0.133036  0.292642  1
  N  N51  1  0.432627  0.366964  0.792642  1
  N  N52  1  0.932627  0.866964  0.707358  1
  N  N53  1  0.567373  0.633036  0.207358  1
  H  H54  1  0.585613  0.226364  0.181021  1
  H  H55  1  0.914387  0.273636  0.681021  1
  H  H56  1  0.414387  0.773636  0.818979  1
  H  H57  1  0.085613  0.726364  0.318979  1
  H  H58  1  0.328884  0.844454  0.096465  1
  H  H59  1  0.171116  0.655546  0.596465  1
  H  H60  1  0.671116  0.155546  0.903535  1
  H  H61  1  0.828884  0.344454  0.403535  1
  H  H62  1  0.725453  0.645909  0.015667  1
  H  H63  1  0.774547  0.854091  0.515667  1
  H  H64  1  0.274547  0.354091  0.984333  1
  H  H65  1  0.225453  0.145909  0.484333  1
  H  H66  1  0.738105  0.429609  0.049580  1
  H  H67  1  0.761895  0.070391  0.549580  1
  H  H68  1  0.261895  0.570391  0.950420  1
  H  H69  1  0.238105  0.929609  0.450420  1
  H  H70  1  0.015731  0.366409  0.119773  1
  H  H71  1  0.484269  0.133591  0.619773  1
  H  H72  1  0.984269  0.633591  0.880227  1
  H  H73  1  0.515731  0.866409  0.380227  1
  H  H74  1  0.232952  0.519553  0.138418  1
  H  H75  1  0.267048  0.980447  0.638418  1
  H  H76  1  0.767048  0.480447  0.861582  1
  H  H77  1  0.732952  0.019553  0.361582  1
  H  H78  1  0.913135  0.005334  0.158114  1
  H  H79  1  0.586865  0.494666  0.658114  1
  H  H80  1  0.086865  0.994666  0.841886  1
  H  H81  1  0.413135  0.505334  0.341886  1
  H  H82  1  0.102792  0.903230  0.210929  1
  H  H83  1  0.397208  0.596770  0.710929  1
  H  H84  1  0.897208  0.096770  0.789071  1
  H  H85  1  0.602792  0.403230  0.289071  1
  H  H86  1  0.207607  0.050182  0.296791  1
  H  H87  1  0.292393  0.449818  0.796791  1
  H  H88  1  0.792393  0.949818  0.703209  1
  H  H89  1  0.707607  0.550182  0.203209  1
  H  H90  1  0.061520  0.243958  0.319846  1
  H  H91  1  0.438480  0.256042  0.819846  1
  H  H92  1  0.938480  0.756042  0.680154  1
  H  H93  1  0.561520  0.743958  0.180154  1
