# generated using pymatgen
data_Sc7CBr12
_symmetry_space_group_name_H-M   'P 1'
_cell_length_a   8.61297919
_cell_length_b   8.61297879
_cell_length_c   8.61297899
_cell_angle_alpha   107.74740886
_cell_angle_beta   107.74740803
_cell_angle_gamma   107.74740432
_symmetry_Int_Tables_number   1
_chemical_formula_structural   Sc7CBr12
_chemical_formula_sum   'Sc7 C1 Br12'
_cell_volume   520.88576505
_cell_formula_units_Z   1
loop_
 _symmetry_equiv_pos_site_id
 _symmetry_equiv_pos_as_xyz
  1  'x, y, z'
loop_
 _atom_site_type_symbol
 _atom_site_label
 _atom_site_symmetry_multiplicity
 _atom_site_fract_x
 _atom_site_fract_y
 _atom_site_fract_z
 _atom_site_occupancy
  Br  Br0  1  0.076909  0.227013  0.694962  1
  Br  Br1  1  0.694962  0.076909  0.227013  1
  Br  Br2  1  0.227013  0.694962  0.076909  1
  Br  Br3  1  0.841638  0.545888  0.619581  1
  Br  Br4  1  0.619581  0.841638  0.545888  1
  Br  Br5  1  0.545888  0.619581  0.841638  1
  Br  Br6  1  0.311018  0.925373  0.780953  1
  Br  Br7  1  0.780953  0.311018  0.925373  1
  Br  Br8  1  0.925373  0.780953  0.311018  1
  Br  Br9  1  0.466003  0.387281  0.149049  1
  Br  Br10  1  0.149049  0.466003  0.387281  1
  Br  Br11  1  0.387281  0.149049  0.466003  1
  Sc  Sc12  1  0.478219  0.478219  0.478219  1
  Sc  Sc13  1  0.977716  0.910511  0.713948  1
  Sc  Sc14  1  0.713948  0.977716  0.910511  1
  Sc  Sc15  1  0.910511  0.713948  0.977716  1
  Sc  Sc16  1  0.294702  0.038966  0.103900  1
  Sc  Sc17  1  0.103900  0.294702  0.038966  1
  Sc  Sc18  1  0.038966  0.103900  0.294702  1
  C  C19  1  0.000570  0.000570  0.000570  1
