# generated using pymatgen
data_TeS2(NCl)2
_symmetry_space_group_name_H-M   'P 1'
_cell_length_a   7.75902820
_cell_length_b   9.44848081
_cell_length_c   11.25121119
_cell_angle_alpha   114.82747028
_cell_angle_beta   96.19141232
_cell_angle_gamma   90.00000195
_symmetry_Int_Tables_number   1
_chemical_formula_structural   TeS2(NCl)2
_chemical_formula_sum   'Te4 S8 N8 Cl8'
_cell_volume   743.29883026
_cell_formula_units_Z   4
loop_
 _symmetry_equiv_pos_site_id
 _symmetry_equiv_pos_as_xyz
  1  'x, y, z'
loop_
 _atom_site_type_symbol
 _atom_site_label
 _atom_site_symmetry_multiplicity
 _atom_site_fract_x
 _atom_site_fract_y
 _atom_site_fract_z
 _atom_site_occupancy
  Te  Te0  1  0.699535  0.432442  0.199877  1
  Te  Te1  1  0.800465  0.232565  0.800123  1
  Te  Te2  1  0.199535  0.767435  0.199877  1
  Te  Te3  1  0.300465  0.567558  0.800123  1
  S  S4  1  0.177224  0.689786  0.589964  1
  S  S5  1  0.129386  0.005033  0.162157  1
  S  S6  1  0.629386  0.157124  0.162157  1
  S  S7  1  0.677224  0.900178  0.589964  1
  S  S8  1  0.822776  0.310214  0.410036  1
  S  S9  1  0.322776  0.099822  0.410036  1
  S  S10  1  0.370614  0.842876  0.837843  1
  S  S11  1  0.870614  0.994967  0.837843  1
  N  N12  1  0.171108  0.549407  0.628632  1
  N  N13  1  0.328892  0.920775  0.371368  1
  N  N14  1  0.671108  0.079225  0.628632  1
  N  N15  1  0.717790  0.160770  0.301354  1
  N  N16  1  0.282210  0.839230  0.698646  1
  N  N17  1  0.217790  0.140584  0.301354  1
  N  N18  1  0.782210  0.859416  0.698646  1
  N  N19  1  0.828892  0.450593  0.371368  1
  Cl  Cl20  1  0.483494  0.728341  0.068650  1
  Cl  Cl21  1  0.426746  0.528965  0.306732  1
  Cl  Cl22  1  0.516506  0.271659  0.931350  1
  Cl  Cl23  1  0.073254  0.222232  0.693268  1
  Cl  Cl24  1  0.983494  0.340309  0.068650  1
  Cl  Cl25  1  0.573254  0.471035  0.693268  1
  Cl  Cl26  1  0.016506  0.659691  0.931350  1
  Cl  Cl27  1  0.926746  0.777768  0.306732  1
