# generated using pymatgen
data_SrBi2(B2O5)2
_symmetry_space_group_name_H-M   'P 1'
_cell_length_a   6.85598158
_cell_length_b   9.90353698
_cell_length_c   7.03602688
_cell_angle_alpha   96.01315742
_cell_angle_beta   101.62707211
_cell_angle_gamma   108.93319349
_symmetry_Int_Tables_number   1
_chemical_formula_structural   SrBi2(B2O5)2
_chemical_formula_sum   'Sr2 Bi4 B8 O20'
_cell_volume   435.08790017
_cell_formula_units_Z   2
loop_
 _symmetry_equiv_pos_site_id
 _symmetry_equiv_pos_as_xyz
  1  'x, y, z'
loop_
 _atom_site_type_symbol
 _atom_site_label
 _atom_site_symmetry_multiplicity
 _atom_site_fract_x
 _atom_site_fract_y
 _atom_site_fract_z
 _atom_site_occupancy
  Sr  Sr0  1  0.965869  0.834438  0.150496  1
  Sr  Sr1  1  0.034131  0.165562  0.849504  1
  Bi  Bi2  1  0.267534  0.336053  0.357559  1
  Bi  Bi3  1  0.732466  0.663947  0.642441  1
  Bi  Bi4  1  0.304046  0.600713  0.982821  1
  Bi  Bi5  1  0.695954  0.399287  0.017179  1
  B  B6  1  0.600905  0.925081  0.795433  1
  B  B7  1  0.399095  0.074919  0.204567  1
  B  B8  1  0.152364  0.632030  0.390337  1
  B  B9  1  0.847636  0.367970  0.609663  1
  B  B10  1  0.589121  0.906965  0.253283  1
  B  B11  1  0.800936  0.177441  0.302929  1
  B  B12  1  0.199064  0.822559  0.697071  1
  B  B13  1  0.410879  0.093035  0.746717  1
  O  O14  1  0.924533  0.394651  0.814677  1
  O  O15  1  0.359414  0.413230  0.103206  1
  O  O16  1  0.398100  0.935014  0.226129  1
  O  O17  1  0.588638  0.185298  0.224982  1
  O  O18  1  0.411362  0.814702  0.775018  1
  O  O19  1  0.640586  0.586770  0.896794  1
  O  O20  1  0.788538  0.904521  0.834423  1
  O  O21  1  0.218297  0.979506  0.703954  1
  O  O22  1  0.781703  0.020494  0.296046  1
  O  O23  1  0.257945  0.553712  0.487606  1
  O  O24  1  0.110968  0.748869  0.485186  1
  O  O25  1  0.061625  0.748779  0.816811  1
  O  O26  1  0.418318  0.233315  0.772312  1
  O  O27  1  0.211462  0.095479  0.165577  1
  O  O28  1  0.889032  0.251131  0.514814  1
  O  O29  1  0.742055  0.446288  0.512394  1
  O  O30  1  0.938375  0.251221  0.183189  1
  O  O31  1  0.075467  0.605349  0.185323  1
  O  O32  1  0.581682  0.766685  0.227688  1
  O  O33  1  0.601900  0.064986  0.773871  1
