# generated using pymatgen
data_CsBe2BO3F2
_symmetry_space_group_name_H-M   'P 1'
_cell_length_a   4.49200434
_cell_length_b   4.49200417
_cell_length_c   7.69128293
_cell_angle_alpha   72.71177638
_cell_angle_beta   72.71177729
_cell_angle_gamma   60.03361150
_symmetry_Int_Tables_number   1
_chemical_formula_structural   CsBe2BO3F2
_chemical_formula_sum   'Cs1 Be2 B1 O3 F2'
_cell_volume   126.28212375
_cell_formula_units_Z   1
loop_
 _symmetry_equiv_pos_site_id
 _symmetry_equiv_pos_as_xyz
  1  'x, y, z'
loop_
 _atom_site_type_symbol
 _atom_site_label
 _atom_site_symmetry_multiplicity
 _atom_site_fract_x
 _atom_site_fract_y
 _atom_site_fract_z
 _atom_site_occupancy
  F  F0  1  0.249401  0.276457  0.208154  1
  O  O1  1  0.496144  0.198282  0.496572  1
  F  F2  1  0.723543  0.750599  0.791846  1
  Be  Be3  1  0.800555  0.814569  0.577208  1
  Be  Be4  1  0.185431  0.199445  0.422792  1
  B  B5  1  0.494498  0.505502  0.500000  1
  Cs  Cs6  1  0.989076  0.010924  1.000000  1
  O  O7  1  0.186634  0.813366  0.500000  1
  O  O8  1  0.801718  0.503856  0.503428  1
