# generated using pymatgen
data_Cs5CeCu2(NO2)12
_symmetry_space_group_name_H-M   'P 1'
_cell_length_a   11.28883200
_cell_length_b   11.28883200
_cell_length_c   11.28883200
_cell_angle_alpha   90.00000000
_cell_angle_beta   90.00000000
_cell_angle_gamma   90.00000000
_symmetry_Int_Tables_number   1
_chemical_formula_structural   Cs5CeCu2(NO2)12
_chemical_formula_sum   'Cs10 Ce2 Cu4 N24 O48'
_cell_volume   1438.62310100
_cell_formula_units_Z   2
loop_
 _symmetry_equiv_pos_site_id
 _symmetry_equiv_pos_as_xyz
  1  'x, y, z'
loop_
 _atom_site_type_symbol
 _atom_site_label
 _atom_site_symmetry_multiplicity
 _atom_site_fract_x
 _atom_site_fract_y
 _atom_site_fract_z
 _atom_site_occupancy
  Cs  Cs0  1  0.500000  0.500000  0.000000  1
  Cs  Cs1  1  0.500000  0.000000  0.500000  1
  Cs  Cs2  1  0.250000  0.750000  0.750000  1
  Cs  Cs3  1  0.750000  0.250000  0.250000  1
  Cs  Cs4  1  0.750000  0.250000  0.750000  1
  Cs  Cs5  1  0.000000  0.000000  0.000000  1
  Cs  Cs6  1  0.750000  0.750000  0.250000  1
  Cs  Cs7  1  0.250000  0.750000  0.250000  1
  Cs  Cs8  1  0.000000  0.500000  0.500000  1
  Cs  Cs9  1  0.250000  0.250000  0.750000  1
  Ce  Ce10  1  0.250000  0.250000  0.250000  1
  Ce  Ce11  1  0.750000  0.750000  0.750000  1
  Cu  Cu12  1  0.000000  0.000000  0.500000  1
  Cu  Cu13  1  0.500000  0.000000  0.000000  1
  Cu  Cu14  1  0.000000  0.500000  0.000000  1
  Cu  Cu15  1  0.500000  0.500000  0.500000  1
  N  N16  1  0.510420  0.508935  0.689537  1
  N  N17  1  0.810463  0.989580  0.508935  1
  N  N18  1  0.689537  0.989580  0.991065  1
  N  N19  1  0.508935  0.810463  0.989580  1
  N  N20  1  0.989580  0.991065  0.689537  1
  N  N21  1  0.008935  0.310463  0.010420  1
  N  N22  1  0.310463  0.010420  0.008935  1
  N  N23  1  0.810463  0.510420  0.991065  1
  N  N24  1  0.508935  0.689537  0.510420  1
  N  N25  1  0.010420  0.491065  0.189537  1
  N  N26  1  0.991065  0.810463  0.510420  1
  N  N27  1  0.489580  0.491065  0.310463  1
  N  N28  1  0.510420  0.991065  0.810463  1
  N  N29  1  0.008935  0.189537  0.489580  1
  N  N30  1  0.689537  0.510420  0.508935  1
  N  N31  1  0.491065  0.189537  0.010420  1
  N  N32  1  0.491065  0.310463  0.489580  1
  N  N33  1  0.189537  0.010420  0.491065  1
  N  N34  1  0.991065  0.689537  0.989580  1
  N  N35  1  0.989580  0.508935  0.810463  1
  N  N36  1  0.489580  0.008935  0.189537  1
  N  N37  1  0.010420  0.008935  0.310463  1
  N  N38  1  0.189537  0.489580  0.008935  1
  N  N39  1  0.310463  0.489580  0.491065  1
  O  O40  1  0.500417  0.243150  0.913487  1
  O  O41  1  0.000417  0.743150  0.086513  1
  O  O42  1  0.413487  0.000417  0.756850  1
  O  O43  1  0.256850  0.586513  0.500417  1
  O  O44  1  0.913487  0.500417  0.243150  1
  O  O45  1  0.247121  0.099499  0.453269  1
  O  O46  1  0.400501  0.453269  0.252879  1
  O  O47  1  0.953269  0.752879  0.599499  1
  O  O48  1  0.586513  0.999583  0.243150  1
  O  O49  1  0.046731  0.247121  0.400501  1
  O  O50  1  0.086513  0.000417  0.743150  1
  O  O51  1  0.400501  0.046731  0.247121  1
  O  O52  1  0.756850  0.413487  0.000417  1
  O  O53  1  0.900501  0.953269  0.747121  1
  O  O54  1  0.046731  0.252879  0.099499  1
  O  O55  1  0.913487  0.999583  0.256850  1
  O  O56  1  0.900501  0.546731  0.752879  1
  O  O57  1  0.243150  0.913487  0.500417  1
  O  O58  1  0.086513  0.499583  0.756850  1
  O  O59  1  0.099499  0.046731  0.252879  1
  O  O60  1  0.546731  0.752879  0.900501  1
  O  O61  1  0.243150  0.586513  0.999583  1
  O  O62  1  0.247121  0.400501  0.046731  1
  O  O63  1  0.756850  0.086513  0.499583  1
  O  O64  1  0.000417  0.756850  0.413487  1
  O  O65  1  0.252879  0.400501  0.453269  1
  O  O66  1  0.413487  0.499583  0.743150  1
  O  O67  1  0.999583  0.243150  0.586513  1
  O  O68  1  0.586513  0.500417  0.256850  1
  O  O69  1  0.546731  0.747121  0.599499  1
  O  O70  1  0.752879  0.599499  0.953269  1
  O  O71  1  0.599499  0.953269  0.752879  1
  O  O72  1  0.256850  0.913487  0.999583  1
  O  O73  1  0.747121  0.900501  0.953269  1
  O  O74  1  0.743150  0.086513  0.000417  1
  O  O75  1  0.500417  0.256850  0.586513  1
  O  O76  1  0.752879  0.900501  0.546731  1
  O  O77  1  0.743150  0.413487  0.499583  1
  O  O78  1  0.999583  0.256850  0.913487  1
  O  O79  1  0.499583  0.756850  0.086513  1
  O  O80  1  0.099499  0.453269  0.247121  1
  O  O81  1  0.252879  0.099499  0.046731  1
  O  O82  1  0.453269  0.252879  0.400501  1
  O  O83  1  0.599499  0.546731  0.747121  1
  O  O84  1  0.499583  0.743150  0.413487  1
  O  O85  1  0.953269  0.747121  0.900501  1
  O  O86  1  0.747121  0.599499  0.546731  1
  O  O87  1  0.453269  0.247121  0.099499  1
