# generated using pymatgen
data_S3(NO)2
_symmetry_space_group_name_H-M   'P 1'
_cell_length_a   4.74164849
_cell_length_b   7.29469537
_cell_length_c   9.30522952
_cell_angle_alpha   96.06709419
_cell_angle_beta   104.82811245
_cell_angle_gamma   89.98321485
_symmetry_Int_Tables_number   1
_chemical_formula_structural   S3(NO)2
_chemical_formula_sum   'S6 N4 O4'
_cell_volume   309.27634239
_cell_formula_units_Z   2
loop_
 _symmetry_equiv_pos_site_id
 _symmetry_equiv_pos_as_xyz
  1  'x, y, z'
loop_
 _atom_site_type_symbol
 _atom_site_label
 _atom_site_symmetry_multiplicity
 _atom_site_fract_x
 _atom_site_fract_y
 _atom_site_fract_z
 _atom_site_occupancy
  S  S0  1  0.893952  0.633006  0.307872  1
  S  S1  1  0.856252  0.750089  0.000121  1
  S  S2  1  0.143748  0.249911  0.999879  1
  S  S3  1  0.106048  0.366994  0.692128  1
  S  S4  1  0.586488  0.867038  0.692015  1
  S  S5  1  0.413513  0.132962  0.307985  1
  N  N6  1  0.788846  0.374491  0.656541  1
  N  N7  1  0.211154  0.625509  0.343459  1
  N  N8  1  0.868197  0.874508  0.656630  1
  N  N9  1  0.131803  0.125492  0.343370  1
  O  O10  1  0.696075  0.696629  0.125720  1
  O  O11  1  0.570789  0.803517  0.874054  1
  O  O12  1  0.303925  0.303371  0.874280  1
  O  O13  1  0.429211  0.196483  0.125946  1
