# generated using pymatgen
data_TaF5
_symmetry_space_group_name_H-M   'P 1'
_cell_length_a   5.25134689
_cell_length_b   8.88427780
_cell_length_c   8.88427775
_cell_angle_alpha   112.49509872
_cell_angle_beta   93.34336846
_cell_angle_gamma   93.34337609
_symmetry_Int_Tables_number   1
_chemical_formula_structural   TaF5
_chemical_formula_sum   'Ta4 F20'
_cell_volume   380.83768751
_cell_formula_units_Z   4
loop_
 _symmetry_equiv_pos_site_id
 _symmetry_equiv_pos_as_xyz
  1  'x, y, z'
loop_
 _atom_site_type_symbol
 _atom_site_label
 _atom_site_symmetry_multiplicity
 _atom_site_fract_x
 _atom_site_fract_y
 _atom_site_fract_z
 _atom_site_occupancy
  Ta  Ta0  1  0.500000  0.799743  0.200257  1
  Ta  Ta1  1  0.751477  0.744110  0.744110  1
  Ta  Ta2  1  0.248523  0.255890  0.255890  1
  Ta  Ta3  1  0.500000  0.200257  0.799743  1
  F  F4  1  0.150331  0.268950  0.457464  1
  F  F5  1  0.594171  0.332837  0.332837  1
  F  F6  1  0.150331  0.457464  0.268950  1
  F  F7  1  0.379422  0.025354  0.214651  1
  F  F8  1  0.405829  0.667163  0.667163  1
  F  F9  1  0.849669  0.542536  0.731050  1
  F  F10  1  0.049079  0.867822  0.867822  1
  F  F11  1  0.620578  0.974646  0.785349  1
  F  F12  1  0.624783  0.166755  0.599104  1
  F  F13  1  0.816915  0.922697  0.288739  1
  F  F14  1  0.624783  0.599104  0.166755  1
  F  F15  1  0.375217  0.833245  0.400896  1
  F  F16  1  0.620578  0.785349  0.974646  1
  F  F17  1  0.183085  0.711261  0.077303  1
  F  F18  1  0.379422  0.214651  0.025354  1
  F  F19  1  0.375217  0.400896  0.833245  1
  F  F20  1  0.950921  0.132178  0.132178  1
  F  F21  1  0.849669  0.731050  0.542536  1
  F  F22  1  0.816915  0.288739  0.922697  1
  F  F23  1  0.183085  0.077303  0.711261  1
