# generated using pymatgen
data_K2Si3SnO9
_symmetry_space_group_name_H-M   'P 1'
_cell_length_a   7.78423911
_cell_length_b   7.78423947
_cell_length_c   7.78423958
_cell_angle_alpha   83.14404284
_cell_angle_beta   83.14404255
_cell_angle_gamma   83.14404643
_symmetry_Int_Tables_number   1
_chemical_formula_structural   K2Si3SnO9
_chemical_formula_sum   'K4 Si6 Sn2 O18'
_cell_volume   462.30818785
_cell_formula_units_Z   2
loop_
 _symmetry_equiv_pos_site_id
 _symmetry_equiv_pos_as_xyz
  1  'x, y, z'
loop_
 _atom_site_type_symbol
 _atom_site_label
 _atom_site_symmetry_multiplicity
 _atom_site_fract_x
 _atom_site_fract_y
 _atom_site_fract_z
 _atom_site_occupancy
  K  K0  1  0.773199  0.226340  0.989476  1
  K  K1  1  0.490031  0.490031  0.490031  1
  K  K2  1  0.989476  0.773199  0.226340  1
  K  K3  1  0.226340  0.989476  0.773199  1
  Si  Si4  1  0.018516  0.445541  0.548875  1
  Si  Si5  1  0.548875  0.018516  0.445541  1
  Si  Si6  1  0.895516  0.101834  0.512591  1
  Si  Si7  1  0.101834  0.512591  0.895516  1
  Si  Si8  1  0.445541  0.548875  0.018516  1
  Si  Si9  1  0.512591  0.895516  0.101834  1
  Sn  Sn10  1  0.745289  0.745289  0.745289  1
  Sn  Sn11  1  0.226662  0.226662  0.226662  1
  O  O12  1  0.322977  0.009216  0.099864  1
  O  O13  1  0.357006  0.126461  0.443589  1
  O  O14  1  0.636169  0.920819  0.919681  1
  O  O15  1  0.591074  0.547950  0.850388  1
  O  O16  1  0.687186  0.153819  0.482045  1
  O  O17  1  0.443589  0.357006  0.126461  1
  O  O18  1  0.099864  0.322977  0.009216  1
  O  O19  1  0.919681  0.636169  0.920819  1
  O  O20  1  0.920819  0.919681  0.636169  1
  O  O21  1  0.009216  0.099864  0.322977  1
  O  O22  1  0.622515  0.952816  0.251856  1
  O  O23  1  0.547950  0.850388  0.591074  1
  O  O24  1  0.126461  0.443589  0.357006  1
  O  O25  1  0.251856  0.622515  0.952816  1
  O  O26  1  0.850388  0.591074  0.547950  1
  O  O27  1  0.153819  0.482045  0.687186  1
  O  O28  1  0.482045  0.687186  0.153819  1
  O  O29  1  0.952816  0.251856  0.622515  1
