# generated using pymatgen
data_Sc2B6Rh
_symmetry_space_group_name_H-M   'P 1'
_cell_length_a   3.46621946
_cell_length_b   8.91936980
_cell_length_c   11.21571398
_cell_angle_alpha   90.00496173
_cell_angle_beta   90.00000000
_cell_angle_gamma   90.00000000
_symmetry_Int_Tables_number   1
_chemical_formula_structural   Sc2B6Rh
_chemical_formula_sum   'Sc8 B24 Rh4'
_cell_volume   346.75054333
_cell_formula_units_Z   4
loop_
 _symmetry_equiv_pos_site_id
 _symmetry_equiv_pos_as_xyz
  1  'x, y, z'
loop_
 _atom_site_type_symbol
 _atom_site_label
 _atom_site_symmetry_multiplicity
 _atom_site_fract_x
 _atom_site_fract_y
 _atom_site_fract_z
 _atom_site_occupancy
  Sc  Sc0  1  0.000000  0.944725  0.373787  1
  Sc  Sc1  1  0.000000  0.055252  0.626240  1
  Sc  Sc2  1  0.000000  0.555224  0.873750  1
  Sc  Sc3  1  -0.000000  0.181611  0.914519  1
  Sc  Sc4  1  -0.000000  0.818395  0.085509  1
  Sc  Sc5  1  0.000000  0.681677  0.585576  1
  Sc  Sc6  1  -0.000000  0.318336  0.414432  1
  Sc  Sc7  1  0.000000  0.444778  0.126228  1
  B  B8  1  0.500000  0.367950  0.818739  1
  B  B9  1  0.500000  0.980973  0.212612  1
  B  B10  1  0.500000  0.554794  0.437432  1
  B  B11  1  0.500000  0.297185  0.237977  1
  B  B12  1  0.500000  0.202738  0.737937  1
  B  B13  1  0.500000  0.102101  0.472161  1
  B  B14  1  0.500000  0.797277  0.262092  1
  B  B15  1  0.500000  0.445216  0.562580  1
  B  B16  1  0.500000  0.246578  0.578184  1
  B  B17  1  0.500000  0.480930  0.287160  1
  B  B18  1  0.500000  0.702826  0.762028  1
  B  B19  1  0.500000  0.753442  0.421816  1
  B  B20  1  0.500000  0.519081  0.712827  1
  B  B21  1  0.500000  0.897879  0.527818  1
  B  B22  1  0.500000  0.054634  0.062581  1
  B  B23  1  0.500000  0.602179  0.027829  1
  B  B24  1  0.500000  0.746733  0.921867  1
  B  B25  1  0.500000  0.019016  0.787364  1
  B  B26  1  0.500000  0.397813  0.972180  1
  B  B27  1  0.500000  0.945357  0.937402  1
  B  B28  1  0.500000  0.632043  0.181271  1
  B  B29  1  0.500000  0.253265  0.078116  1
  B  B30  1  0.500000  0.867910  0.681301  1
  B  B31  1  0.500000  0.132102  0.318714  1
  Rh  Rh32  1  0.000000  0.142021  0.180559  1
  Rh  Rh33  1  0.000000  0.358043  0.680578  1
  Rh  Rh34  1  -0.000000  0.858001  0.819421  1
  Rh  Rh35  1  -0.000000  0.641914  0.319414  1
