# generated using pymatgen
data_RbU2SbS8
_symmetry_space_group_name_H-M   'P 1'
_cell_length_a   6.86095015
_cell_length_b   6.86094991
_cell_length_c   7.82768962
_cell_angle_alpha   98.60630293
_cell_angle_beta   98.60630247
_cell_angle_gamma   109.12000673
_symmetry_Int_Tables_number   1
_chemical_formula_structural   RbU2SbS8
_chemical_formula_sum   'Rb1 U2 Sb1 S8'
_cell_volume   336.34990427
_cell_formula_units_Z   1
loop_
 _symmetry_equiv_pos_site_id
 _symmetry_equiv_pos_as_xyz
  1  'x, y, z'
loop_
 _atom_site_type_symbol
 _atom_site_label
 _atom_site_symmetry_multiplicity
 _atom_site_fract_x
 _atom_site_fract_y
 _atom_site_fract_z
 _atom_site_occupancy
  Rb  Rb0  1  0.541433  0.541433  0.160172  1
  U  U1  1  0.423506  0.923010  0.693362  1
  U  U2  1  0.923010  0.423506  0.693362  1
  Sb  Sb3  1  0.991845  0.991845  0.967288  1
  S  S4  1  0.216123  0.515746  0.475536  1
  S  S5  1  0.702603  0.032267  0.466804  1
  S  S6  1  0.744412  0.226972  0.938410  1
  S  S7  1  0.696110  0.696110  0.768256  1
  S  S8  1  0.032267  0.702603  0.466804  1
  S  S9  1  0.189272  0.189272  0.771362  1
  S  S10  1  0.515746  0.216123  0.475536  1
  S  S11  1  0.226972  0.744412  0.938410  1
