# generated using pymatgen
data_Na2As4O11
_symmetry_space_group_name_H-M   'P 1'
_cell_length_a   6.25954188
_cell_length_b   6.25954154
_cell_length_c   11.80668561
_cell_angle_alpha   79.97725112
_cell_angle_beta   79.97725474
_cell_angle_gamma   84.18929906
_symmetry_Int_Tables_number   1
_chemical_formula_structural   Na2As4O11
_chemical_formula_sum   'Na4 As8 O22'
_cell_volume   447.39328452
_cell_formula_units_Z   2
loop_
 _symmetry_equiv_pos_site_id
 _symmetry_equiv_pos_as_xyz
  1  'x, y, z'
loop_
 _atom_site_type_symbol
 _atom_site_label
 _atom_site_symmetry_multiplicity
 _atom_site_fract_x
 _atom_site_fract_y
 _atom_site_fract_z
 _atom_site_occupancy
  Na  Na0  1  0.539226  0.732451  0.534271  1
  Na  Na1  1  0.732451  0.539226  0.034271  1
  Na  Na2  1  0.267549  0.460774  0.965729  1
  Na  Na3  1  0.460774  0.267549  0.465729  1
  As  As4  1  0.042901  0.465281  0.665308  1
  As  As5  1  0.000106  0.917626  0.118304  1
  As  As6  1  0.082374  0.999894  0.381696  1
  As  As7  1  0.465281  0.042901  0.165308  1
  As  As8  1  0.917626  0.000106  0.618304  1
  As  As9  1  0.957099  0.534719  0.334692  1
  As  As10  1  0.999894  0.082374  0.881696  1
  As  As11  1  0.534719  0.957099  0.834692  1
  O  O12  1  0.691443  0.530473  0.380962  1
  O  O13  1  0.131640  0.301043  0.354961  1
  O  O14  1  0.622332  0.028803  0.683374  1
  O  O15  1  0.301043  0.131640  0.854961  1
  O  O16  1  0.695797  0.088411  0.904467  1
  O  O17  1  0.044515  0.955485  0.750000  1
  O  O18  1  0.814165  0.028359  0.476138  1
  O  O19  1  0.955485  0.044515  0.250000  1
  O  O20  1  0.698957  0.868360  0.145039  1
  O  O21  1  0.971641  0.185835  0.023862  1
  O  O22  1  0.469527  0.308557  0.119038  1
  O  O23  1  0.028803  0.622332  0.183374  1
  O  O24  1  0.308557  0.469527  0.619038  1
  O  O25  1  0.530473  0.691443  0.880962  1
  O  O26  1  0.304203  0.911589  0.095533  1
  O  O27  1  0.185835  0.971641  0.523862  1
  O  O28  1  0.088411  0.695797  0.404467  1
  O  O29  1  0.911589  0.304203  0.595533  1
  O  O30  1  0.971197  0.377668  0.816626  1
  O  O31  1  0.377668  0.971197  0.316626  1
  O  O32  1  0.868360  0.698957  0.645039  1
  O  O33  1  0.028359  0.814165  0.976138  1
