# generated using pymatgen
data_Na4CO4
_symmetry_space_group_name_H-M   'P 1'
_cell_length_a   4.83239799
_cell_length_b   4.83243361
_cell_length_c   5.54918523
_cell_angle_alpha   114.98670162
_cell_angle_beta   114.98660144
_cell_angle_gamma   90.58248599
_symmetry_Int_Tables_number   1
_chemical_formula_structural   Na4CO4
_chemical_formula_sum   'Na4 C1 O4'
_cell_volume   103.62120604
_cell_formula_units_Z   1
loop_
 _symmetry_equiv_pos_site_id
 _symmetry_equiv_pos_as_xyz
  1  'x, y, z'
loop_
 _atom_site_type_symbol
 _atom_site_label
 _atom_site_symmetry_multiplicity
 _atom_site_fract_x
 _atom_site_fract_y
 _atom_site_fract_z
 _atom_site_occupancy
  C  C0  1  0.103984  0.103984  0.440486  1
  O  O1  1  0.024891  0.024893  0.629735  1
  O  O2  1  0.842264  0.180386  0.248283  1
  O  O3  1  0.369471  0.369471  0.635130  1
  Na  Na4  1  0.950135  0.550881  0.725789  1
  Na  Na5  1  0.262792  0.262786  0.150608  1
  Na  Na6  1  0.663031  0.663038  0.150555  1
  O  O7  1  0.180386  0.842265  0.248284  1
  Na  Na8  1  0.550885  0.950137  0.725790  1
