# generated using pymatgen
data_Ba(Fe2O3)9
_symmetry_space_group_name_H-M   'P 1'
_cell_length_a   5.93243048
_cell_length_b   5.93243015
_cell_length_c   32.61487560
_cell_angle_alpha   90.00000000
_cell_angle_beta   90.00000000
_cell_angle_gamma   120.00000184
_symmetry_Int_Tables_number   1
_chemical_formula_structural   Ba(Fe2O3)9
_chemical_formula_sum   'Ba2 Fe36 O54'
_cell_volume   994.05780810
_cell_formula_units_Z   2
loop_
 _symmetry_equiv_pos_site_id
 _symmetry_equiv_pos_as_xyz
  1  'x, y, z'
loop_
 _atom_site_type_symbol
 _atom_site_label
 _atom_site_symmetry_multiplicity
 _atom_site_fract_x
 _atom_site_fract_y
 _atom_site_fract_z
 _atom_site_occupancy
  Ba  Ba0  1  0.000000  0.000000  0.750000  1
  Ba  Ba1  1  0.000000  0.000000  0.250000  1
  Fe  Fe2  1  0.666667  0.333333  0.599287  1
  Fe  Fe3  1  0.333541  0.166770  0.149414  1
  Fe  Fe4  1  0.000000  0.000000  0.942614  1
  Fe  Fe5  1  0.833230  0.166770  0.149414  1
  Fe  Fe6  1  0.333333  0.666667  0.750000  1
  Fe  Fe7  1  0.000000  0.000000  0.557386  1
  Fe  Fe8  1  0.166770  0.333541  0.649414  1
  Fe  Fe9  1  0.666667  0.333333  0.900713  1
  Fe  Fe10  1  0.333333  0.666667  0.206893  1
  Fe  Fe11  1  0.833230  0.166770  0.350586  1
  Fe  Fe12  1  0.500000  0.000000  0.500000  1
  Fe  Fe13  1  0.000000  0.500000  0.500000  1
  Fe  Fe14  1  0.333333  0.666667  0.099287  1
  Fe  Fe15  1  0.500000  0.500000  0.000000  1
  Fe  Fe16  1  0.166770  0.833230  0.850586  1
  Fe  Fe17  1  0.333333  0.666667  0.400713  1
  Fe  Fe18  1  0.666667  0.333333  0.793107  1
  Fe  Fe19  1  0.000000  0.000000  0.442614  1
  Fe  Fe20  1  0.333541  0.166770  0.350586  1
  Fe  Fe21  1  0.666667  0.333333  0.425284  1
  Fe  Fe22  1  0.500000  0.000000  0.000000  1
  Fe  Fe23  1  0.333333  0.666667  0.574716  1
  Fe  Fe24  1  0.666667  0.333333  0.250000  1
  Fe  Fe25  1  0.500000  0.500000  0.500000  1
  Fe  Fe26  1  0.833230  0.666459  0.350586  1
  Fe  Fe27  1  0.333333  0.666667  0.925284  1
  Fe  Fe28  1  0.666459  0.833230  0.850586  1
  Fe  Fe29  1  0.833230  0.666459  0.149414  1
  Fe  Fe30  1  0.000000  0.000000  0.057386  1
  Fe  Fe31  1  0.666667  0.333333  0.706893  1
  Fe  Fe32  1  0.000000  0.500000  0.000000  1
  Fe  Fe33  1  0.166770  0.833230  0.649414  1
  Fe  Fe34  1  0.666459  0.833230  0.649414  1
  Fe  Fe35  1  0.166770  0.333541  0.850586  1
  Fe  Fe36  1  0.666667  0.333333  0.074716  1
  Fe  Fe37  1  0.333333  0.666667  0.293107  1
  O  O38  1  0.319168  0.159584  0.822152  1
  O  O39  1  0.487016  0.974032  0.613557  1
  O  O40  1  0.000000  0.000000  0.114620  1
  O  O41  1  0.175236  0.824764  0.535266  1
  O  O42  1  0.649528  0.824764  0.535266  1
  O  O43  1  0.680832  0.840416  0.177848  1
  O  O44  1  0.487016  0.974032  0.886443  1
  O  O45  1  0.974032  0.487016  0.386443  1
  O  O46  1  0.482948  0.965896  0.250000  1
  O  O47  1  0.840416  0.159584  0.677848  1
  O  O48  1  0.680832  0.840416  0.322152  1
  O  O49  1  0.512984  0.487016  0.113557  1
  O  O50  1  0.487016  0.512984  0.613557  1
  O  O51  1  0.512984  0.487016  0.386443  1
  O  O52  1  0.000000  0.000000  0.385380  1
  O  O53  1  0.666667  0.333333  0.320022  1
  O  O54  1  0.666667  0.333333  0.179978  1
  O  O55  1  0.512984  0.025968  0.386443  1
  O  O56  1  0.649528  0.824764  0.964734  1
  O  O57  1  0.824764  0.649528  0.464734  1
  O  O58  1  0.175236  0.824764  0.964734  1
  O  O59  1  0.965896  0.482948  0.750000  1
  O  O60  1  0.159584  0.840416  0.322152  1
  O  O61  1  0.319168  0.159584  0.677848  1
  O  O62  1  0.512984  0.025968  0.113557  1
  O  O63  1  0.350472  0.175236  0.464734  1
  O  O64  1  0.000000  0.000000  0.614620  1
  O  O65  1  0.159584  0.840416  0.177848  1
  O  O66  1  0.034104  0.517052  0.250000  1
  O  O67  1  0.482948  0.517052  0.250000  1
  O  O68  1  0.824764  0.649528  0.035266  1
  O  O69  1  0.666667  0.333333  0.964633  1
  O  O70  1  0.159584  0.319168  0.177848  1
  O  O71  1  0.487016  0.512984  0.886443  1
  O  O72  1  0.824764  0.175236  0.464734  1
  O  O73  1  0.840416  0.680832  0.822152  1
  O  O74  1  0.333333  0.666667  0.820022  1
  O  O75  1  0.159584  0.319168  0.322152  1
  O  O76  1  0.175236  0.350472  0.535266  1
  O  O77  1  0.517052  0.034104  0.750000  1
  O  O78  1  0.175236  0.350472  0.964734  1
  O  O79  1  0.333333  0.666667  0.679978  1
  O  O80  1  0.840416  0.680832  0.677848  1
  O  O81  1  0.000000  0.000000  0.885380  1
  O  O82  1  0.824764  0.175236  0.035266  1
  O  O83  1  0.333333  0.666667  0.035367  1
  O  O84  1  0.025968  0.512984  0.613557  1
  O  O85  1  0.666667  0.333333  0.535367  1
  O  O86  1  0.517052  0.482948  0.750000  1
  O  O87  1  0.350472  0.175236  0.035266  1
  O  O88  1  0.333333  0.666667  0.464633  1
  O  O89  1  0.025968  0.512984  0.886443  1
  O  O90  1  0.974032  0.487016  0.113557  1
  O  O91  1  0.840416  0.159584  0.822152  1
