# generated using pymatgen
data_Rb3Al2(PO4)3
_symmetry_space_group_name_H-M   'P 1'
_cell_length_a   8.77818472
_cell_length_b   8.95670387
_cell_length_c   9.73310429
_cell_angle_alpha   90.00000000
_cell_angle_beta   116.80431231
_cell_angle_gamma   90.00000000
_symmetry_Int_Tables_number   1
_chemical_formula_structural   Rb3Al2(PO4)3
_chemical_formula_sum   'Rb6 Al4 P6 O24'
_cell_volume   683.02685202
_cell_formula_units_Z   2
loop_
 _symmetry_equiv_pos_site_id
 _symmetry_equiv_pos_as_xyz
  1  'x, y, z'
loop_
 _atom_site_type_symbol
 _atom_site_label
 _atom_site_symmetry_multiplicity
 _atom_site_fract_x
 _atom_site_fract_y
 _atom_site_fract_z
 _atom_site_occupancy
  Rb  Rb0  1  0.932357  0.473543  0.770609  1
  Rb  Rb1  1  0.838252  0.973543  0.770609  1
  Rb  Rb2  1  0.357352  0.178227  0.000000  1
  Rb  Rb3  1  0.161748  0.473543  0.229391  1
  Rb  Rb4  1  0.067643  0.973543  0.229391  1
  Rb  Rb5  1  0.642648  0.678227  1.000000  1
  Al  Al6  1  0.514171  0.819025  0.334791  1
  Al  Al7  1  0.820620  0.319025  0.334791  1
  Al  Al8  1  0.485829  0.319025  0.665209  1
  Al  Al9  1  0.179380  0.819025  0.665209  1
  P  P10  1  0.875783  0.659148  0.409698  1
  P  P11  1  0.765805  0.252968  0.000000  1
  P  P12  1  0.234195  0.752968  1.000000  1
  P  P13  1  0.124217  0.159148  0.590302  1
  P  P14  1  0.466085  0.659148  0.590302  1
  P  P15  1  0.533915  0.159148  0.409698  1
  O  O16  1  0.774727  0.349715  0.141899  1
  O  O17  1  0.956223  0.688142  0.304449  1
  O  O18  1  0.648803  0.229388  0.343167  1
  O  O19  1  0.580806  0.989665  0.433073  1
  O  O20  1  0.016139  0.220238  0.422780  1
  O  O21  1  0.593359  0.220238  0.577220  1
  O  O22  1  0.225273  0.849715  0.858101  1
  O  O23  1  0.304881  0.597863  0.000000  1
  O  O24  1  0.367172  0.849715  0.141899  1
  O  O25  1  0.632828  0.349715  0.858101  1
  O  O26  1  0.419194  0.489665  0.566927  1
  O  O27  1  0.351197  0.729388  0.656833  1
  O  O28  1  0.348226  0.188142  0.304449  1
  O  O29  1  0.060593  0.756333  1.000000  1
  O  O30  1  0.305636  0.229388  0.656833  1
  O  O31  1  0.695119  0.097863  1.000000  1
  O  O32  1  0.983861  0.720238  0.577220  1
  O  O33  1  0.939407  0.256333  0.000000  1
  O  O34  1  0.406641  0.720238  0.422780  1
  O  O35  1  0.147733  0.989665  0.566927  1
  O  O36  1  0.852267  0.489665  0.433073  1
  O  O37  1  0.651774  0.688142  0.695551  1
  O  O38  1  0.043777  0.188142  0.695551  1
  O  O39  1  0.694364  0.729388  0.343167  1
