# generated using pymatgen
data_K2Ag4Pd3(NO2)12
_symmetry_space_group_name_H-M   'P 1'
_cell_length_a   7.33485789
_cell_length_b   7.82362184
_cell_length_c   24.07771709
_cell_angle_alpha   90.00000000
_cell_angle_beta   90.00000000
_cell_angle_gamma   99.12016161
_symmetry_Int_Tables_number   1
_chemical_formula_structural   K2Ag4Pd3(NO2)12
_chemical_formula_sum   'K4 Ag8 Pd6 N24 O48'
_cell_volume   1364.23614376
_cell_formula_units_Z   2
loop_
 _symmetry_equiv_pos_site_id
 _symmetry_equiv_pos_as_xyz
  1  'x, y, z'
loop_
 _atom_site_type_symbol
 _atom_site_label
 _atom_site_symmetry_multiplicity
 _atom_site_fract_x
 _atom_site_fract_y
 _atom_site_fract_z
 _atom_site_occupancy
  K  K0  1  0.096666  0.422925  0.865935  1
  K  K1  1  0.903334  0.577075  0.134065  1
  K  K2  1  0.596666  0.922925  0.634065  1
  K  K3  1  0.403334  0.077075  0.365935  1
  Ag  Ag4  1  0.373303  0.608533  0.473558  1
  Ag  Ag5  1  0.126697  0.891467  0.973558  1
  Ag  Ag6  1  0.873303  0.108533  0.026442  1
  Ag  Ag7  1  0.891094  0.324787  0.318739  1
  Ag  Ag8  1  0.608906  0.175213  0.818739  1
  Ag  Ag9  1  0.626697  0.391467  0.526442  1
  Ag  Ag10  1  0.108906  0.675213  0.681261  1
  Ag  Ag11  1  0.391094  0.824787  0.181261  1
  Pd  Pd12  1  0.112208  0.274642  0.676119  1
  Pd  Pd13  1  0.387792  0.225358  0.176119  1
  Pd  Pd14  1  0.612208  0.774642  0.823881  1
  Pd  Pd15  1  0.500000  0.500000  0.000000  1
  Pd  Pd16  1  0.887792  0.725358  0.323881  1
  Pd  Pd17  1  0.000000  0.000000  0.500000  1
  N  N18  1  0.619426  0.400346  0.932256  1
  N  N19  1  0.201941  0.218148  0.494351  1
  N  N20  1  0.701941  0.718148  0.005649  1
  N  N21  1  0.789939  0.700877  0.766030  1
  N  N22  1  0.069233  0.657135  0.383518  1
  N  N23  1  0.430767  0.842865  0.883517  1
  N  N24  1  0.392809  0.710843  0.769977  1
  N  N25  1  0.607191  0.289157  0.230023  1
  N  N26  1  0.880574  0.099654  0.432256  1
  N  N27  1  0.664806  0.654516  0.376809  1
  N  N28  1  0.835194  0.845484  0.876809  1
  N  N29  1  0.289939  0.200877  0.733970  1
  N  N30  1  0.892809  0.210843  0.730023  1
  N  N31  1  0.210061  0.299123  0.233970  1
  N  N32  1  0.380574  0.599654  0.067744  1
  N  N33  1  0.335194  0.345485  0.623191  1
  N  N34  1  0.119426  0.900346  0.567744  1
  N  N35  1  0.569233  0.157135  0.116483  1
  N  N36  1  0.798059  0.781852  0.505649  1
  N  N37  1  0.710061  0.799123  0.266030  1
  N  N38  1  0.107191  0.789157  0.269977  1
  N  N39  1  0.164806  0.154516  0.123191  1
  N  N40  1  0.930767  0.342865  0.616483  1
  N  N41  1  0.298059  0.281852  0.994351  1
  O  O42  1  0.083731  0.500256  0.388474  1
  O  O43  1  0.834864  0.636748  0.492040  1
  O  O44  1  0.343618  0.295804  0.774600  1
  O  O45  1  0.583731  0.000256  0.111526  1
  O  O46  1  0.916269  0.499744  0.611526  1
  O  O47  1  0.332274  0.732873  0.912774  1
  O  O48  1  0.158412  0.441188  0.227542  1
  O  O49  1  0.167726  0.767127  0.412774  1
  O  O50  1  0.658412  0.941188  0.272458  1
  O  O51  1  0.913766  0.730198  0.898284  1
  O  O52  1  0.413766  0.230198  0.601716  1
  O  O53  1  0.667726  0.267127  0.087226  1
  O  O54  1  0.656382  0.704196  0.225400  1
  O  O55  1  0.464204  0.604976  0.113460  1
  O  O56  1  0.384779  0.500168  0.611175  1
  O  O57  1  0.358743  0.203790  0.476030  1
  O  O58  1  0.841588  0.558812  0.772458  1
  O  O59  1  0.035796  0.895024  0.613460  1
  O  O60  1  0.765730  0.340551  0.937096  1
  O  O61  1  0.586234  0.769802  0.398284  1
  O  O62  1  0.734270  0.159449  0.437096  1
  O  O63  1  0.165136  0.363252  0.507960  1
  O  O64  1  0.641257  0.796210  0.523970  1
  O  O65  1  0.141257  0.296210  0.976030  1
  O  O66  1  0.417950  0.709342  0.718304  1
  O  O67  1  0.964204  0.104976  0.386540  1
  O  O68  1  0.267826  0.819953  0.288150  1
  O  O69  1  0.843618  0.795804  0.725400  1
  O  O70  1  0.156382  0.204196  0.274600  1
  O  O71  1  0.582050  0.290658  0.281696  1
  O  O72  1  0.334864  0.136748  0.007960  1
  O  O73  1  0.234270  0.659449  0.062904  1
  O  O74  1  0.082050  0.790658  0.218304  1
  O  O75  1  0.341588  0.058812  0.727542  1
  O  O76  1  0.615221  0.499832  0.388825  1
  O  O77  1  0.265730  0.840551  0.562904  1
  O  O78  1  0.917950  0.209342  0.781696  1
  O  O79  1  0.858743  0.703790  0.023970  1
  O  O80  1  0.665136  0.863252  0.992040  1
  O  O81  1  0.732174  0.180047  0.711850  1
  O  O82  1  0.832274  0.232873  0.587226  1
  O  O83  1  0.416269  0.999744  0.888474  1
  O  O84  1  0.884779  0.000168  0.888825  1
  O  O85  1  0.115221  0.999832  0.111175  1
  O  O86  1  0.086234  0.269802  0.101716  1
  O  O87  1  0.535796  0.395024  0.886540  1
  O  O88  1  0.232174  0.680047  0.788150  1
  O  O89  1  0.767826  0.319953  0.211850  1
