# generated using pymatgen
data_SnGeS3
_symmetry_space_group_name_H-M   'P 1'
_cell_length_a   6.91930181
_cell_length_b   7.87961329
_cell_length_c   10.64013181
_cell_angle_alpha   90.00000000
_cell_angle_beta   90.00000000
_cell_angle_gamma   105.37338941
_symmetry_Int_Tables_number   1
_chemical_formula_structural   SnGeS3
_chemical_formula_sum   'Sn4 Ge4 S12'
_cell_volume   559.35781179
_cell_formula_units_Z   4
loop_
 _symmetry_equiv_pos_site_id
 _symmetry_equiv_pos_as_xyz
  1  'x, y, z'
loop_
 _atom_site_type_symbol
 _atom_site_label
 _atom_site_symmetry_multiplicity
 _atom_site_fract_x
 _atom_site_fract_y
 _atom_site_fract_z
 _atom_site_occupancy
  S  S0  1  0.093544  0.945556  0.834769  1
  S  S1  1  0.797424  0.483304  0.232101  1
  S  S2  1  0.702576  0.516696  0.732101  1
  S  S3  1  0.202576  0.516696  0.767899  1
  S  S4  1  0.927076  0.207356  0.479847  1
  S  S5  1  0.572924  0.792644  0.979847  1
  S  S6  1  0.072924  0.792644  0.520153  1
  S  S7  1  0.427076  0.207356  0.020153  1
  S  S8  1  0.906456  0.054444  0.165231  1
  S  S9  1  0.593544  0.945556  0.665231  1
  S  S10  1  0.406456  0.054444  0.334769  1
  S  S11  1  0.297424  0.483304  0.267899  1
  Ge  Ge12  1  0.986042  0.297705  0.280811  1
  Ge  Ge13  1  0.486042  0.297705  0.219189  1
  Ge  Ge14  1  0.013958  0.702295  0.719189  1
  Ge  Ge15  1  0.513958  0.702295  0.780811  1
  Sn  Sn16  1  0.278349  0.117951  0.568957  1
  Sn  Sn17  1  0.221651  0.882049  0.068957  1
  Sn  Sn18  1  0.721651  0.882049  0.431043  1
  Sn  Sn19  1  0.778349  0.117951  0.931043  1
