# generated using pymatgen
data_NbAsPCl13
_symmetry_space_group_name_H-M   'P 1'
_cell_length_a   9.78837130
_cell_length_b   9.78837161
_cell_length_c   12.11085954
_cell_angle_alpha   90.00000000
_cell_angle_beta   90.00000000
_cell_angle_gamma   114.85520083
_symmetry_Int_Tables_number   1
_chemical_formula_structural   NbAsPCl13
_chemical_formula_sum   'Nb2 As2 P2 Cl26'
_cell_volume   1052.88678606
_cell_formula_units_Z   2
loop_
 _symmetry_equiv_pos_site_id
 _symmetry_equiv_pos_as_xyz
  1  'x, y, z'
loop_
 _atom_site_type_symbol
 _atom_site_label
 _atom_site_symmetry_multiplicity
 _atom_site_fract_x
 _atom_site_fract_y
 _atom_site_fract_z
 _atom_site_occupancy
  Nb  Nb0  1  0.794263  0.205737  0.498540  1
  Nb  Nb1  1  0.205737  0.794263  0.998540  1
  As  As2  1  0.452563  0.547437  0.849158  1
  As  As3  1  0.547437  0.452563  0.349158  1
  P  P4  1  0.859149  0.140851  0.037525  1
  P  P5  1  0.140851  0.859149  0.537525  1
  Cl  Cl6  1  0.302410  0.378021  0.372754  1
  Cl  Cl7  1  0.253344  0.746656  0.588267  1
  Cl  Cl8  1  0.550971  0.449029  0.165552  1
  Cl  Cl9  1  0.011964  0.307408  0.612297  1
  Cl  Cl10  1  0.237319  0.065725  0.593171  1
  Cl  Cl11  1  0.746656  0.253344  0.088267  1
  Cl  Cl12  1  0.378021  0.302410  0.872754  1
  Cl  Cl13  1  0.307408  0.011964  0.112297  1
  Cl  Cl14  1  0.692592  0.988036  0.612297  1
  Cl  Cl15  1  0.762681  0.934275  0.093171  1
  Cl  Cl16  1  0.449029  0.550971  0.665552  1
  Cl  Cl17  1  0.860995  0.139005  0.875998  1
  Cl  Cl18  1  0.425027  0.896355  0.882527  1
  Cl  Cl19  1  0.674533  0.325467  0.607522  1
  Cl  Cl20  1  0.087843  0.912157  0.883940  1
  Cl  Cl21  1  0.988036  0.692592  0.112297  1
  Cl  Cl22  1  0.934275  0.762681  0.593171  1
  Cl  Cl23  1  0.065725  0.237319  0.093171  1
  Cl  Cl24  1  0.325467  0.674533  0.107522  1
  Cl  Cl25  1  0.697590  0.621979  0.872754  1
  Cl  Cl26  1  0.103645  0.574973  0.882527  1
  Cl  Cl27  1  0.139005  0.860995  0.375998  1
  Cl  Cl28  1  0.896355  0.425027  0.382527  1
  Cl  Cl29  1  0.621979  0.697590  0.372754  1
  Cl  Cl30  1  0.912157  0.087843  0.383940  1
  Cl  Cl31  1  0.574973  0.103645  0.382527  1
