# generated using pymatgen
data_AsSeS3N5F6
_symmetry_space_group_name_H-M   'P 1'
_cell_length_a   6.85199142
_cell_length_b   12.16995698
_cell_length_c   13.14661302
_cell_angle_alpha   95.35581247
_cell_angle_beta   90.00000000
_cell_angle_gamma   90.00000000
_symmetry_Int_Tables_number   1
_chemical_formula_structural   AsSeS3N5F6
_chemical_formula_sum   'As4 Se4 S12 N20 F24'
_cell_volume   1091.48949269
_cell_formula_units_Z   4
loop_
 _symmetry_equiv_pos_site_id
 _symmetry_equiv_pos_as_xyz
  1  'x, y, z'
loop_
 _atom_site_type_symbol
 _atom_site_label
 _atom_site_symmetry_multiplicity
 _atom_site_fract_x
 _atom_site_fract_y
 _atom_site_fract_z
 _atom_site_occupancy
  As  As0  1  0.074317  0.003748  0.398149  1
  As  As1  1  0.148879  0.505405  0.904591  1
  As  As2  1  0.851121  0.505405  0.404591  1
  As  As3  1  0.925683  0.003748  0.898149  1
  Se  Se4  1  0.660334  0.133931  0.224876  1
  Se  Se5  1  0.657490  0.873865  0.579868  1
  Se  Se6  1  0.342510  0.873865  0.079868  1
  Se  Se7  1  0.339666  0.133931  0.724876  1
  S  S8  1  0.184014  0.312697  0.603268  1
  S  S9  1  0.339131  0.709983  0.519895  1
  S  S10  1  0.660869  0.709983  0.019895  1
  S  S11  1  0.657513  0.297930  0.787933  1
  S  S12  1  0.184832  0.696255  0.203084  1
  S  S13  1  0.422120  0.238653  0.077234  1
  S  S14  1  0.342487  0.297930  0.287933  1
  S  S15  1  0.422814  0.771245  0.730115  1
  S  S16  1  0.577186  0.771245  0.230115  1
  S  S17  1  0.815168  0.696255  0.703084  1
  S  S18  1  0.815986  0.312697  0.103268  1
  S  S19  1  0.577880  0.238653  0.577234  1
  N  N20  1  0.489029  0.222230  0.819823  1
  N  N21  1  0.497362  0.787949  0.985966  1
  N  N22  1  0.609890  0.683717  0.752315  1
  N  N23  1  0.503597  0.124275  0.613238  1
  N  N24  1  0.148378  0.232317  0.686872  1
  N  N25  1  0.684997  0.688290  0.134575  1
  N  N26  1  0.496403  0.124275  0.113238  1
  N  N27  1  0.503945  0.885023  0.192503  1
  N  N28  1  0.688527  0.319290  0.673573  1
  N  N29  1  0.390110  0.683717  0.252315  1
  N  N30  1  0.510971  0.222230  0.319823  1
  N  N31  1  0.153524  0.773232  0.116263  1
  N  N32  1  0.608361  0.327383  0.057358  1
  N  N33  1  0.391639  0.327383  0.557358  1
  N  N34  1  0.311473  0.319290  0.173573  1
  N  N35  1  0.502638  0.787949  0.485966  1
  N  N36  1  0.315003  0.688290  0.634575  1
  N  N37  1  0.496055  0.885023  0.692503  1
  N  N38  1  0.846476  0.773232  0.616263  1
  N  N39  1  0.851622  0.232317  0.186872  1
  F  F40  1  0.937705  0.150044  0.917697  1
  F  F41  1  0.065877  0.011618  0.263488  1
  F  F42  1  0.648150  0.529865  0.488045  1
  F  F43  1  0.919463  0.857358  0.878069  1
  F  F44  1  0.850074  0.363895  0.426704  1
  F  F45  1  0.351850  0.529865  0.988045  1
  F  F46  1  0.062295  0.150044  0.417697  1
  F  F47  1  0.934123  0.011618  0.763488  1
  F  F48  1  0.331457  0.009174  0.396001  1
  F  F49  1  0.668543  0.009174  0.896001  1
  F  F50  1  0.690327  0.476182  0.299206  1
  F  F51  1  0.080537  0.857358  0.378069  1
  F  F52  1  0.012505  0.532957  0.510160  1
  F  F53  1  0.309673  0.476182  0.799206  1
  F  F54  1  0.923121  0.995367  0.032559  1
  F  F55  1  0.944967  0.482669  0.821329  1
  F  F56  1  0.853443  0.646947  0.382577  1
  F  F57  1  0.149926  0.363895  0.926704  1
  F  F58  1  0.076879  0.995367  0.532559  1
  F  F59  1  0.987495  0.532957  0.010160  1
  F  F60  1  0.186303  0.998405  0.900165  1
  F  F61  1  0.055033  0.482669  0.321329  1
  F  F62  1  0.146557  0.646947  0.882577  1
  F  F63  1  0.813697  0.998405  0.400165  1
