# generated using pymatgen
data_Sb2O3
_symmetry_space_group_name_H-M   'P 1'
_cell_length_a   3.37840112
_cell_length_b   7.76669404
_cell_length_c   13.27154024
_cell_angle_alpha   90.00000000
_cell_angle_beta   90.00000000
_cell_angle_gamma   90.00000000
_symmetry_Int_Tables_number   1
_chemical_formula_structural   Sb2O3
_chemical_formula_sum   'Sb8 O12'
_cell_volume   348.23204845
_cell_formula_units_Z   4
loop_
 _symmetry_equiv_pos_site_id
 _symmetry_equiv_pos_as_xyz
  1  'x, y, z'
loop_
 _atom_site_type_symbol
 _atom_site_label
 _atom_site_symmetry_multiplicity
 _atom_site_fract_x
 _atom_site_fract_y
 _atom_site_fract_z
 _atom_site_occupancy
  Sb  Sb0  1  0.748688  0.324541  0.616366  1
  Sb  Sb1  1  0.251312  0.675459  0.383634  1
  Sb  Sb2  1  0.251312  0.175459  0.116366  1
  Sb  Sb3  1  0.751312  0.324541  0.883634  1
  Sb  Sb4  1  0.751312  0.824541  0.616366  1
  Sb  Sb5  1  0.748688  0.824541  0.883634  1
  Sb  Sb6  1  0.248688  0.175459  0.383634  1
  Sb  Sb7  1  0.248688  0.675459  0.116366  1
  O  O8  1  0.251136  0.187827  0.928058  1
  O  O9  1  0.748864  0.812173  0.071942  1
  O  O10  1  0.751136  0.312173  0.071942  1
  O  O11  1  0.250000  0.299024  0.250000  1
  O  O12  1  0.248864  0.687827  0.928058  1
  O  O13  1  0.250000  0.799024  0.250000  1
  O  O14  1  0.750000  0.700976  0.750000  1
  O  O15  1  0.751136  0.812173  0.428058  1
  O  O16  1  0.748864  0.312173  0.428058  1
  O  O17  1  0.750000  0.200976  0.750000  1
  O  O18  1  0.251136  0.687827  0.571942  1
  O  O19  1  0.248864  0.187827  0.571942  1
