# generated using pymatgen
data_Nb2Tl5S4Cl9
_symmetry_space_group_name_H-M   'P 1'
_cell_length_a   7.21305862
_cell_length_b   9.79724642
_cell_length_c   10.02425348
_cell_angle_alpha   119.25188486
_cell_angle_beta   111.09952964
_cell_angle_gamma   90.00886090
_symmetry_Int_Tables_number   1
_chemical_formula_structural   Nb2Tl5S4Cl9
_chemical_formula_sum   'Nb2 Tl5 S4 Cl9'
_cell_volume   562.97338716
_cell_formula_units_Z   1
loop_
 _symmetry_equiv_pos_site_id
 _symmetry_equiv_pos_as_xyz
  1  'x, y, z'
loop_
 _atom_site_type_symbol
 _atom_site_label
 _atom_site_symmetry_multiplicity
 _atom_site_fract_x
 _atom_site_fract_y
 _atom_site_fract_z
 _atom_site_occupancy
  Nb  Nb0  1  0.908239  0.908251  0.816532  1
  Nb  Nb1  1  0.091761  0.091749  0.183468  1
  Tl  Tl2  1  0.666897  0.885914  0.333768  1
  Tl  Tl3  1  0.333103  0.114086  0.666232  1
  Tl  Tl4  1  0.333099  0.552135  0.666223  1
  Tl  Tl5  1  0.666901  0.447865  0.333777  1
  Tl  Tl6  1  0.000000  0.500000  0.000000  1
  S  S7  1  0.752251  0.897176  0.999947  1
  S  S8  1  0.247776  0.897310  0.000081  1
  S  S9  1  0.752224  0.102690  0.999919  1
  S  S10  1  0.247749  0.102824  0.000053  1
  Cl  Cl11  1  0.969485  0.209243  0.418478  1
  Cl  Cl12  1  0.135416  0.394119  0.270661  1
  Cl  Cl13  1  0.030515  0.790757  0.581522  1
  Cl  Cl14  1  0.135379  0.876564  0.270661  1
  Cl  Cl15  1  0.449174  0.209314  0.418554  1
  Cl  Cl16  1  0.550826  0.790686  0.581446  1
  Cl  Cl17  1  0.864621  0.123436  0.729339  1
  Cl  Cl18  1  0.500000  0.500000  0.000000  1
  Cl  Cl19  1  0.864584  0.605881  0.729339  1
