# generated using pymatgen
data_HoH18C3S3(O2F)9
_symmetry_space_group_name_H-M   'P 1'
_cell_length_a   13.70747836
_cell_length_b   13.70747860
_cell_length_c   7.52589411
_cell_angle_alpha   90.00000000
_cell_angle_beta   90.00000000
_cell_angle_gamma   119.99999940
_symmetry_Int_Tables_number   1
_chemical_formula_structural   HoH18C3S3(O2F)9
_chemical_formula_sum   'Ho2 H36 C6 S6 O36 F18'
_cell_volume   1224.62714966
_cell_formula_units_Z   2
loop_
 _symmetry_equiv_pos_site_id
 _symmetry_equiv_pos_as_xyz
  1  'x, y, z'
loop_
 _atom_site_type_symbol
 _atom_site_label
 _atom_site_symmetry_multiplicity
 _atom_site_fract_x
 _atom_site_fract_y
 _atom_site_fract_z
 _atom_site_occupancy
  Ho  Ho0  1  0.333333  0.666667  0.250000  1
  Ho  Ho1  1  0.666667  0.333333  0.750000  1
  O  O2  1  0.143572  0.487818  0.250000  1
  O  O3  1  0.655754  0.143572  0.750000  1
  O  O4  1  0.487818  0.344246  0.750000  1
  O  O5  1  0.512182  0.655754  0.250000  1
  O  O6  1  0.344246  0.856428  0.250000  1
  O  O7  1  0.856428  0.512182  0.750000  1
  O  O8  1  0.337221  0.546523  0.473226  1
  O  O9  1  0.790698  0.337221  0.973226  1
  O  O10  1  0.546523  0.209302  0.973226  1
  O  O11  1  0.453477  0.790698  0.473226  1
  O  O12  1  0.209302  0.662779  0.473226  1
  O  O13  1  0.662779  0.453477  0.973226  1
  O  O14  1  0.662779  0.453477  0.526774  1
  O  O15  1  0.209302  0.662779  0.026774  1
  O  O16  1  0.453477  0.790698  0.026774  1
  O  O17  1  0.546523  0.209302  0.526774  1
  O  O18  1  0.790698  0.337221  0.526774  1
  O  O19  1  0.337221  0.546523  0.026774  1
  S  S20  1  0.383591  0.316605  0.250000  1
  S  S21  1  0.066986  0.383591  0.750000  1
  S  S22  1  0.316605  0.933014  0.750000  1
  S  S23  1  0.683395  0.066986  0.250000  1
  S  S24  1  0.933014  0.616409  0.250000  1
  S  S25  1  0.616409  0.683395  0.750000  1
  O  O26  1  0.443693  0.252992  0.250000  1
  O  O27  1  0.190701  0.443693  0.750000  1
  O  O28  1  0.252992  0.809299  0.750000  1
  O  O29  1  0.747008  0.190701  0.250000  1
  O  O30  1  0.809299  0.556307  0.250000  1
  O  O31  1  0.556307  0.747008  0.750000  1
  O  O32  1  0.397416  0.379351  0.414410  1
  O  O33  1  0.018065  0.397416  0.914410  1
  O  O34  1  0.379351  0.981935  0.914410  1
  O  O35  1  0.620649  0.018065  0.414410  1
  O  O36  1  0.981935  0.602584  0.414410  1
  O  O37  1  0.602584  0.620649  0.914410  1
  O  O38  1  0.602584  0.620649  0.585590  1
  O  O39  1  0.981935  0.602584  0.085590  1
  O  O40  1  0.620649  0.018065  0.085590  1
  O  O41  1  0.379351  0.981935  0.585590  1
  O  O42  1  0.018065  0.397416  0.585590  1
  O  O43  1  0.397416  0.379351  0.085590  1
  C  C44  1  0.231617  0.204794  0.250000  1
  C  C45  1  0.026823  0.231617  0.750000  1
  C  C46  1  0.204794  0.973177  0.750000  1
  C  C47  1  0.795206  0.026823  0.250000  1
  C  C48  1  0.973177  0.768383  0.250000  1
  C  C49  1  0.768383  0.795206  0.750000  1
  F  F50  1  0.166635  0.253402  0.250000  1
  F  F51  1  0.913232  0.166635  0.750000  1
  F  F52  1  0.253402  0.086768  0.750000  1
  F  F53  1  0.746598  0.913232  0.250000  1
  F  F54  1  0.086768  0.833365  0.250000  1
  F  F55  1  0.833365  0.746598  0.750000  1
  F  F56  1  0.207602  0.139306  0.395866  1
  F  F57  1  0.068297  0.207602  0.895866  1
  F  F58  1  0.139306  0.931703  0.895866  1
  F  F59  1  0.860694  0.068297  0.395866  1
  F  F60  1  0.931703  0.792398  0.395866  1
  F  F61  1  0.792398  0.860694  0.895866  1
  F  F62  1  0.792398  0.860694  0.604134  1
  F  F63  1  0.931703  0.792398  0.104134  1
  F  F64  1  0.860694  0.068297  0.104134  1
  F  F65  1  0.139306  0.931703  0.604134  1
  F  F66  1  0.068297  0.207602  0.604134  1
  F  F67  1  0.207602  0.139306  0.104134  1
  H  H68  1  0.099185  0.449166  0.355755  1
  H  H69  1  0.650019  0.099185  0.855755  1
  H  H70  1  0.449166  0.349981  0.855755  1
  H  H71  1  0.550834  0.650019  0.355755  1
  H  H72  1  0.349981  0.900815  0.355755  1
  H  H73  1  0.900815  0.550834  0.855755  1
  H  H74  1  0.900815  0.550834  0.644245  1
  H  H75  1  0.349981  0.900815  0.144245  1
  H  H76  1  0.550834  0.650019  0.144245  1
  H  H77  1  0.449166  0.349981  0.644245  1
  H  H78  1  0.650019  0.099185  0.644245  1
  H  H79  1  0.099185  0.449166  0.144245  1
  H  H80  1  0.362592  0.492111  0.448477  1
  H  H81  1  0.870480  0.362592  0.948477  1
  H  H82  1  0.492111  0.129520  0.948477  1
  H  H83  1  0.507889  0.870480  0.448477  1
  H  H84  1  0.129520  0.637408  0.448477  1
  H  H85  1  0.637408  0.507889  0.948477  1
  H  H86  1  0.637408  0.507889  0.551523  1
  H  H87  1  0.129520  0.637408  0.051523  1
  H  H88  1  0.507889  0.870480  0.051523  1
  H  H89  1  0.492111  0.129520  0.551523  1
  H  H90  1  0.870480  0.362592  0.551523  1
  H  H91  1  0.362592  0.492111  0.051523  1
  H  H92  1  0.279779  0.512861  0.567744  1
  H  H93  1  0.766918  0.279779  0.067744  1
  H  H94  1  0.512861  0.233082  0.067744  1
  H  H95  1  0.487139  0.766918  0.567744  1
  H  H96  1  0.233082  0.720221  0.567744  1
  H  H97  1  0.720221  0.487139  0.067744  1
  H  H98  1  0.720221  0.487139  0.432256  1
  H  H99  1  0.233082  0.720221  0.932256  1
  H  H100  1  0.487139  0.766918  0.932256  1
  H  H101  1  0.512861  0.233082  0.432256  1
  H  H102  1  0.766918  0.279779  0.432256  1
  H  H103  1  0.279779  0.512861  0.932256  1
