# generated using pymatgen
data_Zn3As2
_symmetry_space_group_name_H-M   'P 1'
_cell_length_a   11.90409219
_cell_length_b   11.90409240
_cell_length_c   14.63075553
_cell_angle_alpha   114.00506571
_cell_angle_beta   114.00506619
_cell_angle_gamma   89.99999895
_symmetry_Int_Tables_number   1
_chemical_formula_structural   Zn3As2
_chemical_formula_sum   'Zn48 As32'
_cell_volume   1695.79019491
_cell_formula_units_Z   16
loop_
 _symmetry_equiv_pos_site_id
 _symmetry_equiv_pos_as_xyz
  1  'x, y, z'
loop_
 _atom_site_type_symbol
 _atom_site_label
 _atom_site_symmetry_multiplicity
 _atom_site_fract_x
 _atom_site_fract_y
 _atom_site_fract_z
 _atom_site_occupancy
  Zn  Zn0  1  0.308195  0.834659  0.376068  1
  Zn  Zn1  1  0.418029  0.184193  0.125687  1
  Zn  Zn2  1  0.460492  0.458216  0.141781  1
  Zn  Zn3  1  0.040850  0.543054  0.858544  1
  Zn  Zn4  1  0.166517  0.418660  0.607481  1
  Zn  Zn5  1  0.433565  0.931290  0.641781  1
  Zn  Zn6  1  0.817695  0.315490  0.858544  1
  Zn  Zn7  1  0.960492  0.183565  0.141781  1
  Zn  Zn8  1  0.681290  0.683565  0.141781  1
  Zn  Zn9  1  0.191494  0.168029  0.625687  1
  Zn  Zn10  1  0.918029  0.441494  0.125687  1
  Zn  Zn11  1  0.317695  0.043054  0.858544  1
  Zn  Zn12  1  0.567873  0.334659  0.376068  1
  Zn  Zn13  1  0.208216  0.710492  0.641781  1
  Zn  Zn14  1  0.440964  0.188821  0.607481  1
  Zn  Zn15  1  0.065490  0.067695  0.358544  1
  Zn  Zn16  1  0.291409  0.317873  0.876068  1
  Zn  Zn17  1  0.168660  0.416517  0.107481  1
  Zn  Zn18  1  0.791409  0.058195  0.876068  1
  Zn  Zn19  1  0.181290  0.958216  0.141781  1
  Zn  Zn20  1  0.666517  0.688821  0.607481  1
  Zn  Zn21  1  0.934193  0.668029  0.625687  1
  Zn  Zn22  1  0.584659  0.558195  0.876068  1
  Zn  Zn23  1  0.330977  0.583572  0.890983  1
  Zn  Zn24  1  0.084659  0.817873  0.876068  1
  Zn  Zn25  1  0.434193  0.457658  0.625687  1
  Zn  Zn26  1  0.691494  0.957658  0.625687  1
  Zn  Zn27  1  0.668660  0.190964  0.107481  1
  Zn  Zn28  1  0.707658  0.941494  0.125687  1
  Zn  Zn29  1  0.333572  0.580977  0.390983  1
  Zn  Zn30  1  0.060006  0.083572  0.890983  1
  Zn  Zn31  1  0.808195  0.041409  0.376068  1
  Zn  Zn32  1  0.565490  0.790850  0.358544  1
  Zn  Zn33  1  0.438821  0.916517  0.107481  1
  Zn  Zn34  1  0.833572  0.310006  0.390983  1
  Zn  Zn35  1  0.557411  0.080977  0.390983  1
  Zn  Zn36  1  0.207658  0.684193  0.125687  1
  Zn  Zn37  1  0.933565  0.210492  0.641781  1
  Zn  Zn38  1  0.560006  0.307411  0.890983  1
  Zn  Zn39  1  0.067873  0.541409  0.376068  1
  Zn  Zn40  1  0.830977  0.807411  0.890983  1
  Zn  Zn41  1  0.708216  0.431290  0.641781  1
  Zn  Zn42  1  0.940964  0.918660  0.607481  1
  Zn  Zn43  1  0.540850  0.815490  0.858544  1
  Zn  Zn44  1  0.938821  0.690964  0.107481  1
  Zn  Zn45  1  0.293054  0.290850  0.358544  1
  Zn  Zn46  1  0.793054  0.567695  0.358544  1
  Zn  Zn47  1  0.057411  0.810006  0.390983  1
  As  As48  1  0.878138  0.631361  0.252489  1
  As  As49  1  0.498608  0.998608  0.997216  1
  As  As50  1  0.117739  0.870882  0.246404  1
  As  As51  1  0.254707  0.249361  1.000046  1
  As  As52  1  0.745339  0.750685  1.000046  1
  As  As53  1  0.120882  0.878665  0.746404  1
  As  As54  1  0.999361  0.504707  0.500046  1
  As  As55  1  0.500507  0.500507  1.001014  1
  As  As56  1  0.371128  0.624351  0.752489  1
  As  As57  1  0.128665  0.375523  0.246404  1
  As  As58  1  0.871128  0.628138  0.752489  1
  As  As59  1  0.754707  0.250685  1.000046  1
  As  As60  1  0.628665  0.370882  0.246404  1
  As  As61  1  0.625523  0.867739  0.746404  1
  As  As62  1  0.748608  0.748608  0.497216  1
  As  As63  1  0.378138  0.121128  0.252489  1
  As  As64  1  0.381361  0.128138  0.752489  1
  As  As65  1  0.000685  0.004707  0.500046  1
  As  As66  1  0.245339  0.749361  1.000046  1
  As  As67  1  0.750507  0.250507  0.501014  1
  As  As68  1  1.000507  1.000507  1.001014  1
  As  As69  1  0.374351  0.621128  0.252489  1
  As  As70  1  0.500685  0.995339  0.500046  1
  As  As71  1  0.617739  0.875523  0.246404  1
  As  As72  1  0.881361  0.124351  0.752489  1
  As  As73  1  0.250507  0.750507  0.501014  1
  As  As74  1  0.620882  0.367739  0.746404  1
  As  As75  1  0.874351  0.131361  0.252489  1
  As  As76  1  0.998608  0.498608  0.997216  1
  As  As77  1  0.499361  0.495339  0.500046  1
  As  As78  1  0.125523  0.378665  0.746404  1
  As  As79  1  0.248608  0.248608  0.497216  1
