# generated using pymatgen
data_SiO2
_symmetry_space_group_name_H-M   'P 1'
_cell_length_a   13.16040861
_cell_length_b   13.16040847
_cell_length_c   3.88901627
_cell_angle_alpha   90.00000000
_cell_angle_beta   90.00000000
_cell_angle_gamma   120.00000033
_symmetry_Int_Tables_number   1
_chemical_formula_structural   SiO2
_chemical_formula_sum   'Si12 O24'
_cell_volume   583.32304332
_cell_formula_units_Z   12
loop_
 _symmetry_equiv_pos_site_id
 _symmetry_equiv_pos_as_xyz
  1  'x, y, z'
loop_
 _atom_site_type_symbol
 _atom_site_label
 _atom_site_symmetry_multiplicity
 _atom_site_fract_x
 _atom_site_fract_y
 _atom_site_fract_z
 _atom_site_occupancy
  Si  Si0  1  0.480331  0.131054  0.156353  1
  Si  Si1  1  0.868946  0.519669  0.843647  1
  Si  Si2  1  0.131054  0.650723  0.156353  1
  Si  Si3  1  0.868946  0.349277  0.156353  1
  Si  Si4  1  0.349277  0.868946  0.843647  1
  Si  Si5  1  0.480331  0.349277  0.843647  1
  Si  Si6  1  0.131054  0.480331  0.843647  1
  Si  Si7  1  0.650723  0.131054  0.843647  1
  Si  Si8  1  0.519669  0.868946  0.156353  1
  Si  Si9  1  0.349277  0.480331  0.156353  1
  Si  Si10  1  0.650723  0.519669  0.156353  1
  Si  Si11  1  0.519669  0.650723  0.843647  1
  O  O12  1  0.215849  0.607925  0.000000  1
  O  O13  1  0.000000  0.385444  0.000000  1
  O  O14  1  0.894676  0.447338  0.500000  1
  O  O15  1  0.607925  0.392075  0.000000  1
  O  O16  1  0.207136  0.792864  0.000000  1
  O  O17  1  0.392075  0.784151  0.000000  1
  O  O18  1  0.784151  0.392075  0.000000  1
  O  O19  1  0.792864  0.585729  0.000000  1
  O  O20  1  0.552662  0.447338  0.500000  1
  O  O21  1  0.607925  0.215849  0.000000  1
  O  O22  1  0.447338  0.552662  0.500000  1
  O  O23  1  1.000000  0.614556  0.000000  1
  O  O24  1  0.552662  0.105324  0.500000  1
  O  O25  1  0.447338  0.894676  0.500000  1
  O  O26  1  0.585729  0.792864  0.000000  1
  O  O27  1  0.392075  0.607925  0.000000  1
  O  O28  1  0.792864  0.207136  0.000000  1
  O  O29  1  0.385444  0.000000  0.000000  1
  O  O30  1  0.105324  0.552662  0.500000  1
  O  O31  1  0.385444  0.385444  0.000000  1
  O  O32  1  0.614556  0.614556  0.000000  1
  O  O33  1  0.614556  0.000000  0.000000  1
  O  O34  1  0.207136  0.414271  0.000000  1
  O  O35  1  0.414271  0.207136  0.000000  1
