# generated using pymatgen
data_NaSrB5O9
_symmetry_space_group_name_H-M   'P 1'
_cell_length_a   6.56194982
_cell_length_b   8.17882569
_cell_length_c   14.10479978
_cell_angle_alpha   90.00000000
_cell_angle_beta   90.00000000
_cell_angle_gamma   106.69060145
_symmetry_Int_Tables_number   1
_chemical_formula_structural   NaSrB5O9
_chemical_formula_sum   'Na4 Sr4 B20 O36'
_cell_volume   725.09879284
_cell_formula_units_Z   4
loop_
 _symmetry_equiv_pos_site_id
 _symmetry_equiv_pos_as_xyz
  1  'x, y, z'
loop_
 _atom_site_type_symbol
 _atom_site_label
 _atom_site_symmetry_multiplicity
 _atom_site_fract_x
 _atom_site_fract_y
 _atom_site_fract_z
 _atom_site_occupancy
  Na  Na0  1  0.465668  0.650128  0.584094  1
  Na  Na1  1  0.534332  0.349872  0.415906  1
  Na  Na2  1  0.534332  0.849872  0.084094  1
  Na  Na3  1  0.465668  0.150128  0.915906  1
  Sr  Sr4  1  0.102067  0.560789  0.230041  1
  Sr  Sr5  1  0.897933  0.939211  0.730041  1
  Sr  Sr6  1  0.897933  0.439211  0.769959  1
  Sr  Sr7  1  0.102067  0.060789  0.269959  1
  B  B8  1  0.557701  0.869601  0.354481  1
  B  B9  1  0.089545  0.833826  0.056508  1
  B  B10  1  0.158324  0.267296  0.612497  1
  B  B11  1  0.590249  0.625548  0.252888  1
  B  B12  1  0.214545  0.767332  0.448888  1
  B  B13  1  0.214545  0.267332  0.051112  1
  B  B14  1  0.442299  0.630399  0.854481  1
  B  B15  1  0.442299  0.130399  0.645519  1
  B  B16  1  0.158324  0.767296  0.887503  1
  B  B17  1  0.409751  0.374452  0.747112  1
  B  B18  1  0.557701  0.369601  0.145519  1
  B  B19  1  0.089545  0.333826  0.443492  1
  B  B20  1  0.910455  0.166174  0.943492  1
  B  B21  1  0.409751  0.874452  0.752888  1
  B  B22  1  0.785455  0.232668  0.551112  1
  B  B23  1  0.785455  0.732668  0.948888  1
  B  B24  1  0.910455  0.666174  0.556508  1
  B  B25  1  0.841676  0.732704  0.387503  1
  B  B26  1  0.590249  0.125548  0.247112  1
  B  B27  1  0.841676  0.232704  0.112497  1
  O  O28  1  0.161561  0.854035  0.146107  1
  O  O29  1  0.838439  0.645965  0.646107  1
  O  O30  1  0.131378  0.710385  0.537642  1
  O  O31  1  0.161561  0.354035  0.353893  1
  O  O32  1  0.079592  0.277839  0.125212  1
  O  O33  1  0.427874  0.802931  0.439290  1
  O  O34  1  0.773381  0.649756  0.479240  1
  O  O35  1  0.572126  0.697069  0.939290  1
  O  O36  1  0.513835  0.254579  0.726606  1
  O  O37  1  0.782048  0.888371  0.372597  1
  O  O38  1  0.246795  0.396205  0.690757  1
  O  O39  1  0.838439  0.145965  0.853893  1
  O  O40  1  0.773381  0.149756  0.020760  1
  O  O41  1  0.131378  0.210385  0.962358  1
  O  O42  1  0.753205  0.103795  0.190757  1
  O  O43  1  0.513835  0.754579  0.773394  1
  O  O44  1  0.217952  0.611629  0.872597  1
  O  O45  1  0.920408  0.722161  0.874788  1
  O  O46  1  0.486165  0.745421  0.273394  1
  O  O47  1  0.485338  0.969767  0.673804  1
  O  O48  1  0.427874  0.302931  0.060710  1
  O  O49  1  0.514662  0.530233  0.173804  1
  O  O50  1  0.868622  0.289615  0.462358  1
  O  O51  1  0.514662  0.030233  0.326196  1
  O  O52  1  0.226619  0.850244  0.979240  1
  O  O53  1  0.920408  0.222161  0.625212  1
  O  O54  1  0.572126  0.197069  0.560710  1
  O  O55  1  0.226619  0.350244  0.520760  1
  O  O56  1  0.246795  0.896205  0.809243  1
  O  O57  1  0.486165  0.245421  0.226606  1
  O  O58  1  0.868622  0.789615  0.037642  1
  O  O59  1  0.217952  0.111629  0.627403  1
  O  O60  1  0.079592  0.777839  0.374788  1
  O  O61  1  0.753205  0.603795  0.309243  1
  O  O62  1  0.485338  0.469767  0.826196  1
  O  O63  1  0.782048  0.388371  0.127403  1
