# generated using pymatgen
data_Cs4Li2(Si2O5)3
_symmetry_space_group_name_H-M   'P 1'
_cell_length_a   8.63763833
_cell_length_b   11.12878667
_cell_length_c   19.28343140
_cell_angle_alpha   90.18760242
_cell_angle_beta   90.00000000
_cell_angle_gamma   90.00000000
_symmetry_Int_Tables_number   1
_chemical_formula_structural   Cs4Li2(Si2O5)3
_chemical_formula_sum   'Cs16 Li8 Si24 O60'
_cell_volume   1853.63756555
_cell_formula_units_Z   4
loop_
 _symmetry_equiv_pos_site_id
 _symmetry_equiv_pos_as_xyz
  1  'x, y, z'
loop_
 _atom_site_type_symbol
 _atom_site_label
 _atom_site_symmetry_multiplicity
 _atom_site_fract_x
 _atom_site_fract_y
 _atom_site_fract_z
 _atom_site_occupancy
  Cs  Cs0  1  0.750000  0.544859  0.514043  1
  Cs  Cs1  1  0.750000  0.479686  0.992437  1
  Cs  Cs2  1  0.750000  0.042883  0.019052  1
  Cs  Cs3  1  0.750000  0.721935  0.720621  1
  Cs  Cs4  1  0.250000  0.795846  0.732782  1
  Cs  Cs5  1  0.750000  0.294762  0.776582  1
  Cs  Cs6  1  0.750000  0.204154  0.267218  1
  Cs  Cs7  1  0.750000  0.777499  0.227509  1
  Cs  Cs8  1  0.250000  0.222501  0.772491  1
  Cs  Cs9  1  0.250000  0.705238  0.223418  1
  Cs  Cs10  1  0.250000  0.520314  0.007563  1
  Cs  Cs11  1  0.750000  0.967293  0.481511  1
  Cs  Cs12  1  0.250000  0.455141  0.485957  1
  Cs  Cs13  1  0.250000  0.032707  0.518489  1
  Cs  Cs14  1  0.250000  0.957117  0.980948  1
  Cs  Cs15  1  0.250000  0.278065  0.279379  1
  Li  Li16  1  0.981474  0.237607  0.421228  1
  Li  Li17  1  0.487525  0.260311  0.928015  1
  Li  Li18  1  0.012475  0.260311  0.928015  1
  Li  Li19  1  0.481474  0.762393  0.578772  1
  Li  Li20  1  0.512475  0.739689  0.071985  1
  Li  Li21  1  0.518526  0.237607  0.421228  1
  Li  Li22  1  0.987525  0.739689  0.071985  1
  Li  Li23  1  0.018526  0.762393  0.578772  1
  Si  Si24  1  0.434551  0.494712  0.664821  1
  Si  Si25  1  0.060095  0.994895  0.165388  1
  Si  Si26  1  0.939905  0.005105  0.834612  1
  Si  Si27  1  0.934551  0.505288  0.335179  1
  Si  Si28  1  0.561247  0.256099  0.588164  1
  Si  Si29  1  0.065449  0.494712  0.664821  1
  Si  Si30  1  0.439424  0.250068  0.096123  1
  Si  Si31  1  0.060576  0.250068  0.096123  1
  Si  Si32  1  0.439905  0.994895  0.165388  1
  Si  Si33  1  0.061247  0.743901  0.411836  1
  Si  Si34  1  0.936008  0.484925  0.170209  1
  Si  Si35  1  0.436008  0.515075  0.829791  1
  Si  Si36  1  0.565449  0.505288  0.335179  1
  Si  Si37  1  0.063992  0.515075  0.829791  1
  Si  Si38  1  0.560095  0.005105  0.834612  1
  Si  Si39  1  0.438753  0.743901  0.411836  1
  Si  Si40  1  0.939424  0.749932  0.903877  1
  Si  Si41  1  0.560576  0.749932  0.903877  1
  Si  Si42  1  0.440092  0.982850  0.328856  1
  Si  Si43  1  0.938753  0.256099  0.588164  1
  Si  Si44  1  0.940092  0.017150  0.671144  1
  Si  Si45  1  0.059908  0.982850  0.328856  1
  Si  Si46  1  0.563992  0.484925  0.170209  1
  Si  Si47  1  0.559908  0.017150  0.671144  1
  O  O48  1  0.750000  0.016798  0.674685  1
  O  O49  1  0.494739  0.114331  0.878992  1
  O  O50  1  0.468874  0.358858  0.153924  1
  O  O51  1  0.750000  1.000409  0.831334  1
  O  O52  1  0.980977  0.593955  0.121257  1
  O  O53  1  0.974375  0.377230  0.366676  1
  O  O54  1  0.474375  0.622770  0.633324  1
  O  O55  1  0.505261  0.885669  0.121008  1
  O  O56  1  0.536670  0.386883  0.627734  1
  O  O57  1  0.463330  0.613117  0.372266  1
  O  O58  1  0.494478  0.846711  0.354246  1
  O  O59  1  0.519023  0.593955  0.121257  1
  O  O60  1  0.963330  0.386883  0.627734  1
  O  O61  1  0.982241  0.516619  0.251947  1
  O  O62  1  0.500528  0.126972  0.136723  1
  O  O63  1  0.973271  0.753584  0.483861  1
  O  O64  1  0.250000  0.237589  0.088889  1
  O  O65  1  0.522816  0.269071  0.023777  1
  O  O66  1  0.005522  0.846711  0.354246  1
  O  O67  1  0.250000  -0.000409  0.168666  1
  O  O68  1  0.026729  0.246416  0.516139  1
  O  O69  1  0.977184  0.269071  0.023777  1
  O  O70  1  0.990901  0.089274  0.374310  1
  O  O71  1  0.005261  0.114331  0.878992  1
  O  O72  1  0.994478  0.153289  0.645754  1
  O  O73  1  0.000528  0.873028  0.863277  1
  O  O74  1  0.019023  0.406045  0.878743  1
  O  O75  1  0.525625  0.377230  0.366676  1
  O  O76  1  0.501994  0.989575  0.247101  1
  O  O77  1  0.499472  0.873028  0.863277  1
  O  O78  1  0.750000  0.447850  0.169322  1
  O  O79  1  0.531126  0.641142  0.846076  1
  O  O80  1  0.250000  0.759016  0.421115  1
  O  O81  1  0.009099  0.910726  0.625690  1
  O  O82  1  0.498006  0.010425  0.752899  1
  O  O83  1  0.025625  0.622770  0.633324  1
  O  O84  1  0.250000  0.453974  0.658252  1
  O  O85  1  0.505522  0.153289  0.645754  1
  O  O86  1  0.998006  0.989575  0.247101  1
  O  O87  1  0.999472  0.126972  0.136723  1
  O  O88  1  0.750000  0.762411  0.911111  1
  O  O89  1  0.473271  0.246416  0.516139  1
  O  O90  1  0.017759  0.483381  0.748053  1
  O  O91  1  0.477184  0.730929  0.976223  1
  O  O92  1  0.509099  0.089274  0.374310  1
  O  O93  1  0.517759  0.516619  0.251947  1
  O  O94  1  0.490901  0.910726  0.625690  1
  O  O95  1  0.750000  0.240984  0.578885  1
  O  O96  1  0.994739  0.885669  0.121008  1
  O  O97  1  0.036670  0.613117  0.372266  1
  O  O98  1  0.031126  0.358858  0.153924  1
  O  O99  1  0.750000  0.546026  0.341748  1
  O  O100  1  0.480977  0.406045  0.878743  1
  O  O101  1  0.526729  0.753584  0.483861  1
  O  O102  1  0.022816  0.730929  0.976223  1
  O  O103  1  0.968874  0.641142  0.846076  1
  O  O104  1  0.250000  0.983202  0.325315  1
  O  O105  1  0.482241  0.483381  0.748053  1
  O  O106  1  0.250000  0.552150  0.830678  1
  O  O107  1  0.001994  0.010425  0.752899  1
