# generated using pymatgen
data_VS2N3Cl2
_symmetry_space_group_name_H-M   'P 1'
_cell_length_a   5.79645188
_cell_length_b   7.38449560
_cell_length_c   8.03199244
_cell_angle_alpha   95.06420008
_cell_angle_beta   98.93359009
_cell_angle_gamma   97.38317696
_symmetry_Int_Tables_number   1
_chemical_formula_structural   VS2N3Cl2
_chemical_formula_sum   'V2 S4 N6 Cl4'
_cell_volume   334.75228341
_cell_formula_units_Z   2
loop_
 _symmetry_equiv_pos_site_id
 _symmetry_equiv_pos_as_xyz
  1  'x, y, z'
loop_
 _atom_site_type_symbol
 _atom_site_label
 _atom_site_symmetry_multiplicity
 _atom_site_fract_x
 _atom_site_fract_y
 _atom_site_fract_z
 _atom_site_occupancy
  V  V0  1  0.759953  0.853864  0.021745  1
  V  V1  1  0.240047  0.146136  0.978255  1
  S  S2  1  0.748793  0.637157  0.334405  1
  S  S3  1  0.821258  0.127317  0.681987  1
  S  S4  1  0.251207  0.362843  0.665595  1
  S  S5  1  0.178742  0.872683  0.318013  1
  N  N6  1  0.985424  0.265825  0.594928  1
  N  N7  1  0.058009  0.922713  0.139431  1
  N  N8  1  0.014576  0.734175  0.405072  1
  N  N9  1  0.657461  0.705247  0.157508  1
  N  N10  1  0.342539  0.294753  0.842492  1
  N  N11  1  0.941991  0.077287  0.860569  1
  Cl  Cl12  1  0.379481  0.885287  0.834856  1
  Cl  Cl13  1  0.198073  0.352717  0.190702  1
  Cl  Cl14  1  0.620519  0.114713  0.165144  1
  Cl  Cl15  1  0.801927  0.647283  0.809298  1
