# generated using pymatgen
data_BaH2C4S4N2(O3F4)3
_symmetry_space_group_name_H-M   'P 1'
_cell_length_a   8.78233957
_cell_length_b   9.99158831
_cell_length_c   22.84570596
_cell_angle_alpha   90.00000000
_cell_angle_beta   90.00000000
_cell_angle_gamma   90.02757931
_symmetry_Int_Tables_number   1
_chemical_formula_structural   BaH2C4S4N2(O3F4)3
_chemical_formula_sum   'Ba4 H8 C16 S16 N8 O36 F48'
_cell_volume   2004.69953308
_cell_formula_units_Z   4
loop_
 _symmetry_equiv_pos_site_id
 _symmetry_equiv_pos_as_xyz
  1  'x, y, z'
loop_
 _atom_site_type_symbol
 _atom_site_label
 _atom_site_symmetry_multiplicity
 _atom_site_fract_x
 _atom_site_fract_y
 _atom_site_fract_z
 _atom_site_occupancy
  Ba  Ba0  1  0.867920  0.158879  0.250608  1
  Ba  Ba1  1  0.132080  0.841121  0.749392  1
  Ba  Ba2  1  0.367920  0.658879  0.249392  1
  Ba  Ba3  1  0.632080  0.341121  0.750608  1
  H  H4  1  0.791168  0.491637  0.229734  1
  H  H5  1  0.708832  0.008363  0.729734  1
  H  H6  1  0.046211  0.505970  0.742257  1
  H  H7  1  0.453789  0.994030  0.242257  1
  H  H8  1  0.546211  0.005970  0.757743  1
  H  H9  1  0.208832  0.508363  0.770266  1
  H  H10  1  0.953789  0.494030  0.257743  1
  H  H11  1  0.291168  0.991637  0.270266  1
  C  C12  1  0.352730  0.071575  0.922574  1
  C  C13  1  0.915145  0.078397  0.578663  1
  C  C14  1  0.147270  0.428425  0.422574  1
  C  C15  1  0.639469  0.786286  0.409123  1
  C  C16  1  0.592024  0.290216  0.412745  1
  C  C17  1  0.139469  0.286286  0.090877  1
  C  C18  1  0.407976  0.709784  0.587255  1
  C  C19  1  0.415145  0.578397  0.921337  1
  C  C20  1  0.647270  0.928425  0.077426  1
  C  C21  1  0.584855  0.421603  0.078663  1
  C  C22  1  0.852730  0.571575  0.577426  1
  C  C23  1  0.860531  0.713714  0.909123  1
  C  C24  1  0.092024  0.790216  0.087255  1
  C  C25  1  0.907976  0.209784  0.912745  1
  C  C26  1  0.360531  0.213714  0.590877  1
  C  C27  1  0.084855  0.921603  0.421337  1
  S  S28  1  0.237062  0.321072  0.162764  1
  S  S29  1  0.444284  0.650302  0.846099  1
  S  S30  1  0.503907  0.677141  0.659722  1
  S  S31  1  0.737062  0.821072  0.337236  1
  S  S32  1  0.677687  0.852625  0.152122  1
  S  S33  1  0.003907  0.177141  0.840278  1
  S  S34  1  0.762938  0.678928  0.837236  1
  S  S35  1  0.055716  0.849698  0.346099  1
  S  S36  1  0.996093  0.822859  0.159722  1
  S  S37  1  0.262938  0.178928  0.662764  1
  S  S38  1  0.822313  0.647375  0.652122  1
  S  S39  1  0.177687  0.352625  0.347878  1
  S  S40  1  0.944284  0.150302  0.653901  1
  S  S41  1  0.322313  0.147375  0.847878  1
  S  S42  1  0.496093  0.322859  0.340278  1
  S  S43  1  0.555716  0.349698  0.153901  1
  N  N44  1  0.903791  0.765530  0.348467  1
  N  N45  1  0.403791  0.265530  0.151533  1
  N  N46  1  0.096209  0.234470  0.651533  1
  N  N47  1  0.670964  0.732658  0.648464  1
  N  N48  1  0.170964  0.232658  0.851536  1
  N  N49  1  0.596209  0.734470  0.848467  1
  N  N50  1  0.829036  0.767342  0.148464  1
  N  N51  1  0.329036  0.267342  0.351536  1
  O  O52  1  0.130678  0.564634  0.752599  1
  O  O53  1  0.682429  0.966396  0.191920  1
  O  O54  1  0.182429  0.466396  0.308080  1
  O  O55  1  0.553484  0.465908  0.192442  1
  O  O56  1  0.724819  0.964489  0.327780  1
  O  O57  1  0.817571  0.533604  0.691920  1
  O  O58  1  0.508358  0.465843  0.329925  1
  O  O59  1  0.053484  0.965908  0.307558  1
  O  O60  1  0.630678  0.064634  0.747401  1
  O  O61  1  0.423959  0.766112  0.699573  1
  O  O62  1  0.923959  0.266112  0.800427  1
  O  O63  1  0.008358  0.965843  0.170075  1
  O  O64  1  0.991642  0.034157  0.829925  1
  O  O65  1  0.949255  0.738812  0.658332  1
  O  O66  1  0.775181  0.535511  0.827780  1
  O  O67  1  0.682057  0.258036  0.160675  1
  O  O68  1  0.550745  0.761188  0.158332  1
  O  O69  1  0.341910  0.266511  0.703411  1
  O  O70  1  0.275181  0.035511  0.672220  1
  O  O71  1  0.576041  0.233888  0.300427  1
  O  O72  1  0.446516  0.534092  0.807558  1
  O  O73  1  0.369322  0.935366  0.252599  1
  O  O74  1  0.076041  0.733888  0.199573  1
  O  O75  1  0.658090  0.733489  0.296589  1
  O  O76  1  0.317571  0.033604  0.808080  1
  O  O77  1  0.050745  0.261188  0.341668  1
  O  O78  1  0.869322  0.435366  0.247401  1
  O  O79  1  0.449255  0.238812  0.841668  1
  O  O80  1  0.224819  0.464489  0.172220  1
  O  O81  1  0.317943  0.741964  0.839325  1
  O  O82  1  0.841910  0.766511  0.796589  1
  O  O83  1  0.491642  0.534157  0.670075  1
  O  O84  1  0.817943  0.241964  0.660675  1
  O  O85  1  0.182057  0.758036  0.339325  1
  O  O86  1  0.946516  0.034092  0.692442  1
  O  O87  1  0.158090  0.233489  0.203411  1
  F  F88  1  0.085241  0.822737  0.461507  1
  F  F89  1  0.742723  0.313354  0.406102  1
  F  F90  1  0.512958  0.993608  0.076926  1
  F  F91  1  0.971526  0.008568  0.433564  1
  F  F92  1  0.190413  0.369098  0.048687  1
  F  F93  1  0.719115  0.486754  0.076984  1
  F  F94  1  0.780885  0.013246  0.576984  1
  F  F95  1  0.760033  0.015813  0.065039  1
  F  F96  1  0.511628  0.193761  0.598496  1
  F  F97  1  0.928968  0.338032  0.929104  1
  F  F98  1  0.536953  0.371713  0.454685  1
  F  F99  1  0.471526  0.508568  0.066436  1
  F  F100  1  0.645147  0.831198  0.036497  1
  F  F101  1  0.528474  0.491432  0.933564  1
  F  F102  1  0.280885  0.513246  0.923016  1
  F  F103  1  0.145147  0.331198  0.463503  1
  F  F104  1  0.336861  0.341403  0.574570  1
  F  F105  1  0.428968  0.838032  0.570896  1
  F  F106  1  0.987042  0.506392  0.576926  1
  F  F107  1  0.585241  0.322737  0.038493  1
  F  F108  1  0.012958  0.493608  0.423074  1
  F  F109  1  0.988372  0.306239  0.098496  1
  F  F110  1  0.219115  0.986754  0.423016  1
  F  F111  1  0.163139  0.158597  0.074570  1
  F  F112  1  0.011628  0.693761  0.901504  1
  F  F113  1  0.257277  0.686646  0.593898  1
  F  F114  1  0.690413  0.869098  0.451313  1
  F  F115  1  0.354853  0.168802  0.963503  1
  F  F116  1  0.463047  0.628287  0.545315  1
  F  F117  1  0.028474  0.991432  0.566436  1
  F  F118  1  0.739967  0.484187  0.565039  1
  F  F119  1  0.571032  0.161968  0.429104  1
  F  F120  1  0.242723  0.813354  0.093898  1
  F  F121  1  0.836861  0.841403  0.925430  1
  F  F122  1  0.809587  0.630902  0.951313  1
  F  F123  1  0.309587  0.130902  0.548687  1
  F  F124  1  0.260033  0.515813  0.434961  1
  F  F125  1  0.071032  0.661968  0.070896  1
  F  F126  1  0.963047  0.128287  0.954685  1
  F  F127  1  0.239967  0.984187  0.934961  1
  F  F128  1  0.854853  0.668802  0.536497  1
  F  F129  1  0.663139  0.658597  0.425430  1
  F  F130  1  0.036953  0.871713  0.045315  1
  F  F131  1  0.757277  0.186646  0.906102  1
  F  F132  1  0.488372  0.806239  0.401504  1
  F  F133  1  0.487042  0.006392  0.923074  1
  F  F134  1  0.914759  0.177263  0.538493  1
  F  F135  1  0.414759  0.677263  0.961507  1
