# generated using pymatgen
data_KCoO2
_symmetry_space_group_name_H-M   'P 1'
_cell_length_a   5.43140104
_cell_length_b   5.43138410
_cell_length_c   5.43138202
_cell_angle_alpha   98.86710074
_cell_angle_beta   115.01963542
_cell_angle_gamma   115.01971703
_symmetry_Int_Tables_number   1
_chemical_formula_structural   KCoO2
_chemical_formula_sum   'K2 Co2 O4'
_cell_volume   120.26107509
_cell_formula_units_Z   2
loop_
 _symmetry_equiv_pos_site_id
 _symmetry_equiv_pos_as_xyz
  1  'x, y, z'
loop_
 _atom_site_type_symbol
 _atom_site_label
 _atom_site_symmetry_multiplicity
 _atom_site_fract_x
 _atom_site_fract_y
 _atom_site_fract_z
 _atom_site_occupancy
  K  K0  1  0.500000  0.249999  0.750000  1
  K  K1  1  0.000003  0.499999  0.499998  1
  Co  Co2  1  0.500000  0.750001  0.250000  1
  Co  Co3  1  1.000000  0.000001  0.000001  1
  O  O4  1  0.854583  0.827600  0.221302  1
  O  O5  1  0.145415  0.366719  0.973016  1
  O  O6  1  0.393702  0.026985  0.172402  1
  O  O7  1  0.606298  0.778698  0.633283  1
