# generated using pymatgen
data_RbGeIO6
_symmetry_space_group_name_H-M   'P 1'
_cell_length_a   5.11429060
_cell_length_b   5.11438481
_cell_length_c   6.52555225
_cell_angle_alpha   89.99949125
_cell_angle_beta   90.00102171
_cell_angle_gamma   120.00042270
_symmetry_Int_Tables_number   1
_chemical_formula_structural   RbGeIO6
_chemical_formula_sum   'Rb1 Ge1 I1 O6'
_cell_volume   147.81716080
_cell_formula_units_Z   1
loop_
 _symmetry_equiv_pos_site_id
 _symmetry_equiv_pos_as_xyz
  1  'x, y, z'
loop_
 _atom_site_type_symbol
 _atom_site_label
 _atom_site_symmetry_multiplicity
 _atom_site_fract_x
 _atom_site_fract_y
 _atom_site_fract_z
 _atom_site_occupancy
  O  O0  1  0.385736  0.383340  0.332567  1
  O  O1  1  0.385783  0.002494  0.667399  1
  O  O2  1  0.997475  0.383329  0.667345  1
  O  O3  1  0.616641  0.614222  0.667388  1
  O  O4  1  0.997476  0.614200  0.332588  1
  Rb  Rb5  1  -0.000002  0.999990  1.000003  1
  I  I6  1  0.666780  0.333323  0.500071  1
  O  O7  1  0.616647  0.002480  0.332624  1
  Ge  Ge8  1  0.333465  0.666622  0.500014  1
