# generated using pymatgen
data_Yb2PbAu2
_symmetry_space_group_name_H-M   'P 1'
_cell_length_a   7.31990025
_cell_length_b   8.18857859
_cell_length_c   8.18857859
_cell_angle_alpha   90.00000000
_cell_angle_beta   90.00000000
_cell_angle_gamma   90.00000000
_symmetry_Int_Tables_number   1
_chemical_formula_structural   Yb2PbAu2
_chemical_formula_sum   'Yb8 Pb4 Au8'
_cell_volume   490.81994894
_cell_formula_units_Z   4
loop_
 _symmetry_equiv_pos_site_id
 _symmetry_equiv_pos_as_xyz
  1  'x, y, z'
loop_
 _atom_site_type_symbol
 _atom_site_label
 _atom_site_symmetry_multiplicity
 _atom_site_fract_x
 _atom_site_fract_y
 _atom_site_fract_z
 _atom_site_occupancy
  Yb  Yb0  1  0.000000  0.320801  0.679199  1
  Yb  Yb1  1  0.500000  0.820801  0.820801  1
  Yb  Yb2  1  0.500000  0.179199  0.179199  1
  Yb  Yb3  1  0.000000  0.679199  0.320801  1
  Yb  Yb4  1  0.000000  0.165083  0.165083  1
  Yb  Yb5  1  0.500000  0.334917  0.665083  1
  Yb  Yb6  1  0.500000  0.665083  0.334917  1
  Yb  Yb7  1  0.000000  0.834917  0.834917  1
  Au  Au8  1  0.236069  0.375880  0.375880  1
  Au  Au9  1  0.736069  0.124120  0.875880  1
  Au  Au10  1  0.736069  0.875880  0.124120  1
  Au  Au11  1  0.236069  0.624120  0.624120  1
  Au  Au12  1  0.263931  0.875880  0.124120  1
  Au  Au13  1  0.263931  0.124120  0.875880  1
  Au  Au14  1  0.763931  0.375880  0.375880  1
  Au  Au15  1  0.763931  0.624120  0.624120  1
  Pb  Pb16  1  0.250000  0.000000  0.500000  1
  Pb  Pb17  1  0.750000  0.000000  0.500000  1
  Pb  Pb18  1  0.250000  0.500000  0.000000  1
  Pb  Pb19  1  0.750000  0.500000  0.000000  1
