# generated using pymatgen
data_Ce2Br3N
_symmetry_space_group_name_H-M   'P 1'
_cell_length_a   12.05536019
_cell_length_b   12.05536039
_cell_length_c   12.05536022
_cell_angle_alpha   104.42908344
_cell_angle_beta   104.42908368
_cell_angle_gamma   120.10835899
_symmetry_Int_Tables_number   1
_chemical_formula_structural   Ce2Br3N
_chemical_formula_sum   'Ce16 Br24 N8'
_cell_volume   1313.29851822
_cell_formula_units_Z   8
loop_
 _symmetry_equiv_pos_site_id
 _symmetry_equiv_pos_as_xyz
  1  'x, y, z'
loop_
 _atom_site_type_symbol
 _atom_site_label
 _atom_site_symmetry_multiplicity
 _atom_site_fract_x
 _atom_site_fract_y
 _atom_site_fract_z
 _atom_site_occupancy
  Ce  Ce0  1  0.617991  0.772946  0.396851  1
  Ce  Ce1  1  0.470084  0.711399  0.078962  1
  Ce  Ce2  1  0.132438  0.391122  0.421038  1
  Ce  Ce3  1  0.382009  0.227054  0.603149  1
  Ce  Ce4  1  0.788601  0.367563  0.758685  1
  Ce  Ce5  1  0.272946  0.376095  0.154955  1
  Ce  Ce6  1  0.876095  0.221140  0.103149  1
  Ce  Ce7  1  0.278860  0.882009  0.654955  1
  Ce  Ce8  1  0.721140  0.117991  0.345045  1
  Ce  Ce9  1  0.867563  0.608878  0.578962  1
  Ce  Ce10  1  0.211399  0.632437  0.241315  1
  Ce  Ce11  1  0.123905  0.778860  0.896851  1
  Ce  Ce12  1  0.891122  0.970084  0.258685  1
  Ce  Ce13  1  0.108878  0.029916  0.741315  1
  Ce  Ce14  1  0.727054  0.623905  0.845045  1
  Ce  Ce15  1  0.529916  0.288601  0.921038  1
  Br  Br16  1  0.011524  0.847327  0.079511  1
  Br  Br17  1  0.267816  0.932013  0.420489  1
  Br  Br18  1  0.598020  0.274073  0.484781  1
  Br  Br19  1  0.089341  0.180839  0.559054  1
  Br  Br20  1  0.652673  0.232184  0.164198  1
  Br  Br21  1  0.121785  0.530287  0.940946  1
  Br  Br22  1  0.289292  0.113239  0.015219  1
  Br  Br23  1  0.319161  0.378215  0.908502  1
  Br  Br24  1  0.969713  0.410659  0.591498  1
  Br  Br25  1  0.910659  0.819161  0.440946  1
  Br  Br26  1  0.225927  0.210708  0.323947  1
  Br  Br27  1  0.988476  0.152673  0.920489  1
  Br  Br28  1  0.732184  0.067987  0.579511  1
  Br  Br29  1  0.774073  0.789292  0.676053  1
  Br  Br30  1  0.567987  0.488476  0.335802  1
  Br  Br31  1  0.347327  0.767816  0.835802  1
  Br  Br32  1  0.401980  0.725927  0.515219  1
  Br  Br33  1  0.432013  0.511524  0.664198  1
  Br  Br34  1  0.878215  0.469713  0.059054  1
  Br  Br35  1  0.613239  0.098020  0.823947  1
  Br  Br36  1  0.680839  0.621785  0.091498  1
  Br  Br37  1  0.386761  0.901980  0.176053  1
  Br  Br38  1  0.710708  0.886761  0.984781  1
  Br  Br39  1  0.030287  0.589341  0.408502  1
  N  N40  1  0.122009  0.406579  0.227024  1
  N  N41  1  0.093421  0.820446  0.715431  1
  N  N42  1  0.394985  0.622009  0.215431  1
  N  N43  1  0.906579  0.179554  0.284569  1
  N  N44  1  0.679554  0.894985  0.272976  1
  N  N45  1  0.877991  0.593421  0.772976  1
  N  N46  1  0.320446  0.105015  0.727024  1
  N  N47  1  0.605015  0.377991  0.784569  1
