# generated using pymatgen
data_MgAl6O10
_symmetry_space_group_name_H-M   'P 1'
_cell_length_a   5.70734560
_cell_length_b   5.72571951
_cell_length_c   28.44648558
_cell_angle_alpha   59.79024533
_cell_angle_beta   59.51138929
_cell_angle_gamma   59.88765726
_symmetry_Int_Tables_number   1
_chemical_formula_structural   MgAl6O10
_chemical_formula_sum   'Mg4 Al24 O40'
_cell_volume   653.27210681
_cell_formula_units_Z   4
loop_
 _symmetry_equiv_pos_site_id
 _symmetry_equiv_pos_as_xyz
  1  'x, y, z'
loop_
 _atom_site_type_symbol
 _atom_site_label
 _atom_site_symmetry_multiplicity
 _atom_site_fract_x
 _atom_site_fract_y
 _atom_site_fract_z
 _atom_site_occupancy
  Al  Al0  1  0.115953  0.116372  0.030212  1
  Al  Al1  1  0.137474  0.120101  0.224467  1
  Al  Al2  1  0.499473  0.015487  0.096081  1
  Al  Al3  1  0.499534  0.504438  0.096076  1
  Al  Al4  1  0.466772  0.511442  0.202121  1
  Al  Al5  1  0.150601  0.128526  0.418442  1
  Al  Al6  1  0.508590  0.005653  0.296112  1
  Al  Al7  1  0.006625  0.504309  0.096939  1
  Al  Al8  1  0.508466  0.505471  0.296094  1
  Al  Al9  1  0.860192  0.884306  0.174268  1
  Al  Al10  1  0.542575  0.500928  0.391118  1
  Al  Al11  1  0.508498  1.000198  0.497239  1
  Al  Al12  1  0.508535  0.504937  0.497231  1
  Al  Al13  1  0.497031  0.995521  0.702142  1
  Al  Al14  1  0.501052  0.498578  0.600341  1
  Al  Al15  1  0.879962  0.888015  0.368818  1
  Al  Al16  1  0.007221  0.504285  0.496812  1
  Al  Al17  1  0.497046  0.496760  0.702139  1
  Al  Al18  1  0.491896  0.492006  0.804829  1
  Al  Al19  1  0.490652  0.982845  0.906989  1
  Al  Al20  1  0.996094  0.496706  0.702103  1
  Al  Al21  1  0.490654  0.491722  0.906968  1
  Al  Al22  1  0.981206  0.491437  0.907215  1
  Al  Al23  1  0.876149  0.879810  0.972855  1
  Mg  Mg24  1  0.127504  0.123858  0.624952  1
  Mg  Mg25  1  0.115048  0.113445  0.831639  1
  Mg  Mg26  1  0.875855  0.875809  0.574482  1
  Mg  Mg27  1  0.864942  0.867276  0.780108  1
  O  O28  1  0.231632  0.236244  0.059288  1
  O  O29  1  0.252682  0.260173  0.145385  1
  O  O30  1  0.231730  0.735427  0.059276  1
  O  O31  1  0.732948  0.235203  0.059276  1
  O  O32  1  0.262609  0.744597  0.149653  1
  O  O33  1  0.281725  0.241443  0.247321  1
  O  O34  1  0.737296  0.745031  0.054504  1
  O  O35  1  0.287629  0.247520  0.343486  1
  O  O36  1  0.281658  0.740347  0.247329  1
  O  O37  1  0.732250  0.285373  0.148439  1
  O  O38  1  0.737527  0.257931  0.249351  1
  O  O39  1  0.732325  0.740135  0.148444  1
  O  O40  1  0.275388  0.742650  0.347894  1
  O  O41  1  0.263460  0.258371  0.449576  1
  O  O42  1  0.276119  0.268534  0.537340  1
  O  O43  1  0.723762  0.263744  0.349874  1
  O  O44  1  0.723942  0.760339  0.251113  1
  O  O45  1  0.263455  0.730135  0.449576  1
  O  O46  1  0.723755  0.763141  0.349891  1
  O  O47  1  0.744876  0.258474  0.447604  1
  O  O48  1  0.298980  0.741315  0.543654  1
  O  O49  1  0.266826  0.265348  0.651429  1
  O  O50  1  0.744573  0.296791  0.543424  1
  O  O51  1  0.755750  0.747701  0.449740  1
  O  O52  1  0.260365  0.260590  0.743712  1
  O  O53  1  0.266803  0.710680  0.651428  1
  O  O54  1  0.712761  0.265479  0.651256  1
  O  O55  1  0.744571  0.741385  0.543426  1
  O  O56  1  0.285841  0.736347  0.748305  1
  O  O57  1  0.260287  0.260187  0.856265  1
  O  O58  1  0.736084  0.286639  0.748170  1
  O  O59  1  0.738010  0.736694  0.657721  1
  O  O60  1  0.260276  0.698326  0.856270  1
  O  O61  1  0.244912  0.246887  0.952275  1
  O  O62  1  0.736040  0.736466  0.748176  1
  O  O63  1  0.698688  0.260461  0.856091  1
  O  O64  1  0.253743  0.755189  0.947200  1
  O  O65  1  0.727867  0.727264  0.863535  1
  O  O66  1  0.752642  0.255758  0.947251  1
  O  O67  1  0.752613  0.755439  0.947260  1
