# generated using pymatgen
data_Cs2Hg3I8
_symmetry_space_group_name_H-M   'P 1'
_cell_length_a   7.58676867
_cell_length_b   8.10485502
_cell_length_c   12.02752326
_cell_angle_alpha   84.28325154
_cell_angle_beta   71.59962298
_cell_angle_gamma   71.57226491
_symmetry_Int_Tables_number   1
_chemical_formula_structural   Cs2Hg3I8
_chemical_formula_sum   'Cs2 Hg3 I8'
_cell_volume   665.77316171
_cell_formula_units_Z   1
loop_
 _symmetry_equiv_pos_site_id
 _symmetry_equiv_pos_as_xyz
  1  'x, y, z'
loop_
 _atom_site_type_symbol
 _atom_site_label
 _atom_site_symmetry_multiplicity
 _atom_site_fract_x
 _atom_site_fract_y
 _atom_site_fract_z
 _atom_site_occupancy
  Hg  Hg0  1  1.000154  0.000896  0.999978  1
  Hg  Hg1  1  0.686566  0.079985  0.387460  1
  Hg  Hg2  1  0.073938  0.080078  0.612485  1
  I  I3  1  0.338642  0.739792  0.999966  1
  I  I4  1  0.912898  0.357098  0.000048  1
  I  I5  1  0.090916  0.946763  0.389480  1
  I  I6  1  0.480358  0.946883  0.610526  1
  I  I7  1  0.540518  0.439489  0.388422  1
  I  I8  1  0.928683  0.439544  0.611664  1
  I  I9  1  0.882323  0.899941  0.803999  1
  I  I10  1  0.686305  0.900003  0.195961  1
  Cs  Cs11  1  0.103052  0.452754  0.258489  1
  Cs  Cs12  1  0.361646  0.452773  0.741523  1
