# generated using pymatgen
data_AgN3
_symmetry_space_group_name_H-M   'P 1'
_cell_length_a   5.10469083
_cell_length_b   5.10469115
_cell_length_c   5.10469038
_cell_angle_alpha   107.65566443
_cell_angle_beta   109.52190201
_cell_angle_gamma   111.25608246
_symmetry_Int_Tables_number   1
_chemical_formula_structural   AgN3
_chemical_formula_sum   'Ag2 N6'
_cell_volume   102.29576000
_cell_formula_units_Z   2
loop_
 _symmetry_equiv_pos_site_id
 _symmetry_equiv_pos_as_xyz
  1  'x, y, z'
loop_
 _atom_site_type_symbol
 _atom_site_label
 _atom_site_symmetry_multiplicity
 _atom_site_fract_x
 _atom_site_fract_y
 _atom_site_fract_z
 _atom_site_occupancy
  Ag  Ag0  1  0.500000  0.750000  0.250000  1
  Ag  Ag1  1  0.500000  0.250000  0.750000  1
  N  N2  1  0.288185  0.148299  0.139885  1
  N  N3  1  0.711815  0.851701  0.860115  1
  N  N4  1  0.008414  0.648299  0.360115  1
  N  N5  1  0.000000  0.500000  0.500000  1
  N  N6  1  0.991586  0.351701  0.639885  1
  N  N7  1  0.000000  0.000000  0.000000  1
