# generated using pymatgen
data_W2NCl9
_symmetry_space_group_name_H-M   'P 1'
_cell_length_a   9.17433956
_cell_length_b   9.12837519
_cell_length_c   17.30403885
_cell_angle_alpha   90.00000000
_cell_angle_beta   90.00000000
_cell_angle_gamma   90.05182328
_symmetry_Int_Tables_number   1
_chemical_formula_structural   W2NCl9
_chemical_formula_sum   'W8 N4 Cl36'
_cell_volume   1449.15752332
_cell_formula_units_Z   4
loop_
 _symmetry_equiv_pos_site_id
 _symmetry_equiv_pos_as_xyz
  1  'x, y, z'
loop_
 _atom_site_type_symbol
 _atom_site_label
 _atom_site_symmetry_multiplicity
 _atom_site_fract_x
 _atom_site_fract_y
 _atom_site_fract_z
 _atom_site_occupancy
  W  W0  1  0.460862  0.648955  0.191290  1
  W  W1  1  0.960862  0.148955  0.308710  1
  W  W2  1  0.039138  0.851045  0.691290  1
  W  W3  1  0.041366  0.859493  0.907124  1
  W  W4  1  0.958634  0.140507  0.092876  1
  W  W5  1  0.541366  0.359493  0.592876  1
  W  W6  1  0.539138  0.351045  0.808710  1
  W  W7  1  0.458634  0.640507  0.407124  1
  N  N8  1  0.541429  0.358878  0.694354  1
  N  N9  1  0.958571  0.141122  0.194354  1
  N  N10  1  0.458571  0.641122  0.305646  1
  N  N11  1  0.041429  0.858878  0.805646  1
  Cl  Cl12  1  0.476755  0.595959  0.808712  1
  Cl  Cl13  1  0.964322  0.163046  0.441884  1
  Cl  Cl14  1  0.609481  0.122502  0.569158  1
  Cl  Cl15  1  0.390519  0.877498  0.430842  1
  Cl  Cl16  1  0.464322  0.663046  0.058116  1
  Cl  Cl17  1  0.217398  0.584290  0.192033  1
  Cl  Cl18  1  0.704596  0.710957  0.198365  1
  Cl  Cl19  1  0.523245  0.404041  0.191288  1
  Cl  Cl20  1  0.602610  0.107374  0.797298  1
  Cl  Cl21  1  0.030830  0.889994  0.075533  1
  Cl  Cl22  1  0.897390  0.392626  0.297298  1
  Cl  Cl23  1  0.397390  0.892626  0.202702  1
  Cl  Cl24  1  0.300266  0.297042  0.574936  1
  Cl  Cl25  1  0.282602  0.915710  0.692033  1
  Cl  Cl26  1  0.717398  0.084290  0.307967  1
  Cl  Cl27  1  0.778096  0.436295  0.574315  1
  Cl  Cl28  1  0.795404  0.789043  0.698365  1
  Cl  Cl29  1  0.800266  0.797042  0.925064  1
  Cl  Cl30  1  0.469170  0.610006  0.575533  1
  Cl  Cl31  1  0.278096  0.936295  0.925685  1
  Cl  Cl32  1  0.221904  0.563705  0.425685  1
  Cl  Cl33  1  0.890519  0.377498  0.069158  1
  Cl  Cl34  1  0.102610  0.607374  0.702702  1
  Cl  Cl35  1  0.530830  0.389994  0.424467  1
  Cl  Cl36  1  0.035678  0.836954  0.558116  1
  Cl  Cl37  1  0.535678  0.336954  0.941884  1
  Cl  Cl38  1  0.295404  0.289043  0.801635  1
  Cl  Cl39  1  0.976755  0.095959  0.691288  1
  Cl  Cl40  1  0.782602  0.415710  0.807967  1
  Cl  Cl41  1  0.699734  0.702958  0.425064  1
  Cl  Cl42  1  0.721904  0.063705  0.074315  1
  Cl  Cl43  1  0.199734  0.202958  0.074936  1
  Cl  Cl44  1  0.969170  0.110006  0.924467  1
  Cl  Cl45  1  0.023245  0.904041  0.308712  1
  Cl  Cl46  1  0.204596  0.210957  0.301635  1
  Cl  Cl47  1  0.109481  0.622502  0.930842  1
