# generated using pymatgen
data_Cu3As4H18C8I3(NO2)2
_symmetry_space_group_name_H-M   'P 1'
_cell_length_a   11.25749416
_cell_length_b   11.31775799
_cell_length_c   11.31775832
_cell_angle_alpha   112.45988923
_cell_angle_beta   98.33251973
_cell_angle_gamma   98.33251786
_symmetry_Int_Tables_number   1
_chemical_formula_structural   Cu3As4H18C8I3(NO2)2
_chemical_formula_sum   'Cu6 As8 H36 C16 I6 N4 O8'
_cell_volume   1286.52696468
_cell_formula_units_Z   2
loop_
 _symmetry_equiv_pos_site_id
 _symmetry_equiv_pos_as_xyz
  1  'x, y, z'
loop_
 _atom_site_type_symbol
 _atom_site_label
 _atom_site_symmetry_multiplicity
 _atom_site_fract_x
 _atom_site_fract_y
 _atom_site_fract_z
 _atom_site_occupancy
  I  I0  1  0.750000  0.394733  0.605267  1
  I  I1  1  0.250000  0.605267  0.394733  1
  I  I2  1  0.802915  0.792149  0.893760  1
  I  I3  1  0.697085  0.106240  0.207851  1
  I  I4  1  0.197085  0.207851  0.106240  1
  I  I5  1  0.302915  0.893760  0.792149  1
  As  As6  1  0.562197  0.740191  0.118524  1
  As  As7  1  0.937803  0.881476  0.259809  1
  As  As8  1  0.437803  0.259809  0.881476  1
  As  As9  1  0.062197  0.118524  0.740191  1
  As  As10  1  0.529541  0.517622  0.829035  1
  As  As11  1  0.970459  0.170965  0.482378  1
  As  As12  1  0.470459  0.482378  0.170965  1
  As  As13  1  0.029541  0.829035  0.517622  1
  Cu  Cu14  1  0.750000  0.873850  0.126150  1
  Cu  Cu15  1  0.250000  0.126150  0.873850  1
  Cu  Cu16  1  0.745700  0.543437  0.853629  1
  Cu  Cu17  1  0.754300  0.146371  0.456563  1
  Cu  Cu18  1  0.254300  0.456563  0.146371  1
  Cu  Cu19  1  0.245700  0.853629  0.543437  1
  O  O20  1  0.578696  0.635580  0.206275  1
  O  O21  1  0.921304  0.793725  0.364420  1
  O  O22  1  0.421304  0.364420  0.793725  1
  O  O23  1  0.078696  0.206275  0.635580  1
  O  O24  1  0.465914  0.626061  0.959973  1
  O  O25  1  0.034086  0.040027  0.373939  1
  O  O26  1  0.534086  0.373939  0.040027  1
  O  O27  1  0.965914  0.959973  0.626061  1
  C  C28  1  0.424888  0.814921  0.180369  1
  C  C29  1  0.075112  0.819631  0.185079  1
  C  C30  1  0.575112  0.185079  0.819631  1
  C  C31  1  0.924888  0.180369  0.814921  1
  H  H32  1  0.403920  0.879279  0.131968  1
  H  H33  1  0.096080  0.868032  0.120721  1
  H  H34  1  0.596080  0.120721  0.868032  1
  H  H35  1  0.903920  0.131968  0.879279  1
  H  H36  1  0.453242  0.871222  0.286665  1
  H  H37  1  0.046758  0.713335  0.128778  1
  H  H38  1  0.546758  0.128778  0.713335  1
  H  H39  1  0.953242  0.286665  0.871222  1
  H  H40  1  0.345785  0.734419  0.156032  1
  H  H41  1  0.154215  0.843968  0.265581  1
  H  H42  1  0.654215  0.265581  0.843968  1
  H  H43  1  0.845785  0.156032  0.734419  1
  C  C44  1  0.435830  0.548651  0.688191  1
  C  C45  1  0.064170  0.311809  0.451349  1
  C  C46  1  0.564170  0.451349  0.311809  1
  C  C47  1  0.935830  0.688191  0.548651  1
  H  H48  1  0.465964  0.498956  0.597463  1
  H  H49  1  0.034036  0.402537  0.501044  1
  H  H50  1  0.534036  0.501044  0.402537  1
  H  H51  1  0.965964  0.597463  0.498956  1
  H  H52  1  0.453879  0.654501  0.715231  1
  H  H53  1  0.046121  0.284769  0.345499  1
  H  H54  1  0.546121  0.345499  0.284769  1
  H  H55  1  0.953879  0.715231  0.654501  1
  H  H56  1  0.337764  0.510785  0.676907  1
  H  H57  1  0.162236  0.323093  0.489215  1
  H  H58  1  0.662236  0.489215  0.323093  1
  H  H59  1  0.837764  0.676907  0.510785  1
  N  N60  1  0.828090  0.501639  0.987942  1
  N  N61  1  0.671910  0.012058  0.498361  1
  N  N62  1  0.171910  0.498361  0.012058  1
  N  N63  1  0.328090  0.987942  0.501639  1
  C  C64  1  0.856409  0.469410  0.072316  1
  C  C65  1  0.643591  0.927684  0.530590  1
  C  C66  1  0.143591  0.530590  0.927684  1
  C  C67  1  0.356409  0.072316  0.469410  1
  C  C68  1  0.890713  0.428356  0.175927  1
  C  C69  1  0.609287  0.824073  0.571644  1
  C  C70  1  0.109287  0.571644  0.824073  1
  C  C71  1  0.390713  0.175927  0.428356  1
  H  H72  1  0.829446  0.334797  0.156890  1
  H  H73  1  0.670554  0.843110  0.665203  1
  H  H74  1  0.170554  0.665203  0.843110  1
  H  H75  1  0.329446  0.156890  0.334797  1
  H  H76  1  0.883176  0.503303  0.269347  1
  H  H77  1  0.616824  0.730653  0.496697  1
  H  H78  1  0.116824  0.496697  0.730653  1
  H  H79  1  0.383176  0.269347  0.503303  1
  H  H80  1  0.986550  0.416541  0.183657  1
  H  H81  1  0.513450  0.816343  0.583459  1
  H  H82  1  0.013450  0.583459  0.816343  1
  H  H83  1  0.486550  0.183657  0.416541  1
