# generated using pymatgen
data_YbIn4Pd
_symmetry_space_group_name_H-M   'P 1'
_cell_length_a   4.48987321
_cell_length_b   7.63680445
_cell_length_c   8.72488958
_cell_angle_alpha   90.00000000
_cell_angle_beta   104.91006524
_cell_angle_gamma   90.00000000
_symmetry_Int_Tables_number   1
_chemical_formula_structural   YbIn4Pd
_chemical_formula_sum   'Yb2 In8 Pd2'
_cell_volume   289.08898917
_cell_formula_units_Z   2
loop_
 _symmetry_equiv_pos_site_id
 _symmetry_equiv_pos_as_xyz
  1  'x, y, z'
loop_
 _atom_site_type_symbol
 _atom_site_label
 _atom_site_symmetry_multiplicity
 _atom_site_fract_x
 _atom_site_fract_y
 _atom_site_fract_z
 _atom_site_occupancy
  Yb  Yb0  1  0.871773  0.250000  0.743545  1
  Yb  Yb1  1  0.128227  0.750000  0.256455  1
  In  In2  1  0.317914  0.548554  0.635827  1
  In  In3  1  0.682086  0.048554  0.364173  1
  In  In4  1  0.934679  0.750000  0.869358  1
  In  In5  1  0.682086  0.451446  0.364173  1
  In  In6  1  0.317914  0.951446  0.635827  1
  In  In7  1  0.065321  0.250000  0.130642  1
  In  In8  1  0.500000  0.500000  0.000000  1
  In  In9  1  0.500000  0.000000  0.000000  1
  Pd  Pd10  1  0.772540  0.750000  0.545080  1
  Pd  Pd11  1  0.227460  0.250000  0.454920  1
