# generated using pymatgen
data_LiY6B3O14
_symmetry_space_group_name_H-M   'P 1'
_cell_length_a   8.43057165
_cell_length_b   8.90843073
_cell_length_c   15.63134411
_cell_angle_alpha   90.00000000
_cell_angle_beta   90.00000000
_cell_angle_gamma   91.85278571
_symmetry_Int_Tables_number   1
_chemical_formula_structural   LiY6B3O14
_chemical_formula_sum   'Li4 Y24 B12 O56'
_cell_volume   1173.34964296
_cell_formula_units_Z   4
loop_
 _symmetry_equiv_pos_site_id
 _symmetry_equiv_pos_as_xyz
  1  'x, y, z'
loop_
 _atom_site_type_symbol
 _atom_site_label
 _atom_site_symmetry_multiplicity
 _atom_site_fract_x
 _atom_site_fract_y
 _atom_site_fract_z
 _atom_site_occupancy
  Li  Li0  1  0.180146  0.063765  0.105795  1
  Li  Li1  1  0.819854  0.936235  0.894205  1
  Li  Li2  1  0.319854  0.436235  0.605795  1
  Li  Li3  1  0.680146  0.563765  0.394205  1
  Y  Y4  1  0.422418  0.834920  0.333676  1
  Y  Y5  1  0.541187  0.556129  0.173587  1
  Y  Y6  1  0.856089  0.307321  0.821686  1
  Y  Y7  1  0.051572  0.716262  0.486556  1
  Y  Y8  1  0.143911  0.692679  0.178314  1
  Y  Y9  1  0.277210  0.424234  0.355761  1
  Y  Y10  1  0.643911  0.192679  0.321686  1
  Y  Y11  1  0.922418  0.334920  0.166324  1
  Y  Y12  1  0.722790  0.575766  0.644239  1
  Y  Y13  1  0.356089  0.807321  0.678314  1
  Y  Y14  1  0.777210  0.924234  0.144239  1
  Y  Y15  1  0.448428  0.783738  0.986556  1
  Y  Y16  1  0.551572  0.216262  0.013444  1
  Y  Y17  1  0.699513  0.938765  0.496227  1
  Y  Y18  1  0.222790  0.075766  0.855761  1
  Y  Y19  1  0.958813  0.943871  0.673587  1
  Y  Y20  1  0.458813  0.443871  0.826413  1
  Y  Y21  1  0.300487  0.061235  0.503773  1
  Y  Y22  1  0.077582  0.665080  0.833676  1
  Y  Y23  1  0.041187  0.056129  0.326413  1
  Y  Y24  1  0.800487  0.561235  0.996227  1
  Y  Y25  1  0.199513  0.438765  0.003773  1
  Y  Y26  1  0.577582  0.165080  0.666324  1
  Y  Y27  1  0.948428  0.283738  0.513444  1
  B  B28  1  0.321864  0.277778  0.191946  1
  B  B29  1  0.928626  0.471738  0.327426  1
  B  B30  1  0.071374  0.528262  0.672574  1
  B  B31  1  0.934482  0.145619  0.999861  1
  B  B32  1  0.428626  0.971738  0.172574  1
  B  B33  1  0.821864  0.777778  0.308054  1
  B  B34  1  0.571374  0.028262  0.827426  1
  B  B35  1  0.434482  0.645619  0.500139  1
  B  B36  1  0.178136  0.222222  0.691946  1
  B  B37  1  0.565518  0.354381  0.499861  1
  B  B38  1  0.065518  0.854381  0.000139  1
  B  B39  1  0.678136  0.722222  0.808054  1
  O  O40  1  0.148215  0.199484  0.605830  1
  O  O41  1  0.532226  0.381277  0.414682  1
  O  O42  1  0.467774  0.618723  0.585318  1
  O  O43  1  0.948495  0.504603  0.730790  1
  O  O44  1  0.051505  0.495397  0.269210  1
  O  O45  1  0.715779  0.078881  0.794335  1
  O  O46  1  0.960256  0.492160  0.413039  1
  O  O47  1  0.209587  0.906826  0.964970  1
  O  O48  1  0.009814  0.536346  0.090114  1
  O  O49  1  0.541853  0.723007  0.449037  1
  O  O50  1  0.306857  0.604755  0.901828  1
  O  O51  1  0.177168  0.224319  0.223229  1
  O  O52  1  0.039744  0.507840  0.586961  1
  O  O53  1  0.460256  0.992160  0.086961  1
  O  O54  1  0.322832  0.275681  0.723229  1
  O  O55  1  0.058992  0.177976  0.750162  1
  O  O56  1  0.941008  0.822025  0.249838  1
  O  O57  1  0.284221  0.921119  0.205665  1
  O  O58  1  0.790413  0.093174  0.035030  1
  O  O59  1  0.509814  0.036346  0.409886  1
  O  O60  1  0.157847  0.223016  0.420199  1
  O  O61  1  0.677168  0.724319  0.276771  1
  O  O62  1  0.215779  0.578881  0.705665  1
  O  O63  1  0.990186  0.463654  0.909886  1
  O  O64  1  0.041853  0.223007  0.050963  1
  O  O65  1  0.448495  0.004603  0.769210  1
  O  O66  1  0.458147  0.276993  0.550963  1
  O  O67  1  0.351785  0.300516  0.105830  1
  O  O68  1  0.657847  0.723016  0.079801  1
  O  O69  1  0.032226  0.881277  0.085318  1
  O  O70  1  0.558992  0.677975  0.749838  1
  O  O71  1  0.842153  0.776984  0.579801  1
  O  O72  1  0.693143  0.395245  0.098172  1
  O  O73  1  0.161228  0.875138  0.585009  1
  O  O74  1  0.838772  0.124862  0.414991  1
  O  O75  1  0.848428  0.121904  0.232153  1
  O  O76  1  0.851785  0.800516  0.394170  1
  O  O77  1  0.193143  0.895245  0.401828  1
  O  O78  1  0.958147  0.776993  0.949037  1
  O  O79  1  0.784221  0.421119  0.294335  1
  O  O80  1  0.441008  0.322024  0.250162  1
  O  O81  1  0.151572  0.878096  0.767847  1
  O  O82  1  0.348428  0.621904  0.267847  1
  O  O83  1  0.651572  0.378096  0.732153  1
  O  O84  1  0.338772  0.624862  0.085009  1
  O  O85  1  0.806857  0.104755  0.598172  1
  O  O86  1  0.648215  0.699484  0.894170  1
  O  O87  1  0.709587  0.406826  0.535030  1
  O  O88  1  0.490186  0.963654  0.590114  1
  O  O89  1  0.290413  0.593174  0.464970  1
  O  O90  1  0.342153  0.276984  0.920199  1
  O  O91  1  0.551505  0.995397  0.230790  1
  O  O92  1  0.967774  0.118723  0.914682  1
  O  O93  1  0.539744  0.007840  0.913039  1
  O  O94  1  0.661228  0.375138  0.914991  1
  O  O95  1  0.822832  0.775681  0.776771  1
