# generated using pymatgen
data_SnSb2As2F18
_symmetry_space_group_name_H-M   'P 1'
_cell_length_a   6.18493287
_cell_length_b   11.31776408
_cell_length_c   11.69836459
_cell_angle_alpha   90.00000000
_cell_angle_beta   90.00000000
_cell_angle_gamma   90.31247139
_symmetry_Int_Tables_number   1
_chemical_formula_structural   SnSb2As2F18
_chemical_formula_sum   'Sn2 Sb4 As4 F36'
_cell_volume   818.86879354
_cell_formula_units_Z   2
loop_
 _symmetry_equiv_pos_site_id
 _symmetry_equiv_pos_as_xyz
  1  'x, y, z'
loop_
 _atom_site_type_symbol
 _atom_site_label
 _atom_site_symmetry_multiplicity
 _atom_site_fract_x
 _atom_site_fract_y
 _atom_site_fract_z
 _atom_site_occupancy
  Sn  Sn0  1  0.997965  0.501261  0.368263  1
  Sn  Sn1  1  0.997965  0.001261  0.631737  1
  Sb  Sb2  1  0.486991  0.468945  0.112637  1
  Sb  Sb3  1  0.486991  0.968945  0.887363  1
  Sb  Sb4  1  0.487245  0.769860  0.468446  1
  Sb  Sb5  1  0.487245  0.269860  0.531554  1
  As  As6  1  0.905967  0.128587  0.245606  1
  As  As7  1  0.905967  0.628587  0.754394  1
  As  As8  1  0.112996  0.288847  0.865076  1
  As  As9  1  0.112996  0.788847  0.134924  1
  F  F10  1  0.682033  0.896258  0.510321  1
  F  F11  1  0.962351  0.277629  0.293238  1
  F  F12  1  0.726504  0.675864  0.415199  1
  F  F13  1  0.293479  0.454633  0.246144  1
  F  F14  1  0.234776  0.459784  0.017677  1
  F  F15  1  0.944075  0.741358  0.022869  1
  F  F16  1  0.289911  0.141612  0.570058  1
  F  F17  1  0.167786  0.108239  0.192201  1
  F  F18  1  0.449248  0.833999  0.319550  1
  F  F19  1  0.289911  0.641612  0.429942  1
  F  F20  1  0.031879  0.665168  0.226917  1
  F  F21  1  0.962351  0.777629  0.706762  1
  F  F22  1  0.963313  0.067244  0.382409  1
  F  F23  1  0.919976  0.383247  0.800165  1
  F  F24  1  0.515847  0.203696  0.382854  1
  F  F25  1  0.234776  0.959784  0.982323  1
  F  F26  1  0.919976  0.883247  0.199835  1
  F  F27  1  0.456539  0.136351  0.874689  1
  F  F28  1  0.456539  0.636351  0.125311  1
  F  F29  1  0.449248  0.333999  0.680450  1
  F  F30  1  0.726504  0.175864  0.584801  1
  F  F31  1  0.242529  0.863249  0.518109  1
  F  F32  1  0.167786  0.608239  0.807799  1
  F  F33  1  0.944075  0.241358  0.977131  1
  F  F34  1  0.963313  0.567244  0.617591  1
  F  F35  1  0.031879  0.165168  0.773083  1
  F  F36  1  0.515847  0.703696  0.617146  1
  F  F37  1  0.515114  0.302214  0.112581  1
  F  F38  1  0.515114  0.802214  0.887419  1
  F  F39  1  0.293479  0.954633  0.753856  1
  F  F40  1  0.682033  0.396258  0.489679  1
  F  F41  1  0.681146  0.487759  0.988684  1
  F  F42  1  0.681146  0.987759  0.011316  1
  F  F43  1  0.722231  0.478596  0.224374  1
  F  F44  1  0.722231  0.978596  0.775626  1
  F  F45  1  0.242529  0.363249  0.481891  1
