# generated using pymatgen
data_Fe3O4
_symmetry_space_group_name_H-M   'P 1'
_cell_length_a   3.01278024
_cell_length_b   10.05688607
_cell_length_c   10.46110320
_cell_angle_alpha   90.00000000
_cell_angle_beta   90.01387175
_cell_angle_gamma   90.00000000
_symmetry_Int_Tables_number   1
_chemical_formula_structural   Fe3O4
_chemical_formula_sum   'Fe12 O16'
_cell_volume   316.96291895
_cell_formula_units_Z   4
loop_
 _symmetry_equiv_pos_site_id
 _symmetry_equiv_pos_as_xyz
  1  'x, y, z'
loop_
 _atom_site_type_symbol
 _atom_site_label
 _atom_site_symmetry_multiplicity
 _atom_site_fract_x
 _atom_site_fract_y
 _atom_site_fract_z
 _atom_site_occupancy
  Fe  Fe0  1  0.279186  0.377359  0.250758  1
  Fe  Fe1  1  0.272077  0.124205  0.750055  1
  Fe  Fe2  1  0.720814  0.877359  0.249242  1
  Fe  Fe3  1  0.727923  0.624205  0.749945  1
  Fe  Fe4  1  0.246396  0.121257  0.072899  1
  Fe  Fe5  1  0.753604  0.621257  0.427101  1
  Fe  Fe6  1  0.245705  0.381649  0.926686  1
  Fe  Fe7  1  0.754295  0.881649  0.573314  1
  Fe  Fe8  1  0.753153  0.880463  0.925961  1
  Fe  Fe9  1  0.753951  0.619842  0.073265  1
  Fe  Fe10  1  0.246847  0.380462  0.574039  1
  Fe  Fe11  1  0.246049  0.119842  0.426735  1
  O  O12  1  0.252887  0.186518  0.250753  1
  O  O13  1  0.252945  0.312112  0.751242  1
  O  O14  1  0.747113  0.686518  0.249247  1
  O  O15  1  0.747055  0.812112  0.748758  1
  O  O16  1  0.252802  0.487538  0.101607  1
  O  O17  1  0.251852  0.010221  0.897435  1
  O  O18  1  0.747198  0.987538  0.398393  1
  O  O19  1  0.748148  0.510221  0.602565  1
  O  O20  1  0.747457  0.511368  0.897560  1
  O  O21  1  0.747713  0.989047  0.098853  1
  O  O22  1  0.252543  0.011368  0.602440  1
  O  O23  1  0.252287  0.489047  0.401147  1
  O  O24  1  0.750002  0.249562  0.001210  1
  O  O25  1  0.249998  0.749562  0.498790  1
  O  O26  1  0.251756  0.748860  0.999232  1
  O  O27  1  0.748244  0.248860  0.500768  1
