# generated using pymatgen
data_KZrVF7
_symmetry_space_group_name_H-M   'P 1'
_cell_length_a   6.65308701
_cell_length_b   8.10453585
_cell_length_c   11.32642596
_cell_angle_alpha   90.00000000
_cell_angle_beta   90.00000000
_cell_angle_gamma   90.00000000
_symmetry_Int_Tables_number   1
_chemical_formula_structural   KZrVF7
_chemical_formula_sum   'K4 Zr4 V4 F28'
_cell_volume   610.72295128
_cell_formula_units_Z   4
loop_
 _symmetry_equiv_pos_site_id
 _symmetry_equiv_pos_as_xyz
  1  'x, y, z'
loop_
 _atom_site_type_symbol
 _atom_site_label
 _atom_site_symmetry_multiplicity
 _atom_site_fract_x
 _atom_site_fract_y
 _atom_site_fract_z
 _atom_site_occupancy
  K  K0  1  0.262431  0.000000  0.750000  1
  K  K1  1  0.737569  0.000000  0.250000  1
  K  K2  1  0.237569  0.500000  0.750000  1
  K  K3  1  0.762431  0.500000  0.250000  1
  Zr  Zr4  1  0.750000  0.750000  0.593380  1
  Zr  Zr5  1  0.250000  0.250000  0.406620  1
  Zr  Zr6  1  0.250000  0.750000  0.093380  1
  Zr  Zr7  1  0.750000  0.250000  0.906620  1
  V  V8  1  0.750000  0.250000  0.597079  1
  V  V9  1  0.250000  0.250000  0.097079  1
  V  V10  1  0.250000  0.750000  0.402921  1
  V  V11  1  0.750000  0.750000  0.902921  1
  F  F12  1  0.050919  0.199091  0.955809  1
  F  F13  1  0.050919  0.800909  0.544191  1
  F  F14  1  0.449081  0.699091  0.544191  1
  F  F15  1  0.449081  0.300909  0.955809  1
  F  F16  1  0.949081  0.800909  0.044191  1
  F  F17  1  0.949081  0.199091  0.455809  1
  F  F18  1  0.550919  0.300909  0.455809  1
  F  F19  1  0.550919  0.699091  0.044191  1
  F  F20  1  0.250000  0.750000  0.913638  1
  F  F21  1  0.250000  0.250000  0.586362  1
  F  F22  1  0.750000  0.250000  0.086362  1
  F  F23  1  0.750000  0.750000  0.413638  1
  F  F24  1  0.930106  0.786845  0.750187  1
  F  F25  1  0.930106  0.213155  0.749813  1
  F  F26  1  0.569894  0.286845  0.749813  1
  F  F27  1  0.569894  0.713155  0.750187  1
  F  F28  1  0.069894  0.213155  0.249813  1
  F  F29  1  0.069894  0.786845  0.250187  1
  F  F30  1  0.430106  0.713155  0.250187  1
  F  F31  1  0.430106  0.286845  0.249813  1
  F  F32  1  0.673518  0.003949  0.899040  1
  F  F33  1  0.673518  0.996051  0.600960  1
  F  F34  1  0.826482  0.503949  0.600960  1
  F  F35  1  0.826482  0.496051  0.899040  1
  F  F36  1  0.326482  0.996051  0.100960  1
  F  F37  1  0.326482  0.003949  0.399040  1
  F  F38  1  0.173518  0.496051  0.399040  1
  F  F39  1  0.173518  0.503949  0.100960  1
