# generated using pymatgen
data_PO2
_symmetry_space_group_name_H-M   'P 1'
_cell_length_a   7.29814423
_cell_length_b   7.23359099
_cell_length_c   7.23359116
_cell_angle_alpha   93.12995496
_cell_angle_beta   94.96859847
_cell_angle_gamma   94.96859701
_symmetry_Int_Tables_number   1
_chemical_formula_structural   PO2
_chemical_formula_sum   'P8 O16'
_cell_volume   378.26702039
_cell_formula_units_Z   8
loop_
 _symmetry_equiv_pos_site_id
 _symmetry_equiv_pos_as_xyz
  1  'x, y, z'
loop_
 _atom_site_type_symbol
 _atom_site_label
 _atom_site_symmetry_multiplicity
 _atom_site_fract_x
 _atom_site_fract_y
 _atom_site_fract_z
 _atom_site_occupancy
  P  P0  1  0.823611  0.021803  0.256125  1
  P  P1  1  0.323611  0.256125  0.021803  1
  P  P2  1  0.559539  0.724837  0.353304  1
  P  P3  1  0.176389  0.978197  0.743875  1
  P  P4  1  0.440461  0.275163  0.646696  1
  P  P5  1  0.940461  0.646696  0.275163  1
  P  P6  1  0.059539  0.353304  0.724837  1
  P  P7  1  0.676389  0.743875  0.978197  1
  O  O8  1  0.750000  0.618816  0.381184  1
  O  O9  1  0.655314  0.948445  0.368457  1
  O  O10  1  0.978533  0.882663  0.300123  1
  O  O11  1  0.750000  0.959286  0.040714  1
  O  O12  1  0.344686  0.051555  0.631543  1
  O  O13  1  0.478533  0.300123  0.882663  1
  O  O14  1  0.250000  0.040714  0.959286  1
  O  O15  1  0.250000  0.381184  0.618816  1
  O  O16  1  0.114233  0.780887  0.713745  1
  O  O17  1  0.155314  0.368457  0.948445  1
  O  O18  1  0.844686  0.631543  0.051555  1
  O  O19  1  0.885767  0.219113  0.286255  1
  O  O20  1  0.614233  0.713745  0.780887  1
  O  O21  1  0.521467  0.699877  0.117337  1
  O  O22  1  0.021467  0.117337  0.699877  1
  O  O23  1  0.385767  0.286255  0.219113  1
