# generated using pymatgen
data_FeCoH18(CN2)6
_symmetry_space_group_name_H-M   'P 1'
_cell_length_a   7.34049102
_cell_length_b   7.34049176
_cell_length_c   7.34049175
_cell_angle_alpha   97.61973833
_cell_angle_beta   97.61973904
_cell_angle_gamma   97.61973569
_symmetry_Int_Tables_number   1
_chemical_formula_structural   FeCoH18(CN2)6
_chemical_formula_sum   'Fe1 Co1 H18 C6 N12'
_cell_volume   384.00510723
_cell_formula_units_Z   1
loop_
 _symmetry_equiv_pos_site_id
 _symmetry_equiv_pos_as_xyz
  1  'x, y, z'
loop_
 _atom_site_type_symbol
 _atom_site_label
 _atom_site_symmetry_multiplicity
 _atom_site_fract_x
 _atom_site_fract_y
 _atom_site_fract_z
 _atom_site_occupancy
  Fe  Fe0  1  0.000000  0.000000  0.000000  1
  N  N1  1  0.370009  0.207552  0.924791  1
  N  N2  1  0.924791  0.370009  0.207552  1
  N  N3  1  0.207552  0.924791  0.370009  1
  N  N4  1  0.629991  0.792448  0.075209  1
  N  N5  1  0.075209  0.629991  0.792448  1
  N  N6  1  0.792448  0.075209  0.629991  1
  C  C7  1  0.229011  0.125540  0.950917  1
  C  C8  1  0.950917  0.229011  0.125540  1
  C  C9  1  0.125540  0.950917  0.229011  1
  C  C10  1  0.770989  0.874460  0.049084  1
  C  C11  1  0.049084  0.770989  0.874460  1
  C  C12  1  0.874460  0.049084  0.770989  1
  Co  Co13  1  0.500000  0.500000  0.500000  1
  N  N14  1  0.551314  0.261139  0.371769  1
  N  N15  1  0.371769  0.551314  0.261139  1
  N  N16  1  0.261139  0.371769  0.551314  1
  N  N17  1  0.448686  0.738861  0.628231  1
  N  N18  1  0.628231  0.448686  0.738861  1
  N  N19  1  0.738861  0.628231  0.448686  1
  H  H20  1  0.652855  0.205529  0.449057  1
  H  H21  1  0.449057  0.652855  0.205529  1
  H  H22  1  0.205529  0.449057  0.652855  1
  H  H23  1  0.347145  0.794471  0.550943  1
  H  H24  1  0.550943  0.347145  0.794471  1
  H  H25  1  0.794471  0.550943  0.347145  1
  H  H26  1  0.435789  0.160028  0.345216  1
  H  H27  1  0.345216  0.435789  0.160028  1
  H  H28  1  0.160028  0.345216  0.435789  1
  H  H29  1  0.564211  0.839972  0.654784  1
  H  H30  1  0.654784  0.564211  0.839972  1
  H  H31  1  0.839972  0.654784  0.564211  1
  H  H32  1  0.594166  0.273310  0.245860  1
  H  H33  1  0.245860  0.594166  0.273310  1
  H  H34  1  0.273310  0.245860  0.594166  1
  H  H35  1  0.405834  0.726690  0.754140  1
  H  H36  1  0.754140  0.405834  0.726690  1
  H  H37  1  0.726690  0.754140  0.405834  1
