# generated using pymatgen
data_V9O17
_symmetry_space_group_name_H-M   'P 1'
_cell_length_a   5.56470437
_cell_length_b   7.11667865
_cell_length_c   14.73043714
_cell_angle_alpha   83.70899098
_cell_angle_beta   90.45317445
_cell_angle_gamma   71.76293804
_symmetry_Int_Tables_number   1
_chemical_formula_structural   V9O17
_chemical_formula_sum   'V18 O34'
_cell_volume   550.16875893
_cell_formula_units_Z   2
loop_
 _symmetry_equiv_pos_site_id
 _symmetry_equiv_pos_as_xyz
  1  'x, y, z'
loop_
 _atom_site_type_symbol
 _atom_site_label
 _atom_site_symmetry_multiplicity
 _atom_site_fract_x
 _atom_site_fract_y
 _atom_site_fract_z
 _atom_site_occupancy
  V  V0  1  0.325421  0.910599  0.729457  1
  V  V1  1  0.674047  0.089013  0.270268  1
  V  V2  1  0.743400  0.109888  0.842863  1
  V  V3  1  0.256649  0.890058  0.157339  1
  V  V4  1  0.342015  0.411118  0.725978  1
  V  V5  1  0.657726  0.587943  0.274365  1
  V  V6  1  0.916104  0.201340  0.618015  1
  V  V7  1  0.084250  0.798277  0.381890  1
  V  V8  1  0.249623  0.386844  0.162096  1
  V  V9  1  0.749296  0.613029  0.838029  1
  V  V10  1  0.809667  0.686106  0.044668  1
  V  V11  1  0.190979  0.315426  0.955119  1
  V  V12  1  0.929180  0.698649  0.610276  1
  V  V13  1  0.071410  0.300699  0.389780  1
  V  V14  1  0.807292  0.189770  0.041657  1
  V  V15  1  0.193030  0.812163  0.958383  1
  V  V16  1  0.500827  0.999646  0.499892  1
  V  V17  1  0.500057  0.499641  0.500237  1
  O  O18  1  0.151945  0.184224  0.096162  1
  O  O19  1  0.848187  0.816948  0.904305  1
  O  O20  1  0.973724  0.061239  0.750033  1
  O  O21  1  0.025573  0.939065  0.249903  1
  O  O22  1  0.202126  0.021343  0.419353  1
  O  O23  1  0.798521  0.978345  0.580355  1
  O  O24  1  0.209392  0.525826  0.024104  1
  O  O25  1  0.791486  0.474929  0.975538  1
  O  O26  1  0.705068  0.972691  0.391869  1
  O  O27  1  0.295611  0.026374  0.608183  1
  O  O28  1  0.550035  0.369668  0.628124  1
  O  O29  1  0.450382  0.629946  0.372122  1
  O  O30  1  0.791834  0.302515  0.307069  1
  O  O31  1  0.208212  0.696748  0.693114  1
  O  O32  1  0.629818  0.394629  0.806717  1
  O  O33  1  0.368892  0.605487  0.193593  1
  O  O34  1  0.146728  0.667304  0.508952  1
  O  O35  1  0.853573  0.332678  0.491129  1
  O  O36  1  0.461007  0.819875  0.047714  1
  O  O37  1  0.539024  0.181915  0.952379  1
  O  O38  1  0.034933  0.117993  0.930374  1
  O  O39  1  0.964395  0.884512  0.069492  1
  O  O40  1  0.448860  0.122551  0.771986  1
  O  O41  1  0.551269  0.876570  0.228197  1
  O  O42  1  0.392601  0.771845  0.853478  1
  O  O43  1  0.606443  0.226849  0.146584  1
  O  O44  1  0.030789  0.424723  0.652868  1
  O  O45  1  0.969883  0.574770  0.346539  1
  O  O46  1  0.376036  0.290985  0.466507  1
  O  O47  1  0.624410  0.708547  0.533631  1
  O  O48  1  0.301846  0.260035  0.275496  1
  O  O49  1  0.698520  0.740282  0.724946  1
  O  O50  1  0.114361  0.452443  0.837583  1
  O  O51  1  0.883542  0.545933  0.161286  1
