# generated using pymatgen
data_BaSi6N8O
_symmetry_space_group_name_H-M   'P 1'
_cell_length_a   4.86937387
_cell_length_b   6.82807179
_cell_length_c   6.82807273
_cell_angle_alpha   73.46510658
_cell_angle_beta   69.11029232
_cell_angle_gamma   69.11029392
_symmetry_Int_Tables_number   1
_chemical_formula_structural   BaSi6N8O
_chemical_formula_sum   'Ba1 Si6 N8 O1'
_cell_volume   194.90769328
_cell_formula_units_Z   1
loop_
 _symmetry_equiv_pos_site_id
 _symmetry_equiv_pos_as_xyz
  1  'x, y, z'
loop_
 _atom_site_type_symbol
 _atom_site_label
 _atom_site_symmetry_multiplicity
 _atom_site_fract_x
 _atom_site_fract_y
 _atom_site_fract_z
 _atom_site_occupancy
  Ba  Ba0  1  0.498142  0.500000  0.500000  1
  Si  Si1  1  0.179644  0.644677  0.037963  1
  Si  Si2  1  0.685234  0.839413  0.839413  1
  Si  Si3  1  0.179644  0.037963  0.644677  1
  Si  Si4  1  0.364059  0.160587  0.160587  1
  Si  Si5  1  0.862285  0.962037  0.355323  1
  Si  Si6  1  0.862285  0.355323  0.962037  1
  N  N7  1  0.052818  0.725538  0.274462  1
  N  N8  1  0.902534  0.954528  0.603081  1
  N  N9  1  0.052818  0.274462  0.725538  1
  N  N10  1  0.987711  0.186817  0.186817  1
  N  N11  1  0.902534  0.603081  0.954528  1
  N  N12  1  0.361344  0.813183  0.813183  1
  N  N13  1  0.460143  0.396919  0.045472  1
  N  N14  1  0.460143  0.045472  0.396919  1
  O  O15  1  0.612164  1.000000  0.000000  1
