# generated using pymatgen
data_CdH16C4(Br2N)2
_symmetry_space_group_name_H-M   'P 1'
_cell_length_a   8.38590141
_cell_length_b   12.06449458
_cell_length_c   15.64011469
_cell_angle_alpha   90.00000000
_cell_angle_beta   95.21325596
_cell_angle_gamma   90.00000000
_symmetry_Int_Tables_number   1
_chemical_formula_structural   CdH16C4(Br2N)2
_chemical_formula_sum   'Cd4 H64 C16 Br16 N8'
_cell_volume   1575.79091122
_cell_formula_units_Z   4
loop_
 _symmetry_equiv_pos_site_id
 _symmetry_equiv_pos_as_xyz
  1  'x, y, z'
loop_
 _atom_site_type_symbol
 _atom_site_label
 _atom_site_symmetry_multiplicity
 _atom_site_fract_x
 _atom_site_fract_y
 _atom_site_fract_z
 _atom_site_occupancy
  Cd  Cd0  1  0.713040  0.205869  0.952083  1
  Cd  Cd1  1  0.786960  0.705869  0.547917  1
  Cd  Cd2  1  0.213040  0.294131  0.452083  1
  Cd  Cd3  1  0.286960  0.794131  0.047917  1
  H  H4  1  0.313972  0.702666  0.344499  1
  H  H5  1  0.620145  0.718773  0.929844  1
  H  H6  1  0.305064  0.785873  0.483733  1
  H  H7  1  0.165251  0.606512  0.654880  1
  H  H8  1  0.879855  0.218773  0.570156  1
  H  H9  1  0.656437  0.022157  0.117104  1
  H  H10  1  0.156437  0.477843  0.617104  1
  H  H11  1  0.992227  0.492453  0.731818  1
  H  H12  1  0.839081  0.455090  0.200024  1
  H  H13  1  0.073346  0.329054  0.145589  1
  H  H14  1  0.925419  0.962277  0.119116  1
  H  H15  1  0.840784  0.051201  0.491069  1
  H  H16  1  0.731274  0.672744  0.796365  1
  H  H17  1  0.923419  0.925657  0.230269  1
  H  H18  1  0.665251  0.893488  0.154880  1
  H  H19  1  0.133718  0.975288  0.395521  1
  H  H20  1  0.366282  0.475288  0.104479  1
  H  H21  1  0.194936  0.285873  0.016267  1
  H  H22  1  0.829935  0.520099  0.951648  1
  H  H23  1  0.574581  0.462277  0.380884  1
  H  H24  1  0.074581  0.037723  0.880884  1
  H  H25  1  0.633718  0.524712  0.895521  1
  H  H26  1  0.170065  0.479901  0.048352  1
  H  H27  1  0.160919  0.544910  0.799976  1
  H  H28  1  0.007773  0.507547  0.268182  1
  H  H29  1  0.576581  0.425657  0.269731  1
  H  H30  1  0.658912  0.096228  0.262948  1
  H  H31  1  0.231274  0.827256  0.296365  1
  H  H32  1  0.507773  0.992453  0.768182  1
  H  H33  1  0.660919  0.955090  0.299976  1
  H  H34  1  0.426654  0.829054  0.354411  1
  H  H35  1  0.805064  0.714127  0.983733  1
  H  H36  1  0.841088  0.596228  0.237052  1
  H  H37  1  0.589572  0.568867  0.301261  1
  H  H38  1  0.268726  0.327256  0.203635  1
  H  H39  1  0.768726  0.172744  0.703635  1
  H  H40  1  0.343563  0.977843  0.882896  1
  H  H41  1  0.670065  0.020099  0.548352  1
  H  H42  1  0.910428  0.068867  0.198739  1
  H  H43  1  0.120145  0.781227  0.429845  1
  H  H44  1  0.926654  0.670946  0.854411  1
  H  H45  1  0.694936  0.214127  0.516267  1
  H  H46  1  0.492227  0.007547  0.231818  1
  H  H47  1  0.089572  0.931133  0.801261  1
  H  H48  1  0.379855  0.281227  0.070155  1
  H  H49  1  0.076581  0.074343  0.769731  1
  H  H50  1  0.834749  0.393488  0.345120  1
  H  H51  1  0.159216  0.948799  0.508931  1
  H  H52  1  0.423419  0.574343  0.730269  1
  H  H53  1  0.425419  0.537723  0.619116  1
  H  H54  1  0.329935  0.979901  0.451648  1
  H  H55  1  0.813972  0.797334  0.844499  1
  H  H56  1  0.340784  0.448799  0.991069  1
  H  H57  1  0.158912  0.403772  0.762948  1
  H  H58  1  0.866282  0.024712  0.604479  1
  H  H59  1  0.573346  0.170946  0.645589  1
  H  H60  1  0.843563  0.522157  0.382896  1
  H  H61  1  0.410428  0.431133  0.698739  1
  H  H62  1  0.186028  0.202666  0.155501  1
  H  H63  1  0.341088  0.903772  0.737052  1
  H  H64  1  0.334749  0.106512  0.845120  1
  H  H65  1  0.686028  0.297334  0.655501  1
  H  H66  1  0.339081  0.044910  0.700024  1
  H  H67  1  0.659216  0.551201  0.008931  1
  C  C68  1  0.787371  0.060611  0.552021  1
  C  C69  1  0.693532  0.207124  0.649078  1
  C  C70  1  0.877821  0.511153  0.253054  1
  C  C71  1  0.712629  0.560611  0.947979  1
  C  C72  1  0.212629  0.939389  0.447979  1
  C  C73  1  0.621835  0.483719  0.320047  1
  C  C74  1  0.193532  0.292876  0.149078  1
  C  C75  1  0.878165  0.983719  0.179953  1
  C  C76  1  0.306468  0.792876  0.350922  1
  C  C77  1  0.377821  0.988847  0.753054  1
  C  C78  1  0.622179  0.011153  0.246946  1
  C  C79  1  0.121835  0.016281  0.820047  1
  C  C80  1  0.122179  0.488847  0.746946  1
  C  C81  1  0.806468  0.707124  0.850922  1
  C  C82  1  0.287371  0.439389  0.052021  1
  C  C83  1  0.378165  0.516281  0.679953  1
  Br  Br84  1  0.478182  0.205752  0.406871  1
  Br  Br85  1  0.662721  0.266484  0.111117  1
  Br  Br86  1  0.041266  0.780822  0.643274  1
  Br  Br87  1  0.541266  0.719178  0.143274  1
  Br  Br88  1  0.837279  0.766484  0.388883  1
  Br  Br89  1  0.458734  0.280822  0.856726  1
  Br  Br90  1  0.337279  0.733516  0.888883  1
  Br  Br91  1  0.714720  0.988667  0.941546  1
  Br  Br92  1  0.521818  0.794248  0.593129  1
  Br  Br93  1  0.162721  0.233516  0.611117  1
  Br  Br94  1  0.958734  0.219178  0.356725  1
  Br  Br95  1  0.285280  0.011333  0.058454  1
  Br  Br96  1  0.978182  0.294248  0.906871  1
  Br  Br97  1  0.785280  0.488667  0.558454  1
  Br  Br98  1  0.214720  0.511333  0.441546  1
  Br  Br99  1  0.021818  0.705752  0.093129  1
  N  N100  1  0.732788  0.681353  0.931841  1
  N  N101  1  0.200064  0.524773  0.669517  1
  N  N102  1  0.700064  0.975227  0.169517  1
  N  N103  1  0.232788  0.818647  0.431841  1
  N  N104  1  0.767212  0.181353  0.568159  1
  N  N105  1  0.267212  0.318647  0.068159  1
  N  N106  1  0.799936  0.475227  0.330483  1
  N  N107  1  0.299936  0.024773  0.830483  1
