# generated using pymatgen
data_Mn(IO3)2
_symmetry_space_group_name_H-M   'P 1'
_cell_length_a   5.33024010
_cell_length_b   11.37338915
_cell_length_c   11.31225262
_cell_angle_alpha   120.52410979
_cell_angle_beta   90.00000000
_cell_angle_gamma   90.00000000
_symmetry_Int_Tables_number   1
_chemical_formula_structural   Mn(IO3)2
_chemical_formula_sum   'Mn4 I8 O24'
_cell_volume   590.74282531
_cell_formula_units_Z   4
loop_
 _symmetry_equiv_pos_site_id
 _symmetry_equiv_pos_as_xyz
  1  'x, y, z'
loop_
 _atom_site_type_symbol
 _atom_site_label
 _atom_site_symmetry_multiplicity
 _atom_site_fract_x
 _atom_site_fract_y
 _atom_site_fract_z
 _atom_site_occupancy
  Mn  Mn0  1  0.318557  0.510617  0.753845  1
  Mn  Mn1  1  0.818557  0.489383  0.246155  1
  Mn  Mn2  1  0.817264  0.988597  0.244078  1
  Mn  Mn3  1  0.317263  0.011403  0.755922  1
  I  I4  1  0.740980  0.334540  0.433846  1
  I  I5  1  0.737066  0.835460  0.432448  1
  I  I6  1  0.718629  0.335008  0.899446  1
  I  I7  1  0.722134  0.833714  0.897394  1
  I  I8  1  0.240980  0.665460  0.566154  1
  I  I9  1  0.222134  0.166286  0.102606  1
  I  I10  1  0.218629  0.664992  0.100554  1
  I  I11  1  0.237066  0.164540  0.567552  1
  O  O12  1  0.605275  0.855055  0.059815  1
  O  O13  1  0.032964  0.132222  0.422918  1
  O  O14  1  0.588449  0.448152  0.383653  1
  O  O15  1  0.603666  0.356340  0.062277  1
  O  O16  1  0.547419  0.972145  0.895580  1
  O  O17  1  0.531258  0.186705  0.776565  1
  O  O18  1  0.537043  0.364752  0.577841  1
  O  O19  1  0.088449  0.551848  0.616347  1
  O  O20  1  0.582183  0.946210  0.379355  1
  O  O21  1  0.534683  0.685519  0.774160  1
  O  O22  1  0.596679  0.172652  0.303856  1
  O  O23  1  0.105275  0.144945  0.940185  1
  O  O24  1  0.103666  0.643660  0.937723  1
  O  O25  1  0.532964  0.867778  0.577082  1
  O  O26  1  0.594561  0.672093  0.304703  1
  O  O27  1  0.541691  0.472744  0.897303  1
  O  O28  1  0.037043  0.635248  0.422159  1
  O  O29  1  0.096679  0.827348  0.696144  1
  O  O30  1  0.041691  0.527256  0.102697  1
  O  O31  1  0.082183  0.053790  0.620645  1
  O  O32  1  0.047419  0.027855  0.104420  1
  O  O33  1  0.034683  0.314481  0.225840  1
  O  O34  1  0.094561  0.327907  0.695297  1
  O  O35  1  0.031258  0.813295  0.223435  1
