# generated using pymatgen
data_TlCr3S5
_symmetry_space_group_name_H-M   'P 1'
_cell_length_a   3.51075447
_cell_length_b   9.91345455
_cell_length_c   10.89883937
_cell_angle_alpha   70.84979853
_cell_angle_beta   80.73279176
_cell_angle_gamma   79.79988509
_symmetry_Int_Tables_number   1
_chemical_formula_structural   TlCr3S5
_chemical_formula_sum   'Tl2 Cr6 S10'
_cell_volume   350.49722672
_cell_formula_units_Z   2
loop_
 _symmetry_equiv_pos_site_id
 _symmetry_equiv_pos_as_xyz
  1  'x, y, z'
loop_
 _atom_site_type_symbol
 _atom_site_label
 _atom_site_symmetry_multiplicity
 _atom_site_fract_x
 _atom_site_fract_y
 _atom_site_fract_z
 _atom_site_occupancy
  Tl  Tl0  1  0.738672  0.348495  0.174264  1
  Tl  Tl1  1  0.261328  0.651505  0.825736  1
  Cr  Cr2  1  0.500000  0.000000  0.000000  1
  Cr  Cr3  1  0.500000  0.500000  0.500000  1
  Cr  Cr4  1  0.835508  0.940856  0.388118  1
  Cr  Cr5  1  0.164492  0.059144  0.611882  1
  Cr  Cr6  1  0.016474  0.739713  0.227417  1
  Cr  Cr7  1  0.983526  0.260287  0.772583  1
  S  S8  1  0.924011  0.000775  0.151224  1
  S  S9  1  0.075989  0.999225  0.848776  1
  S  S10  1  0.589692  0.738004  0.082666  1
  S  S11  1  0.410308  0.261996  0.917334  1
  S  S12  1  0.424117  0.759387  0.392549  1
  S  S13  1  0.575883  0.240613  0.607451  1
  S  S14  1  0.255581  0.106577  0.382217  1
  S  S15  1  0.744419  0.893423  0.617783  1
  S  S16  1  0.079901  0.492028  0.348093  1
  S  S17  1  0.920099  0.507972  0.651907  1
