# generated using pymatgen
data_ReSF4
_symmetry_space_group_name_H-M   'P 1'
_cell_length_a   8.61476750
_cell_length_b   11.39770217
_cell_length_c   28.67345130
_cell_angle_alpha   90.00000000
_cell_angle_beta   90.00000000
_cell_angle_gamma   90.00000000
_symmetry_Int_Tables_number   1
_chemical_formula_structural   ReSF4
_chemical_formula_sum   'Re24 S24 F96'
_cell_volume   2815.40472790
_cell_formula_units_Z   24
loop_
 _symmetry_equiv_pos_site_id
 _symmetry_equiv_pos_as_xyz
  1  'x, y, z'
loop_
 _atom_site_type_symbol
 _atom_site_label
 _atom_site_symmetry_multiplicity
 _atom_site_fract_x
 _atom_site_fract_y
 _atom_site_fract_z
 _atom_site_occupancy
  Re  Re0  1  0.386379  0.765764  0.147363  1
  Re  Re1  1  0.613621  0.234236  0.647363  1
  Re  Re2  1  0.957770  0.907041  0.897319  1
  Re  Re3  1  0.386379  0.734236  0.647363  1
  Re  Re4  1  0.084643  0.037611  0.033272  1
  Re  Re5  1  0.571207  0.741386  0.465864  1
  Re  Re6  1  0.957770  0.592959  0.397319  1
  Re  Re7  1  0.118817  0.998783  0.714532  1
  Re  Re8  1  0.466351  0.595010  0.783397  1
  Re  Re9  1  0.881183  0.001217  0.214532  1
  Re  Re10  1  0.915357  0.962389  0.533272  1
  Re  Re11  1  0.428793  0.258614  0.965864  1
  Re  Re12  1  0.533649  0.404990  0.283397  1
  Re  Re13  1  0.428793  0.241386  0.465864  1
  Re  Re14  1  0.881183  0.498783  0.714532  1
  Re  Re15  1  0.571207  0.758614  0.965864  1
  Re  Re16  1  0.042230  0.407041  0.897319  1
  Re  Re17  1  0.613621  0.265764  0.147363  1
  Re  Re18  1  0.118817  0.501217  0.214532  1
  Re  Re19  1  0.042230  0.092959  0.397319  1
  Re  Re20  1  0.533649  0.095010  0.783397  1
  Re  Re21  1  0.915357  0.537611  0.033272  1
  Re  Re22  1  0.466351  0.904990  0.283397  1
  Re  Re23  1  0.084643  0.462389  0.533272  1
  S  S24  1  0.480962  0.582786  0.620166  1
  S  S25  1  0.551160  0.002611  0.338160  1
  S  S26  1  0.637854  0.318786  0.482002  1
  S  S27  1  0.362146  0.818786  0.482002  1
  S  S28  1  0.448840  0.502611  0.338160  1
  S  S29  1  0.102807  0.192862  0.340154  1
  S  S30  1  0.081326  0.438258  0.066848  1
  S  S31  1  0.897193  0.807138  0.840154  1
  S  S32  1  0.519038  0.417214  0.120166  1
  S  S33  1  0.918674  0.938258  0.066848  1
  S  S34  1  0.917739  0.918869  0.691631  1
  S  S35  1  0.917739  0.581131  0.191631  1
  S  S36  1  0.480962  0.917214  0.120166  1
  S  S37  1  0.102807  0.307138  0.840154  1
  S  S38  1  0.082261  0.418869  0.691631  1
  S  S39  1  0.897193  0.692862  0.340154  1
  S  S40  1  0.081326  0.061742  0.566848  1
  S  S41  1  0.918674  0.561742  0.566848  1
  S  S42  1  0.519038  0.082786  0.620166  1
  S  S43  1  0.082261  0.081131  0.191631  1
  S  S44  1  0.551160  0.497389  0.838160  1
  S  S45  1  0.448840  0.997389  0.838160  1
  S  S46  1  0.637854  0.181213  0.982002  1
  S  S47  1  0.362146  0.681214  0.982002  1
  F  F48  1  0.363054  0.081274  0.738427  1
  F  F49  1  0.127625  0.823194  0.922866  1
  F  F50  1  0.169215  0.796220  0.145312  1
  F  F51  1  0.359603  0.670662  0.093452  1
  F  F52  1  0.625817  0.301154  0.213816  1
  F  F53  1  0.561069  0.671374  0.161763  1
  F  F54  1  0.438931  0.171374  0.161763  1
  F  F55  1  0.025848  0.017368  0.968125  1
  F  F56  1  0.718580  0.855747  0.490016  1
  F  F57  1  0.384158  0.300423  0.405342  1
  F  F58  1  0.830785  0.296220  0.145312  1
  F  F59  1  0.872375  0.323194  0.922866  1
  F  F60  1  0.202683  0.400721  0.583477  1
  F  F61  1  0.543386  0.748465  0.794647  1
  F  F62  1  0.636946  0.581274  0.738427  1
  F  F63  1  0.992422  0.311641  0.527786  1
  F  F64  1  0.025848  0.482632  0.468125  1
  F  F65  1  0.829462  0.838300  0.946463  1
  F  F66  1  0.992422  0.188359  0.027786  1
  F  F67  1  0.007578  0.688359  0.027786  1
  F  F68  1  0.953208  0.882662  0.255257  1
  F  F69  1  0.281420  0.144253  0.990016  1
  F  F70  1  0.727804  0.351500  0.304749  1
  F  F71  1  0.797317  0.599279  0.083477  1
  F  F72  1  0.543386  0.751535  0.294647  1
  F  F73  1  0.378687  0.148713  0.519025  1
  F  F74  1  0.953208  0.617338  0.755257  1
  F  F75  1  0.103613  0.485076  0.372917  1
  F  F76  1  0.511569  0.599660  0.436502  1
  F  F77  1  0.103613  0.014924  0.872917  1
  F  F78  1  0.169215  0.703780  0.645312  1
  F  F79  1  0.171225  0.589862  0.268327  1
  F  F80  1  0.186373  0.532713  0.898050  1
  F  F81  1  0.248503  0.571340  0.524137  1
  F  F82  1  0.636946  0.918726  0.238427  1
  F  F83  1  0.272196  0.851500  0.304749  1
  F  F84  1  0.872375  0.176807  0.422866  1
  F  F85  1  0.625817  0.198846  0.713816  1
  F  F86  1  0.640397  0.329338  0.593452  1
  F  F87  1  0.896387  0.514924  0.872917  1
  F  F88  1  0.751497  0.071340  0.524137  1
  F  F89  1  0.640397  0.170662  0.093452  1
  F  F90  1  0.813627  0.032713  0.898050  1
  F  F91  1  0.186373  0.967287  0.398050  1
  F  F92  1  0.157049  0.119368  0.670188  1
  F  F93  1  0.829462  0.661700  0.446463  1
  F  F94  1  0.896387  0.985076  0.372917  1
  F  F95  1  0.358506  0.481271  0.747375  1
  F  F96  1  0.621313  0.851287  0.019025  1
  F  F97  1  0.641494  0.518729  0.247375  1
  F  F98  1  0.725228  0.409487  0.679653  1
  F  F99  1  0.488431  0.099660  0.436502  1
  F  F100  1  0.363054  0.418726  0.238427  1
  F  F101  1  0.797317  0.900721  0.583477  1
  F  F102  1  0.974152  0.517368  0.968125  1
  F  F103  1  0.488431  0.400340  0.936502  1
  F  F104  1  0.281420  0.355747  0.490016  1
  F  F105  1  0.621313  0.648713  0.519025  1
  F  F106  1  0.561069  0.828626  0.661763  1
  F  F107  1  0.384158  0.199577  0.905342  1
  F  F108  1  0.127625  0.676806  0.422866  1
  F  F109  1  0.615842  0.699577  0.905342  1
  F  F110  1  0.374183  0.801154  0.213816  1
  F  F111  1  0.830785  0.203780  0.645312  1
  F  F112  1  0.007578  0.811641  0.527786  1
  F  F113  1  0.456614  0.248465  0.794647  1
  F  F114  1  0.511569  0.900340  0.936502  1
  F  F115  1  0.358506  0.018729  0.247375  1
  F  F116  1  0.641494  0.981271  0.747375  1
  F  F117  1  0.202683  0.099279  0.083477  1
  F  F118  1  0.046792  0.382662  0.255257  1
  F  F119  1  0.046792  0.117338  0.755257  1
  F  F120  1  0.359603  0.829338  0.593452  1
  F  F121  1  0.828775  0.089862  0.268327  1
  F  F122  1  0.171225  0.910138  0.768327  1
  F  F123  1  0.727804  0.148500  0.804749  1
  F  F124  1  0.170538  0.161700  0.446463  1
  F  F125  1  0.374183  0.698846  0.713816  1
  F  F126  1  0.157049  0.380632  0.170188  1
  F  F127  1  0.725228  0.090513  0.179653  1
  F  F128  1  0.248503  0.928660  0.024137  1
  F  F129  1  0.272196  0.648500  0.804749  1
  F  F130  1  0.378687  0.351287  0.019025  1
  F  F131  1  0.456614  0.251535  0.294647  1
  F  F132  1  0.274772  0.909487  0.679653  1
  F  F133  1  0.842951  0.619368  0.670188  1
  F  F134  1  0.813627  0.467287  0.398050  1
  F  F135  1  0.274772  0.590513  0.179653  1
  F  F136  1  0.751497  0.428660  0.024137  1
  F  F137  1  0.615842  0.800423  0.405342  1
  F  F138  1  0.828775  0.410138  0.768327  1
  F  F139  1  0.718580  0.644253  0.990016  1
  F  F140  1  0.170538  0.338300  0.946463  1
  F  F141  1  0.974152  0.982632  0.468125  1
  F  F142  1  0.842951  0.880632  0.170188  1
  F  F143  1  0.438931  0.328626  0.661763  1
