# generated using pymatgen
data_U7(Te12O35)2
_symmetry_space_group_name_H-M   'P 1'
_cell_length_a   11.51770701
_cell_length_b   11.51770701
_cell_length_c   11.51770701
_cell_angle_alpha   90.42240622
_cell_angle_beta   90.42240622
_cell_angle_gamma   90.42240622
_symmetry_Int_Tables_number   1
_chemical_formula_structural   U7(Te12O35)2
_chemical_formula_sum   'U7 Te24 O70'
_cell_volume   1527.78589810
_cell_formula_units_Z   1
loop_
 _symmetry_equiv_pos_site_id
 _symmetry_equiv_pos_as_xyz
  1  'x, y, z'
loop_
 _atom_site_type_symbol
 _atom_site_label
 _atom_site_symmetry_multiplicity
 _atom_site_fract_x
 _atom_site_fract_y
 _atom_site_fract_z
 _atom_site_occupancy
  O  O0  1  0.083047  0.600811  0.175908  1
  O  O1  1  0.076523  0.910485  0.680729  1
  O  O2  1  0.097891  0.850128  0.123214  1
  O  O3  1  0.092635  0.908190  0.410588  1
  O  O4  1  0.091784  0.410011  0.592253  1
  O  O5  1  0.091810  0.589412  0.907365  1
  O  O6  1  0.091343  0.658620  0.612833  1
  O  O7  1  0.094572  0.175556  0.419851  1
  O  O8  1  0.089515  0.319271  0.923477  1
  O  O9  1  0.111243  0.406377  0.342003  1
  O  O10  1  0.123214  0.097891  0.850128  1
  O  O11  1  0.155764  0.609004  0.411742  1
  O  O12  1  0.149872  0.876786  0.902109  1
  O  O13  1  0.175908  0.083047  0.600811  1
  O  O14  1  0.175556  0.419851  0.094572  1
  O  O15  1  0.202911  0.202911  0.202911  1
  O  O16  1  0.238291  0.279884  0.716990  1
  O  O17  1  0.279884  0.716990  0.238291  1
  O  O18  1  0.283010  0.761709  0.720116  1
  O  O19  1  0.321622  0.570146  0.592259  1
  O  O20  1  0.319271  0.923477  0.089515  1
  O  O21  1  0.341380  0.387167  0.908657  1
  O  O22  1  0.342003  0.111243  0.406377  1
  O  O23  1  0.390996  0.588258  0.844236  1
  O  O24  1  0.387167  0.908657  0.341380  1
  O  O25  1  0.407741  0.678378  0.429854  1
  O  O26  1  0.399189  0.824092  0.916953  1
  O  O27  1  0.411742  0.155764  0.609004  1
  O  O28  1  0.406377  0.342003  0.111243  1
  O  O29  1  0.410588  0.092635  0.908190  1
  O  O30  1  0.407462  0.407462  0.407462  1
  O  O31  1  0.410011  0.592253  0.091784  1
  O  O32  1  0.407747  0.908216  0.589989  1
  O  O33  1  0.419851  0.094572  0.175556  1
  O  O34  1  0.429854  0.407741  0.678378  1
  O  O35  1  0.570146  0.592259  0.321622  1
  O  O36  1  0.580149  0.905428  0.824444  1
  O  O37  1  0.592253  0.091784  0.410011  1
  O  O38  1  0.592538  0.592538  0.592538  1
  O  O39  1  0.589989  0.407747  0.908216  1
  O  O40  1  0.588258  0.844236  0.390996  1
  O  O41  1  0.589412  0.907365  0.091810  1
  O  O42  1  0.593623  0.657997  0.888757  1
  O  O43  1  0.600811  0.175908  0.083047  1
  O  O44  1  0.592259  0.321622  0.570146  1
  O  O45  1  0.609004  0.411742  0.155764  1
  O  O46  1  0.612833  0.091343  0.658620  1
  O  O47  1  0.657997  0.888757  0.593623  1
  O  O48  1  0.658620  0.612833  0.091343  1
  O  O49  1  0.680729  0.076523  0.910485  1
  O  O50  1  0.678378  0.429854  0.407741  1
  O  O51  1  0.716990  0.238291  0.279884  1
  O  O52  1  0.720116  0.283010  0.761709  1
  O  O53  1  0.761709  0.720116  0.283010  1
  O  O54  1  0.797089  0.797089  0.797089  1
  O  O55  1  0.824444  0.580149  0.905428  1
  O  O56  1  0.824092  0.916953  0.399189  1
  O  O57  1  0.850128  0.123214  0.097891  1
  O  O58  1  0.844236  0.390996  0.588258  1
  O  O59  1  0.888757  0.593623  0.657997  1
  O  O60  1  0.876786  0.902109  0.149872  1
  O  O61  1  0.910485  0.680729  0.076523  1
  O  O62  1  0.905428  0.824444  0.580149  1
  O  O63  1  0.907365  0.091810  0.589412  1
  O  O64  1  0.902109  0.149872  0.876786  1
  O  O65  1  0.908657  0.341380  0.387167  1
  O  O66  1  0.908190  0.410588  0.092635  1
  O  O67  1  0.908216  0.589989  0.407747  1
  O  O68  1  0.923477  0.089515  0.319271  1
  O  O69  1  0.916953  0.399189  0.824092  1
  Te  Te70  1  0.040807  0.259161  0.287738  1
  Te  Te71  1  0.027445  0.230187  0.796548  1
  Te  Te72  1  0.214931  0.549580  0.263629  1
  Te  Te73  1  0.203452  0.972555  0.769813  1
  Te  Te74  1  0.230187  0.796548  0.027445  1
  Te  Te75  1  0.243987  0.711199  0.552679  1
  Te  Te76  1  0.259161  0.287738  0.040807  1
  Te  Te77  1  0.263629  0.214931  0.549580  1
  Te  Te78  1  0.287738  0.040807  0.259161  1
  Te  Te79  1  0.288801  0.447321  0.756013  1
  Te  Te80  1  0.447321  0.756013  0.288801  1
  Te  Te81  1  0.450420  0.736371  0.785069  1
  Te  Te82  1  0.549580  0.263629  0.214931  1
  Te  Te83  1  0.552679  0.243987  0.711199  1
  Te  Te84  1  0.711199  0.552679  0.243987  1
  Te  Te85  1  0.712262  0.959193  0.740839  1
  Te  Te86  1  0.736371  0.785069  0.450420  1
  Te  Te87  1  0.740839  0.712262  0.959193  1
  Te  Te88  1  0.756013  0.288801  0.447321  1
  Te  Te89  1  0.769813  0.203452  0.972555  1
  Te  Te90  1  0.796548  0.027445  0.230187  1
  Te  Te91  1  0.785069  0.450420  0.736371  1
  Te  Te92  1  0.959193  0.740839  0.712262  1
  Te  Te93  1  0.972555  0.769813  0.203452  1
  U  U94  1  0.000000  0.000000  0.500000  1
  U  U95  1  0.500000  0.500000  0.500000  1
  U  U96  1  0.500000  0.000000  0.500000  1
  U  U97  1  0.500000  0.500000  0.000000  1
  U  U98  1  0.500000  0.000000  0.000000  1
  U  U99  1  0.000000  0.500000  0.500000  1
  U  U100  1  0.000000  0.500000  0.000000  1
