# generated using pymatgen
data_Si2Ag6O7
_symmetry_space_group_name_H-M   'P 1'
_cell_length_a   5.44173140
_cell_length_b   9.85129259
_cell_length_c   16.24155891
_cell_angle_alpha   90.00000000
_cell_angle_beta   90.66617117
_cell_angle_gamma   90.00000000
_symmetry_Int_Tables_number   1
_chemical_formula_structural   Si2Ag6O7
_chemical_formula_sum   'Si8 Ag24 O28'
_cell_volume   870.62007247
_cell_formula_units_Z   4
loop_
 _symmetry_equiv_pos_site_id
 _symmetry_equiv_pos_as_xyz
  1  'x, y, z'
loop_
 _atom_site_type_symbol
 _atom_site_label
 _atom_site_symmetry_multiplicity
 _atom_site_fract_x
 _atom_site_fract_y
 _atom_site_fract_z
 _atom_site_occupancy
  Ag  Ag0  1  0.713674  0.293891  0.813819  1
  Ag  Ag1  1  0.286326  0.793891  0.186181  1
  Ag  Ag2  1  0.719195  0.302793  0.332865  1
  Ag  Ag3  1  0.280805  0.802793  0.667135  1
  Ag  Ag4  1  0.738562  0.036569  0.708591  1
  Ag  Ag5  1  0.261438  0.536569  0.291409  1
  Ag  Ag6  1  0.732154  0.016822  0.197513  1
  Ag  Ag7  1  0.267846  0.516822  0.802487  1
  Ag  Ag8  1  0.718725  0.811474  0.076393  1
  Ag  Ag9  1  0.281275  0.311474  0.923607  1
  Ag  Ag10  1  0.287480  0.743336  0.979608  1
  Ag  Ag11  1  0.712520  0.243336  0.020392  1
  Ag  Ag12  1  0.717092  0.279471  0.546283  1
  Ag  Ag13  1  0.282908  0.779471  0.453717  1
  Ag  Ag14  1  0.728073  0.497675  0.672070  1
  Ag  Ag15  1  0.271927  0.997675  0.327930  1
  Ag  Ag16  1  0.671072  0.516215  0.175597  1
  Ag  Ag17  1  0.328928  0.016215  0.824403  1
  Ag  Ag18  1  0.288735  0.332549  0.427770  1
  Ag  Ag19  1  0.711265  0.832549  0.572230  1
  Ag  Ag20  1  0.277647  0.514228  0.571862  1
  Ag  Ag21  1  0.722353  0.014228  0.428138  1
  Ag  Ag22  1  0.161948  0.500800  0.080166  1
  Ag  Ag23  1  0.838052  0.000800  0.919834  1
  Si  Si24  1  0.747801  0.547111  0.937303  1
  Si  Si25  1  0.252199  0.047111  0.062697  1
  Si  Si26  1  0.277633  0.261484  0.196529  1
  Si  Si27  1  0.722367  0.761484  0.803471  1
  Si  Si28  1  0.751981  0.562637  0.460531  1
  Si  Si29  1  0.248019  0.062637  0.539469  1
  Si  Si30  1  0.246819  0.253948  0.692988  1
  Si  Si31  1  0.753181  0.753948  0.307012  1
  O  O32  1  0.849222  0.607917  0.025547  1
  O  O33  1  0.150778  0.107917  0.974453  1
  O  O34  1  0.444612  0.546281  0.931387  1
  O  O35  1  0.555388  0.046281  0.068613  1
  O  O36  1  0.854972  0.390723  0.926126  1
  O  O37  1  0.145028  0.890723  0.073874  1
  O  O38  1  0.136394  0.141459  0.139234  1
  O  O39  1  0.863606  0.641459  0.860766  1
  O  O40  1  0.072891  0.352037  0.244831  1
  O  O41  1  0.927109  0.852037  0.755169  1
  O  O42  1  0.465284  0.180112  0.259827  1
  O  O43  1  0.534716  0.680112  0.740173  1
  O  O44  1  0.434143  0.355904  0.129551  1
  O  O45  1  0.565857  0.855904  0.870449  1
  O  O46  1  0.846608  0.619455  0.550325  1
  O  O47  1  0.153392  0.119455  0.449675  1
  O  O48  1  0.867078  0.410457  0.442958  1
  O  O49  1  0.132922  0.910457  0.557042  1
  O  O50  1  0.446995  0.557155  0.451703  1
  O  O51  1  0.553005  0.057155  0.548297  1
  O  O52  1  0.858396  0.667366  0.388296  1
  O  O53  1  0.141604  0.167366  0.611704  1
  O  O54  1  0.132097  0.189940  0.777217  1
  O  O55  1  0.867903  0.689940  0.222783  1
  O  O56  1  0.147329  0.412419  0.682742  1
  O  O57  1  0.852671  0.912419  0.317258  1
  O  O58  1  0.553091  0.246974  0.690596  1
  O  O59  1  0.446909  0.746974  0.309405  1
