# generated using pymatgen
data_K4H6C2O9
_symmetry_space_group_name_H-M   'P 1'
_cell_length_a   7.21738091
_cell_length_b   9.21079935
_cell_length_c   9.21080004
_cell_angle_alpha   97.66289023
_cell_angle_beta   109.62202284
_cell_angle_gamma   109.62202473
_symmetry_Int_Tables_number   1
_chemical_formula_structural   K4H6C2O9
_chemical_formula_sum   'K8 H12 C4 O18'
_cell_volume   521.94277186
_cell_formula_units_Z   2
loop_
 _symmetry_equiv_pos_site_id
 _symmetry_equiv_pos_as_xyz
  1  'x, y, z'
loop_
 _atom_site_type_symbol
 _atom_site_label
 _atom_site_symmetry_multiplicity
 _atom_site_fract_x
 _atom_site_fract_y
 _atom_site_fract_z
 _atom_site_occupancy
  K  K0  1  0.750000  0.616854  0.383146  1
  K  K1  1  0.250000  0.383146  0.616854  1
  K  K2  1  0.750000  0.314504  0.685496  1
  K  K3  1  0.250000  0.685496  0.314504  1
  K  K4  1  0.540310  0.293069  0.994993  1
  K  K5  1  0.959690  0.005007  0.706931  1
  K  K6  1  0.459690  0.706931  0.005007  1
  K  K7  1  0.040310  0.994993  0.293069  1
  C  C8  1  0.849898  0.637059  0.976343  1
  C  C9  1  0.650102  0.023657  0.362941  1
  C  C10  1  0.150102  0.362941  0.023657  1
  C  C11  1  0.349898  0.976343  0.637059  1
  O  O12  1  0.851569  0.669151  0.117728  1
  O  O13  1  0.648431  0.882272  0.330849  1
  O  O14  1  0.148431  0.330849  0.882272  1
  O  O15  1  0.351569  0.117728  0.669151  1
  O  O16  1  0.667038  0.553862  0.851174  1
  O  O17  1  0.832962  0.148826  0.446138  1
  O  O18  1  0.332962  0.446138  0.148826  1
  O  O19  1  0.167038  0.851174  0.553862  1
  O  O20  1  0.030422  0.685970  0.956741  1
  O  O21  1  0.469578  0.043259  0.314030  1
  O  O22  1  0.969578  0.314030  0.043259  1
  O  O23  1  0.530422  0.956741  0.685970  1
  O  O24  1  0.750000  0.999602  0.000398  1
  O  O25  1  0.250000  0.000398  0.999602  1
  H  H26  1  0.845316  0.114818  0.023150  1
  H  H27  1  0.654684  0.976850  0.885182  1
  H  H28  1  0.154684  0.885182  0.976850  1
  H  H29  1  0.345316  0.023150  0.114818  1
  O  O30  1  0.914049  0.393931  0.311025  1
  O  O31  1  0.585951  0.688975  0.606069  1
  O  O32  1  0.085951  0.606069  0.688975  1
  O  O33  1  0.414049  0.311025  0.393931  1
  H  H34  1  0.869151  0.299540  0.353689  1
  H  H35  1  0.630849  0.646311  0.700460  1
  H  H36  1  0.130849  0.700460  0.646311  1
  H  H37  1  0.369151  0.353689  0.299540  1
  H  H38  1  0.950523  0.359060  0.219808  1
  H  H39  1  0.549477  0.780192  0.640940  1
  H  H40  1  0.049477  0.640940  0.780192  1
  H  H41  1  0.450523  0.219808  0.359060  1
