# generated using pymatgen
data_Ca2As4Xe5F34
_symmetry_space_group_name_H-M   'P 1'
_cell_length_a   8.53278516
_cell_length_b   8.74619663
_cell_length_c   23.70783233
_cell_angle_alpha   90.00000000
_cell_angle_beta   90.00000000
_cell_angle_gamma   117.19020056
_symmetry_Int_Tables_number   1
_chemical_formula_structural   Ca2As4Xe5F34
_chemical_formula_sum   'Ca4 As8 Xe10 F68'
_cell_volume   1573.78419992
_cell_formula_units_Z   2
loop_
 _symmetry_equiv_pos_site_id
 _symmetry_equiv_pos_as_xyz
  1  'x, y, z'
loop_
 _atom_site_type_symbol
 _atom_site_label
 _atom_site_symmetry_multiplicity
 _atom_site_fract_x
 _atom_site_fract_y
 _atom_site_fract_z
 _atom_site_occupancy
  Ca  Ca0  1  0.416945  0.837036  0.887317  1
  Ca  Ca1  1  0.416945  0.337036  0.612683  1
  Ca  Ca2  1  0.583055  0.162964  0.112683  1
  Ca  Ca3  1  0.583055  0.662964  0.387317  1
  As  As4  1  0.338471  0.678313  0.512276  1
  As  As5  1  0.809162  0.296875  0.826223  1
  As  As6  1  0.338471  0.178313  0.987724  1
  As  As7  1  0.661529  0.821687  0.012276  1
  As  As8  1  0.809162  0.796875  0.673777  1
  As  As9  1  0.661529  0.321687  0.487724  1
  As  As10  1  0.190838  0.203125  0.326223  1
  As  As11  1  0.190838  0.703125  0.173777  1
  Xe  Xe12  1  0.925542  0.350456  0.648901  1
  Xe  Xe13  1  0.649241  0.081888  0.290295  1
  Xe  Xe14  1  0.350759  0.418112  0.790295  1
  Xe  Xe15  1  0.350759  0.918112  0.709705  1
  Xe  Xe16  1  0.000000  0.500000  0.000000  1
  Xe  Xe17  1  0.649241  0.581888  0.209705  1
  Xe  Xe18  1  0.074458  0.649544  0.351099  1
  Xe  Xe19  1  0.925542  0.850456  0.851099  1
  Xe  Xe20  1  0.000000  0.000000  0.500000  1
  Xe  Xe21  1  0.074458  0.149544  0.148901  1
  F  F22  1  0.804737  0.580069  0.346098  1
  F  F23  1  0.449945  0.217718  0.523453  1
  F  F24  1  0.130488  0.329605  0.281547  1
  F  F25  1  0.931659  0.767078  0.618853  1
  F  F26  1  0.657532  0.279813  0.646800  1
  F  F27  1  0.550055  0.282282  0.023453  1
  F  F28  1  0.383852  0.399570  0.348363  1
  F  F29  1  0.133622  0.064382  0.954884  1
  F  F30  1  0.374304  0.792406  0.781732  1
  F  F31  1  0.869512  0.170395  0.781547  1
  F  F32  1  0.866378  0.935618  0.045116  1
  F  F33  1  0.680430  0.459710  0.138283  1
  F  F34  1  0.616148  0.600430  0.651637  1
  F  F35  1  0.993149  0.985881  0.697168  1
  F  F36  1  0.418013  0.545892  0.549276  1
  F  F37  1  0.616148  0.100430  0.848363  1
  F  F38  1  0.993149  0.485881  0.802832  1
  F  F39  1  0.374304  0.292406  0.718268  1
  F  F40  1  0.419696  0.328492  0.933382  1
  F  F41  1  0.276515  0.027199  0.044102  1
  F  F42  1  0.006851  0.514119  0.197168  1
  F  F43  1  0.323159  0.186009  0.271782  1
  F  F44  1  0.869512  0.670395  0.718453  1
  F  F45  1  0.676841  0.313991  0.771782  1
  F  F46  1  0.550055  0.782282  0.476547  1
  F  F47  1  0.866378  0.435618  0.454884  1
  F  F48  1  0.133622  0.564382  0.545116  1
  F  F49  1  0.743835  0.416926  0.871479  1
  F  F50  1  0.625696  0.207594  0.218268  1
  F  F51  1  0.680430  0.959710  0.361717  1
  F  F52  1  0.342468  0.220187  0.146800  1
  F  F53  1  0.581987  0.454108  0.450724  1
  F  F54  1  0.676841  0.813991  0.728218  1
  F  F55  1  0.580304  0.171508  0.433382  1
  F  F56  1  0.418013  0.045892  0.950724  1
  F  F57  1  0.625696  0.707594  0.281732  1
  F  F58  1  0.124501  0.168735  0.566810  1
  F  F59  1  0.068341  0.732922  0.118853  1
  F  F60  1  0.124501  0.668735  0.933190  1
  F  F61  1  0.256165  0.583074  0.128521  1
  F  F62  1  0.383852  0.899570  0.151637  1
  F  F63  1  0.657532  0.779813  0.853200  1
  F  F64  1  0.735264  0.694616  0.974155  1
  F  F65  1  0.319570  0.040290  0.638283  1
  F  F66  1  0.319570  0.540290  0.861717  1
  F  F67  1  0.581987  0.954108  0.049276  1
  F  F68  1  0.323159  0.686009  0.228218  1
  F  F69  1  0.006851  0.014119  0.302832  1
  F  F70  1  0.743835  0.916926  0.628521  1
  F  F71  1  0.875499  0.331265  0.066810  1
  F  F72  1  0.195263  0.919931  0.846098  1
  F  F73  1  0.449945  0.717718  0.976547  1
  F  F74  1  0.723485  0.472801  0.544102  1
  F  F75  1  0.264736  0.805384  0.474155  1
  F  F76  1  0.419696  0.828492  0.566618  1
  F  F77  1  0.875499  0.831265  0.433190  1
  F  F78  1  0.735264  0.194616  0.525845  1
  F  F79  1  0.931659  0.267078  0.881147  1
  F  F80  1  0.723485  0.972801  0.955898  1
  F  F81  1  0.068341  0.232922  0.381147  1
  F  F82  1  0.580304  0.671508  0.066618  1
  F  F83  1  0.256165  0.083074  0.371479  1
  F  F84  1  0.264736  0.305384  0.025845  1
  F  F85  1  0.130488  0.829605  0.218453  1
  F  F86  1  0.342468  0.720187  0.353200  1
  F  F87  1  0.195263  0.419931  0.653902  1
  F  F88  1  0.276515  0.527199  0.455898  1
  F  F89  1  0.804737  0.080069  0.153902  1
