# generated using pymatgen
data_CsTaPS6
_symmetry_space_group_name_H-M   'P 1'
_cell_length_a   8.94039459
_cell_length_b   13.28803547
_cell_length_c   17.65152972
_cell_angle_alpha   90.00000000
_cell_angle_beta   99.28068054
_cell_angle_gamma   90.00000000
_symmetry_Int_Tables_number   1
_chemical_formula_structural   CsTaPS6
_chemical_formula_sum   'Cs8 Ta8 P8 S48'
_cell_volume   2069.55718047
_cell_formula_units_Z   8
loop_
 _symmetry_equiv_pos_site_id
 _symmetry_equiv_pos_as_xyz
  1  'x, y, z'
loop_
 _atom_site_type_symbol
 _atom_site_label
 _atom_site_symmetry_multiplicity
 _atom_site_fract_x
 _atom_site_fract_y
 _atom_site_fract_z
 _atom_site_occupancy
  Cs  Cs0  1  0.690420  0.390941  0.219065  1
  Cs  Cs1  1  0.309580  0.609059  0.780935  1
  Cs  Cs2  1  0.690420  0.109059  0.719065  1
  Cs  Cs3  1  0.309580  0.890941  0.280935  1
  Cs  Cs4  1  0.158506  0.561787  0.176506  1
  Cs  Cs5  1  0.841494  0.438213  0.823494  1
  Cs  Cs6  1  0.841494  0.061787  0.323494  1
  Cs  Cs7  1  0.158506  0.938213  0.676506  1
  Ta  Ta8  1  0.160954  0.314943  0.636660  1
  Ta  Ta9  1  0.408192  0.241422  0.007580  1
  Ta  Ta10  1  0.160954  0.185057  0.136660  1
  Ta  Ta11  1  0.839046  0.814943  0.863340  1
  Ta  Ta12  1  0.839046  0.685057  0.363340  1
  Ta  Ta13  1  0.408192  0.258578  0.507580  1
  Ta  Ta14  1  0.591808  0.741422  0.492420  1
  Ta  Ta15  1  0.591808  0.758578  0.992420  1
  P  P16  1  0.779225  0.244615  0.506579  1
  P  P17  1  0.220775  0.744615  0.993421  1
  P  P18  1  0.703163  0.736976  0.179717  1
  P  P19  1  0.703163  0.763024  0.679717  1
  P  P20  1  0.296837  0.236976  0.320283  1
  P  P21  1  0.779225  0.255385  0.006579  1
  P  P22  1  0.220775  0.755385  0.493421  1
  P  P23  1  0.296837  0.263024  0.820283  1
  S  S24  1  0.394661  0.341141  0.739342  1
  S  S25  1  0.109324  0.293255  0.248746  1
  S  S26  1  0.605339  0.841141  0.760658  1
  S  S27  1  0.140789  0.799777  0.083808  1
  S  S28  1  0.350768  0.845780  0.940821  1
  S  S29  1  0.340477  0.418274  0.569134  1
  S  S30  1  0.649232  0.345780  0.559179  1
  S  S31  1  0.335083  0.156359  0.598579  1
  S  S32  1  0.749369  0.643418  0.094307  1
  S  S33  1  0.046555  0.814473  0.412604  1
  S  S34  1  0.977540  0.946624  0.842155  1
  S  S35  1  0.977540  0.553376  0.342155  1
  S  S36  1  0.394661  0.158859  0.239342  1
  S  S37  1  0.385464  0.865099  0.519467  1
  S  S38  1  0.953445  0.185527  0.587396  1
  S  S39  1  0.890676  0.706745  0.751254  1
  S  S40  1  0.605339  0.658859  0.260658  1
  S  S41  1  0.335083  0.343641  0.098579  1
  S  S42  1  0.154744  0.358057  0.496597  1
  S  S43  1  0.953445  0.314473  0.087396  1
  S  S44  1  0.664917  0.843641  0.401421  1
  S  S45  1  0.749369  0.856582  0.594307  1
  S  S46  1  0.614536  0.365099  0.980533  1
  S  S47  1  0.250631  0.356582  0.905693  1
  S  S48  1  0.340477  0.081726  0.069134  1
  S  S49  1  0.385464  0.634901  0.019467  1
  S  S50  1  0.109324  0.206745  0.748746  1
  S  S51  1  0.140789  0.700223  0.583808  1
  S  S52  1  0.859211  0.200223  0.916192  1
  S  S53  1  0.659523  0.581726  0.430866  1
  S  S54  1  0.428588  0.153132  0.876414  1
  S  S55  1  0.845256  0.858057  0.003403  1
  S  S56  1  0.350768  0.654220  0.440821  1
  S  S57  1  0.022460  0.446624  0.657845  1
  S  S58  1  0.571412  0.846868  0.123586  1
  S  S59  1  0.154744  0.141943  0.996597  1
  S  S60  1  0.046555  0.685527  0.912604  1
  S  S61  1  0.659523  0.918274  0.930866  1
  S  S62  1  0.614536  0.134901  0.480533  1
  S  S63  1  0.845256  0.641943  0.503403  1
  S  S64  1  0.664917  0.656359  0.901421  1
  S  S65  1  0.649232  0.154220  0.059179  1
  S  S66  1  0.890676  0.793255  0.251254  1
  S  S67  1  0.571412  0.653132  0.623586  1
  S  S68  1  0.428588  0.346868  0.376414  1
  S  S69  1  0.859211  0.299777  0.416192  1
  S  S70  1  0.022460  0.053376  0.157845  1
  S  S71  1  0.250631  0.143418  0.405693  1
