# generated using pymatgen
data_Ba6Hf5S16
_symmetry_space_group_name_H-M   'P 1'
_cell_length_a   5.00518293
_cell_length_b   5.00518353
_cell_length_c   28.10822154
_cell_angle_alpha   95.10455190
_cell_angle_beta   95.10454391
_cell_angle_gamma   90.01777832
_symmetry_Int_Tables_number   1
_chemical_formula_structural   Ba6Hf5S16
_chemical_formula_sum   'Ba6 Hf5 S16'
_cell_volume   698.56485047
_cell_formula_units_Z   1
loop_
 _symmetry_equiv_pos_site_id
 _symmetry_equiv_pos_as_xyz
  1  'x, y, z'
loop_
 _atom_site_type_symbol
 _atom_site_label
 _atom_site_symmetry_multiplicity
 _atom_site_fract_x
 _atom_site_fract_y
 _atom_site_fract_z
 _atom_site_occupancy
  Ba  Ba0  1  0.717895  0.717896  0.435850  1
  Ba  Ba1  1  0.367252  0.367252  0.734528  1
  Ba  Ba2  1  0.544487  0.544487  0.089075  1
  Ba  Ba3  1  0.632748  0.632748  0.265472  1
  Ba  Ba4  1  0.455513  0.455513  0.910925  1
  Ba  Ba5  1  0.282105  0.282104  0.564150  1
  Hf  Hf6  1  0.909589  0.909589  0.819245  1
  Hf  Hf7  1  0.000000  0.000000  0.000000  1
  Hf  Hf8  1  0.818726  0.818726  0.637342  1
  Hf  Hf9  1  0.181274  0.181274  0.362658  1
  Hf  Hf10  1  0.090411  0.090411  0.180755  1
  S  S11  1  0.774166  0.774166  0.548223  1
  S  S12  1  0.954945  0.954946  0.909958  1
  S  S13  1  0.678966  0.179001  0.357967  1
  S  S14  1  0.410157  0.910203  0.820332  1
  S  S15  1  0.910203  0.410157  0.820332  1
  S  S16  1  0.321034  0.820999  0.642033  1
  S  S17  1  0.179001  0.678966  0.357967  1
  S  S18  1  0.820999  0.321034  0.642033  1
  S  S19  1  0.589843  0.089797  0.179668  1
  S  S20  1  0.135044  0.135044  0.270039  1
  S  S21  1  0.864956  0.864956  0.729961  1
  S  S22  1  0.225834  0.225834  0.451777  1
  S  S23  1  0.089797  0.589843  0.179668  1
  S  S24  1  0.000000  0.500000  0.000000  1
  S  S25  1  0.045055  0.045054  0.090042  1
  S  S26  1  0.500000  0.000000  0.000000  1
