# generated using pymatgen
data_Ca7GeN6
_symmetry_space_group_name_H-M   'P 1'
_cell_length_a   6.21228366
_cell_length_b   10.90762008
_cell_length_c   13.19862571
_cell_angle_alpha   90.00000000
_cell_angle_beta   90.00000000
_cell_angle_gamma   90.00000000
_symmetry_Int_Tables_number   1
_chemical_formula_structural   Ca7GeN6
_chemical_formula_sum   'Ca28 Ge4 N24'
_cell_volume   894.35511232
_cell_formula_units_Z   4
loop_
 _symmetry_equiv_pos_site_id
 _symmetry_equiv_pos_as_xyz
  1  'x, y, z'
loop_
 _atom_site_type_symbol
 _atom_site_label
 _atom_site_symmetry_multiplicity
 _atom_site_fract_x
 _atom_site_fract_y
 _atom_site_fract_z
 _atom_site_occupancy
  Ca  Ca0  1  0.108676  0.795352  0.616956  1
  Ca  Ca1  1  0.356150  0.271620  0.626252  1
  Ca  Ca2  1  0.269174  0.962029  0.021024  1
  Ca  Ca3  1  0.441796  0.000000  0.750000  1
  Ca  Ca4  1  0.269174  0.037971  0.478976  1
  Ca  Ca5  1  0.058204  0.500000  0.250000  1
  Ca  Ca6  1  0.108676  0.204648  0.883044  1
  Ca  Ca7  1  0.143850  0.771620  0.373748  1
  Ca  Ca8  1  0.356150  0.728380  0.873748  1
  Ca  Ca9  1  0.730826  0.037971  0.978976  1
  Ca  Ca10  1  0.608676  0.704648  0.616956  1
  Ca  Ca11  1  0.643850  0.271620  0.126252  1
  Ca  Ca12  1  0.230826  0.462029  0.978976  1
  Ca  Ca13  1  0.891324  0.204648  0.383044  1
  Ca  Ca14  1  0.391324  0.704648  0.116956  1
  Ca  Ca15  1  0.608676  0.295352  0.883044  1
  Ca  Ca16  1  0.769174  0.537971  0.021024  1
  Ca  Ca17  1  0.856150  0.228380  0.626252  1
  Ca  Ca18  1  0.891324  0.795352  0.116956  1
  Ca  Ca19  1  0.230826  0.537971  0.521024  1
  Ca  Ca20  1  0.941796  0.500000  0.750000  1
  Ca  Ca21  1  0.769174  0.462029  0.478976  1
  Ca  Ca22  1  0.391324  0.295352  0.383044  1
  Ca  Ca23  1  0.730826  0.962029  0.521024  1
  Ca  Ca24  1  0.643850  0.728380  0.373748  1
  Ca  Ca25  1  0.558204  0.000000  0.250000  1
  Ca  Ca26  1  0.143850  0.228380  0.126252  1
  Ca  Ca27  1  0.856150  0.771620  0.873748  1
  Ge  Ge28  1  0.066430  0.000000  0.250000  1
  Ge  Ge29  1  0.566430  0.500000  0.250000  1
  Ge  Ge30  1  0.933570  0.000000  0.750000  1
  Ge  Ge31  1  0.433570  0.500000  0.750000  1
  N  N32  1  0.111796  0.951203  0.859454  1
  N  N33  1  0.753511  0.867334  0.706543  1
  N  N34  1  0.746489  0.632666  0.206543  1
  N  N35  1  0.593616  0.833583  0.994104  1
  N  N36  1  0.246489  0.867334  0.206543  1
  N  N37  1  0.753511  0.132666  0.793457  1
  N  N38  1  0.593616  0.166417  0.505896  1
  N  N39  1  0.093616  0.666417  0.994104  1
  N  N40  1  0.746489  0.367334  0.293457  1
  N  N41  1  0.246489  0.132666  0.293457  1
  N  N42  1  0.111796  0.048797  0.640546  1
  N  N43  1  0.906384  0.666417  0.494104  1
  N  N44  1  0.888204  0.048797  0.140546  1
  N  N45  1  0.406384  0.833583  0.494104  1
  N  N46  1  0.888204  0.951203  0.359454  1
  N  N47  1  0.388204  0.451203  0.140546  1
  N  N48  1  0.906384  0.333583  0.005896  1
  N  N49  1  0.253511  0.632666  0.706543  1
  N  N50  1  0.406384  0.166417  0.005896  1
  N  N51  1  0.253511  0.367334  0.793457  1
  N  N52  1  0.093616  0.333583  0.505896  1
  N  N53  1  0.611796  0.548797  0.859454  1
  N  N54  1  0.388204  0.548797  0.359454  1
  N  N55  1  0.611796  0.451203  0.640546  1
