# generated using pymatgen
data_Rb2TbGa(SiO3)4
_symmetry_space_group_name_H-M   'P 1'
_cell_length_a   7.37497841
_cell_length_b   14.11601605
_cell_length_c   14.18626461
_cell_angle_alpha   64.28663630
_cell_angle_beta   74.93387107
_cell_angle_gamma   74.85710403
_symmetry_Int_Tables_number   1
_chemical_formula_structural   Rb2TbGa(SiO3)4
_chemical_formula_sum   'Rb8 Tb4 Ga4 Si16 O48'
_cell_volume   1266.03925485
_cell_formula_units_Z   4
loop_
 _symmetry_equiv_pos_site_id
 _symmetry_equiv_pos_as_xyz
  1  'x, y, z'
loop_
 _atom_site_type_symbol
 _atom_site_label
 _atom_site_symmetry_multiplicity
 _atom_site_fract_x
 _atom_site_fract_y
 _atom_site_fract_z
 _atom_site_occupancy
  Tb  Tb0  1  0.448620  0.787399  0.250053  1
  Tb  Tb1  1  0.551380  0.212601  0.749947  1
  Tb  Tb2  1  0.013928  0.287399  0.750053  1
  Tb  Tb3  1  0.986072  0.712601  0.249947  1
  Rb  Rb4  1  0.797642  0.382969  0.047832  1
  Rb  Rb5  1  0.812339  0.417004  0.466227  1
  Rb  Rb6  1  0.271557  0.882969  0.547832  1
  Rb  Rb7  1  0.728443  0.117031  0.452168  1
  Rb  Rb8  1  0.804431  0.917004  0.966227  1
  Rb  Rb9  1  0.187661  0.582996  0.533773  1
  Rb  Rb10  1  0.195569  0.082996  0.033773  1
  Rb  Rb11  1  0.202358  0.617031  0.952168  1
  Ga  Ga12  1  0.130373  0.413730  0.225920  1
  Ga  Ga13  1  0.869627  0.586270  0.774080  1
  Ga  Ga14  1  0.270023  0.086270  0.274080  1
  Ga  Ga15  1  0.729977  0.913730  0.725920  1
  Si  Si16  1  0.696040  0.173450  0.989918  1
  Si  Si17  1  0.303960  0.826550  0.010082  1
  Si  Si18  1  0.979623  0.921616  0.338842  1
  Si  Si19  1  0.740081  0.578384  0.161158  1
  Si  Si20  1  0.020377  0.078384  0.661158  1
  Si  Si21  1  0.790997  0.797980  0.577267  1
  Si  Si22  1  0.686179  0.970418  0.203932  1
  Si  Si23  1  0.639472  0.470418  0.703932  1
  Si  Si24  1  0.666243  0.702020  0.922733  1
  Si  Si25  1  0.209003  0.202020  0.422733  1
  Si  Si26  1  0.640592  0.673450  0.489918  1
  Si  Si27  1  0.259919  0.421616  0.838842  1
  Si  Si28  1  0.333757  0.297980  0.077267  1
  Si  Si29  1  0.360528  0.529582  0.296068  1
  Si  Si30  1  0.313821  0.029582  0.796068  1
  Si  Si31  1  0.359408  0.326550  0.510082  1
  O  O32  1  0.560236  0.248184  0.055995  1
  O  O33  1  0.929351  0.706262  0.657744  1
  O  O34  1  0.770626  0.975440  0.297828  1
  O  O35  1  0.667673  0.889835  0.621019  1
  O  O36  1  0.416022  0.441755  0.411787  1
  O  O37  1  0.169711  0.511703  0.270515  1
  O  O38  1  0.532234  0.270544  0.577221  1
  O  O39  1  0.424403  0.849161  0.076217  1
  O  O40  1  0.229374  0.024560  0.702172  1
  O  O41  1  0.678527  0.610165  0.878981  1
  O  O42  1  0.150219  0.349161  0.576217  1
  O  O43  1  0.070649  0.293738  0.342256  1
  O  O44  1  0.364415  0.251816  0.444005  1
  O  O45  1  0.830289  0.488297  0.729485  1
  O  O46  1  0.206643  0.206262  0.157744  1
  O  O47  1  0.230437  0.941755  0.911787  1
  O  O48  1  0.879999  0.229456  0.922779  1
  O  O49  1  0.849781  0.650839  0.423783  1
  O  O50  1  0.938334  0.979591  0.666126  1
  O  O51  1  0.769563  0.058245  0.088213  1
  O  O52  1  0.548071  0.011703  0.770515  1
  O  O53  1  0.112734  0.850380  0.274468  1
  O  O54  1  0.703566  0.351747  0.702844  1
  O  O55  1  0.915949  0.479591  0.166126  1
  O  O56  1  0.467766  0.729456  0.422779  1
  O  O57  1  0.754672  0.650556  0.032498  1
  O  O58  1  0.737582  0.649620  0.225532  1
  O  O59  1  0.321473  0.389835  0.121019  1
  O  O60  1  0.456106  0.475440  0.797828  1
  O  O61  1  0.258157  0.148253  0.797156  1
  O  O62  1  0.887266  0.149620  0.725532  1
  O  O63  1  0.439764  0.751816  0.944005  1
  O  O64  1  0.937727  0.849444  0.467502  1
  O  O65  1  0.635585  0.748184  0.555995  1
  O  O66  1  0.741843  0.851747  0.202844  1
  O  O67  1  0.575597  0.150839  0.923783  1
  O  O68  1  0.583978  0.558245  0.588213  1
  O  O69  1  0.332327  0.110165  0.378981  1
  O  O70  1  0.245328  0.349444  0.967502  1
  O  O71  1  0.061666  0.020409  0.333874  1
  O  O72  1  0.084051  0.520409  0.833874  1
  O  O73  1  0.262418  0.350380  0.774468  1
  O  O74  1  0.543894  0.524560  0.202172  1
  O  O75  1  0.120001  0.770544  0.077221  1
  O  O76  1  0.451929  0.988297  0.229485  1
  O  O77  1  0.062273  0.150556  0.532498  1
  O  O78  1  0.296434  0.648253  0.297156  1
  O  O79  1  0.793357  0.793738  0.842256  1
