# generated using pymatgen
data_Ba3NaBiO6
_symmetry_space_group_name_H-M   'P 1'
_cell_length_a   7.35353084
_cell_length_b   7.35353123
_cell_length_c   7.35353073
_cell_angle_alpha   91.80812324
_cell_angle_beta   91.80812334
_cell_angle_gamma   91.80812211
_symmetry_Int_Tables_number   1
_chemical_formula_structural   Ba3NaBiO6
_chemical_formula_sum   'Ba6 Na2 Bi2 O12'
_cell_volume   397.03113873
_cell_formula_units_Z   2
loop_
 _symmetry_equiv_pos_site_id
 _symmetry_equiv_pos_as_xyz
  1  'x, y, z'
loop_
 _atom_site_type_symbol
 _atom_site_label
 _atom_site_symmetry_multiplicity
 _atom_site_fract_x
 _atom_site_fract_y
 _atom_site_fract_z
 _atom_site_occupancy
  Ba  Ba0  1  0.898903  0.250000  0.601097  1
  Ba  Ba1  1  0.101097  0.750000  0.398903  1
  Ba  Ba2  1  0.601097  0.898903  0.250000  1
  Ba  Ba3  1  0.750000  0.398903  0.101097  1
  Ba  Ba4  1  0.398903  0.101097  0.750000  1
  Ba  Ba5  1  0.250000  0.601097  0.898903  1
  Na  Na6  1  0.750000  0.750000  0.750000  1
  Na  Na7  1  0.250000  0.250000  0.250000  1
  Bi  Bi8  1  0.000000  0.000000  0.000000  1
  Bi  Bi9  1  0.500000  0.500000  0.500000  1
  O  O10  1  0.918101  0.720987  0.052585  1
  O  O11  1  0.720987  0.052585  0.918101  1
  O  O12  1  0.947415  0.081899  0.279013  1
  O  O13  1  0.052585  0.918101  0.720987  1
  O  O14  1  0.581899  0.447415  0.779013  1
  O  O15  1  0.779013  0.581899  0.447415  1
  O  O16  1  0.081899  0.279013  0.947415  1
  O  O17  1  0.279013  0.947415  0.081899  1
  O  O18  1  0.552585  0.220987  0.418101  1
  O  O19  1  0.418101  0.552585  0.220987  1
  O  O20  1  0.220987  0.418101  0.552585  1
  O  O21  1  0.447415  0.779013  0.581899  1
