# generated using pymatgen
data_As2H3CF9
_symmetry_space_group_name_H-M   'P 1'
_cell_length_a   8.05656746
_cell_length_b   9.15321153
_cell_length_c   10.90369351
_cell_angle_alpha   90.00000000
_cell_angle_beta   97.38273194
_cell_angle_gamma   90.00000000
_symmetry_Int_Tables_number   1
_chemical_formula_structural   As2H3CF9
_chemical_formula_sum   'As8 H12 C4 F36'
_cell_volume   797.41030940
_cell_formula_units_Z   4
loop_
 _symmetry_equiv_pos_site_id
 _symmetry_equiv_pos_as_xyz
  1  'x, y, z'
loop_
 _atom_site_type_symbol
 _atom_site_label
 _atom_site_symmetry_multiplicity
 _atom_site_fract_x
 _atom_site_fract_y
 _atom_site_fract_z
 _atom_site_occupancy
  As  As0  1  0.759623  0.801796  0.955138  1
  As  As1  1  0.251185  0.151505  0.603882  1
  As  As2  1  0.248815  0.651505  0.896118  1
  As  As3  1  0.751185  0.348495  0.103882  1
  As  As4  1  0.748815  0.848495  0.396118  1
  As  As5  1  0.240377  0.198204  0.044862  1
  As  As6  1  0.259623  0.698204  0.455138  1
  As  As7  1  0.740377  0.301796  0.544862  1
  H  H8  1  0.382493  0.138746  0.413047  1
  H  H9  1  0.617507  0.861254  0.586953  1
  H  H10  1  0.247286  0.299861  0.417849  1
  H  H11  1  0.747286  0.200139  0.917849  1
  H  H12  1  0.345758  0.618846  0.116622  1
  H  H13  1  0.154242  0.118846  0.383378  1
  H  H14  1  0.882493  0.361254  0.913047  1
  H  H15  1  0.845758  0.881154  0.616622  1
  H  H16  1  0.117507  0.638746  0.086953  1
  H  H17  1  0.654242  0.381154  0.883378  1
  H  H18  1  0.252714  0.799861  0.082151  1
  H  H19  1  0.752714  0.700139  0.582151  1
  C  C20  1  0.760389  0.318886  0.929635  1
  C  C21  1  0.260389  0.181114  0.429635  1
  C  C22  1  0.739611  0.818886  0.570365  1
  C  C23  1  0.239611  0.681114  0.070365  1
  F  F24  1  0.309324  0.282888  0.187856  1
  F  F25  1  0.218569  0.305416  0.684730  1
  F  F26  1  0.690676  0.717112  0.812144  1
  F  F27  1  0.580352  0.920979  0.306175  1
  F  F28  1  0.060610  0.733476  0.505094  1
  F  F29  1  0.439390  0.233476  0.994906  1
  F  F30  1  0.097561  0.037467  0.640788  1
  F  F31  1  0.829686  0.880216  0.099404  1
  F  F32  1  0.329686  0.619784  0.599404  1
  F  F33  1  0.560610  0.766524  0.005094  1
  F  F34  1  0.831045  0.625405  0.014853  1
  F  F35  1  0.038667  0.170266  0.092441  1
  F  F36  1  0.919648  0.420979  0.193825  1
  F  F37  1  0.670314  0.380216  0.400596  1
  F  F38  1  0.309465  0.027386  0.105951  1
  F  F39  1  0.538667  0.329734  0.592441  1
  F  F40  1  0.190676  0.782888  0.312144  1
  F  F41  1  0.190535  0.527386  0.394049  1
  F  F42  1  0.461333  0.670266  0.407559  1
  F  F43  1  0.170314  0.119784  0.900596  1
  F  F44  1  0.419648  0.079021  0.693825  1
  F  F45  1  0.961333  0.829734  0.907559  1
  F  F46  1  0.168955  0.374595  0.985147  1
  F  F47  1  0.080352  0.579021  0.806175  1
  F  F48  1  0.718569  0.194584  0.184730  1
  F  F49  1  0.902439  0.962533  0.359212  1
  F  F50  1  0.597561  0.462533  0.140788  1
  F  F51  1  0.690535  0.972614  0.894049  1
  F  F52  1  0.939390  0.266524  0.494906  1
  F  F53  1  0.281431  0.805416  0.815270  1
  F  F54  1  0.781431  0.694584  0.315270  1
  F  F55  1  0.331045  0.874595  0.514853  1
  F  F56  1  0.402439  0.537467  0.859212  1
  F  F57  1  0.668955  0.125405  0.485147  1
  F  F58  1  0.809465  0.472614  0.605951  1
  F  F59  1  0.809324  0.217112  0.687856  1
