# generated using pymatgen
data_Np2H12SO14
_symmetry_space_group_name_H-M   'P 1'
_cell_length_a   7.98165868
_cell_length_b   8.24052184
_cell_length_c   19.19845211
_cell_angle_alpha   90.00000000
_cell_angle_beta   90.00000000
_cell_angle_gamma   96.25598364
_symmetry_Int_Tables_number   1
_chemical_formula_structural   Np2H12SO14
_chemical_formula_sum   'Np8 H48 S4 O56'
_cell_volume   1255.22075333
_cell_formula_units_Z   4
loop_
 _symmetry_equiv_pos_site_id
 _symmetry_equiv_pos_as_xyz
  1  'x, y, z'
loop_
 _atom_site_type_symbol
 _atom_site_label
 _atom_site_symmetry_multiplicity
 _atom_site_fract_x
 _atom_site_fract_y
 _atom_site_fract_z
 _atom_site_occupancy
  Np  Np0  1  0.339289  0.803141  0.643524  1
  Np  Np1  1  0.759767  0.698595  0.361105  1
  Np  Np2  1  0.339289  0.303141  0.856476  1
  Np  Np3  1  0.240233  0.301405  0.638895  1
  Np  Np4  1  0.240233  0.801405  0.861105  1
  Np  Np5  1  0.759767  0.198595  0.138895  1
  Np  Np6  1  0.660711  0.696859  0.143524  1
  Np  Np7  1  0.660711  0.196859  0.356476  1
  H  H8  1  0.900946  0.323145  0.713040  1
  H  H9  1  0.024768  0.627378  0.094920  1
  H  H10  1  0.541589  0.710071  0.500939  1
  H  H11  1  0.975232  0.372622  0.905080  1
  H  H12  1  0.099054  0.676855  0.286960  1
  H  H13  1  0.938451  0.645853  0.764976  1
  H  H14  1  0.061549  0.354147  0.235024  1
  H  H15  1  0.075279  0.621603  0.434945  1
  H  H16  1  0.249936  0.001865  0.411607  1
  H  H17  1  0.036560  0.812941  0.114493  1
  H  H18  1  0.900946  0.823145  0.786960  1
  H  H19  1  0.963440  0.187059  0.885507  1
  H  H20  1  0.408124  0.372492  0.155850  1
  H  H21  1  0.937428  0.191406  0.548039  1
  H  H22  1  0.670817  0.993828  0.700920  1
  H  H23  1  0.408124  0.872492  0.344150  1
  H  H24  1  0.062572  0.808594  0.451961  1
  H  H25  1  0.036560  0.312941  0.385507  1
  H  H26  1  0.212999  0.552392  0.011125  1
  H  H27  1  0.670817  0.493828  0.799080  1
  H  H28  1  0.787001  0.947608  0.511125  1
  H  H29  1  0.062572  0.308594  0.048039  1
  H  H30  1  0.075279  0.121603  0.065055  1
  H  H31  1  0.698635  0.113606  0.980795  1
  H  H32  1  0.301365  0.386394  0.480795  1
  H  H33  1  0.937428  0.691406  0.951961  1
  H  H34  1  0.591876  0.127508  0.655850  1
  H  H35  1  0.924721  0.378397  0.565055  1
  H  H36  1  0.099054  0.176855  0.213040  1
  H  H37  1  0.963440  0.687059  0.614493  1
  H  H38  1  0.698635  0.613606  0.519205  1
  H  H39  1  0.541589  0.210071  -0.000939  1
  H  H40  1  0.301365  0.886394  0.019205  1
  H  H41  1  0.249936  0.501865  0.088393  1
  H  H42  1  0.329183  0.006172  0.299080  1
  H  H43  1  0.750064  0.998135  0.588393  1
  H  H44  1  0.591876  0.627508  0.844150  1
  H  H45  1  0.024768  0.127378  0.405080  1
  H  H46  1  0.975232  0.872622  0.594920  1
  H  H47  1  0.329183  0.506172  0.200920  1
  H  H48  1  0.458411  0.289929  0.499061  1
  H  H49  1  0.787001  0.447608  0.988875  1
  H  H50  1  0.061549  0.854147  0.264976  1
  H  H51  1  0.212999  0.052392  0.488875  1
  H  H52  1  0.458411  0.789929  1.000939  1
  H  H53  1  0.924721  0.878397  0.934945  1
  H  H54  1  0.750064  0.498135  0.911607  1
  H  H55  1  0.938451  0.145853  0.735024  1
  S  S56  1  0.672172  0.500310  0.657290  1
  S  S57  1  0.327828  0.499690  0.342710  1
  S  S58  1  0.672172  1.000310  0.842710  1
  S  S59  1  0.327828  -0.000310  0.157290  1
  O  O60  1  0.969578  0.733111  0.798850  1
  O  O61  1  0.158277  0.504465  0.052994  1
  O  O62  1  0.353142  0.826518  0.981644  1
  O  O63  1  0.737582  0.922603  0.369513  1
  O  O64  1  0.305109  0.312897  0.759992  1
  O  O65  1  0.646858  0.173482  0.018356  1
  O  O66  1  0.968961  0.707489  0.123094  1
  O  O67  1  0.158277  0.004465  0.447006  1
  O  O68  1  0.616174  0.205816  0.450365  1
  O  O69  1  0.786911  0.024012  0.904117  1
  O  O70  1  0.841723  0.995535  0.552994  1
  O  O71  1  0.994150  0.700376  0.446153  1
  O  O72  1  0.737582  0.422603  0.130487  1
  O  O73  1  0.005850  0.299624  0.553847  1
  O  O74  1  0.213089  0.475988  0.404117  1
  O  O75  1  0.031039  0.792511  0.623094  1
  O  O76  1  0.388892  0.989142  0.343883  1
  O  O77  1  0.031039  0.292511  0.876906  1
  O  O78  1  0.552010  0.348796  0.646894  1
  O  O79  1  0.224142  0.021605  0.221256  1
  O  O80  1  0.005850  0.799624  0.946153  1
  O  O81  1  0.552010  0.848796  0.853106  1
  O  O82  1  0.216826  0.524760  0.643963  1
  O  O83  1  0.421161  0.356024  0.332990  1
  O  O84  1  0.262418  0.577397  0.869513  1
  O  O85  1  0.383826  0.294184  0.950365  1
  O  O86  1  0.216826  0.024760  0.856037  1
  O  O87  1  0.305109  0.812897  0.740008  1
  O  O88  1  0.841723  0.495535  0.947006  1
  O  O89  1  0.578839  0.143976  0.832990  1
  O  O90  1  0.611108  0.010858  0.656117  1
  O  O91  1  0.969578  0.233111  0.701150  1
  O  O92  1  0.646858  0.673482  0.481644  1
  O  O93  1  0.447990  0.151204  0.146894  1
  O  O94  1  0.030422  0.766889  0.298850  1
  O  O95  1  0.783174  0.475240  0.356037  1
  O  O96  1  0.224142  0.521605  0.278744  1
  O  O97  1  0.694891  0.187103  0.259992  1
  O  O98  1  0.994150  0.200376  0.053847  1
  O  O99  1  0.616174  0.705816  0.049635  1
  O  O100  1  0.030422  0.266889  0.201150  1
  O  O101  1  0.421161  0.856024  0.167010  1
  O  O102  1  0.388892  0.489142  0.156117  1
  O  O103  1  0.353142  0.326518  0.518356  1
  O  O104  1  0.968961  0.207489  0.376906  1
  O  O105  1  0.783174  0.975240  0.143963  1
  O  O106  1  0.213089  0.975988  0.095883  1
  O  O107  1  0.694891  0.687103  0.240008  1
  O  O108  1  0.775858  0.478395  0.721256  1
  O  O109  1  0.447990  0.651204  0.353106  1
  O  O110  1  0.262418  0.077397  0.630487  1
  O  O111  1  0.611108  0.510858  0.843883  1
  O  O112  1  0.775858  0.978395  0.778744  1
  O  O113  1  0.578839  0.643976  0.667010  1
  O  O114  1  0.786911  0.524012  0.595883  1
  O  O115  1  0.383826  0.794184  0.549635  1
