# generated using pymatgen
data_K6LiFe24S26Cl
_symmetry_space_group_name_H-M   'P 1'
_cell_length_a   9.96123234
_cell_length_b   9.96123234
_cell_length_c   9.96123234
_cell_angle_alpha   90.00000000
_cell_angle_beta   90.00000000
_cell_angle_gamma   90.00000000
_symmetry_Int_Tables_number   1
_chemical_formula_structural   K6LiFe24S26Cl
_chemical_formula_sum   'K6 Li1 Fe24 S26 Cl1'
_cell_volume   988.41473168
_cell_formula_units_Z   1
loop_
 _symmetry_equiv_pos_site_id
 _symmetry_equiv_pos_as_xyz
  1  'x, y, z'
loop_
 _atom_site_type_symbol
 _atom_site_label
 _atom_site_symmetry_multiplicity
 _atom_site_fract_x
 _atom_site_fract_y
 _atom_site_fract_z
 _atom_site_occupancy
  K  K0  1  0.700500  0.000000  -0.000000  1
  K  K1  1  -0.000000  0.000000  0.700500  1
  K  K2  1  -0.000000  0.700500  -0.000000  1
  K  K3  1  -0.000000  0.299500  -0.000000  1
  K  K4  1  -0.000000  0.000000  0.299500  1
  K  K5  1  0.299500  0.000000  -0.000000  1
  Li  Li6  1  0.500000  0.500000  0.500000  1
  Fe  Fe7  1  0.132277  0.368208  0.368208  1
  Fe  Fe8  1  0.132277  0.368208  0.631792  1
  Fe  Fe9  1  0.132277  0.631792  0.368208  1
  Fe  Fe10  1  0.132277  0.631792  0.631792  1
  Fe  Fe11  1  0.368208  0.132277  0.631792  1
  Fe  Fe12  1  0.368208  0.631792  0.132277  1
  Fe  Fe13  1  0.368208  0.631792  0.867723  1
  Fe  Fe14  1  0.368208  0.867723  0.631792  1
  Fe  Fe15  1  0.368208  0.132277  0.368208  1
  Fe  Fe16  1  0.368208  0.368208  0.132277  1
  Fe  Fe17  1  0.368208  0.368208  0.867723  1
  Fe  Fe18  1  0.368208  0.867723  0.368208  1
  Fe  Fe19  1  0.631792  0.132277  0.368208  1
  Fe  Fe20  1  0.631792  0.132277  0.631792  1
  Fe  Fe21  1  0.631792  0.368208  0.132277  1
  Fe  Fe22  1  0.631792  0.631792  0.132277  1
  Fe  Fe23  1  0.631792  0.631792  0.867723  1
  Fe  Fe24  1  0.631792  0.867723  0.631792  1
  Fe  Fe25  1  0.631792  0.368208  0.867723  1
  Fe  Fe26  1  0.631792  0.867723  0.368208  1
  Fe  Fe27  1  0.867723  0.368208  0.631792  1
  Fe  Fe28  1  0.867723  0.368208  0.368208  1
  Fe  Fe29  1  0.867723  0.631792  0.368208  1
  Fe  Fe30  1  0.867723  0.631792  0.631792  1
  S  S31  1  0.500000  0.000000  0.747874  1
  S  S32  1  0.500000  0.252126  -0.000000  1
  S  S33  1  0.500000  0.245794  0.500000  1
  S  S34  1  0.500000  0.500000  0.245794  1
  S  S35  1  0.754206  0.500000  0.500000  1
  S  S36  1  0.747874  0.000000  0.500000  1
  S  S37  1  0.747874  0.500000  -0.000000  1
  S  S38  1  0.768529  0.231471  0.231471  1
  S  S39  1  0.768529  0.768529  0.231471  1
  S  S40  1  0.768529  0.231471  0.768529  1
  S  S41  1  0.768529  0.768529  0.768529  1
  S  S42  1  -0.000000  0.747874  0.500000  1
  S  S43  1  -0.000000  0.500000  0.747874  1
  S  S44  1  -0.000000  0.252126  0.500000  1
  S  S45  1  -0.000000  0.500000  0.252126  1
  S  S46  1  0.231471  0.231471  0.231471  1
  S  S47  1  0.231471  0.768529  0.231471  1
  S  S48  1  0.231471  0.231471  0.768529  1
  S  S49  1  0.231471  0.768529  0.768529  1
  S  S50  1  0.252126  0.000000  0.500000  1
  S  S51  1  0.252126  0.500000  -0.000000  1
  S  S52  1  0.245794  0.500000  0.500000  1
  S  S53  1  0.500000  0.754206  0.500000  1
  S  S54  1  0.500000  0.500000  0.754206  1
  S  S55  1  0.500000  0.747874  -0.000000  1
  S  S56  1  0.500000  0.000000  0.252126  1
  Cl  Cl57  1  -0.000000  0.000000  -0.000000  1
