# generated using pymatgen
data_MoAs2O7
_symmetry_space_group_name_H-M   'P 1'
_cell_length_a   4.68137019
_cell_length_b   8.10499839
_cell_length_c   16.76021989
_cell_angle_alpha   99.02487621
_cell_angle_beta   90.00000000
_cell_angle_gamma   90.00000000
_symmetry_Int_Tables_number   1
_chemical_formula_structural   MoAs2O7
_chemical_formula_sum   'Mo4 As8 O28'
_cell_volume   628.05206950
_cell_formula_units_Z   4
loop_
 _symmetry_equiv_pos_site_id
 _symmetry_equiv_pos_as_xyz
  1  'x, y, z'
loop_
 _atom_site_type_symbol
 _atom_site_label
 _atom_site_symmetry_multiplicity
 _atom_site_fract_x
 _atom_site_fract_y
 _atom_site_fract_z
 _atom_site_occupancy
  O  O0  1  0.313592  0.178134  0.735258  1
  O  O1  1  0.813592  0.321866  0.764742  1
  O  O2  1  0.686407  0.821866  0.264742  1
  O  O3  1  0.186409  0.678134  0.235258  1
  O  O4  1  0.712073  0.660034  0.679483  1
  O  O5  1  0.212073  0.839966  0.820517  1
  O  O6  1  0.287927  0.339966  0.320516  1
  O  O7  1  0.787926  0.160034  0.179484  1
  O  O8  1  0.247335  0.234943  0.477784  1
  O  O9  1  0.747336  0.265057  0.022215  1
  O  O10  1  0.752663  0.765057  0.522216  1
  O  O11  1  0.252665  0.734943  0.977784  1
  O  O12  1  0.251961  0.968753  0.124044  1
  O  O13  1  0.751961  0.531247  0.375956  1
  O  O14  1  0.748037  0.031247  0.875956  1
  O  O15  1  0.248039  0.468753  0.624044  1
  O  O16  1  0.575187  0.672444  0.105609  1
  O  O17  1  0.075187  0.827556  0.394391  1
  O  O18  1  0.424813  0.327556  0.894392  1
  O  O19  1  0.924814  0.172444  0.605608  1
  O  O20  1  0.743418  0.427777  0.524569  1
  O  O21  1  0.722037  0.170813  0.378741  1
  O  O22  1  0.777962  0.670813  0.878741  1
  O  O23  1  0.277961  0.829187  0.621259  1
  O  O24  1  0.756583  0.927777  0.024568  1
  O  O25  1  0.256583  0.572223  0.475432  1
  O  O26  1  0.243417  0.072223  0.975431  1
  O  O27  1  0.222039  0.329187  0.121259  1
  As  As28  1  0.947870  0.121540  0.711216  1
  As  As29  1  0.447869  0.378460  0.788784  1
  As  As30  1  0.052129  0.878460  0.288784  1
  As  As31  1  0.552129  0.621540  0.211216  1
  As  As32  1  0.044363  0.332275  0.557338  1
  As  As33  1  0.544363  0.167724  0.942662  1
  As  As34  1  0.455637  0.832276  0.057339  1
  As  As35  1  0.955638  0.667725  0.442662  1
  Mo  Mo36  1  0.496961  0.658761  0.596489  1
  Mo  Mo37  1  0.996960  0.841240  0.903511  1
  Mo  Mo38  1  0.503038  0.341240  0.403511  1
  Mo  Mo39  1  0.003038  0.158761  0.096489  1
