# generated using pymatgen
data_Rb4CO4
_symmetry_space_group_name_H-M   'P 1'
_cell_length_a   5.79979894
_cell_length_b   5.79988498
_cell_length_c   5.79984141
_cell_angle_alpha   89.78568777
_cell_angle_beta   89.78594902
_cell_angle_gamma   89.78603485
_symmetry_Int_Tables_number   1
_chemical_formula_structural   Rb4CO4
_chemical_formula_sum   'Rb4 C1 O4'
_cell_volume   195.09195597
_cell_formula_units_Z   1
loop_
 _symmetry_equiv_pos_site_id
 _symmetry_equiv_pos_as_xyz
  1  'x, y, z'
loop_
 _atom_site_type_symbol
 _atom_site_label
 _atom_site_symmetry_multiplicity
 _atom_site_fract_x
 _atom_site_fract_y
 _atom_site_fract_z
 _atom_site_occupancy
  Rb  Rb0  1  0.480684  0.480681  0.480682  1
  O  O1  1  0.354541  0.344171  0.060631  1
  O  O2  1  0.344174  0.060633  0.354540  1
  C  C3  1  0.205352  0.205352  0.205352  1
  Rb  Rb4  1  0.478695  0.914507  0.940237  1
  Rb  Rb5  1  0.914502  0.940240  0.478695  1
  O  O6  1  0.060632  0.354538  0.344172  1
  Rb  Rb7  1  0.940235  0.478692  0.914505  1
  O  O8  1  0.061585  0.061587  0.061586  1
