# generated using pymatgen
data_SnH22(Cl3O5)2
_symmetry_space_group_name_H-M   'P 1'
_cell_length_a   7.34695212
_cell_length_b   9.08627287
_cell_length_c   14.04490323
_cell_angle_alpha   92.85713136
_cell_angle_beta   90.00000000
_cell_angle_gamma   90.00000000
_symmetry_Int_Tables_number   1
_chemical_formula_structural   SnH22(Cl3O5)2
_chemical_formula_sum   'Sn2 H44 Cl12 O20'
_cell_volume   936.42185671
_cell_formula_units_Z   2
loop_
 _symmetry_equiv_pos_site_id
 _symmetry_equiv_pos_as_xyz
  1  'x, y, z'
loop_
 _atom_site_type_symbol
 _atom_site_label
 _atom_site_symmetry_multiplicity
 _atom_site_fract_x
 _atom_site_fract_y
 _atom_site_fract_z
 _atom_site_occupancy
  Sn  Sn0  1  0.500000  0.500000  0.500000  1
  Sn  Sn1  1  0.000000  0.000000  0.000000  1
  H  H2  1  0.610328  0.229070  0.761463  1
  H  H3  1  0.389672  0.770930  0.238537  1
  H  H4  1  0.703263  0.232498  0.863275  1
  H  H5  1  0.769644  0.650849  0.793060  1
  H  H6  1  0.110328  0.270930  0.738537  1
  H  H7  1  0.730356  0.150849  0.293060  1
  H  H8  1  0.500340  0.387621  0.862833  1
  H  H9  1  0.097380  0.724175  0.583097  1
  H  H10  1  0.491578  0.777004  0.818166  1
  H  H11  1  0.902620  0.275825  0.416903  1
  H  H12  1  0.503874  0.017573  0.685374  1
  H  H13  1  0.402620  0.224175  0.083097  1
  H  H14  1  0.508422  0.222996  0.181834  1
  H  H15  1  0.806352  0.538998  0.706055  1
  H  H16  1  0.541024  0.430596  0.115474  1
  H  H17  1  0.979654  0.641558  0.108744  1
  H  H18  1  0.991578  0.722996  0.681834  1
  H  H19  1  0.220212  0.949173  0.372859  1
  H  H20  1  0.306352  0.961002  0.793945  1
  H  H21  1  0.203263  0.267502  0.636725  1
  H  H22  1  0.193648  0.461002  0.293945  1
  H  H23  1  0.279788  0.449173  0.872859  1
  H  H24  1  0.958976  0.930596  0.615474  1
  H  H25  1  0.889672  0.729070  0.261463  1
  H  H26  1  0.779788  0.050827  0.627141  1
  H  H27  1  0.296737  0.767502  0.136725  1
  H  H28  1  0.041024  0.069404  0.384526  1
  H  H29  1  0.479654  0.858442  0.391256  1
  H  H30  1  0.796737  0.732498  0.363275  1
  H  H31  1  0.003874  0.482427  0.814626  1
  H  H32  1  0.520346  0.141558  0.608744  1
  H  H33  1  0.996126  0.517573  0.185374  1
  H  H34  1  0.720212  0.550827  0.127141  1
  H  H35  1  0.597380  0.775825  0.916903  1
  H  H36  1  0.458976  0.569404  0.884526  1
  H  H37  1  0.693648  0.038998  0.206055  1
  H  H38  1  0.269644  0.849151  0.706940  1
  H  H39  1  1.000340  0.112379  0.637167  1
  H  H40  1  0.020346  0.358442  0.891256  1
  H  H41  1  0.230356  0.349151  0.206940  1
  H  H42  1  0.499660  0.612379  0.137167  1
  H  H43  1  0.008422  0.277004  0.318166  1
  H  H44  1  -0.000340  0.887621  0.362833  1
  H  H45  1  0.496126  0.982427  0.314626  1
  Cl  Cl46  1  0.796268  0.404298  0.555503  1
  Cl  Cl47  1  0.109024  0.016539  0.164150  1
  Cl  Cl48  1  0.296268  0.095702  0.944497  1
  Cl  Cl49  1  0.382726  0.242398  0.484746  1
  Cl  Cl50  1  0.609024  0.483461  0.335850  1
  Cl  Cl51  1  0.117274  0.742398  0.984746  1
  Cl  Cl52  1  0.390976  0.516539  0.664150  1
  Cl  Cl53  1  0.617274  0.757602  0.515254  1
  Cl  Cl54  1  0.203732  0.595702  0.444497  1
  Cl  Cl55  1  0.703732  0.904298  0.055503  1
  Cl  Cl56  1  0.890976  0.983461  0.835850  1
  Cl  Cl57  1  0.882726  0.257602  0.015254  1
  O  O58  1  0.915425  0.597297  0.162127  1
  O  O59  1  0.361574  0.706303  0.181176  1
  O  O60  1  0.936366  0.213093  0.360397  1
  O  O61  1  0.063634  0.786907  0.639603  1
  O  O62  1  0.415425  0.902703  0.337873  1
  O  O63  1  0.861574  0.793697  0.318824  1
  O  O64  1  0.436366  0.286907  0.139603  1
  O  O65  1  0.868517  0.604226  0.753658  1
  O  O66  1  0.563634  0.713093  0.860397  1
  O  O67  1  0.138426  0.206303  0.681176  1
  O  O68  1  0.589061  0.534496  0.103096  1
  O  O69  1  0.131483  0.395774  0.246342  1
  O  O70  1  0.584575  0.097297  0.662127  1
  O  O71  1  0.910939  0.034496  0.603096  1
  O  O72  1  0.631483  0.104226  0.253658  1
  O  O73  1  0.638426  0.293697  0.818824  1
  O  O74  1  0.084575  0.402703  0.837873  1
  O  O75  1  0.089061  0.965504  0.396904  1
  O  O76  1  0.368517  0.895774  0.746342  1
  O  O77  1  0.410939  0.465504  0.896904  1
