# generated using pymatgen
data_Yb(GaS2)2
_symmetry_space_group_name_H-M   'P 1'
_cell_length_a   11.76846112
_cell_length_b   11.76846118
_cell_length_c   11.77823357
_cell_angle_alpha   105.57059678
_cell_angle_beta   105.57059684
_cell_angle_gamma   117.56167690
_symmetry_Int_Tables_number   1
_chemical_formula_structural   Yb(GaS2)2
_chemical_formula_sum   'Yb8 Ga16 S32'
_cell_volume   1237.08667994
_cell_formula_units_Z   8
loop_
 _symmetry_equiv_pos_site_id
 _symmetry_equiv_pos_as_xyz
  1  'x, y, z'
loop_
 _atom_site_type_symbol
 _atom_site_label
 _atom_site_symmetry_multiplicity
 _atom_site_fract_x
 _atom_site_fract_y
 _atom_site_fract_z
 _atom_site_occupancy
  Yb  Yb0  1  0.126916  0.376916  0.753833  1
  Yb  Yb1  1  0.873084  0.623084  0.246167  1
  Yb  Yb2  1  0.376916  0.126916  0.253833  1
  Yb  Yb3  1  0.375000  0.625000  0.250000  1
  Yb  Yb4  1  0.125000  0.875000  0.750000  1
  Yb  Yb5  1  0.875000  0.125000  0.250000  1
  Yb  Yb6  1  0.623084  0.873084  0.746167  1
  Yb  Yb7  1  0.625000  0.375000  0.750000  1
  Ga  Ga8  1  0.136274  0.112989  0.500263  1
  Ga  Ga9  1  0.639937  0.531070  0.498420  1
  Ga  Ga10  1  0.863990  0.387274  0.500263  1
  Ga  Ga11  1  0.360063  0.468930  0.501580  1
  Ga  Ga12  1  0.531070  0.639937  0.998420  1
  Ga  Ga13  1  0.112989  0.136274  1.000263  1
  Ga  Ga14  1  0.136010  0.612726  0.499737  1
  Ga  Ga15  1  0.387274  0.863990  1.000263  1
  Ga  Ga16  1  0.358483  0.967350  0.498420  1
  Ga  Ga17  1  0.967350  0.358483  0.998420  1
  Ga  Ga18  1  0.612726  0.136010  -0.000263  1
  Ga  Ga19  1  0.032650  0.641517  0.001580  1
  Ga  Ga20  1  0.641517  0.032650  0.501580  1
  Ga  Ga21  1  0.863726  0.887011  0.499737  1
  Ga  Ga22  1  0.887011  0.863726  -0.000263  1
  Ga  Ga23  1  0.468930  0.360063  0.001580  1
  S  S24  1  0.587430  0.086389  0.172033  1
  S  S25  1  0.657473  0.344906  0.998995  1
  S  S26  1  0.584334  0.085107  0.673207  1
  S  S27  1  0.655094  0.342527  0.501005  1
  S  S28  1  0.814740  0.148923  0.996760  1
  S  S29  1  0.841522  0.654090  0.998995  1
  S  S30  1  0.588100  0.588873  0.173207  1
  S  S31  1  0.682020  0.847837  0.996760  1
  S  S32  1  0.915397  0.914356  0.827967  1
  S  S33  1  0.412570  0.913611  0.827967  1
  S  S34  1  0.085107  0.584334  0.173207  1
  S  S35  1  0.148923  0.814740  0.496760  1
  S  S36  1  0.086389  0.587430  0.672033  1
  S  S37  1  0.345910  0.158478  0.501005  1
  S  S38  1  0.085644  0.084603  0.672033  1
  S  S39  1  0.411127  0.411900  0.326793  1
  S  S40  1  0.914356  0.915397  0.327967  1
  S  S41  1  0.913611  0.412570  0.327967  1
  S  S42  1  0.344906  0.657473  0.498995  1
  S  S43  1  0.158478  0.345910  0.001005  1
  S  S44  1  0.914893  0.415666  0.826793  1
  S  S45  1  0.084603  0.085644  0.172033  1
  S  S46  1  0.851077  0.185260  0.503240  1
  S  S47  1  0.185260  0.851077  0.003240  1
  S  S48  1  0.847837  0.682020  0.496760  1
  S  S49  1  0.342527  0.655094  0.001005  1
  S  S50  1  0.411900  0.411127  0.826793  1
  S  S51  1  0.654090  0.841522  0.498995  1
  S  S52  1  0.317980  0.152163  0.003240  1
  S  S53  1  0.588873  0.588100  0.673207  1
  S  S54  1  0.415666  0.914893  0.326793  1
  S  S55  1  0.152163  0.317980  0.503240  1
