# generated using pymatgen
data_H14RhC6NClO4
_symmetry_space_group_name_H-M   'P 1'
_cell_length_a   9.33451264
_cell_length_b   11.23562157
_cell_length_c   12.05141250
_cell_angle_alpha   88.08077792
_cell_angle_beta   86.20785331
_cell_angle_gamma   66.90300323
_symmetry_Int_Tables_number   1
_chemical_formula_structural   H14RhC6NClO4
_chemical_formula_sum   'H56 Rh4 C24 N4 Cl4 O16'
_cell_volume   1160.04110605
_cell_formula_units_Z   4
loop_
 _symmetry_equiv_pos_site_id
 _symmetry_equiv_pos_as_xyz
  1  'x, y, z'
loop_
 _atom_site_type_symbol
 _atom_site_label
 _atom_site_symmetry_multiplicity
 _atom_site_fract_x
 _atom_site_fract_y
 _atom_site_fract_z
 _atom_site_occupancy
  H  H0  1  0.939908  0.192204  0.315130  1
  H  H1  1  0.970981  0.723912  0.606732  1
  H  H2  1  0.097322  0.469551  0.136728  1
  H  H3  1  0.617151  0.185191  0.776209  1
  H  H4  1  0.504155  0.952940  0.683305  1
  H  H5  1  0.659708  0.982057  0.217364  1
  H  H6  1  0.641768  0.886500  0.335367  1
  H  H7  1  0.455953  0.675093  0.140342  1
  H  H8  1  0.495845  0.047060  0.316695  1
  H  H9  1  0.905315  0.512998  0.304593  1
  H  H10  1  0.886849  0.343168  0.701351  1
  H  H11  1  0.553014  0.307707  0.179079  1
  H  H12  1  0.113151  0.656832  0.298649  1
  H  H13  1  0.340292  0.017943  0.782636  1
  H  H14  1  0.958037  0.358468  0.885545  1
  H  H15  1  0.446986  0.692293  0.820921  1
  H  H16  1  0.849217  0.683040  0.277253  1
  H  H17  1  0.569529  0.389274  0.050731  1
  H  H18  1  0.283355  0.262487  0.000696  1
  H  H19  1  0.831391  0.984751  0.347813  1
  H  H20  1  0.426316  0.108105  0.031388  1
  H  H21  1  0.430471  0.610726  0.949269  1
  H  H22  1  0.716645  0.737513  0.999304  1
  H  H23  1  0.298533  0.066495  0.482229  1
  H  H24  1  0.236057  0.936181  0.466639  1
  H  H25  1  0.316285  0.614411  0.835127  1
  H  H26  1  0.916676  0.615790  0.410256  1
  H  H27  1  0.563406  0.099853  0.514166  1
  H  H28  1  0.411733  0.264391  0.803636  1
  H  H29  1  0.382849  0.814809  0.223791  1
  H  H30  1  0.094685  0.487002  0.695407  1
  H  H31  1  0.301583  0.201677  0.141713  1
  H  H32  1  0.683715  0.385589  0.164873  1
  H  H33  1  0.029019  0.276088  0.393268  1
  H  H34  1  0.701467  0.933505  0.517771  1
  H  H35  1  0.083324  0.384210  0.589744  1
  H  H36  1  0.150783  0.316960  0.722747  1
  H  H37  1  0.902678  0.530449  0.863272  1
  H  H38  1  0.312131  0.866398  0.652478  1
  H  H39  1  0.358232  0.113500  0.664633  1
  H  H40  1  0.168609  0.015249  0.652187  1
  H  H41  1  0.170397  0.493104  0.319090  1
  H  H42  1  0.588267  0.735609  0.196364  1
  H  H43  1  0.698417  0.798323  0.858287  1
  H  H44  1  0.436594  0.900147  0.485833  1
  H  H45  1  0.829603  0.506896  0.680910  1
  H  H46  1  0.060092  0.807796  0.684870  1
  H  H47  1  0.763943  0.063819  0.533361  1
  H  H48  1  0.025679  0.844946  0.541974  1
  H  H49  1  0.758892  0.461363  0.864860  1
  H  H50  1  0.687869  0.133602  0.347522  1
  H  H51  1  0.041963  0.641532  0.114455  1
  H  H52  1  0.241108  0.538637  0.135140  1
  H  H53  1  0.974321  0.155054  0.458026  1
  H  H54  1  0.573684  0.891895  0.968612  1
  H  H55  1  0.544047  0.324907  0.859658  1
  Rh  Rh56  1  0.017095  0.955019  0.094007  1
  Rh  Rh57  1  0.559999  0.562376  0.545688  1
  Rh  Rh58  1  0.982905  0.044981  0.905993  1
  Rh  Rh59  1  0.440001  0.437624  0.454312  1
  C  C60  1  0.806407  0.885824  0.965447  1
  C  C61  1  0.306688  0.176573  0.053863  1
  C  C62  1  0.762975  0.208331  0.075541  1
  C  C63  1  0.520208  0.280022  0.787802  1
  C  C64  1  0.479791  0.719978  0.212198  1
  C  C65  1  0.880673  0.445068  0.842593  1
  C  C66  1  0.316932  0.967134  0.507631  1
  C  C67  1  0.511547  0.360843  0.684153  1
  C  C68  1  0.193593  0.114176  0.034553  1
  C  C69  1  0.488453  0.639157  0.315847  1
  C  C70  1  0.237025  0.791669  0.924459  1
  C  C71  1  0.619936  0.984865  0.305120  1
  C  C72  1  0.070503  0.401596  0.679376  1
  C  C73  1  0.119327  0.554932  0.157407  1
  C  C74  1  0.380064  0.015135  0.694880  1
  C  C75  1  0.633351  0.329668  0.119221  1
  C  C76  1  0.218273  0.668855  0.567975  1
  C  C77  1  0.929497  0.598404  0.320624  1
  C  C78  1  0.940855  0.233937  0.395928  1
  C  C79  1  0.693312  0.823427  0.946137  1
  C  C80  1  0.366649  0.670332  0.880779  1
  C  C81  1  0.683068  0.032866  0.492369  1
  C  C82  1  0.781727  0.331145  0.432025  1
  C  C83  1  0.059145  0.766063  0.604072  1
  N  N84  1  0.908539  0.424463  0.720720  1
  N  N85  1  0.711797  0.037914  0.369645  1
  N  N86  1  0.288204  0.962086  0.630355  1
  N  N87  1  0.091461  0.575537  0.279280  1
  Cl  Cl88  1  0.943828  0.134377  0.699284  1
  Cl  Cl89  1  0.056172  0.865623  0.300716  1
  Cl  Cl90  1  0.687131  0.698603  0.642165  1
  Cl  Cl91  1  0.312869  0.301397  0.357835  1
  O  O92  1  0.774495  0.427215  0.489639  1
  O  O93  1  0.134816  0.132561  0.938787  1
  O  O94  1  0.336809  0.690017  0.596320  1
  O  O95  1  0.865184  0.867439  0.061213  1
  O  O96  1  0.450820  0.334136  0.601004  1
  O  O97  1  0.171299  0.880539  0.852882  1
  O  O98  1  0.433985  0.550761  0.313523  1
  O  O99  1  0.566015  0.449239  0.686477  1
  O  O100  1  0.663191  0.309983  0.403680  1
  O  O101  1  0.833199  0.953277  0.885494  1
  O  O102  1  0.549180  0.665864  0.398996  1
  O  O103  1  0.799616  0.204017  0.971099  1
  O  O104  1  0.200384  0.795983  0.028901  1
  O  O105  1  0.225505  0.572785  0.510361  1
  O  O106  1  0.166801  0.046723  0.114506  1
  O  O107  1  0.828701  0.119461  0.147118  1
