# generated using pymatgen
data_BaTeF6
_symmetry_space_group_name_H-M   'P 1'
_cell_length_a   8.96653126
_cell_length_b   8.96653165
_cell_length_c   9.01450207
_cell_angle_alpha   105.30585279
_cell_angle_beta   105.30585335
_cell_angle_gamma   117.98447712
_symmetry_Int_Tables_number   1
_chemical_formula_structural   BaTeF6
_chemical_formula_sum   'Ba4 Te4 F24'
_cell_volume   549.60350327
_cell_formula_units_Z   4
loop_
 _symmetry_equiv_pos_site_id
 _symmetry_equiv_pos_as_xyz
  1  'x, y, z'
loop_
 _atom_site_type_symbol
 _atom_site_label
 _atom_site_symmetry_multiplicity
 _atom_site_fract_x
 _atom_site_fract_y
 _atom_site_fract_z
 _atom_site_occupancy
  Ba  Ba0  1  0.212291  0.363947  0.230087  1
  Ba  Ba1  1  0.133860  0.982204  0.769913  1
  Ba  Ba2  1  0.232204  0.883860  0.269913  1
  Ba  Ba3  1  0.613947  0.962291  0.730087  1
  Te  Te4  1  0.737558  0.448140  0.215474  1
  Te  Te5  1  0.698140  0.487558  0.715474  1
  Te  Te6  1  0.232665  0.522084  0.784526  1
  Te  Te7  1  0.772084  0.982665  0.284526  1
  F  F8  1  0.311350  0.534166  0.595416  1
  F  F9  1  0.723918  0.714659  0.685605  1
  F  F10  1  0.935052  0.255188  0.413516  1
  F  F11  1  0.567860  0.234988  0.973300  1
  F  F12  1  0.290461  0.332036  0.782460  1
  F  F13  1  0.771537  0.591673  0.086484  1
  F  F14  1  0.262941  0.097094  0.103792  1
  F  F15  1  0.484988  0.317860  0.473300  1
  F  F16  1  0.261688  0.594561  0.026700  1
  F  F17  1  0.844561  0.011688  0.526700  1
  F  F18  1  0.938750  0.715934  0.404584  1
  F  F19  1  0.993302  0.159149  0.896208  1
  F  F20  1  0.841673  0.521537  0.586484  1
  F  F21  1  0.409149  0.743302  0.396208  1
  F  F22  1  0.505188  0.685052  0.913516  1
  F  F23  1  0.549576  0.508001  0.217540  1
  F  F24  1  0.758001  0.299576  0.717540  1
  F  F25  1  0.582036  0.040461  0.282460  1
  F  F26  1  0.784166  0.061350  0.095416  1
  F  F27  1  0.347094  0.012941  0.603792  1
  F  F28  1  0.965934  0.688750  0.904584  1
  F  F29  1  0.964659  0.473918  0.185605  1
  F  F30  1  0.029054  0.038313  0.314395  1
  F  F31  1  0.288313  0.779054  0.814395  1
