# generated using pymatgen
data_Ba2Li3NbN4
_symmetry_space_group_name_H-M   'P 1'
_cell_length_a   5.71605075
_cell_length_b   6.36165707
_cell_length_c   10.17390280
_cell_angle_alpha   81.16635757
_cell_angle_beta   73.68464510
_cell_angle_gamma   63.30375670
_symmetry_Int_Tables_number   1
_chemical_formula_structural   Ba2Li3NbN4
_chemical_formula_sum   'Ba4 Li6 Nb2 N8'
_cell_volume   317.05030726
_cell_formula_units_Z   2
loop_
 _symmetry_equiv_pos_site_id
 _symmetry_equiv_pos_as_xyz
  1  'x, y, z'
loop_
 _atom_site_type_symbol
 _atom_site_label
 _atom_site_symmetry_multiplicity
 _atom_site_fract_x
 _atom_site_fract_y
 _atom_site_fract_z
 _atom_site_occupancy
  Ba  Ba0  1  0.439085  0.806207  0.388054  1
  Ba  Ba1  1  0.866659  0.306212  0.888049  1
  Ba  Ba2  1  0.560915  0.193793  0.611946  1
  Ba  Ba3  1  0.133341  0.693788  0.111951  1
  Li  Li4  1  0.973452  0.690251  0.458532  1
  Li  Li5  1  0.622231  0.809753  0.041469  1
  Li  Li6  1  0.115578  0.249985  0.250002  1
  Li  Li7  1  0.377769  0.190247  0.958531  1
  Li  Li8  1  0.884422  0.750015  0.749998  1
  Li  Li9  1  0.026548  0.309749  0.541468  1
  Nb  Nb10  1  0.362192  0.750066  0.749960  1
  Nb  Nb11  1  0.637808  0.249934  0.250040  1
  N  N12  1  0.568301  0.111586  0.112075  1
  N  N13  1  0.708045  0.611567  0.612085  1
  N  N14  1  0.235950  0.507085  0.838029  1
  N  N15  1  0.431699  0.888414  0.887925  1
  N  N16  1  0.918898  0.007116  0.338021  1
  N  N17  1  0.764050  0.492915  0.161971  1
  N  N18  1  0.081102  0.992884  0.661979  1
  N  N19  1  0.291955  0.388433  0.387915  1
