# generated using pymatgen
data_SrSi7N10
_symmetry_space_group_name_H-M   'P 1'
_cell_length_a   6.77542375
_cell_length_b   6.88371256
_cell_length_c   9.67906160
_cell_angle_alpha   106.07906117
_cell_angle_beta   90.00000000
_cell_angle_gamma   90.00000000
_symmetry_Int_Tables_number   1
_chemical_formula_structural   SrSi7N10
_chemical_formula_sum   'Sr2 Si14 N20'
_cell_volume   433.77227896
_cell_formula_units_Z   2
loop_
 _symmetry_equiv_pos_site_id
 _symmetry_equiv_pos_as_xyz
  1  'x, y, z'
loop_
 _atom_site_type_symbol
 _atom_site_label
 _atom_site_symmetry_multiplicity
 _atom_site_fract_x
 _atom_site_fract_y
 _atom_site_fract_z
 _atom_site_occupancy
  Sr  Sr0  1  0.948020  0.043847  0.331429  1
  Sr  Sr1  1  0.051980  0.043847  0.831429  1
  Si  Si2  1  0.025955  0.460066  0.171868  1
  Si  Si3  1  0.394277  0.891080  0.426597  1
  Si  Si4  1  0.380822  0.703892  0.116113  1
  Si  Si5  1  0.026606  0.646026  0.483351  1
  Si  Si6  1  0.623848  0.150923  0.690912  1
  Si  Si7  1  0.370835  0.516389  0.812305  1
  Si  Si8  1  0.634983  0.334311  0.006947  1
  Si  Si9  1  0.619178  0.703892  0.616113  1
  Si  Si10  1  0.365017  0.334311  0.506947  1
  Si  Si11  1  0.629165  0.516389  0.312305  1
  Si  Si12  1  0.605723  0.891080  0.926597  1
  Si  Si13  1  0.974045  0.460066  0.671868  1
  Si  Si14  1  0.376152  0.150923  0.190912  1
  Si  Si15  1  0.973394  0.646026  0.983351  1
  N  N16  1  0.164225  0.845846  0.478830  1
  N  N17  1  0.129730  0.680816  0.135327  1
  N  N18  1  0.383109  0.112542  0.367163  1
  N  N19  1  0.868435  0.432132  0.022965  1
  N  N20  1  0.422787  0.921317  0.061819  1
  N  N21  1  0.155067  0.251763  0.169925  1
  N  N22  1  0.498255  0.713831  0.275925  1
  N  N23  1  0.584339  0.296343  0.175483  1
  N  N24  1  0.577213  0.921317  0.561819  1
  N  N25  1  0.844933  0.251763  0.669925  1
  N  N26  1  0.501745  0.713831  0.775925  1
  N  N27  1  0.616891  0.112542  0.867163  1
  N  N28  1  0.835775  0.845846  0.978830  1
  N  N29  1  0.882374  0.554749  0.327571  1
  N  N30  1  0.870270  0.680816  0.635327  1
  N  N31  1  0.117626  0.554749  0.827571  1
  N  N32  1  0.537820  0.501828  0.476168  1
  N  N33  1  0.415661  0.296343  0.675483  1
  N  N34  1  0.462180  0.501828  0.976168  1
  N  N35  1  0.131565  0.432132  0.522965  1
