# generated using pymatgen
data_Cs2ZnFe(CN)6
_symmetry_space_group_name_H-M   'P 1'
_cell_length_a   10.45226755
_cell_length_b   10.45226755
_cell_length_c   10.45226755
_cell_angle_alpha   90.00000000
_cell_angle_beta   90.00000000
_cell_angle_gamma   90.00000000
_symmetry_Int_Tables_number   1
_chemical_formula_structural   Cs2ZnFe(CN)6
_chemical_formula_sum   'Cs8 Zn4 Fe4 C24 N24'
_cell_volume   1141.90915259
_cell_formula_units_Z   4
loop_
 _symmetry_equiv_pos_site_id
 _symmetry_equiv_pos_as_xyz
  1  'x, y, z'
loop_
 _atom_site_type_symbol
 _atom_site_label
 _atom_site_symmetry_multiplicity
 _atom_site_fract_x
 _atom_site_fract_y
 _atom_site_fract_z
 _atom_site_occupancy
  Cs  Cs0  1  0.500000  0.000000  0.000000  1
  Cs  Cs1  1  0.500000  0.500000  0.500000  1
  Cs  Cs2  1  0.000000  0.000000  0.000000  1
  Cs  Cs3  1  0.000000  0.500000  0.000000  1
  Cs  Cs4  1  0.000000  0.500000  0.500000  1
  Cs  Cs5  1  0.500000  0.500000  0.000000  1
  Cs  Cs6  1  0.500000  0.000000  0.500000  1
  Cs  Cs7  1  0.000000  0.000000  0.500000  1
  Zn  Zn8  1  0.250000  0.750000  0.250000  1
  Zn  Zn9  1  0.750000  0.250000  0.250000  1
  Zn  Zn10  1  0.250000  0.250000  0.750000  1
  Zn  Zn11  1  0.750000  0.750000  0.750000  1
  Fe  Fe12  1  0.250000  0.250000  0.250000  1
  Fe  Fe13  1  0.750000  0.750000  0.250000  1
  Fe  Fe14  1  0.750000  0.250000  0.750000  1
  Fe  Fe15  1  0.250000  0.750000  0.750000  1
  C  C16  1  0.749342  0.069782  0.750280  1
  C  C17  1  0.569782  0.249342  0.749720  1
  C  C18  1  0.749720  0.430218  0.750658  1
  C  C19  1  0.750280  0.250658  0.930218  1
  C  C20  1  0.930218  0.249720  0.749342  1
  C  C21  1  0.430218  0.249342  0.250280  1
  C  C22  1  0.749342  0.930218  0.249720  1
  C  C23  1  0.750280  0.749342  0.069782  1
  C  C24  1  0.750658  0.250280  0.569782  1
  C  C25  1  0.569782  0.750658  0.250280  1
  C  C26  1  0.069782  0.249720  0.250658  1
  C  C27  1  0.249342  0.250280  0.430218  1
  C  C28  1  0.930218  0.750280  0.250658  1
  C  C29  1  0.249720  0.250658  0.069782  1
  C  C30  1  0.430218  0.750658  0.749720  1
  C  C31  1  0.749720  0.569782  0.249342  1
  C  C32  1  0.250658  0.069782  0.249720  1
  C  C33  1  0.250280  0.569782  0.750658  1
  C  C34  1  0.750658  0.749720  0.430218  1
  C  C35  1  0.249342  0.749720  0.569782  1
  C  C36  1  0.249720  0.749342  0.930218  1
  C  C37  1  0.069782  0.750280  0.749342  1
  C  C38  1  0.250280  0.430218  0.249342  1
  C  C39  1  0.250658  0.930218  0.750280  1
  N  N40  1  0.543168  0.751450  0.749370  1
  N  N41  1  0.751450  0.250630  0.456832  1
  N  N42  1  0.750630  0.251450  0.043168  1
  N  N43  1  0.543168  0.248550  0.250630  1
  N  N44  1  0.248550  0.749370  0.456832  1
  N  N45  1  0.250630  0.456832  0.751450  1
  N  N46  1  0.250630  0.543168  0.248550  1
  N  N47  1  0.751450  0.749370  0.543168  1
  N  N48  1  0.249370  0.251450  0.956832  1
  N  N49  1  0.456832  0.248550  0.749370  1
  N  N50  1  0.748550  0.043168  0.249370  1
  N  N51  1  0.249370  0.748550  0.043168  1
  N  N52  1  0.956832  0.750630  0.748550  1
  N  N53  1  0.749370  0.543168  0.751450  1
  N  N54  1  0.248550  0.250630  0.543168  1
  N  N55  1  0.750630  0.748550  0.956832  1
  N  N56  1  0.749370  0.456832  0.248550  1
  N  N57  1  0.043168  0.750630  0.251450  1
  N  N58  1  0.251450  0.956832  0.249370  1
  N  N59  1  0.043168  0.249370  0.748550  1
  N  N60  1  0.956832  0.249370  0.251450  1
  N  N61  1  0.748550  0.956832  0.750630  1
  N  N62  1  0.251450  0.043168  0.750630  1
  N  N63  1  0.456832  0.751450  0.250630  1
