# generated using pymatgen
data_Na2Si2O5
_symmetry_space_group_name_H-M   'P 1'
_cell_length_a   7.17667282
_cell_length_b   9.47201706
_cell_length_c   9.47121080
_cell_angle_alpha   81.74761818
_cell_angle_beta   67.73475977
_cell_angle_gamma   67.73148420
_symmetry_Int_Tables_number   1
_chemical_formula_structural   Na2Si2O5
_chemical_formula_sum   'Na8 Si8 O20'
_cell_volume   551.38793346
_cell_formula_units_Z   4
loop_
 _symmetry_equiv_pos_site_id
 _symmetry_equiv_pos_as_xyz
  1  'x, y, z'
loop_
 _atom_site_type_symbol
 _atom_site_label
 _atom_site_symmetry_multiplicity
 _atom_site_fract_x
 _atom_site_fract_y
 _atom_site_fract_z
 _atom_site_occupancy
  Na  Na0  1  0.381950  0.198296  0.961704  1
  Na  Na1  1  0.343622  0.538384  0.198279  1
  Na  Na2  1  0.656378  0.461616  0.801721  1
  Na  Na3  1  0.618050  0.801704  0.038296  1
  Na  Na4  1  0.541989  0.301715  0.538307  1
  Na  Na5  1  0.458011  0.698285  0.461693  1
  Na  Na6  1  0.080346  0.961617  0.301714  1
  Na  Na7  1  0.919654  0.038383  0.698286  1
  Si  Si8  1  0.110816  0.575468  0.839870  1
  Si  Si9  1  0.950643  0.660113  0.575469  1
  Si  Si10  1  0.186270  0.839872  0.924492  1
  Si  Si11  1  0.526120  0.924510  0.660116  1
  Si  Si12  1  0.813730  0.160128  0.075508  1
  Si  Si13  1  0.049357  0.339887  0.424531  1
  Si  Si14  1  0.473880  0.075490  0.339884  1
  Si  Si15  1  0.889184  0.424532  0.160130  1
  O  O16  1  0.357788  0.482178  0.746447  1
  O  O17  1  0.000000  0.500000  0.000000  1
  O  O18  1  0.413662  0.982207  0.246425  1
  O  O19  1  0.307095  0.251011  0.396728  1
  O  O20  1  0.660028  0.253532  0.982258  1
  O  O21  1  0.045204  0.750983  0.896736  1
  O  O22  1  0.703836  0.103283  0.251049  1
  O  O23  1  0.058045  0.396705  0.249020  1
  O  O24  1  0.339972  0.746468  0.017742  1
  O  O25  1  0.895810  0.246456  0.517839  1
  O  O26  1  0.296164  0.896717  0.748951  1
  O  O27  1  0.000000  0.000000  0.000000  1
  O  O28  1  0.642212  0.517822  0.253553  1
  O  O29  1  0.104190  0.753544  0.482161  1
  O  O30  1  0.954796  0.249017  0.103264  1
  O  O31  1  0.941955  0.603295  0.750980  1
  O  O32  1  0.586338  0.017793  0.753575  1
  O  O33  1  0.692905  0.748989  0.603272  1
  O  O34  1  0.500000  0.000000  0.500000  1
  O  O35  1  0.000000  0.500000  0.500000  1
