# generated using pymatgen
data_YbClO
_symmetry_space_group_name_H-M   'P 1'
_cell_length_a   9.51021618
_cell_length_b   9.51021609
_cell_length_c   9.51021630
_cell_angle_alpha   23.57521278
_cell_angle_beta   23.57521397
_cell_angle_gamma   23.57521407
_symmetry_Int_Tables_number   1
_chemical_formula_structural   YbClO
_chemical_formula_sum   'Yb2 Cl2 O2'
_cell_volume   120.83701675
_cell_formula_units_Z   2
loop_
 _symmetry_equiv_pos_site_id
 _symmetry_equiv_pos_as_xyz
  1  'x, y, z'
loop_
 _atom_site_type_symbol
 _atom_site_label
 _atom_site_symmetry_multiplicity
 _atom_site_fract_x
 _atom_site_fract_y
 _atom_site_fract_z
 _atom_site_occupancy
  O  O0  1  0.304309  0.304309  0.304309  1
  Cl  Cl1  1  0.111755  0.111755  0.111755  1
  O  O2  1  0.695988  0.695988  0.695988  1
  Cl  Cl3  1  0.888192  0.888192  0.888192  1
  Yb  Yb4  1  0.386677  0.386677  0.386677  1
  Yb  Yb5  1  0.613079  0.613079  0.613079  1
