# generated using pymatgen
data_RbZrMnF7
_symmetry_space_group_name_H-M   'P 1'
_cell_length_a   6.54021609
_cell_length_b   6.54729234
_cell_length_c   8.42406288
_cell_angle_alpha   90.00000000
_cell_angle_beta   90.00000000
_cell_angle_gamma   117.66158000
_symmetry_Int_Tables_number   1
_chemical_formula_structural   RbZrMnF7
_chemical_formula_sum   'Rb2 Zr2 Mn2 F14'
_cell_volume   319.49538574
_cell_formula_units_Z   2
loop_
 _symmetry_equiv_pos_site_id
 _symmetry_equiv_pos_as_xyz
  1  'x, y, z'
loop_
 _atom_site_type_symbol
 _atom_site_label
 _atom_site_symmetry_multiplicity
 _atom_site_fract_x
 _atom_site_fract_y
 _atom_site_fract_z
 _atom_site_occupancy
  Rb  Rb0  1  0.000000  0.500000  0.500000  1
  Rb  Rb1  1  0.000000  0.500000  0.000000  1
  Zr  Zr2  1  0.309037  0.194558  0.250000  1
  Zr  Zr3  1  0.690963  0.805442  0.750000  1
  Mn  Mn4  1  0.691214  0.813650  0.250000  1
  Mn  Mn5  1  0.308786  0.186350  0.750000  1
  F  F6  1  0.341153  0.553996  0.750000  1
  F  F7  1  0.658847  0.446004  0.250000  1
  F  F8  1  0.663738  0.466659  0.750000  1
  F  F9  1  0.299922  0.200359  0.494276  1
  F  F10  1  0.945245  0.154854  0.750000  1
  F  F11  1  0.299922  0.200359  0.005724  1
  F  F12  1  0.700078  0.799641  0.994276  1
  F  F13  1  0.336262  0.533341  0.250000  1
  F  F14  1  0.054755  0.845146  0.250000  1
  F  F15  1  0.493714  0.008100  0.250000  1
  F  F16  1  0.506286  0.991900  0.750000  1
  F  F17  1  0.700078  0.799641  0.505724  1
  F  F18  1  0.029511  0.830466  0.750000  1
  F  F19  1  0.970489  0.169534  0.250000  1
