# generated using pymatgen
data_NaLa(GaSe2)4
_symmetry_space_group_name_H-M   'P 1'
_cell_length_a   12.52617621
_cell_length_b   12.52617603
_cell_length_c   12.56546817
_cell_angle_alpha   105.27265871
_cell_angle_beta   105.27265849
_cell_angle_gamma   118.13313918
_symmetry_Int_Tables_number   1
_chemical_formula_structural   NaLa(GaSe2)4
_chemical_formula_sum   'Na4 La4 Ga16 Se32'
_cell_volume   1493.02583148
_cell_formula_units_Z   4
loop_
 _symmetry_equiv_pos_site_id
 _symmetry_equiv_pos_as_xyz
  1  'x, y, z'
loop_
 _atom_site_type_symbol
 _atom_site_label
 _atom_site_symmetry_multiplicity
 _atom_site_fract_x
 _atom_site_fract_y
 _atom_site_fract_z
 _atom_site_occupancy
  Na  Na0  1  0.871915  0.621915  0.243830  1
  Na  Na1  1  0.128085  0.378085  0.756170  1
  Na  Na2  1  0.378085  0.128085  0.256170  1
  Na  Na3  1  0.621915  0.871915  0.743830  1
  La  La4  1  0.125000  0.875000  0.750000  1
  La  La5  1  0.875000  0.125000  0.250000  1
  La  La6  1  0.625000  0.375000  0.750000  1
  La  La7  1  0.375000  0.625000  0.250000  1
  Ga  Ga8  1  0.867906  0.388476  0.504418  1
  Ga  Ga9  1  0.136512  0.115942  0.504418  1
  Ga  Ga10  1  0.638528  0.028439  0.499106  1
  Ga  Ga11  1  0.611524  0.132094  0.995582  1
  Ga  Ga12  1  0.361472  0.971561  0.500894  1
  Ga  Ga13  1  0.884058  0.863488  0.995582  1
  Ga  Ga14  1  0.470667  0.360577  0.999106  1
  Ga  Ga15  1  0.529333  0.639423  0.000894  1
  Ga  Ga16  1  0.971561  0.361472  0.000894  1
  Ga  Ga17  1  0.132094  0.611524  0.495582  1
  Ga  Ga18  1  0.028439  0.638528  0.999106  1
  Ga  Ga19  1  0.115942  0.136512  0.004418  1
  Ga  Ga20  1  0.360577  0.470667  0.499106  1
  Ga  Ga21  1  0.388476  0.867906  0.004418  1
  Ga  Ga22  1  0.863488  0.884058  0.495582  1
  Ga  Ga23  1  0.639423  0.529333  0.500894  1
  Se  Se24  1  0.851032  0.183816  0.502922  1
  Se  Se25  1  0.917135  0.920493  0.327794  1
  Se  Se26  1  0.909493  0.412957  0.827020  1
  Se  Se27  1  0.910659  0.407301  0.327794  1
  Se  Se28  1  0.582473  0.585936  0.172980  1
  Se  Se29  1  0.657175  0.342508  0.503834  1
  Se  Se30  1  0.680893  0.848110  0.997078  1
  Se  Se31  1  0.090507  0.587043  0.172980  1
  Se  Se32  1  0.346659  0.161326  0.503834  1
  Se  Se33  1  0.407301  0.910659  0.827794  1
  Se  Se34  1  0.089341  0.592699  0.672206  1
  Se  Se35  1  0.848110  0.680893  0.497078  1
  Se  Se36  1  0.342508  0.657175  0.003834  1
  Se  Se37  1  0.657492  0.342825  0.996166  1
  Se  Se38  1  0.585936  0.582473  0.672980  1
  Se  Se39  1  0.592699  0.089341  0.172206  1
  Se  Se40  1  0.319107  0.151890  0.002922  1
  Se  Se41  1  0.653341  0.838674  0.496166  1
  Se  Se42  1  0.148968  0.816184  0.497078  1
  Se  Se43  1  0.151890  0.319107  0.502922  1
  Se  Se44  1  0.079507  0.082865  0.172206  1
  Se  Se45  1  0.082865  0.079507  0.672206  1
  Se  Se46  1  0.816184  0.148968  0.997078  1
  Se  Se47  1  0.161326  0.346659  0.003834  1
  Se  Se48  1  0.342825  0.657492  0.496166  1
  Se  Se49  1  0.414064  0.417527  0.327020  1
  Se  Se50  1  0.920493  0.917135  0.827794  1
  Se  Se51  1  0.587043  0.090507  0.672980  1
  Se  Se52  1  0.183816  0.851032  0.002922  1
  Se  Se53  1  0.417527  0.414064  0.827020  1
  Se  Se54  1  0.838674  0.653341  0.996166  1
  Se  Se55  1  0.412957  0.909493  0.327020  1
