# generated using pymatgen
data_K3Sb2N2O6F7
_symmetry_space_group_name_H-M   'P 1'
_cell_length_a   5.76673650
_cell_length_b   7.30705079
_cell_length_c   8.18467569
_cell_angle_alpha   91.46867795
_cell_angle_beta   110.62736424
_cell_angle_gamma   90.00000288
_symmetry_Int_Tables_number   1
_chemical_formula_structural   K3Sb2N2O6F7
_chemical_formula_sum   'K3 Sb2 N2 O6 F7'
_cell_volume   322.65339546
_cell_formula_units_Z   1
loop_
 _symmetry_equiv_pos_site_id
 _symmetry_equiv_pos_as_xyz
  1  'x, y, z'
loop_
 _atom_site_type_symbol
 _atom_site_label
 _atom_site_symmetry_multiplicity
 _atom_site_fract_x
 _atom_site_fract_y
 _atom_site_fract_z
 _atom_site_occupancy
  K  K0  1  0.782804  0.259181  0.565608  1
  K  K1  1  0.217196  0.740819  0.434392  1
  K  K2  1  0.500000  0.500000  0.000000  1
  Sb  Sb3  1  0.096597  0.250770  0.193194  1
  Sb  Sb4  1  0.903403  0.749230  0.806806  1
  N  N5  1  0.408565  0.079104  0.817131  1
  N  N6  1  0.591435  0.920896  0.182869  1
  O  O7  1  0.392089  0.907061  0.784179  1
  O  O8  1  0.773206  0.836319  0.165326  1
  O  O9  1  0.226794  0.163681  0.834674  1
  O  O10  1  0.607880  0.163681  0.834674  1
  O  O11  1  0.392120  0.836319  0.165326  1
  O  O12  1  0.607911  0.092939  0.215821  1
  F  F13  1  0.085594  0.583804  0.700521  1
  F  F14  1  0.385073  0.416196  0.299479  1
  F  F15  1  0.614927  0.583804  0.700521  1
  F  F16  1  0.787527  0.870597  0.575054  1
  F  F17  1  0.914406  0.416196  0.299479  1
  F  F18  1  0.212473  0.129403  0.424946  1
  F  F19  1  0.000000  0.500000  0.000000  1
