# generated using pymatgen
data_K5LiGe2O7
_symmetry_space_group_name_H-M   'P 1'
_cell_length_a   6.32563024
_cell_length_b   10.47981859
_cell_length_c   16.10275025
_cell_angle_alpha   90.00000000
_cell_angle_beta   90.00000000
_cell_angle_gamma   105.08365774
_symmetry_Int_Tables_number   1
_chemical_formula_structural   K5LiGe2O7
_chemical_formula_sum   'K20 Li4 Ge8 O28'
_cell_volume   1030.69695987
_cell_formula_units_Z   4
loop_
 _symmetry_equiv_pos_site_id
 _symmetry_equiv_pos_as_xyz
  1  'x, y, z'
loop_
 _atom_site_type_symbol
 _atom_site_label
 _atom_site_symmetry_multiplicity
 _atom_site_fract_x
 _atom_site_fract_y
 _atom_site_fract_z
 _atom_site_occupancy
  K  K0  1  0.829813  0.582845  0.432319  1
  K  K1  1  0.670187  0.917155  0.932319  1
  K  K2  1  0.680693  0.420458  0.056561  1
  K  K3  1  0.213658  0.913900  0.835415  1
  K  K4  1  0.180693  0.920458  0.443439  1
  K  K5  1  0.329813  0.082845  0.067681  1
  K  K6  1  0.713658  0.413900  0.664585  1
  K  K7  1  0.286342  0.586100  0.335415  1
  K  K8  1  0.319307  0.579542  0.943439  1
  K  K9  1  0.170187  0.417155  0.567681  1
  K  K10  1  0.670480  0.889753  0.346371  1
  K  K11  1  0.819307  0.079542  0.556561  1
  K  K12  1  0.329520  0.110247  0.653629  1
  K  K13  1  0.004660  0.233867  0.368236  1
  K  K14  1  0.504660  0.733867  0.131764  1
  K  K15  1  0.829520  0.610247  0.846371  1
  K  K16  1  0.995340  0.766133  0.631764  1
  K  K17  1  0.786342  0.086100  0.164585  1
  K  K18  1  0.495339  0.266133  0.868236  1
  K  K19  1  0.170480  0.389753  0.153629  1
  Li  Li20  1  0.400191  0.103743  0.280157  1
  Li  Li21  1  0.099809  0.396257  0.780157  1
  Li  Li22  1  0.900191  0.603743  0.219843  1
  Li  Li23  1  0.599809  0.896257  0.719843  1
  Ge  Ge24  1  0.009332  0.744542  0.053846  1
  Ge  Ge25  1  0.490668  0.755458  0.553846  1
  Ge  Ge26  1  0.882607  0.113048  0.765408  1
  Ge  Ge27  1  0.990668  0.255458  0.946154  1
  Ge  Ge28  1  0.509332  0.244542  0.446154  1
  Ge  Ge29  1  0.117393  0.886952  0.234592  1
  Ge  Ge30  1  0.617393  0.386952  0.265408  1
  Ge  Ge31  1  0.382607  0.613048  0.734592  1
  O  O32  1  0.757092  0.695202  0.999666  1
  O  O33  1  0.061335  0.610849  0.111073  1
  O  O34  1  0.986481  0.252436  0.702385  1
  O  O35  1  0.937289  0.970406  0.719342  1
  O  O36  1  0.095377  0.571940  0.718100  1
  O  O37  1  0.904623  0.428060  0.281900  1
  O  O38  1  0.013519  0.747564  0.297615  1
  O  O39  1  0.513519  0.247564  0.202385  1
  O  O40  1  0.257092  0.195202  0.500334  1
  O  O41  1  0.742908  0.804798  0.499666  1
  O  O42  1  0.562711  0.529594  0.219342  1
  O  O43  1  0.404623  0.928060  0.218100  1
  O  O44  1  0.530926  0.632189  0.633553  1
  O  O45  1  0.938665  0.389151  0.888927  1
  O  O46  1  0.438665  0.889151  0.611073  1
  O  O47  1  0.561335  0.110849  0.388927  1
  O  O48  1  0.595377  0.071940  0.781900  1
  O  O49  1  0.734380  0.325117  0.508758  1
  O  O50  1  0.234380  0.825117  0.991242  1
  O  O51  1  0.242908  0.304798  0.000334  1
  O  O52  1  0.469074  0.367811  0.366447  1
  O  O53  1  0.437289  0.470406  0.780658  1
  O  O54  1  0.765620  0.174883  0.008758  1
  O  O55  1  0.486481  0.752436  0.797615  1
  O  O56  1  0.030926  0.132189  0.866447  1
  O  O57  1  0.969074  0.867811  0.133553  1
  O  O58  1  0.062711  0.029594  0.280658  1
  O  O59  1  0.265620  0.674883  0.491242  1
