# generated using pymatgen
data_PrSi2Ni
_symmetry_space_group_name_H-M   'P 1'
_cell_length_a   4.08677461
_cell_length_b   4.17879182
_cell_length_c   8.49143674
_cell_angle_alpha   104.24443622
_cell_angle_beta   90.00000000
_cell_angle_gamma   90.00000000
_symmetry_Int_Tables_number   1
_chemical_formula_structural   PrSi2Ni
_chemical_formula_sum   'Pr2 Si4 Ni2'
_cell_volume   140.55638040
_cell_formula_units_Z   2
loop_
 _symmetry_equiv_pos_site_id
 _symmetry_equiv_pos_as_xyz
  1  'x, y, z'
loop_
 _atom_site_type_symbol
 _atom_site_label
 _atom_site_symmetry_multiplicity
 _atom_site_fract_x
 _atom_site_fract_y
 _atom_site_fract_z
 _atom_site_occupancy
  Si  Si0  1  0.250000  0.249979  0.499958  1
  Si  Si1  1  0.750000  0.750021  0.500042  1
  Si  Si2  1  0.750000  0.459261  0.918521  1
  Si  Si3  1  0.250000  0.540740  0.081479  1
  Ni  Ni4  1  0.750000  0.318158  0.636317  1
  Ni  Ni5  1  0.250000  0.681842  0.363683  1
  Pr  Pr6  1  0.250000  0.893402  0.786804  1
  Pr  Pr7  1  0.750000  0.106598  0.213196  1
