# generated using pymatgen
data_SiO2
_symmetry_space_group_name_H-M   'P 1'
_cell_length_a   8.46793624
_cell_length_b   13.32336904
_cell_length_c   13.32336967
_cell_angle_alpha   66.38684493
_cell_angle_beta   71.47096790
_cell_angle_gamma   71.47097196
_symmetry_Int_Tables_number   1
_chemical_formula_structural   SiO2
_chemical_formula_sum   'Si24 O48'
_cell_volume   1274.12825271
_cell_formula_units_Z   24
loop_
 _symmetry_equiv_pos_site_id
 _symmetry_equiv_pos_as_xyz
  1  'x, y, z'
loop_
 _atom_site_type_symbol
 _atom_site_label
 _atom_site_symmetry_multiplicity
 _atom_site_fract_x
 _atom_site_fract_y
 _atom_site_fract_z
 _atom_site_occupancy
  Si  Si0  1  0.753374  0.625669  0.494572  1
  Si  Si1  1  0.511119  0.231841  0.123209  1
  Si  Si2  1  0.306154  0.762100  0.262100  1
  Si  Si3  1  0.683889  0.379552  0.879552  1
  Si  Si4  1  0.246626  0.005428  0.874331  1
  Si  Si5  1  0.126386  0.625669  0.494572  1
  Si  Si6  1  0.330354  0.237900  0.737900  1
  Si  Si7  1  0.942992  0.620448  0.120448  1
  Si  Si8  1  0.511119  0.623209  0.731841  1
  Si  Si9  1  0.133830  0.623209  0.731841  1
  Si  Si10  1  0.669646  0.762100  0.262100  1
  Si  Si11  1  0.246626  0.374331  0.505428  1
  Si  Si12  1  0.866170  0.768159  0.876791  1
  Si  Si13  1  0.316111  0.620448  0.120448  1
  Si  Si14  1  0.873614  0.374331  0.505428  1
  Si  Si15  1  0.133830  0.231841  0.123209  1
  Si  Si16  1  0.488881  0.376791  0.268159  1
  Si  Si17  1  0.057008  0.379552  0.879552  1
  Si  Si18  1  0.126386  0.994572  0.125669  1
  Si  Si19  1  0.753374  0.994572  0.125669  1
  Si  Si20  1  0.693846  0.237900  0.737900  1
  Si  Si21  1  0.488881  0.768159  0.876791  1
  Si  Si22  1  0.866170  0.376791  0.268159  1
  Si  Si23  1  0.873614  0.005428  0.874331  1
  O  O24  1  0.769243  0.283352  0.603279  1
  O  O25  1  0.230757  0.716648  0.396721  1
  O  O26  1  0.500000  0.281160  0.218840  1
  O  O27  1  0.092559  0.642702  0.613764  1
  O  O28  1  0.513636  0.736364  0.236364  1
  O  O29  1  0.148577  0.601423  0.101423  1
  O  O30  1  0.887957  0.500521  0.179774  1
  O  O31  1  0.344127  0.103279  0.783352  1
  O  O32  1  0.672264  0.365103  0.290370  1
  O  O33  1  0.349024  0.357298  0.386236  1
  O  O34  1  0.112043  0.499479  0.820226  1
  O  O35  1  0.672264  0.790370  0.865103  1
  O  O36  1  0.945119  0.645093  0.464669  1
  O  O37  1  0.344127  0.283352  0.603279  1
  O  O38  1  0.349024  0.886236  0.857298  1
  O  O39  1  0.945119  0.964669  0.145093  1
  O  O40  1  0.769243  0.103279  0.783352  1
  O  O41  1  0.500000  0.718840  0.781160  1
  O  O42  1  0.000000  0.281160  0.218840  1
  O  O43  1  0.907441  0.886236  0.857298  1
  O  O44  1  0.568253  0.499479  0.820226  1
  O  O45  1  0.655873  0.716648  0.396721  1
  O  O46  1  0.747591  0.300773  0.800773  1
  O  O47  1  0.239221  0.500000  0.500000  1
  O  O48  1  0.655873  0.896721  0.216648  1
  O  O49  1  0.054881  0.354907  0.535331  1
  O  O50  1  0.851423  0.398577  0.898577  1
  O  O51  1  0.760779  0.000000  1.000000  1
  O  O52  1  0.239221  1.000000  0.000000  1
  O  O53  1  0.252409  0.699227  0.199227  1
  O  O54  1  0.150864  0.300773  0.800773  1
  O  O55  1  0.230757  0.896721  0.216648  1
  O  O56  1  0.650976  0.642702  0.613764  1
  O  O57  1  0.887957  0.679774  1.000521  1
  O  O58  1  0.760779  0.500000  0.500000  1
  O  O59  1  0.327736  0.634897  0.709630  1
  O  O60  1  0.327736  0.209630  0.134897  1
  O  O61  1  0.054881  0.035331  0.854907  1
  O  O62  1  0.486364  0.263636  0.763636  1
  O  O63  1  0.907441  0.357298  0.386236  1
  O  O64  1  0.112043  0.320226  -0.000521  1
  O  O65  1  0.650976  0.113764  0.142702  1
  O  O66  1  0.092559  0.113764  0.142702  1
  O  O67  1  1.000000  0.718840  0.781160  1
  O  O68  1  0.849136  0.699227  0.199227  1
  O  O69  1  0.431747  0.679774  1.000521  1
  O  O70  1  0.431747  0.500521  0.179774  1
  O  O71  1  0.568253  0.320226  -0.000521  1
