# generated using pymatgen
data_Cu(SbO3)2
_symmetry_space_group_name_H-M   'P 1'
_cell_length_a   4.73296822
_cell_length_b   4.73103183
_cell_length_c   9.40478172
_cell_angle_alpha   90.00000000
_cell_angle_beta   90.03398933
_cell_angle_gamma   90.00000000
_symmetry_Int_Tables_number   1
_chemical_formula_structural   Cu(SbO3)2
_chemical_formula_sum   'Cu2 Sb4 O12'
_cell_volume   210.59017338
_cell_formula_units_Z   2
loop_
 _symmetry_equiv_pos_site_id
 _symmetry_equiv_pos_as_xyz
  1  'x, y, z'
loop_
 _atom_site_type_symbol
 _atom_site_label
 _atom_site_symmetry_multiplicity
 _atom_site_fract_x
 _atom_site_fract_y
 _atom_site_fract_z
 _atom_site_occupancy
  O  O0  1  0.196767  0.801975  0.828661  1
  O  O1  1  0.303233  0.301975  0.671339  1
  O  O2  1  0.803233  0.198025  0.171339  1
  O  O3  1  0.696767  0.698025  0.328661  1
  O  O4  1  0.803202  0.196683  0.828796  1
  O  O5  1  0.696798  0.696683  0.671204  1
  O  O6  1  0.309669  0.309149  0.000068  1
  O  O7  1  0.190331  0.809149  0.499932  1
  O  O8  1  0.690331  0.690851  0.999932  1
  O  O9  1  0.809669  0.190851  0.500068  1
  O  O10  1  0.303202  0.303317  0.328796  1
  O  O11  1  0.196798  0.803317  0.171204  1
  Cu  Cu12  1  0.000000  0.000000  0.000000  1
  Cu  Cu13  1  0.500000  0.500000  0.500000  1
  Sb  Sb14  1  0.499972  0.500514  0.167728  1
  Sb  Sb15  1  0.000028  0.000514  0.332272  1
  Sb  Sb16  1  0.999972  0.999486  0.667728  1
  Sb  Sb17  1  0.500028  0.499486  0.832272  1
