# generated using pymatgen
data_GdAl22O34
_symmetry_space_group_name_H-M   'P 1'
_cell_length_a   11.78891780
_cell_length_b   11.78549610
_cell_length_c   23.55386261
_cell_angle_alpha   27.77131628
_cell_angle_beta   27.82743935
_cell_angle_gamma   27.72118171
_symmetry_Int_Tables_number   1
_chemical_formula_structural   GdAl22O34
_chemical_formula_sum   'Gd1 Al22 O34'
_cell_volume   627.40577741
_cell_formula_units_Z   1
loop_
 _symmetry_equiv_pos_site_id
 _symmetry_equiv_pos_as_xyz
  1  'x, y, z'
loop_
 _atom_site_type_symbol
 _atom_site_label
 _atom_site_symmetry_multiplicity
 _atom_site_fract_x
 _atom_site_fract_y
 _atom_site_fract_z
 _atom_site_occupancy
  Al  Al0  1  0.000000  0.000000  0.000000  1
  Al  Al1  1  0.097060  0.093319  0.295578  1
  Al  Al2  1  0.095486  0.591088  0.048077  1
  Al  Al3  1  0.593550  0.094366  0.047634  1
  Al  Al4  1  0.000000  0.000000  0.500000  1
  Al  Al5  1  0.350571  0.349924  0.174040  1
  Al  Al6  1  0.449419  0.452733  0.224186  1
  Al  Al7  1  0.551795  0.548028  0.273782  1
  Al  Al8  1  0.097133  0.093975  0.797089  1
  Al  Al9  1  0.101461  0.592836  0.550150  1
  Al  Al10  1  0.593434  0.092896  0.548284  1
  Al  Al11  1  0.651379  0.648282  0.323867  1
  Al  Al12  1  0.348621  0.351718  0.676133  1
  Al  Al13  1  0.406566  0.907104  0.451716  1
  Al  Al14  1  0.898539  0.407164  0.449850  1
  Al  Al15  1  0.902867  0.906025  0.202911  1
  Al  Al16  1  0.448205  0.451972  0.726218  1
  Al  Al17  1  0.550581  0.547267  0.775814  1
  Al  Al18  1  0.649429  0.650076  0.825960  1
  Al  Al19  1  0.406450  0.905634  0.952366  1
  Al  Al20  1  0.902940  0.906681  0.704422  1
  Al  Al21  1  0.904514  0.408912  0.951923  1
  Gd  Gd22  1  0.000000  0.500000  0.500000  1
  O  O23  1  0.093038  0.094458  0.048469  1
  O  O24  1  0.294561  0.294957  0.148690  1
  O  O25  1  0.185914  0.192809  0.359889  1
  O  O26  1  0.189009  0.718088  0.096820  1
  O  O27  1  0.718142  0.190550  0.094960  1
  O  O28  1  0.090317  0.107260  0.545556  1
  O  O29  1  0.085452  0.597189  0.305205  1
  O  O30  1  0.595649  0.097101  0.298097  1
  O  O31  1  0.598275  0.599919  0.047413  1
  O  O32  1  0.423597  0.503449  0.286117  1
  O  O33  1  0.392620  0.401667  0.455856  1
  O  O34  1  0.405769  0.901377  0.201320  1
  O  O35  1  0.905663  0.398215  0.200769  1
  O  O36  1  0.298926  0.296252  0.647817  1
  O  O37  1  0.280170  0.806567  0.406706  1
  O  O38  1  0.808447  0.276096  0.405695  1
  O  O39  1  0.811553  0.808072  0.139975  1
  O  O40  1  0.188447  0.191928  0.860025  1
  O  O41  1  0.191553  0.723904  0.594305  1
  O  O42  1  0.719830  0.193433  0.593294  1
  O  O43  1  0.701074  0.703748  0.352183  1
  O  O44  1  0.094337  0.601785  0.799231  1
  O  O45  1  0.607380  0.598333  0.544144  1
  O  O46  1  0.594231  0.098623  0.798680  1
  O  O47  1  0.576403  0.496551  0.713883  1
  O  O48  1  0.404351  0.902899  0.701903  1
  O  O49  1  0.401725  0.400081  0.952587  1
  O  O50  1  0.914548  0.402811  0.694795  1
  O  O51  1  0.909683  0.892740  0.454444  1
  O  O52  1  0.281858  0.809450  0.905040  1
  O  O53  1  0.810991  0.281912  0.903180  1
  O  O54  1  0.814086  0.807191  0.640111  1
  O  O55  1  0.705439  0.705043  0.851310  1
  O  O56  1  0.906962  0.905542  0.951531  1
