# generated using pymatgen
data_Yb2PrDyS6
_symmetry_space_group_name_H-M   'P 1'
_cell_length_a   4.13495102
_cell_length_b   10.95720118
_cell_length_c   11.48754520
_cell_angle_alpha   104.84822547
_cell_angle_beta   90.00000000
_cell_angle_gamma   90.00000000
_symmetry_Int_Tables_number   1
_chemical_formula_structural   Yb2PrDyS6
_chemical_formula_sum   'Yb4 Pr2 Dy2 S12'
_cell_volume   503.09226641
_cell_formula_units_Z   2
loop_
 _symmetry_equiv_pos_site_id
 _symmetry_equiv_pos_as_xyz
  1  'x, y, z'
loop_
 _atom_site_type_symbol
 _atom_site_label
 _atom_site_symmetry_multiplicity
 _atom_site_fract_x
 _atom_site_fract_y
 _atom_site_fract_z
 _atom_site_occupancy
  Yb  Yb0  1  0.250000  0.673223  0.585541  1
  Yb  Yb1  1  0.250000  0.949852  0.350199  1
  Yb  Yb2  1  0.750000  0.050148  0.649801  1
  Yb  Yb3  1  0.750000  0.326777  0.414459  1
  Pr  Pr4  1  0.250000  0.527729  0.180061  1
  Pr  Pr5  1  0.750000  0.472271  0.819939  1
  Dy  Dy6  1  0.750000  0.830721  0.966321  1
  Dy  Dy7  1  0.250000  0.169279  0.033679  1
  S  S8  1  0.250000  0.628708  0.966445  1
  S  S9  1  0.750000  0.597981  0.381152  1
  S  S10  1  0.750000  0.371292  0.033555  1
  S  S11  1  0.250000  0.402019  0.618848  1
  S  S12  1  0.750000  0.099210  0.431085  1
  S  S13  1  0.750000  0.697228  0.739600  1
  S  S14  1  0.250000  0.948179  0.102481  1
  S  S15  1  0.750000  0.051821  0.897519  1
  S  S16  1  0.250000  0.302772  0.260400  1
  S  S17  1  0.750000  0.724691  0.269386  1
  S  S18  1  0.250000  0.900790  0.568915  1
  S  S19  1  0.250000  0.275309  0.730614  1
