# generated using pymatgen
data_Ba3Na2(CN2)4
_symmetry_space_group_name_H-M   'P 1'
_cell_length_a   6.41935561
_cell_length_b   10.13680508
_cell_length_c   16.82742948
_cell_angle_alpha   90.00000000
_cell_angle_beta   90.46463758
_cell_angle_gamma   90.00000000
_symmetry_Int_Tables_number   1
_chemical_formula_structural   Ba3Na2(CN2)4
_chemical_formula_sum   'Ba12 Na8 C16 N32'
_cell_volume   1094.95438989
_cell_formula_units_Z   4
loop_
 _symmetry_equiv_pos_site_id
 _symmetry_equiv_pos_as_xyz
  1  'x, y, z'
loop_
 _atom_site_type_symbol
 _atom_site_label
 _atom_site_symmetry_multiplicity
 _atom_site_fract_x
 _atom_site_fract_y
 _atom_site_fract_z
 _atom_site_occupancy
  Ba  Ba0  1  0.760400  0.680220  0.346358  1
  Ba  Ba1  1  0.249289  0.873648  0.142800  1
  Ba  Ba2  1  0.761316  0.690686  0.993407  1
  Ba  Ba3  1  0.239600  0.319780  0.653642  1
  Ba  Ba4  1  0.261316  0.809314  0.493407  1
  Ba  Ba5  1  0.250711  0.373648  0.357200  1
  Ba  Ba6  1  0.238684  0.309314  0.006593  1
  Ba  Ba7  1  0.738684  0.190686  0.506593  1
  Ba  Ba8  1  0.750710  0.126352  0.857200  1
  Ba  Ba9  1  0.739600  0.180220  0.153642  1
  Ba  Ba10  1  0.260400  0.819780  0.846358  1
  Ba  Ba11  1  0.749290  0.626352  0.642800  1
  Na  Na12  1  0.556150  0.521500  0.168805  1
  Na  Na13  1  0.943850  0.021500  0.331195  1
  Na  Na14  1  0.939926  0.476748  0.829980  1
  Na  Na15  1  0.439926  0.023252  0.329980  1
  Na  Na16  1  0.056150  0.978500  0.668805  1
  Na  Na17  1  0.060074  0.523252  0.170020  1
  Na  Na18  1  0.560074  0.976748  0.670020  1
  Na  Na19  1  0.443850  0.478500  0.831195  1
  C  C20  1  0.251182  0.673331  0.690826  1
  C  C21  1  0.248818  0.173331  0.809174  1
  C  C22  1  0.500000  0.500000  0.500000  1
  C  C23  1  0.748818  0.326669  0.309174  1
  C  C24  1  0.244546  0.104307  0.502402  1
  C  C25  1  0.756458  0.777446  0.799536  1
  C  C26  1  0.256458  0.722554  0.299536  1
  C  C27  1  0.755454  0.895693  0.497598  1
  C  C28  1  0.744546  0.395693  0.002402  1
  C  C29  1  0.255454  0.604307  0.997598  1
  C  C30  1  0.500000  0.000000  0.000000  1
  C  C31  1  0.743542  0.277446  0.700464  1
  C  C32  1  0.000000  0.000000  0.000000  1
  C  C33  1  0.243542  0.222554  0.200464  1
  C  C34  1  0.751182  0.826669  0.190826  1
  C  C35  1  0.000000  0.500000  0.500000  1
  N  N36  1  0.336351  0.621823  0.063930  1
  N  N37  1  0.173560  0.825571  0.323997  1
  N  N38  1  0.552529  0.615917  0.488430  1
  N  N39  1  0.552000  0.922504  0.946827  1
  N  N40  1  0.447471  0.384083  0.511570  1
  N  N41  1  0.660474  0.378316  0.727496  1
  N  N42  1  0.052529  0.884083  0.988430  1
  N  N43  1  0.331123  0.076279  0.777025  1
  N  N44  1  0.666332  0.226556  0.337889  1
  N  N45  1  0.668877  0.923721  0.222975  1
  N  N46  1  0.174259  0.580707  0.931661  1
  N  N47  1  0.839526  0.878316  0.772504  1
  N  N48  1  0.168877  0.576279  0.722975  1
  N  N49  1  0.052000  0.577496  0.446827  1
  N  N50  1  0.160474  0.121684  0.227496  1
  N  N51  1  0.947471  0.115917  0.011570  1
  N  N52  1  0.826440  0.174429  0.676003  1
  N  N53  1  0.663649  0.378177  0.936070  1
  N  N54  1  0.831123  0.423721  0.277025  1
  N  N55  1  0.333668  0.773444  0.662111  1
  N  N56  1  0.339526  0.621684  0.272504  1
  N  N57  1  0.448000  0.077496  0.053173  1
  N  N58  1  0.166332  0.273444  0.837889  1
  N  N59  1  0.833668  0.726556  0.162111  1
  N  N60  1  0.674259  0.919293  0.431661  1
  N  N61  1  0.825741  0.419293  0.068339  1
  N  N62  1  0.948000  0.422504  0.553173  1
  N  N63  1  0.673560  0.674429  0.823997  1
  N  N64  1  0.163649  0.121823  0.436070  1
  N  N65  1  0.836351  0.878177  0.563930  1
  N  N66  1  0.325741  0.080707  0.568339  1
  N  N67  1  0.326440  0.325571  0.176003  1
