# generated using pymatgen
data_Na6Nb8(PO7)5
_symmetry_space_group_name_H-M   'P 1'
_cell_length_a   11.43941456
_cell_length_b   11.43941448
_cell_length_c   11.43941437
_cell_angle_alpha   46.70442659
_cell_angle_beta   46.70442699
_cell_angle_gamma   46.70442885
_symmetry_Int_Tables_number   1
_chemical_formula_structural   Na6Nb8(PO7)5
_chemical_formula_sum   'Na6 Nb8 P5 O35'
_cell_volume   724.40879615
_cell_formula_units_Z   1
loop_
 _symmetry_equiv_pos_site_id
 _symmetry_equiv_pos_as_xyz
  1  'x, y, z'
loop_
 _atom_site_type_symbol
 _atom_site_label
 _atom_site_symmetry_multiplicity
 _atom_site_fract_x
 _atom_site_fract_y
 _atom_site_fract_z
 _atom_site_occupancy
  Na  Na0  1  0.581283  0.418717  0.000000  1
  Na  Na1  1  0.000000  0.581283  0.418717  1
  Na  Na2  1  0.500000  0.285892  0.714108  1
  Na  Na3  1  0.418717  1.000000  0.581283  1
  Na  Na4  1  0.285892  0.714108  0.500000  1
  Na  Na5  1  0.714108  0.500000  0.285892  1
  Nb  Nb6  1  0.236110  0.236110  0.236110  1
  Nb  Nb7  1  0.820383  0.072548  0.297276  1
  Nb  Nb8  1  0.297276  0.820383  0.072548  1
  Nb  Nb9  1  0.179617  0.702724  0.927452  1
  Nb  Nb10  1  0.072548  0.297276  0.820383  1
  Nb  Nb11  1  0.702724  0.927452  0.179617  1
  Nb  Nb12  1  0.763890  0.763890  0.763890  1
  Nb  Nb13  1  0.927452  0.179617  0.702724  1
  P  P14  1  0.404540  0.404540  0.404540  1
  P  P15  1  0.939937  0.060063  0.500000  1
  P  P16  1  0.060063  0.500000  0.939937  1
  P  P17  1  0.500000  0.939937  0.060063  1
  P  P18  1  0.595460  0.595460  0.595460  1
  O  O19  1  0.383969  0.842252  0.168786  1
  O  O20  1  0.712226  0.925381  0.559798  1
  O  O21  1  0.129953  0.047773  0.389855  1
  O  O22  1  0.440202  0.074619  0.287774  1
  O  O23  1  0.724271  0.433729  0.688415  1
  O  O24  1  0.952227  0.870047  0.610145  1
  O  O25  1  0.099972  0.945483  0.747189  1
  O  O26  1  0.767861  1.000000  0.232139  1
  O  O27  1  0.454101  0.454101  0.454101  1
  O  O28  1  0.616031  0.831214  0.157748  1
  O  O29  1  0.870047  0.610145  0.952227  1
  O  O30  1  0.047773  0.389855  0.129953  1
  O  O31  1  0.054517  0.900028  0.252811  1
  O  O32  1  0.566271  0.275729  0.311585  1
  O  O33  1  0.433729  0.688415  0.724271  1
  O  O34  1  0.842252  0.168786  0.383969  1
  O  O35  1  0.831214  0.157748  0.616031  1
  O  O36  1  0.074619  0.287774  0.440202  1
  O  O37  1  0.688415  0.724271  0.433729  1
  O  O38  1  0.252811  0.054517  0.900028  1
  O  O39  1  0.311585  0.566271  0.275729  1
  O  O40  1  0.900028  0.252811  0.054517  1
  O  O41  1  0.000000  0.232139  0.767861  1
  O  O42  1  0.925381  0.559798  0.712226  1
  O  O43  1  0.559798  0.712226  0.925381  1
  O  O44  1  0.747189  0.099972  0.945483  1
  O  O45  1  0.275729  0.311585  0.566271  1
  O  O46  1  0.610145  0.952227  0.870047  1
  O  O47  1  0.168786  0.383969  0.842252  1
  O  O48  1  0.287774  0.440202  0.074619  1
  O  O49  1  0.545899  0.545899  0.545899  1
  O  O50  1  0.232139  0.767861  0.000000  1
  O  O51  1  0.157748  0.616031  0.831214  1
  O  O52  1  0.945483  0.747189  0.099972  1
  O  O53  1  0.389855  0.129953  0.047773  1
