# generated using pymatgen
data_Eu2SiO4
_symmetry_space_group_name_H-M   'P 1'
_cell_length_a   5.64239989
_cell_length_b   7.12392558
_cell_length_c   9.87319094
_cell_angle_alpha   90.00000000
_cell_angle_beta   90.00000000
_cell_angle_gamma   90.00000000
_symmetry_Int_Tables_number   1
_chemical_formula_structural   Eu2SiO4
_chemical_formula_sum   'Eu8 Si4 O16'
_cell_volume   396.86314743
_cell_formula_units_Z   4
loop_
 _symmetry_equiv_pos_site_id
 _symmetry_equiv_pos_as_xyz
  1  'x, y, z'
loop_
 _atom_site_type_symbol
 _atom_site_label
 _atom_site_symmetry_multiplicity
 _atom_site_fract_x
 _atom_site_fract_y
 _atom_site_fract_z
 _atom_site_occupancy
  Eu  Eu0  1  0.750000  0.341484  0.571093  1
  Eu  Eu1  1  0.250000  0.658516  0.428907  1
  Eu  Eu2  1  0.750000  0.841484  0.928907  1
  Eu  Eu3  1  0.250000  0.158516  0.071093  1
  Eu  Eu4  1  0.750000  -0.000176  0.302821  1
  Eu  Eu5  1  0.250000  1.000176  0.697179  1
  Eu  Eu6  1  0.750000  0.499824  0.197179  1
  Eu  Eu7  1  0.250000  0.500176  0.802821  1
  Si  Si8  1  0.750000  0.779915  0.581667  1
  Si  Si9  1  0.250000  0.220085  0.418333  1
  Si  Si10  1  0.750000  0.279915  0.918333  1
  Si  Si11  1  0.250000  0.720085  0.081667  1
  O  O12  1  0.750000  0.008818  0.569693  1
  O  O13  1  0.250000  0.991182  0.430307  1
  O  O14  1  0.750000  0.508818  0.930307  1
  O  O15  1  0.250000  0.491182  0.069693  1
  O  O16  1  0.750000  0.679498  0.429072  1
  O  O17  1  0.250000  0.320502  0.570928  1
  O  O18  1  0.750000  0.179498  0.070928  1
  O  O19  1  0.250000  0.820502  0.929072  1
  O  O20  1  0.989528  0.703922  0.659139  1
  O  O21  1  0.489528  0.296078  0.340861  1
  O  O22  1  0.510472  0.203922  0.840861  1
  O  O23  1  0.010472  0.796078  0.159139  1
  O  O24  1  0.010472  0.296078  0.340861  1
  O  O25  1  0.510472  0.703922  0.659139  1
  O  O26  1  0.489528  0.796078  0.159139  1
  O  O27  1  0.989528  0.203922  0.840861  1
