# generated using pymatgen
data_Rb4NpS2ClO10
_symmetry_space_group_name_H-M   'P 1'
_cell_length_a   4.69392954
_cell_length_b   10.85818606
_cell_length_c   14.93537857
_cell_angle_alpha   102.61525089
_cell_angle_beta   90.00000000
_cell_angle_gamma   90.00000000
_symmetry_Int_Tables_number   1
_chemical_formula_structural   Rb4NpS2ClO10
_chemical_formula_sum   'Rb8 Np2 S4 Cl2 O20'
_cell_volume   742.84294326
_cell_formula_units_Z   2
loop_
 _symmetry_equiv_pos_site_id
 _symmetry_equiv_pos_as_xyz
  1  'x, y, z'
loop_
 _atom_site_type_symbol
 _atom_site_label
 _atom_site_symmetry_multiplicity
 _atom_site_fract_x
 _atom_site_fract_y
 _atom_site_fract_z
 _atom_site_occupancy
  Rb  Rb0  1  0.235577  0.060181  0.896227  1
  Rb  Rb1  1  0.769949  0.437359  0.871900  1
  Rb  Rb2  1  0.764423  0.939819  0.103773  1
  Rb  Rb3  1  0.769949  0.062641  0.628100  1
  Rb  Rb4  1  0.235577  0.439819  0.603773  1
  Rb  Rb5  1  0.764423  0.560181  0.396227  1
  Rb  Rb6  1  0.230051  0.937359  0.371900  1
  Rb  Rb7  1  0.230051  0.562641  0.128100  1
  Np  Np8  1  0.264494  0.250000  0.250000  1
  Np  Np9  1  0.735506  0.750000  0.750000  1
  S  S10  1  0.656206  0.227469  0.424937  1
  S  S11  1  0.343794  0.772531  0.575063  1
  S  S12  1  0.656206  0.272531  0.075063  1
  S  S13  1  0.343794  0.727469  0.924937  1
  Cl  Cl14  1  0.730385  0.750000  0.250000  1
  Cl  Cl15  1  0.269615  0.250000  0.750000  1
  O  O16  1  0.260502  0.424811  0.285370  1
  O  O17  1  0.255429  0.603186  0.939988  1
  O  O18  1  0.744571  0.396814  0.060012  1
  O  O19  1  0.260110  0.668402  0.498109  1
  O  O20  1  0.739890  0.331598  0.501891  1
  O  O21  1  0.744571  0.103186  0.439988  1
  O  O22  1  0.662988  0.770741  0.587959  1
  O  O23  1  0.771925  0.250133  0.165202  1
  O  O24  1  0.260110  0.831598  0.001891  1
  O  O25  1  0.228075  0.750133  0.665202  1
  O  O26  1  0.255429  0.896814  0.560012  1
  O  O27  1  0.771925  0.249867  0.334798  1
  O  O28  1  0.337012  0.270741  0.087959  1
  O  O29  1  0.662988  0.729259  0.912041  1
  O  O30  1  0.228075  0.749867  0.834798  1
  O  O31  1  0.337012  0.229259  0.412041  1
  O  O32  1  0.739498  0.575189  0.714630  1
  O  O33  1  0.739890  0.168402  0.998109  1
  O  O34  1  0.260502  0.075189  0.214630  1
  O  O35  1  0.739498  0.924811  0.785370  1
