# generated using pymatgen
data_ZnGa3N3O
_symmetry_space_group_name_H-M   'P 1'
_cell_length_a   6.49749839
_cell_length_b   6.49284753
_cell_length_c   10.54161894
_cell_angle_alpha   89.98765135
_cell_angle_beta   90.02564054
_cell_angle_gamma   120.01946475
_symmetry_Int_Tables_number   1
_chemical_formula_structural   ZnGa3N3O
_chemical_formula_sum   'Zn4 Ga12 N12 O4'
_cell_volume   385.06502224
_cell_formula_units_Z   4
loop_
 _symmetry_equiv_pos_site_id
 _symmetry_equiv_pos_as_xyz
  1  'x, y, z'
loop_
 _atom_site_type_symbol
 _atom_site_label
 _atom_site_symmetry_multiplicity
 _atom_site_fract_x
 _atom_site_fract_y
 _atom_site_fract_z
 _atom_site_occupancy
  Zn  Zn0  1  0.844320  0.671575  0.734724  1
  Zn  Zn1  1  0.666665  0.833290  0.486634  1
  Zn  Zn2  1  0.322652  0.160981  0.734366  1
  Zn  Zn3  1  0.666492  0.332987  0.489282  1
  Ga  Ga4  1  0.671441  0.327767  0.006931  1
  Ga  Ga5  1  0.322004  0.663183  0.745454  1
  Ga  Ga6  1  0.842380  0.172918  0.747219  1
  Ga  Ga7  1  0.162390  0.338615  0.004984  1
  Ga  Ga8  1  0.660745  0.837871  0.005150  1
  Ga  Ga9  1  0.164168  0.333026  0.495037  1
  Ga  Ga10  1  0.834215  0.667946  0.256480  1
  Ga  Ga11  1  0.332719  0.665657  0.254754  1
  Ga  Ga12  1  0.331559  0.166697  0.254839  1
  Ga  Ga13  1  0.835094  0.166887  0.256763  1
  Ga  Ga14  1  0.172254  0.828425  0.005777  1
  Ga  Ga15  1  0.166139  0.831952  0.496585  1
  N  N16  1  0.834262  0.165994  0.936802  1
  N  N17  1  0.174912  0.830311  0.684743  1
  N  N18  1  0.841994  0.171210  0.437172  1
  N  N19  1  0.325148  0.662203  0.436612  1
  N  N20  1  0.842994  0.671305  0.437398  1
  N  N21  1  0.666091  0.333374  0.187910  1
  N  N22  1  0.166819  0.833808  0.186491  1
  N  N23  1  0.324271  0.162597  0.437414  1
  N  N24  1  0.163377  0.339041  0.686408  1
  N  N25  1  0.333659  0.665714  0.936364  1
  N  N26  1  0.666299  0.833153  0.187444  1
  N  N27  1  0.167071  0.333498  0.186648  1
  O  O28  1  0.670859  0.325643  0.701294  1
  O  O29  1  0.334108  0.166977  0.948535  1
  O  O30  1  0.832537  0.665960  0.947305  1
  O  O31  1  0.660360  0.839436  0.702464  1
