# generated using pymatgen
data_NaCaBeSi2O6F
_symmetry_space_group_name_H-M   'P 1'
_cell_length_a   7.47368943
_cell_length_b   7.45721336
_cell_length_c   10.09308679
_cell_angle_alpha   90.00000000
_cell_angle_beta   90.00000000
_cell_angle_gamma   90.00000000
_symmetry_Int_Tables_number   1
_chemical_formula_structural   NaCaBeSi2O6F
_chemical_formula_sum   'Na4 Ca4 Be4 Si8 O24 F4'
_cell_volume   562.51696311
_cell_formula_units_Z   4
loop_
 _symmetry_equiv_pos_site_id
 _symmetry_equiv_pos_as_xyz
  1  'x, y, z'
loop_
 _atom_site_type_symbol
 _atom_site_label
 _atom_site_symmetry_multiplicity
 _atom_site_fract_x
 _atom_site_fract_y
 _atom_site_fract_z
 _atom_site_occupancy
  Na  Na0  1  0.567174  0.646128  0.494437  1
  Na  Na1  1  0.932826  0.353872  0.994437  1
  Na  Na2  1  0.432826  0.146128  0.005563  1
  Na  Na3  1  0.067174  0.853872  0.505563  1
  Ca  Ca4  1  0.604909  0.673192  0.010617  1
  Ca  Ca5  1  0.895091  0.326808  0.510617  1
  Ca  Ca6  1  0.395091  0.173192  0.489383  1
  Ca  Ca7  1  0.104909  0.826808  0.989383  1
  Be  Be8  1  0.890599  0.630959  0.782562  1
  Be  Be9  1  0.390599  0.869041  0.217438  1
  Be  Be10  1  0.109401  0.130959  0.717438  1
  Be  Be11  1  0.609401  0.369041  0.282562  1
  Si  Si12  1  0.608076  0.349952  0.773216  1
  Si  Si13  1  0.759272  0.986801  0.751007  1
  Si  Si14  1  0.891924  0.650048  0.273216  1
  Si  Si15  1  0.740728  0.013199  0.251007  1
  Si  Si16  1  0.108076  0.150048  0.226784  1
  Si  Si17  1  0.391924  0.849952  0.726784  1
  Si  Si18  1  0.259272  0.513199  0.248993  1
  Si  Si19  1  0.240728  0.486801  0.748993  1
  O  O20  1  0.407233  0.397933  0.839067  1
  O  O21  1  0.838103  0.829618  0.846983  1
  O  O22  1  0.663873  0.151012  0.839483  1
  O  O23  1  0.161897  0.329618  0.653017  1
  O  O24  1  0.592767  0.897934  0.660933  1
  O  O25  1  0.587357  0.926043  0.156556  1
  O  O26  1  0.836127  0.848988  0.339483  1
  O  O27  1  0.912643  0.073957  0.656556  1
  O  O28  1  0.163873  0.348988  0.160517  1
  O  O29  1  0.907233  0.102067  0.160933  1
  O  O30  1  0.087357  0.573957  0.843444  1
  O  O31  1  0.258168  0.995833  0.660573  1
  O  O32  1  0.092767  0.602066  0.339067  1
  O  O33  1  0.241832  0.004167  0.160573  1
  O  O34  1  0.605303  0.340260  0.614149  1
  O  O35  1  0.105303  0.159740  0.385851  1
  O  O36  1  0.741832  0.495833  0.839427  1
  O  O37  1  0.394697  0.840260  0.885851  1
  O  O38  1  0.412643  0.426043  0.343444  1
  O  O39  1  0.758168  0.504167  0.339427  1
  O  O40  1  0.661897  0.170382  0.346983  1
  O  O41  1  0.336127  0.651012  0.660517  1
  O  O42  1  0.894697  0.659740  0.114149  1
  O  O43  1  0.338103  0.670382  0.153017  1
  F  F44  1  0.397393  0.871246  0.375739  1
  F  F45  1  0.602607  0.371246  0.124261  1
  F  F46  1  0.102607  0.128754  0.875739  1
  F  F47  1  0.897393  0.628754  0.624261  1
