# generated using pymatgen
data_MgAl6O10
_symmetry_space_group_name_H-M   'P 1'
_cell_length_a   5.70775637
_cell_length_b   5.73033012
_cell_length_c   28.45416302
_cell_angle_alpha   59.77040406
_cell_angle_beta   59.71604581
_cell_angle_gamma   59.86616332
_symmetry_Int_Tables_number   1
_chemical_formula_structural   MgAl6O10
_chemical_formula_sum   'Mg4 Al24 O40'
_cell_volume   654.84936669
_cell_formula_units_Z   4
loop_
 _symmetry_equiv_pos_site_id
 _symmetry_equiv_pos_as_xyz
  1  'x, y, z'
loop_
 _atom_site_type_symbol
 _atom_site_label
 _atom_site_symmetry_multiplicity
 _atom_site_fract_x
 _atom_site_fract_y
 _atom_site_fract_z
 _atom_site_occupancy
  Al  Al0  1  0.114004  0.114081  0.031572  1
  Al  Al1  1  0.010880  0.503405  0.096475  1
  Al  Al2  1  0.501264  0.015364  0.096026  1
  Al  Al3  1  0.139193  0.122008  0.223357  1
  Al  Al4  1  0.501308  0.503186  0.096026  1
  Al  Al5  1  0.505856  0.005426  0.297243  1
  Al  Al6  1  0.473618  0.507287  0.202373  1
  Al  Al7  1  0.505892  0.502413  0.297254  1
  Al  Al8  1  0.860407  0.880630  0.175681  1
  Al  Al9  1  0.525962  0.497894  0.395634  1
  Al  Al10  1  0.504575  0.502111  0.497229  1
  Al  Al11  1  0.004139  0.494460  0.701380  1
  Al  Al12  1  0.870709  0.886865  0.371110  1
  Al  Al13  1  0.503986  0.502808  0.598074  1
  Al  Al14  1  0.504629  0.007003  0.497212  1
  Al  Al15  1  0.010600  0.501857  0.497117  1
  Al  Al16  1  0.495064  0.494243  0.701377  1
  Al  Al17  1  0.986431  0.489480  0.906952  1
  Al  Al18  1  0.488538  0.987983  0.906788  1
  Al  Al19  1  0.488732  0.488956  0.806674  1
  Al  Al20  1  0.495116  0.003793  0.701370  1
  Al  Al21  1  0.488552  0.489695  0.906786  1
  Al  Al22  1  0.868200  0.868995  0.778769  1
  Al  Al23  1  0.876992  0.879611  0.972792  1
  Mg  Mg24  1  0.149186  0.135085  0.416121  1
  Mg  Mg25  1  0.128336  0.125653  0.624062  1
  Mg  Mg26  1  0.111254  0.109840  0.833820  1
  Mg  Mg27  1  0.878961  0.879198  0.572515  1
  O  O28  1  0.240973  0.242562  0.056052  1
  O  O29  1  0.259796  0.263332  0.142710  1
  O  O30  1  0.241008  0.736198  0.056053  1
  O  O31  1  0.734824  0.242547  0.056007  1
  O  O32  1  0.292840  0.242774  0.243285  1
  O  O33  1  0.270163  0.747194  0.147096  1
  O  O34  1  0.743390  0.749034  0.051716  1
  O  O35  1  0.742852  0.285959  0.145253  1
  O  O36  1  0.300041  0.262895  0.334823  1
  O  O37  1  0.292803  0.747951  0.243299  1
  O  O38  1  0.749418  0.262058  0.245293  1
  O  O39  1  0.742844  0.744986  0.145258  1
  O  O40  1  0.261275  0.260744  0.453359  1
  O  O41  1  0.267873  0.745815  0.348099  1
  O  O42  1  0.726118  0.757853  0.251637  1
  O  O43  1  0.261275  0.711095  0.453361  1
  O  O44  1  0.715814  0.263306  0.352216  1
  O  O45  1  0.267311  0.260805  0.542186  1
  O  O46  1  0.720542  0.258463  0.452482  1
  O  O47  1  0.715840  0.759732  0.352214  1
  O  O48  1  0.259376  0.259124  0.654969  1
  O  O49  1  0.293631  0.734663  0.547381  1
  O  O50  1  0.748374  0.743649  0.452838  1
  O  O51  1  0.736266  0.292319  0.547493  1
  O  O52  1  0.256664  0.256238  0.746169  1
  O  O53  1  0.259368  0.706617  0.654966  1
  O  O54  1  0.736269  0.733874  0.547489  1
  O  O55  1  0.708106  0.258513  0.654967  1
  O  O56  1  0.261567  0.262746  0.855493  1
  O  O57  1  0.264911  0.738814  0.751489  1
  O  O58  1  0.729509  0.729273  0.662376  1
  O  O59  1  0.247278  0.248134  0.951313  1
  O  O60  1  0.738675  0.265035  0.751517  1
  O  O61  1  0.261599  0.698291  0.855495  1
  O  O62  1  0.698521  0.262119  0.855465  1
  O  O63  1  0.738688  0.738723  0.751514  1
  O  O64  1  0.260062  0.762650  0.942962  1
  O  O65  1  0.739711  0.740821  0.855753  1
  O  O66  1  0.761011  0.261406  0.943083  1
  O  O67  1  0.761029  0.762352  0.943079  1
