# generated using pymatgen
data_Te3As2S(OF6)2
_symmetry_space_group_name_H-M   'P 1'
_cell_length_a   10.06565329
_cell_length_b   10.52813932
_cell_length_c   16.26309362
_cell_angle_alpha   75.12636501
_cell_angle_beta   77.41078276
_cell_angle_gamma   63.42714541
_symmetry_Int_Tables_number   1
_chemical_formula_structural   Te3As2S(OF6)2
_chemical_formula_sum   'Te12 As8 S4 O8 F48'
_cell_volume   1479.10172675
_cell_formula_units_Z   4
loop_
 _symmetry_equiv_pos_site_id
 _symmetry_equiv_pos_as_xyz
  1  'x, y, z'
loop_
 _atom_site_type_symbol
 _atom_site_label
 _atom_site_symmetry_multiplicity
 _atom_site_fract_x
 _atom_site_fract_y
 _atom_site_fract_z
 _atom_site_occupancy
  Te  Te0  1  0.124364  0.365361  0.147524  1
  Te  Te1  1  0.919631  0.834646  0.678969  1
  Te  Te2  1  0.428212  0.217677  0.141447  1
  Te  Te3  1  0.763830  0.747179  0.603455  1
  Te  Te4  1  0.236170  0.252821  0.396545  1
  Te  Te5  1  0.875636  0.634639  0.852476  1
  Te  Te6  1  0.617305  0.983446  0.681708  1
  Te  Te7  1  0.283991  0.454781  0.218697  1
  Te  Te8  1  0.080369  0.165354  0.321031  1
  Te  Te9  1  0.571788  0.782323  0.858553  1
  Te  Te10  1  0.382695  0.016554  0.318292  1
  Te  Te11  1  0.716009  0.545219  0.781303  1
  As  As12  1  0.704774  0.100034  0.384385  1
  As  As13  1  0.276720  0.926563  0.101332  1
  As  As14  1  0.747859  0.405489  0.093967  1
  As  As15  1  0.252141  0.594511  0.906033  1
  As  As16  1  0.775598  0.363922  0.584748  1
  As  As17  1  0.723280  0.073437  0.898668  1
  As  As18  1  0.295226  0.899966  0.615615  1
  As  As19  1  0.224402  0.636077  0.415252  1
  S  S20  1  0.131954  0.112792  0.843948  1
  S  S21  1  0.868046  0.887208  0.156052  1
  S  S22  1  0.303097  0.436415  0.671795  1
  S  S23  1  0.696903  0.563585  0.328205  1
  O  O24  1  0.055005  0.268850  0.831868  1
  O  O25  1  0.944995  0.731150  0.168132  1
  O  O26  1  0.294770  0.053003  0.830120  1
  O  O27  1  0.705230  0.946997  0.169880  1
  O  O28  1  0.140431  0.508826  0.684575  1
  O  O29  1  0.366585  0.281871  0.674869  1
  O  O30  1  0.633415  0.718129  0.325131  1
  O  O31  1  0.859569  0.491174  0.315425  1
  F  F32  1  0.871155  0.963594  0.829337  1
  F  F33  1  0.128845  0.036406  0.170663  1
  F  F34  1  0.582482  0.476438  0.165058  1
  F  F35  1  0.134408  0.977246  0.687615  1
  F  F36  1  0.219831  0.438624  0.915108  1
  F  F37  1  0.646618  0.486615  0.004515  1
  F  F38  1  0.751758  0.227193  0.840081  1
  F  F39  1  0.083142  0.666292  0.974052  1
  F  F40  1  0.595045  0.103652  0.826651  1
  F  F41  1  0.248242  0.772807  0.159919  1
  F  F42  1  0.668229  0.943971  0.401006  1
  F  F43  1  0.740591  0.255398  0.365966  1
  F  F44  1  0.853902  0.323429  0.183900  1
  F  F45  1  0.417518  0.523562  0.834942  1
  F  F46  1  0.852114  0.037422  0.968349  1
  F  F47  1  0.717829  0.247584  0.106210  1
  F  F48  1  0.372989  0.544742  0.338679  1
  F  F49  1  0.259409  0.744602  0.634034  1
  F  F50  1  0.210262  0.805426  0.353684  1
  F  F51  1  0.187415  0.977990  0.528599  1
  F  F52  1  0.592171  0.179276  0.297755  1
  F  F53  1  0.097230  0.632976  0.355042  1
  F  F54  1  0.926512  0.279558  0.509534  1
  F  F55  1  0.353382  0.513385  0.995485  1
  F  F56  1  0.812585  0.022010  0.471401  1
  F  F57  1  0.305713  0.083640  0.045666  1
  F  F58  1  0.694287  0.916360  0.954334  1
  F  F59  1  0.073488  0.720442  0.490466  1
  F  F60  1  0.780169  0.561376  0.084892  1
  F  F61  1  0.572834  0.179320  0.965823  1
  F  F62  1  0.916858  0.333708  0.025948  1
  F  F63  1  0.627011  0.455258  0.661321  1
  F  F64  1  0.407829  0.820724  0.702245  1
  F  F65  1  0.404955  0.896348  0.173349  1
  F  F66  1  0.644423  0.370379  0.526883  1
  F  F67  1  0.459830  0.822479  0.545241  1
  F  F68  1  0.331771  0.056029  0.598994  1
  F  F69  1  0.427166  0.820680  0.034177  1
  F  F70  1  0.865592  0.022754  0.312385  1
  F  F71  1  0.282171  0.752416  0.893790  1
  F  F72  1  0.147886  0.962578  0.031651  1
  F  F73  1  0.902770  0.367024  0.644958  1
  F  F74  1  0.762632  0.537142  0.523687  1
  F  F75  1  0.540170  0.177521  0.454759  1
  F  F76  1  0.355577  0.629621  0.473117  1
  F  F77  1  0.237368  0.462858  0.476313  1
  F  F78  1  0.789738  0.194574  0.646316  1
  F  F79  1  0.146098  0.676571  0.816100  1
