# generated using pymatgen
data_K9Li3I2O13
_symmetry_space_group_name_H-M   'P 1'
_cell_length_a   9.52925022
_cell_length_b   9.52925058
_cell_length_c   11.75329255
_cell_angle_alpha   90.00000000
_cell_angle_beta   90.00000000
_cell_angle_gamma   119.99999874
_symmetry_Int_Tables_number   1
_chemical_formula_structural   K9Li3I2O13
_chemical_formula_sum   'K18 Li6 I4 O26'
_cell_volume   924.28873880
_cell_formula_units_Z   2
loop_
 _symmetry_equiv_pos_site_id
 _symmetry_equiv_pos_as_xyz
  1  'x, y, z'
loop_
 _atom_site_type_symbol
 _atom_site_label
 _atom_site_symmetry_multiplicity
 _atom_site_fract_x
 _atom_site_fract_y
 _atom_site_fract_z
 _atom_site_occupancy
  K  K0  1  0.549763  0.897744  0.250000  1
  K  K1  1  0.450237  0.347981  0.750000  1
  K  K2  1  0.652019  0.102256  0.750000  1
  K  K3  1  0.779997  0.000000  0.000000  1
  K  K4  1  0.897744  0.549763  0.750000  1
  K  K5  1  0.000000  0.779997  0.000000  1
  K  K6  1  0.374700  0.107486  0.250000  1
  K  K7  1  0.347981  0.450237  0.250000  1
  K  K8  1  0.779997  0.000000  0.500000  1
  K  K9  1  0.732786  0.625300  0.250000  1
  K  K10  1  0.892514  0.267214  0.250000  1
  K  K11  1  0.102256  0.652019  0.250000  1
  K  K12  1  0.625300  0.732786  0.750000  1
  K  K13  1  0.000000  0.779997  0.500000  1
  K  K14  1  0.267214  0.892514  0.750000  1
  K  K15  1  0.107486  0.374700  0.750000  1
  K  K16  1  0.220003  0.220003  0.500000  1
  K  K17  1  0.220003  0.220003  0.000000  1
  Li  Li18  1  0.540308  0.540308  0.000000  1
  Li  Li19  1  0.459692  0.000000  0.000000  1
  Li  Li20  1  0.540308  0.540308  0.500000  1
  Li  Li21  1  1.000000  0.459692  0.500000  1
  Li  Li22  1  0.459692  0.000000  0.500000  1
  Li  Li23  1  1.000000  0.459692  0.000000  1
  I  I24  1  0.333333  0.666667  0.990407  1
  I  I25  1  0.666667  0.333333  0.009593  1
  I  I26  1  0.666667  0.333333  0.490407  1
  I  I27  1  0.333333  0.666667  0.509593  1
  O  O28  1  0.301682  0.815716  0.083808  1
  O  O29  1  0.485966  0.184284  0.916192  1
  O  O30  1  0.184284  0.485966  0.416192  1
  O  O31  1  0.151814  0.632131  0.600692  1
  O  O32  1  0.480317  0.848186  0.899308  1
  O  O33  1  0.519683  0.367869  0.100692  1
  O  O34  1  0.815716  0.301682  0.583808  1
  O  O35  1  0.367869  0.519683  0.600692  1
  O  O36  1  0.698318  0.514034  0.916192  1
  O  O37  1  0.301682  0.815716  0.416192  1
  O  O38  1  0.184284  0.485966  0.083808  1
  O  O39  1  0.519683  0.367869  0.399308  1
  O  O40  1  0.848186  0.480317  0.100692  1
  O  O41  1  0.485966  0.184284  0.583808  1
  O  O42  1  0.151814  0.632131  0.899308  1
  O  O43  1  0.632131  0.151814  0.100692  1
  O  O44  1  0.367869  0.519683  0.899308  1
  O  O45  1  0.514034  0.698318  0.416192  1
  O  O46  1  0.000000  0.000000  0.250000  1
  O  O47  1  0.480317  0.848186  0.600692  1
  O  O48  1  0.698318  0.514034  0.583808  1
  O  O49  1  0.815716  0.301682  0.916192  1
  O  O50  1  0.514034  0.698318  0.083808  1
  O  O51  1  0.632131  0.151814  0.399308  1
  O  O52  1  0.000000  0.000000  0.750000  1
  O  O53  1  0.848186  0.480317  0.399308  1
