# generated using pymatgen
data_TiCdO3
_symmetry_space_group_name_H-M   'P 1'
_cell_length_a   5.36901878
_cell_length_b   5.50281277
_cell_length_c   7.76592279
_cell_angle_alpha   90.00000000
_cell_angle_beta   90.00000000
_cell_angle_gamma   90.00000000
_symmetry_Int_Tables_number   1
_chemical_formula_structural   TiCdO3
_chemical_formula_sum   'Ti4 Cd4 O12'
_cell_volume   229.44189870
_cell_formula_units_Z   4
loop_
 _symmetry_equiv_pos_site_id
 _symmetry_equiv_pos_as_xyz
  1  'x, y, z'
loop_
 _atom_site_type_symbol
 _atom_site_label
 _atom_site_symmetry_multiplicity
 _atom_site_fract_x
 _atom_site_fract_y
 _atom_site_fract_z
 _atom_site_occupancy
  Ti  Ti0  1  0.499624  0.985022  0.500331  1
  Ti  Ti1  1  0.500376  0.014978  1.000331  1
  Ti  Ti2  1  0.000376  0.485022  0.500331  1
  Ti  Ti3  1  0.999624  0.514978  1.000331  1
  Cd  Cd4  1  0.009004  0.039060  0.748479  1
  Cd  Cd5  1  0.490996  0.539060  0.748479  1
  Cd  Cd6  1  0.990996  0.960940  0.248479  1
  Cd  Cd7  1  0.509004  0.460940  0.248479  1
  O  O8  1  0.198075  0.807471  0.534949  1
  O  O9  1  0.202897  0.785659  0.939738  1
  O  O10  1  0.409004  0.030017  0.236503  1
  O  O11  1  0.590996  0.969983  0.736503  1
  O  O12  1  0.801925  0.192529  0.034949  1
  O  O13  1  0.301925  0.307471  0.534949  1
  O  O14  1  0.797103  0.214341  0.439738  1
  O  O15  1  0.909004  0.469983  0.736503  1
  O  O16  1  0.090996  0.530017  0.236503  1
  O  O17  1  0.698075  0.692529  0.034949  1
  O  O18  1  0.297103  0.285659  0.939738  1
  O  O19  1  0.702897  0.714341  0.439738  1
