# generated using pymatgen
data_KHgC2
_symmetry_space_group_name_H-M   'P 1'
_cell_length_a   5.18794988
_cell_length_b   5.18794997
_cell_length_c   18.06179092
_cell_angle_alpha   93.97832072
_cell_angle_beta   93.97832080
_cell_angle_gamma   121.12555569
_symmetry_Int_Tables_number   1
_chemical_formula_structural   KHgC2
_chemical_formula_sum   'K4 Hg4 C8'
_cell_volume   411.97769123
_cell_formula_units_Z   4
loop_
 _symmetry_equiv_pos_site_id
 _symmetry_equiv_pos_as_xyz
  1  'x, y, z'
loop_
 _atom_site_type_symbol
 _atom_site_label
 _atom_site_symmetry_multiplicity
 _atom_site_fract_x
 _atom_site_fract_y
 _atom_site_fract_z
 _atom_site_occupancy
  K  K0  1  0.810802  0.060802  0.121604  1
  K  K1  1  0.189198  0.939198  0.878396  1
  K  K2  1  0.060802  0.810802  0.621604  1
  K  K3  1  0.939198  0.189198  0.378396  1
  Hg  Hg4  1  0.539812  0.460188  0.250000  1
  Hg  Hg5  1  0.789812  0.210188  0.750000  1
  Hg  Hg6  1  0.460188  0.539812  0.750000  1
  Hg  Hg7  1  0.210188  0.789812  0.250000  1
  C  C8  1  0.874815  0.499655  1.000057  1
  C  C9  1  0.500402  0.625242  0.500057  1
  C  C10  1  0.125185  0.500345  -0.000057  1
  C  C11  1  0.374758  0.499598  -0.000057  1
  C  C12  1  0.625242  0.500402  1.000057  1
  C  C13  1  0.500345  0.125185  0.499943  1
  C  C14  1  0.499655  0.874815  0.500057  1
  C  C15  1  0.499598  0.374758  0.499943  1
