# generated using pymatgen
data_Rb2LiDyBr6
_symmetry_space_group_name_H-M   'P 1'
_cell_length_a   7.81907656
_cell_length_b   7.81907713
_cell_length_c   7.84515741
_cell_angle_alpha   119.89008774
_cell_angle_beta   119.89009000
_cell_angle_gamma   89.99999736
_symmetry_Int_Tables_number   1
_chemical_formula_structural   Rb2LiDyBr6
_chemical_formula_sum   'Rb2 Li1 Dy1 Br6'
_cell_volume   340.27830744
_cell_formula_units_Z   1
loop_
 _symmetry_equiv_pos_site_id
 _symmetry_equiv_pos_as_xyz
  1  'x, y, z'
loop_
 _atom_site_type_symbol
 _atom_site_label
 _atom_site_symmetry_multiplicity
 _atom_site_fract_x
 _atom_site_fract_y
 _atom_site_fract_z
 _atom_site_occupancy
  Rb  Rb0  1  0.750000  0.250000  0.500000  1
  Rb  Rb1  1  0.250000  0.750000  0.500000  1
  Li  Li2  1  0.500000  0.500000  0.000000  1
  Dy  Dy3  1  0.000000  0.000000  0.000000  1
  Br  Br4  1  0.252395  0.747605  0.000000  1
  Br  Br5  1  0.251063  0.251063  0.502125  1
  Br  Br6  1  0.747605  0.747605  0.000000  1
  Br  Br7  1  0.252395  0.252395  1.000000  1
  Br  Br8  1  0.748937  0.748937  0.497875  1
  Br  Br9  1  0.747605  0.252395  1.000000  1
