# generated using pymatgen
data_K3Ta2Ag3S8
_symmetry_space_group_name_H-M   'P 1'
_cell_length_a   6.00103502
_cell_length_b   12.91070116
_cell_length_c   13.94331114
_cell_angle_alpha   64.58343504
_cell_angle_beta   77.57308470
_cell_angle_gamma   76.56126646
_symmetry_Int_Tables_number   1
_chemical_formula_structural   K3Ta2Ag3S8
_chemical_formula_sum   'K6 Ta4 Ag6 S16'
_cell_volume   940.78643768
_cell_formula_units_Z   2
loop_
 _symmetry_equiv_pos_site_id
 _symmetry_equiv_pos_as_xyz
  1  'x, y, z'
loop_
 _atom_site_type_symbol
 _atom_site_label
 _atom_site_symmetry_multiplicity
 _atom_site_fract_x
 _atom_site_fract_y
 _atom_site_fract_z
 _atom_site_occupancy
  K  K0  1  0.238744  0.792325  0.602071  1
  K  K1  1  0.000000  0.000000  0.000000  1
  K  K2  1  0.366860  0.292325  0.102071  1
  K  K3  1  0.000000  0.500000  0.500000  1
  K  K4  1  0.633140  0.707675  0.897929  1
  K  K5  1  0.761256  0.207675  0.397929  1
  Ta  Ta6  1  0.838296  0.023666  0.721298  1
  Ta  Ta7  1  0.416740  0.523666  0.221298  1
  Ta  Ta8  1  0.583260  0.476334  0.778702  1
  Ta  Ta9  1  0.161704  0.976334  0.278702  1
  Ag  Ag10  1  0.288047  0.750000  0.250000  1
  Ag  Ag11  1  0.083851  0.467678  0.786003  1
  Ag  Ag12  1  0.662468  0.967678  0.286003  1
  Ag  Ag13  1  0.337532  0.032322  0.713997  1
  Ag  Ag14  1  0.711953  0.250000  0.750000  1
  Ag  Ag15  1  0.916149  0.532322  0.213997  1
  S  S16  1  0.551963  0.559650  0.346529  1
  S  S17  1  0.908057  0.132110  0.182848  1
  S  S18  1  0.541858  0.059650  0.846529  1
  S  S19  1  0.091943  0.867890  0.817152  1
  S  S20  1  0.458142  0.940350  0.153471  1
  S  S21  1  0.712690  0.469594  0.109675  1
  S  S22  1  0.291960  0.030406  0.390325  1
  S  S23  1  0.708040  0.969594  0.609675  1
  S  S24  1  0.223015  0.367890  0.317152  1
  S  S25  1  0.984393  0.813402  0.384037  1
  S  S26  1  0.287310  0.530406  0.890325  1
  S  S27  1  0.448037  0.440350  0.653471  1
  S  S28  1  0.181832  0.686598  0.115963  1
  S  S29  1  0.776985  0.632110  0.682848  1
  S  S30  1  0.015607  0.186598  0.615963  1
  S  S31  1  0.818168  0.313402  0.884037  1
