# generated using pymatgen
data_Fe2P2H9NO11
_symmetry_space_group_name_H-M   'P 1'
_cell_length_a   9.80683696
_cell_length_b   9.93411210
_cell_length_c   10.04642307
_cell_angle_alpha   103.47299515
_cell_angle_beta   90.00000000
_cell_angle_gamma   90.00000000
_symmetry_Int_Tables_number   1
_chemical_formula_structural   Fe2P2H9NO11
_chemical_formula_sum   'Fe8 P8 H36 N4 O44'
_cell_volume   951.80960245
_cell_formula_units_Z   4
loop_
 _symmetry_equiv_pos_site_id
 _symmetry_equiv_pos_as_xyz
  1  'x, y, z'
loop_
 _atom_site_type_symbol
 _atom_site_label
 _atom_site_symmetry_multiplicity
 _atom_site_fract_x
 _atom_site_fract_y
 _atom_site_fract_z
 _atom_site_occupancy
  H  H0  1  0.647987  0.727133  0.898161  1
  H  H1  1  0.147987  0.772867  0.601839  1
  H  H2  1  0.352013  0.272867  0.101839  1
  H  H3  1  0.852013  0.227133  0.398161  1
  H  H4  1  0.584702  0.724058  0.041972  1
  H  H5  1  0.084702  0.775942  0.458028  1
  H  H6  1  0.415298  0.275942  0.958028  1
  H  H7  1  0.915298  0.224058  0.541972  1
  H  H8  1  0.776916  0.498699  0.669075  1
  H  H9  1  0.276916  0.001301  0.830925  1
  H  H10  1  0.223084  0.501301  0.330925  1
  H  H11  1  0.723084  0.998699  0.169075  1
  H  H12  1  0.731145  0.506619  0.506422  1
  H  H13  1  0.231145  0.993381  0.993578  1
  H  H14  1  0.268855  0.493381  0.493578  1
  H  H15  1  0.768855  0.006619  0.006422  1
  H  H16  1  0.527465  0.601516  0.186733  1
  H  H17  1  0.027465  0.898484  0.313267  1
  H  H18  1  0.472535  0.398484  0.813267  1
  H  H19  1  0.972535  0.101516  0.686733  1
  H  H20  1  0.521059  0.555301  0.886735  1
  H  H21  1  0.021059  0.944699  0.613265  1
  H  H22  1  0.478941  0.444699  0.113265  1
  H  H23  1  0.978941  0.055301  0.386735  1
  H  H24  1  0.639879  0.405297  0.588533  1
  H  H25  1  0.139879  0.094703  0.911467  1
  H  H26  1  0.360121  0.594703  0.411467  1
  H  H27  1  0.860121  0.905297  0.088533  1
  H  H28  1  0.636581  0.582251  0.642074  1
  H  H29  1  0.136581  0.917749  0.857926  1
  H  H30  1  0.363419  0.417749  0.357926  1
  H  H31  1  0.863419  0.082251  0.142074  1
  H  H32  1  0.704294  0.062407  0.528046  1
  H  H33  1  0.204294  0.437593  0.971954  1
  H  H34  1  0.295706  0.937593  0.471954  1
  H  H35  1  0.795706  0.562407  0.028046  1
  N  N36  1  0.695708  0.495985  0.601465  1
  N  N37  1  0.195708  0.004015  0.898535  1
  N  N38  1  0.304292  0.504015  0.398535  1
  N  N39  1  0.804292  0.995985  0.101465  1
  O  O40  1  0.638274  0.669260  0.964882  1
  O  O41  1  0.138274  0.830740  0.535118  1
  O  O42  1  0.361726  0.330740  0.035118  1
  O  O43  1  0.861726  0.169260  0.464882  1
  O  O44  1  0.526555  0.238273  0.513739  1
  O  O45  1  0.026555  0.261727  0.986261  1
  O  O46  1  0.473445  0.761727  0.486261  1
  O  O47  1  0.973445  0.738273  0.013739  1
  O  O48  1  0.552284  0.502462  0.169296  1
  O  O49  1  0.052284  0.997538  0.330704  1
  O  O50  1  0.447716  0.497538  0.830704  1
  O  O51  1  0.947716  0.002462  0.669296  1
  O  O52  1  0.714140  0.788776  0.307609  1
  O  O53  1  0.214140  0.711224  0.192391  1
  O  O54  1  0.285860  0.211224  0.692391  1
  O  O55  1  0.785860  0.288776  0.807609  1
  O  O56  1  0.668362  0.262943  0.027796  1
  O  O57  1  0.168362  0.237057  0.472205  1
  O  O58  1  0.331638  0.737057  0.972205  1
  O  O59  1  0.831638  0.762943  0.527795  1
  O  O60  1  0.599534  0.781317  0.711096  1
  O  O61  1  0.099534  0.718683  0.788904  1
  O  O62  1  0.400466  0.218683  0.288904  1
  O  O63  1  0.900466  0.281317  0.211096  1
  O  O64  1  0.718299  0.052028  0.846229  1
  O  O65  1  0.218299  0.447972  0.653771  1
  O  O66  1  0.281701  0.947972  0.153771  1
  O  O67  1  0.781701  0.552028  0.346229  1
  O  O68  1  0.641326  0.998959  0.560382  1
  O  O69  1  0.141326  0.501041  0.939618  1
  O  O70  1  0.358674  0.001041  0.439618  1
  O  O71  1  0.858674  0.498959  0.060382  1
  O  O72  1  0.537993  0.223767  0.806614  1
  O  O73  1  0.037993  0.276233  0.693386  1
  O  O74  1  0.462007  0.776233  0.193386  1
  O  O75  1  0.962007  0.723767  0.306614  1
  O  O76  1  0.644255  0.304721  0.319828  1
  O  O77  1  0.144255  0.195279  0.180172  1
  O  O78  1  0.355745  0.695279  0.680172  1
  O  O79  1  0.855745  0.804721  0.819828  1
  O  O80  1  0.593513  0.050672  0.301572  1
  O  O81  1  0.093513  0.449328  0.198428  1
  O  O82  1  0.406487  0.949328  0.698428  1
  O  O83  1  0.906487  0.550672  0.801572  1
  P  P84  1  0.680640  0.207424  0.872343  1
  P  P85  1  0.180640  0.292576  0.627657  1
  P  P86  1  0.319360  0.792576  0.127657  1
  P  P87  1  0.819360  0.707424  0.372343  1
  P  P88  1  0.041552  0.297899  0.145810  1
  P  P89  1  0.541552  0.202101  0.354190  1
  P  P90  1  0.958448  0.702101  0.854190  1
  P  P91  1  0.458448  0.797899  0.645810  1
  Fe  Fe92  1  0.735050  0.397427  0.189485  1
  Fe  Fe93  1  0.235050  0.102573  0.310515  1
  Fe  Fe94  1  0.264950  0.602573  0.810515  1
  Fe  Fe95  1  0.764950  0.897427  0.689485  1
  Fe  Fe96  1  0.956704  0.384639  0.870817  1
  Fe  Fe97  1  0.456704  0.115361  0.629183  1
  Fe  Fe98  1  0.043296  0.615361  0.129183  1
  Fe  Fe99  1  0.543296  0.884639  0.370817  1
