# generated using pymatgen
data_UTe3
_symmetry_space_group_name_H-M   'P 1'
_cell_length_a   4.20309413
_cell_length_b   6.10670612
_cell_length_c   10.73748185
_cell_angle_alpha   98.00364965
_cell_angle_beta   90.00000000
_cell_angle_gamma   90.00000000
_symmetry_Int_Tables_number   1
_chemical_formula_structural   UTe3
_chemical_formula_sum   'U2 Te6'
_cell_volume   272.91503774
_cell_formula_units_Z   2
loop_
 _symmetry_equiv_pos_site_id
 _symmetry_equiv_pos_as_xyz
  1  'x, y, z'
loop_
 _atom_site_type_symbol
 _atom_site_label
 _atom_site_symmetry_multiplicity
 _atom_site_fract_x
 _atom_site_fract_y
 _atom_site_fract_z
 _atom_site_occupancy
  Te  Te0  1  0.250000  0.904589  0.176175  1
  Te  Te1  1  0.750000  0.095411  0.823825  1
  Te  Te2  1  0.750000  0.235593  0.435877  1
  Te  Te3  1  0.250000  0.764407  0.564123  1
  Te  Te4  1  0.750000  0.561565  0.819768  1
  Te  Te5  1  0.250000  0.438435  0.180232  1
  U  U6  1  0.250000  0.283521  0.651500  1
  U  U7  1  0.750000  0.716479  0.348500  1
