# generated using pymatgen
data_LaTe2
_symmetry_space_group_name_H-M   'P 1'
_cell_length_a   9.14852484
_cell_length_b   9.14795682
_cell_length_c   9.26458496
_cell_angle_alpha   90.00000000
_cell_angle_beta   89.98783659
_cell_angle_gamma   90.00000000
_symmetry_Int_Tables_number   1
_chemical_formula_structural   LaTe2
_chemical_formula_sum   'La8 Te16'
_cell_volume   775.35597159
_cell_formula_units_Z   8
loop_
 _symmetry_equiv_pos_site_id
 _symmetry_equiv_pos_as_xyz
  1  'x, y, z'
loop_
 _atom_site_type_symbol
 _atom_site_label
 _atom_site_symmetry_multiplicity
 _atom_site_fract_x
 _atom_site_fract_y
 _atom_site_fract_z
 _atom_site_occupancy
  La  La0  1  0.009027  0.503696  0.273654  1
  La  La1  1  0.752174  0.250351  0.727187  1
  La  La2  1  0.752007  0.750401  0.726171  1
  La  La3  1  0.252174  0.749649  0.727187  1
  La  La4  1  0.995337  0.003689  0.273230  1
  La  La5  1  0.495337  0.996311  0.273230  1
  La  La6  1  0.252007  0.249599  0.726171  1
  La  La7  1  0.509027  0.496304  0.273654  1
  Te  Te8  1  0.266398  0.498792  0.000300  1
  Te  Te9  1  1.002749  0.259780  -0.000112  1
  Te  Te10  1  0.504006  0.499010  0.633787  1
  Te  Te11  1  0.252150  0.249878  0.366463  1
  Te  Te12  1  0.500352  0.998985  0.633702  1
  Te  Te13  1  0.502749  0.740220  -0.000112  1
  Te  Te14  1  0.252152  0.749925  0.366822  1
  Te  Te15  1  0.752152  0.250075  0.366822  1
  Te  Te16  1  0.000867  0.759003  0.999703  1
  Te  Te17  1  0.500867  0.240997  0.999703  1
  Te  Te18  1  0.752150  0.750122  0.366463  1
  Te  Te19  1  0.766398  0.501208  0.000300  1
  Te  Te20  1  0.737081  0.000540  0.999991  1
  Te  Te21  1  0.237081  0.999460  0.999991  1
  Te  Te22  1  1.000352  0.001015  0.633702  1
  Te  Te23  1  0.004006  0.500990  0.633787  1
