# generated using pymatgen
data_Cs2As4Pd3O14
_symmetry_space_group_name_H-M   'P 1'
_cell_length_a   6.17352048
_cell_length_b   16.56039614
_cell_length_c   16.56039614
_cell_angle_alpha   90.00000000
_cell_angle_beta   90.00000000
_cell_angle_gamma   90.00000000
_symmetry_Int_Tables_number   1
_chemical_formula_structural   Cs2As4Pd3O14
_chemical_formula_sum   'Cs8 As16 Pd12 O56'
_cell_volume   1693.06774443
_cell_formula_units_Z   4
loop_
 _symmetry_equiv_pos_site_id
 _symmetry_equiv_pos_as_xyz
  1  'x, y, z'
loop_
 _atom_site_type_symbol
 _atom_site_label
 _atom_site_symmetry_multiplicity
 _atom_site_fract_x
 _atom_site_fract_y
 _atom_site_fract_z
 _atom_site_occupancy
  Cs  Cs0  1  0.472496  0.668463  0.012623  1
  Cs  Cs1  1  0.472496  0.012623  0.831537  1
  Cs  Cs2  1  0.527504  0.331537  0.987377  1
  Cs  Cs3  1  0.472496  0.487377  0.668463  1
  Cs  Cs4  1  0.527504  0.987377  0.168463  1
  Cs  Cs5  1  0.527504  0.168463  0.512623  1
  Cs  Cs6  1  0.527504  0.512623  0.331537  1
  Cs  Cs7  1  0.472496  0.831537  0.487377  1
  As  As8  1  0.920191  0.832018  0.901480  1
  As  As9  1  0.002629  0.407119  0.821654  1
  As  As10  1  0.997371  0.907119  0.321654  1
  As  As11  1  0.920191  0.901480  0.667982  1
  As  As12  1  0.997371  0.178346  0.907119  1
  As  As13  1  0.920191  0.667982  0.598520  1
  As  As14  1  0.997371  0.321654  0.592881  1
  As  As15  1  0.079809  0.098520  0.332018  1
  As  As16  1  0.002629  0.678346  0.407119  1
  As  As17  1  0.997371  0.592881  0.178346  1
  As  As18  1  0.079809  0.332018  0.401480  1
  As  As19  1  0.079809  0.167982  0.098520  1
  As  As20  1  0.002629  0.821654  0.092881  1
  As  As21  1  0.079809  0.401480  0.167982  1
  As  As22  1  0.002629  0.092881  0.678346  1
  As  As23  1  0.920191  0.598520  0.832018  1
  Pd  Pd24  1  0.305635  0.250000  0.250000  1
  Pd  Pd25  1  0.848474  0.250000  0.250000  1
  Pd  Pd26  1  0.764108  0.250000  0.750000  1
  Pd  Pd27  1  0.694365  0.750000  0.750000  1
  Pd  Pd28  1  0.000000  0.500000  0.000000  1
  Pd  Pd29  1  0.151526  0.750000  0.750000  1
  Pd  Pd30  1  0.764108  0.750000  0.250000  1
  Pd  Pd31  1  0.235892  0.250000  0.750000  1
  Pd  Pd32  1  0.000000  0.000000  0.500000  1
  Pd  Pd33  1  0.000000  0.500000  0.500000  1
  Pd  Pd34  1  0.000000  0.000000  0.000000  1
  Pd  Pd35  1  0.235892  0.750000  0.250000  1
  O  O36  1  0.860086  0.161068  0.162162  1
  O  O37  1  0.026509  0.715641  0.508599  1
  O  O38  1  0.759998  0.868558  0.283220  1
  O  O39  1  0.004482  0.403085  0.925469  1
  O  O40  1  0.815168  0.922646  0.934095  1
  O  O41  1  0.004482  0.574531  0.403085  1
  O  O42  1  0.763179  0.716953  0.370404  1
  O  O43  1  0.995518  0.903085  0.425469  1
  O  O44  1  0.026509  0.784359  0.991401  1
  O  O45  1  0.763179  0.129596  0.716953  1
  O  O46  1  0.184832  0.434095  0.077354  1
  O  O47  1  0.240002  0.716780  0.368558  1
  O  O48  1  0.026509  0.991401  0.715641  1
  O  O49  1  0.240002  0.368558  0.783220  1
  O  O50  1  0.707240  0.872479  0.728797  1
  O  O51  1  0.860086  0.337838  0.161068  1
  O  O52  1  0.292760  0.372479  0.228797  1
  O  O53  1  0.759998  0.631442  0.216780  1
  O  O54  1  0.973491  0.491401  0.215641  1
  O  O55  1  0.240002  0.783220  0.131442  1
  O  O56  1  0.860086  0.162162  0.338932  1
  O  O57  1  0.236821  0.870404  0.283047  1
  O  O58  1  0.759998  0.216780  0.868558  1
  O  O59  1  0.973491  0.215641  0.008599  1
  O  O60  1  0.236821  0.629596  0.216953  1
  O  O61  1  0.292760  0.271203  0.372479  1
  O  O62  1  0.707240  0.728797  0.627521  1
  O  O63  1  0.184832  0.077354  0.065905  1
  O  O64  1  0.973491  0.008599  0.284359  1
  O  O65  1  0.004482  0.925469  0.096915  1
  O  O66  1  0.139914  0.661068  0.662162  1
  O  O67  1  0.763179  0.783047  0.129596  1
  O  O68  1  0.139914  0.837838  0.661068  1
  O  O69  1  0.860086  0.338932  0.337838  1
  O  O70  1  0.763179  0.370404  0.783047  1
  O  O71  1  0.973491  0.284359  0.491401  1
  O  O72  1  0.815168  0.565905  0.922646  1
  O  O73  1  0.995518  0.074531  0.903085  1
  O  O74  1  0.004482  0.096915  0.574531  1
  O  O75  1  0.184832  0.422646  0.434095  1
  O  O76  1  0.026509  0.508599  0.784359  1
  O  O77  1  0.240002  0.131442  0.716780  1
  O  O78  1  0.707240  0.771203  0.872479  1
  O  O79  1  0.139914  0.838932  0.837838  1
  O  O80  1  0.759998  0.283220  0.631442  1
  O  O81  1  0.292760  0.127521  0.271203  1
  O  O82  1  0.139914  0.662162  0.838932  1
  O  O83  1  0.184832  0.065905  0.422646  1
  O  O84  1  0.815168  0.934095  0.577354  1
  O  O85  1  0.236821  0.283047  0.629596  1
  O  O86  1  0.995518  0.425469  0.596915  1
  O  O87  1  0.707240  0.627521  0.771203  1
  O  O88  1  0.236821  0.216953  0.870404  1
  O  O89  1  0.292760  0.228797  0.127521  1
  O  O90  1  0.995518  0.596915  0.074531  1
  O  O91  1  0.815168  0.577354  0.565905  1
