# generated using pymatgen
data_SrHg2
_symmetry_space_group_name_H-M   'P 1'
_cell_length_a   5.16126069
_cell_length_b   6.43806061
_cell_length_c   6.43806108
_cell_angle_alpha   76.26010600
_cell_angle_beta   66.36931822
_cell_angle_gamma   66.36931647
_symmetry_Int_Tables_number   1
_chemical_formula_structural   SrHg2
_chemical_formula_sum   'Sr2 Hg4'
_cell_volume   178.80088863
_cell_formula_units_Z   2
loop_
 _symmetry_equiv_pos_site_id
 _symmetry_equiv_pos_as_xyz
  1  'x, y, z'
loop_
 _atom_site_type_symbol
 _atom_site_label
 _atom_site_symmetry_multiplicity
 _atom_site_fract_x
 _atom_site_fract_y
 _atom_site_fract_z
 _atom_site_occupancy
  Sr  Sr0  1  0.459951  0.290049  0.790049  1
  Sr  Sr1  1  0.540049  0.709951  0.209951  1
  Hg  Hg2  1  0.834058  0.711839  0.620045  1
  Hg  Hg3  1  0.165942  0.879955  0.788161  1
  Hg  Hg4  1  0.834058  0.120045  0.211839  1
  Hg  Hg5  1  0.165942  0.288161  0.379955  1
