# generated using pymatgen
data_LaAg(PO3)4
_symmetry_space_group_name_H-M   'P 1'
_cell_length_a   7.40868129
_cell_length_b   10.18089843
_cell_length_c   13.41333869
_cell_angle_alpha   90.00000000
_cell_angle_beta   90.00000000
_cell_angle_gamma   90.35783160
_symmetry_Int_Tables_number   1
_chemical_formula_structural   LaAg(PO3)4
_chemical_formula_sum   'La4 Ag4 P16 O48'
_cell_volume   1011.70859245
_cell_formula_units_Z   4
loop_
 _symmetry_equiv_pos_site_id
 _symmetry_equiv_pos_as_xyz
  1  'x, y, z'
loop_
 _atom_site_type_symbol
 _atom_site_label
 _atom_site_symmetry_multiplicity
 _atom_site_fract_x
 _atom_site_fract_y
 _atom_site_fract_z
 _atom_site_occupancy
  La  La0  1  0.986754  0.522932  0.717079  1
  La  La1  1  0.486754  0.022932  0.782921  1
  La  La2  1  0.513246  0.977068  0.217079  1
  La  La3  1  0.013246  0.477068  0.282921  1
  Ag  Ag4  1  0.499549  0.567427  0.277921  1
  Ag  Ag5  1  -0.000451  0.067427  0.222079  1
  Ag  Ag6  1  0.500451  0.432573  0.722079  1
  Ag  Ag7  1  1.000451  0.932573  0.777921  1
  P  P8  1  0.119475  0.237427  0.886770  1
  P  P9  1  0.880525  0.762573  0.113230  1
  P  P10  1  0.253343  0.245766  0.098141  1
  P  P11  1  0.246657  0.254234  0.598141  1
  P  P12  1  0.380525  0.262573  0.386770  1
  P  P13  1  0.233564  0.801438  0.588762  1
  P  P14  1  0.356221  0.693972  0.874054  1
  P  P15  1  0.733564  0.301438  0.911238  1
  P  P16  1  0.753343  0.745766  0.401859  1
  P  P17  1  0.856221  0.193972  0.625946  1
  P  P18  1  0.643779  0.306028  0.125946  1
  P  P19  1  0.143779  0.806028  0.374054  1
  P  P20  1  0.766436  0.198562  0.411238  1
  P  P21  1  0.619475  0.737427  0.613230  1
  P  P22  1  0.266436  0.698562  0.088762  1
  P  P23  1  0.746657  0.754234  0.901859  1
  O  O24  1  0.707113  0.899030  0.896278  1
  O  O25  1  0.896896  0.703283  0.836302  1
  O  O26  1  0.070160  0.165652  0.619257  1
  O  O27  1  0.920969  0.290951  0.391288  1
  O  O28  1  0.237005  0.584741  0.158746  1
  O  O29  1  0.079031  0.709049  0.608712  1
  O  O30  1  0.792887  0.600970  0.396278  1
  O  O31  1  0.217408  0.864462  0.478397  1
  O  O32  1  0.103104  0.296717  0.163698  1
  O  O33  1  0.913483  0.213310  0.921524  1
  O  O34  1  0.786028  0.707307  0.014162  1
  O  O35  1  0.214038  0.895413  0.293234  1
  O  O36  1  0.694103  0.605162  0.641294  1
  O  O37  1  0.086517  0.786690  0.078476  1
  O  O38  1  0.677323  0.161045  0.132897  1
  O  O39  1  0.286028  0.207307  0.485838  1
  O  O40  1  0.213972  0.292693  0.985838  1
  O  O41  1  0.782592  0.135538  0.521603  1
  O  O42  1  0.322677  0.838955  0.867103  1
  O  O43  1  0.630125  0.845834  0.688473  1
  O  O44  1  0.177323  0.661045  0.367103  1
  O  O45  1  0.282592  0.635538  0.978397  1
  O  O46  1  0.603104  0.796717  0.336302  1
  O  O47  1  0.714038  0.395413  0.206766  1
  O  O48  1  0.869875  0.654166  0.188473  1
  O  O49  1  0.130125  0.345834  0.811527  1
  O  O50  1  0.785962  0.104587  0.706766  1
  O  O51  1  0.805897  0.894838  0.141294  1
  O  O52  1  0.737005  0.084741  0.341254  1
  O  O53  1  0.207113  0.399030  0.603722  1
  O  O54  1  0.822677  0.338955  0.632897  1
  O  O55  1  0.420969  0.790951  0.108712  1
  O  O56  1  0.717408  0.364462  0.021603  1
  O  O57  1  0.194103  0.105162  0.858706  1
  O  O58  1  0.369875  0.154166  0.311527  1
  O  O59  1  0.262995  0.915259  0.658746  1
  O  O60  1  0.413483  0.713310  0.578476  1
  O  O61  1  0.762995  0.415259  0.841254  1
  O  O62  1  0.305897  0.394838  0.358706  1
  O  O63  1  0.396896  0.203283  0.663698  1
  O  O64  1  0.929840  0.834348  0.380743  1
  O  O65  1  0.292887  0.100970  0.103722  1
  O  O66  1  0.713972  0.792693  0.514162  1
  O  O67  1  0.429840  0.334348  0.119257  1
  O  O68  1  0.285962  0.604587  0.793234  1
  O  O69  1  0.579031  0.209049  0.891288  1
  O  O70  1  0.570160  0.665652  0.880743  1
  O  O71  1  0.586517  0.286690  0.421524  1
