# generated using pymatgen
data_Er5(NiTe)2
_symmetry_space_group_name_H-M   'P 1'
_cell_length_a   3.96184430
_cell_length_b   7.70141020
_cell_length_c   14.85696523
_cell_angle_alpha   90.00000000
_cell_angle_beta   90.00000000
_cell_angle_gamma   104.90490427
_symmetry_Int_Tables_number   1
_chemical_formula_structural   Er5(NiTe)2
_chemical_formula_sum   'Er10 Ni4 Te4'
_cell_volume   438.06044993
_cell_formula_units_Z   2
loop_
 _symmetry_equiv_pos_site_id
 _symmetry_equiv_pos_as_xyz
  1  'x, y, z'
loop_
 _atom_site_type_symbol
 _atom_site_label
 _atom_site_symmetry_multiplicity
 _atom_site_fract_x
 _atom_site_fract_y
 _atom_site_fract_z
 _atom_site_occupancy
  Er  Er0  1  0.959497  0.918994  0.874396  1
  Er  Er1  1  0.040503  0.081006  0.125604  1
  Er  Er2  1  0.259986  0.519972  0.629234  1
  Er  Er3  1  0.040503  0.081006  0.374396  1
  Er  Er4  1  0.606542  0.213084  0.750000  1
  Er  Er5  1  0.740014  0.480028  0.370766  1
  Er  Er6  1  0.740014  0.480028  0.129234  1
  Er  Er7  1  0.259986  0.519972  0.870766  1
  Er  Er8  1  0.393458  0.786916  0.250000  1
  Er  Er9  1  0.959497  0.918994  0.625604  1
  Ni  Ni10  1  0.586351  0.172701  0.250000  1
  Ni  Ni11  1  0.813239  0.626478  0.750000  1
  Ni  Ni12  1  0.413649  0.827299  0.750000  1
  Ni  Ni13  1  0.186761  0.373522  0.250000  1
  Te  Te14  1  0.615605  0.231211  0.539809  1
  Te  Te15  1  0.384395  0.768789  0.460191  1
  Te  Te16  1  0.615605  0.231211  0.960191  1
  Te  Te17  1  0.384395  0.768789  0.039809  1
