# generated using pymatgen
data_Cr(PO3)3
_symmetry_space_group_name_H-M   'P 1'
_cell_length_a   9.53316059
_cell_length_b   10.74764811
_cell_length_c   11.72693137
_cell_angle_alpha   113.57157520
_cell_angle_beta   109.91930699
_cell_angle_gamma   98.25274341
_symmetry_Int_Tables_number   1
_chemical_formula_structural   Cr(PO3)3
_chemical_formula_sum   'Cr6 P18 O54'
_cell_volume   979.29822406
_cell_formula_units_Z   6
loop_
 _symmetry_equiv_pos_site_id
 _symmetry_equiv_pos_as_xyz
  1  'x, y, z'
loop_
 _atom_site_type_symbol
 _atom_site_label
 _atom_site_symmetry_multiplicity
 _atom_site_fract_x
 _atom_site_fract_y
 _atom_site_fract_z
 _atom_site_occupancy
  O  O0  1  0.874678  0.056789  0.374775  1
  O  O1  1  0.999887  0.682020  0.625222  1
  O  O2  1  0.709277  0.058038  0.962290  1
  O  O3  1  0.246993  0.095733  0.037697  1
  O  O4  1  0.447829  0.092532  0.779424  1
  O  O5  1  0.168432  0.313126  0.220601  1
  O  O6  1  0.713086  0.555908  0.188148  1
  O  O7  1  0.024940  0.367784  0.811859  1
  O  O8  1  0.891287  0.792162  0.384381  1
  O  O9  1  0.006891  0.407752  0.615596  1
  O  O10  1  0.414670  0.169043  0.540997  1
  O  O11  1  0.373661  0.628052  0.458981  1
  O  O12  1  0.202632  0.198926  0.375572  1
  O  O13  1  0.327093  0.823381  0.624414  1
  O  O14  1  0.988684  0.311582  0.340808  1
  O  O15  1  0.147866  0.970748  0.659183  1
  O  O16  1  0.762286  0.426648  0.425525  1
  O  O17  1  0.836781  0.001143  0.574484  1
  O  O18  1  0.549942  0.435376  0.678480  1
  O  O19  1  0.659024  0.158521  0.293107  1
  O  O20  1  0.696900  0.963507  0.122930  1
  O  O21  1  0.073978  0.840569  0.877077  1
  O  O22  1  0.311732  0.996309  0.285753  1
  O  O23  1  0.525986  0.710558  0.714227  1
  O  O24  1  0.274513  0.474309  0.800630  1
  O  O25  1  0.973884  0.673676  0.199367  1
  O  O26  1  0.025477  0.471876  0.043517  1
  O  O27  1  0.481964  0.428350  0.956490  1
  O  O28  1  0.520572  0.309514  0.106223  1
  O  O29  1  0.914351  0.203335  0.893791  1
  O  O30  1  0.711909  0.331975  0.002725  1
  O  O31  1  0.209206  0.329281  0.997292  1
  O  O32  1  0.122151  0.212714  0.643722  1
  O  O33  1  0.978448  0.569005  0.356291  1
  O  O34  1  0.634898  0.752207  0.475319  1
  O  O35  1  0.659587  0.276878  0.524694  1
  O  O36  1  0.150776  0.986046  0.419421  1
  O  O37  1  0.231341  0.566678  0.580593  1
  O  O38  1  0.383699  0.634949  0.059720  1
  O  O39  1  0.823991  0.575242  0.940281  1
  O  O40  1  0.347483  0.885984  0.042584  1
  O  O41  1  0.804876  0.843402  0.957412  1
  O  O42  1  0.444474  0.524318  0.265981  1
  O  O43  1  0.678477  0.258322  0.734021  1
  O  O44  1  0.812609  0.638319  0.727160  1
  O  O45  1  0.585451  0.911122  0.272836  1
  O  O46  1  0.318755  0.932230  0.851344  1
  O  O47  1  0.967394  0.080898  0.148650  1
  O  O48  1  0.643280  0.969156  0.673668  1
  O  O49  1  0.469600  0.295446  0.326328  1
  O  O50  1  0.547578  0.649213  0.929443  1
  O  O51  1  0.118151  0.719775  0.070561  1
  O  O52  1  0.865943  0.865468  0.706922  1
  O  O53  1  0.371435  0.756893  0.321493  1
  P  P54  1  0.607743  0.396548  0.063164  1
  P  P55  1  0.044595  0.333411  0.936847  1
  P  P56  1  0.982435  0.613809  0.054472  1
  P  P57  1  0.427954  0.559333  0.945530  1
  P  P58  1  0.789183  0.985401  0.037661  1
  P  P59  1  0.251530  0.947722  0.962326  1
  P  P60  1  0.579814  0.293735  0.629039  1
  P  P61  1  0.450778  0.664714  0.370943  1
  P  P62  1  0.932636  0.743732  0.725737  1
  P  P63  1  0.706900  0.017973  0.274266  1
  P  P64  1  0.367293  0.678833  0.604044  1
  P  P65  1  0.263224  0.074759  0.395943  1
  P  P66  1  0.744540  0.906644  0.607695  1
  P  P67  1  0.895370  0.649462  0.292300  1
  P  P68  1  0.081609  0.237318  0.272258  1
  P  P69  1  0.309348  0.965056  0.727742  1
  P  P70  1  0.636844  0.298931  0.392320  1
  P  P71  1  0.103066  0.357167  0.707702  1
  Cr  Cr72  1  0.675612  0.640270  0.824057  1
  Cr  Cr73  1  0.351542  0.816233  0.175943  1
  Cr  Cr74  1  0.342443  0.310484  0.159836  1
  Cr  Cr75  1  0.682596  0.150656  0.840167  1
  Cr  Cr76  1  0.995777  0.493304  0.490380  1
  Cr  Cr77  1  0.005438  0.002958  0.509620  1
