# generated using pymatgen
data_VCl3O
_symmetry_space_group_name_H-M   'P 1'
_cell_length_a   5.39051195
_cell_length_b   9.82371285
_cell_length_c   11.98541379
_cell_angle_alpha   90.00000000
_cell_angle_beta   90.00000000
_cell_angle_gamma   90.00000000
_symmetry_Int_Tables_number   1
_chemical_formula_structural   VCl3O
_chemical_formula_sum   'V4 Cl12 O4'
_cell_volume   634.68568770
_cell_formula_units_Z   4
loop_
 _symmetry_equiv_pos_site_id
 _symmetry_equiv_pos_as_xyz
  1  'x, y, z'
loop_
 _atom_site_type_symbol
 _atom_site_label
 _atom_site_symmetry_multiplicity
 _atom_site_fract_x
 _atom_site_fract_y
 _atom_site_fract_z
 _atom_site_occupancy
  O  O0  1  0.657052  0.750000  0.550034  1
  O  O1  1  0.157052  0.750000  0.949966  1
  O  O2  1  0.342948  0.250000  0.449966  1
  O  O3  1  0.842948  0.250000  0.050034  1
  Cl  Cl4  1  0.251722  0.250000  0.872469  1
  Cl  Cl5  1  0.751722  0.250000  0.627531  1
  Cl  Cl6  1  0.748278  0.750000  0.127531  1
  Cl  Cl7  1  0.248278  0.750000  0.372469  1
  Cl  Cl8  1  0.269190  0.068551  0.129394  1
  Cl  Cl9  1  0.769190  0.431449  0.370606  1
  Cl  Cl10  1  0.730810  0.568551  0.870606  1
  Cl  Cl11  1  0.230810  0.931449  0.629394  1
  Cl  Cl12  1  0.730810  0.931449  0.870606  1
  Cl  Cl13  1  0.230810  0.568551  0.629394  1
  Cl  Cl14  1  0.269190  0.431449  0.129394  1
  Cl  Cl15  1  0.769190  0.068551  0.370606  1
  V  V16  1  0.359911  0.750000  0.545697  1
  V  V17  1  0.859911  0.750000  0.954303  1
  V  V18  1  0.640089  0.250000  0.454303  1
  V  V19  1  0.140089  0.250000  0.045697  1
