# generated using pymatgen
data_TbMoO4F
_symmetry_space_group_name_H-M   'P 1'
_cell_length_a   5.28715509
_cell_length_b   6.76100233
_cell_length_c   12.48579957
_cell_angle_alpha   90.00000000
_cell_angle_beta   90.00000000
_cell_angle_gamma   113.03233917
_symmetry_Int_Tables_number   1
_chemical_formula_structural   TbMoO4F
_chemical_formula_sum   'Tb4 Mo4 O16 F4'
_cell_volume   410.74420586
_cell_formula_units_Z   4
loop_
 _symmetry_equiv_pos_site_id
 _symmetry_equiv_pos_as_xyz
  1  'x, y, z'
loop_
 _atom_site_type_symbol
 _atom_site_label
 _atom_site_symmetry_multiplicity
 _atom_site_fract_x
 _atom_site_fract_y
 _atom_site_fract_z
 _atom_site_occupancy
  Tb  Tb0  1  0.361211  0.699878  0.551548  1
  Tb  Tb1  1  0.638789  0.300122  0.448452  1
  Tb  Tb2  1  0.361211  0.199878  0.948452  1
  Tb  Tb3  1  0.638789  0.800122  0.051548  1
  Mo  Mo4  1  0.921862  0.369996  0.143254  1
  Mo  Mo5  1  0.921862  0.869996  0.356746  1
  Mo  Mo6  1  0.078138  0.630004  0.856746  1
  Mo  Mo7  1  0.078138  0.130004  0.643254  1
  O  O8  1  0.995331  0.662977  0.430980  1
  O  O9  1  0.237752  0.091741  0.347097  1
  O  O10  1  0.692192  0.461419  0.065432  1
  O  O11  1  0.192708  0.205114  0.776668  1
  O  O12  1  0.807292  0.794886  0.223332  1
  O  O13  1  0.192708  0.705114  0.723332  1
  O  O14  1  0.237752  0.591741  0.152903  1
  O  O15  1  0.995331  0.162977  0.069020  1
  O  O16  1  0.307808  0.038581  0.565432  1
  O  O17  1  0.762248  0.408259  0.847097  1
  O  O18  1  0.004669  0.337023  0.569020  1
  O  O19  1  0.004669  0.837023  0.930980  1
  O  O20  1  0.307808  0.538581  0.934568  1
  O  O21  1  0.807292  0.294886  0.276668  1
  O  O22  1  0.762248  0.908259  0.652903  1
  O  O23  1  0.692192  0.961419  0.434568  1
  F  F24  1  0.453001  0.535477  0.402369  1
  F  F25  1  0.453001  0.035477  0.097631  1
  F  F26  1  0.546999  0.964523  0.902369  1
  F  F27  1  0.546999  0.464523  0.597631  1
