# generated using pymatgen
data_Ba3Ta6Si4O23
_symmetry_space_group_name_H-M   'P 1'
_cell_length_a   9.15382406
_cell_length_b   9.15382446
_cell_length_c   7.66247484
_cell_angle_alpha   90.00000000
_cell_angle_beta   90.00000000
_cell_angle_gamma   119.99999855
_symmetry_Int_Tables_number   1
_chemical_formula_structural   Ba3Ta6Si4O23
_chemical_formula_sum   'Ba3 Ta6 Si4 O23'
_cell_volume   556.03847077
_cell_formula_units_Z   1
loop_
 _symmetry_equiv_pos_site_id
 _symmetry_equiv_pos_as_xyz
  1  'x, y, z'
loop_
 _atom_site_type_symbol
 _atom_site_label
 _atom_site_symmetry_multiplicity
 _atom_site_fract_x
 _atom_site_fract_y
 _atom_site_fract_z
 _atom_site_occupancy
  Ba  Ba0  1  1.000000  0.589757  0.500000  1
  Ba  Ba1  1  0.410243  0.410243  0.500000  1
  Ba  Ba2  1  0.589757  0.000000  0.500000  1
  Ta  Ta3  1  0.237611  0.000000  0.750525  1
  Ta  Ta4  1  0.000000  0.237611  0.249475  1
  Ta  Ta5  1  0.762389  0.762389  0.249475  1
  Ta  Ta6  1  0.762389  0.762389  0.750525  1
  Ta  Ta7  1  0.237611  0.000000  0.249475  1
  Ta  Ta8  1  0.000000  0.237611  0.750525  1
  Si  Si9  1  0.666667  0.333333  0.790105  1
  Si  Si10  1  0.333333  0.666667  0.790105  1
  Si  Si11  1  0.666667  0.333333  0.209895  1
  Si  Si12  1  0.333333  0.666667  0.209895  1
  O  O13  1  0.172802  0.172802  0.734131  1
  O  O14  1  0.186527  0.485054  0.712734  1
  O  O15  1  0.298527  0.813473  0.712734  1
  O  O16  1  0.186527  0.485054  0.287266  1
  O  O17  1  0.827198  0.000000  0.734131  1
  O  O18  1  0.720138  0.720138  0.000000  1
  O  O19  1  0.827198  0.000000  0.265869  1
  O  O20  1  0.514946  0.701473  0.712734  1
  O  O21  1  0.813473  0.298527  0.287266  1
  O  O22  1  0.279862  0.000000  0.000000  1
  O  O23  1  0.485054  0.186527  0.712734  1
  O  O24  1  0.485054  0.186527  0.287266  1
  O  O25  1  0.701473  0.514946  0.287266  1
  O  O26  1  0.172802  0.172802  0.265869  1
  O  O27  1  0.701473  0.514946  0.712734  1
  O  O28  1  1.000000  0.279862  0.000000  1
  O  O29  1  0.666667  0.333333  0.000000  1
  O  O30  1  0.514946  0.701473  0.287266  1
  O  O31  1  1.000000  0.827198  0.734131  1
  O  O32  1  1.000000  0.827198  0.265869  1
  O  O33  1  0.813473  0.298527  0.712734  1
  O  O34  1  0.333333  0.666667  0.000000  1
  O  O35  1  0.298527  0.813473  0.287266  1
