# generated using pymatgen
data_SrTiSi2O7
_symmetry_space_group_name_H-M   'P 1'
_cell_length_a   5.41119245
_cell_length_b   7.14806784
_cell_length_c   7.82787282
_cell_angle_alpha   90.00000000
_cell_angle_beta   110.22063707
_cell_angle_gamma   90.00000000
_symmetry_Int_Tables_number   1
_chemical_formula_structural   SrTiSi2O7
_chemical_formula_sum   'Sr2 Ti2 Si4 O14'
_cell_volume   284.11807887
_cell_formula_units_Z   2
loop_
 _symmetry_equiv_pos_site_id
 _symmetry_equiv_pos_as_xyz
  1  'x, y, z'
loop_
 _atom_site_type_symbol
 _atom_site_label
 _atom_site_symmetry_multiplicity
 _atom_site_fract_x
 _atom_site_fract_y
 _atom_site_fract_z
 _atom_site_occupancy
  Sr  Sr0  1  0.801156  0.250000  0.602313  1
  Sr  Sr1  1  0.198844  0.750000  0.397687  1
  Ti  Ti2  1  0.890907  0.750000  0.781813  1
  Ti  Ti3  1  0.109093  0.250000  0.218187  1
  Si  Si4  1  0.608445  0.524985  0.216890  1
  Si  Si5  1  0.608445  0.975015  0.216890  1
  Si  Si6  1  0.391555  0.024985  0.783110  1
  Si  Si7  1  0.391555  0.475015  0.783110  1
  O  O8  1  0.361369  0.250000  0.722737  1
  O  O9  1  0.005239  0.750000  0.010478  1
  O  O10  1  0.096775  0.938389  0.692964  1
  O  O11  1  0.096775  0.561611  0.692964  1
  O  O12  1  0.403811  0.061611  0.307036  1
  O  O13  1  0.638631  0.750000  0.277263  1
  O  O14  1  0.903225  0.061611  0.307036  1
  O  O15  1  0.596189  0.938389  0.692964  1
  O  O16  1  0.500000  0.500000  0.000000  1
  O  O17  1  0.903225  0.438389  0.307036  1
  O  O18  1  0.596189  0.561611  0.692964  1
  O  O19  1  0.994761  0.250000  0.989522  1
  O  O20  1  0.403811  0.438389  0.307036  1
  O  O21  1  0.500000  0.000000  0.000000  1
