# generated using pymatgen
data_K3Gd5(PO4)6
_symmetry_space_group_name_H-M   'P 1'
_cell_length_a   7.00560012
_cell_length_b   9.49741167
_cell_length_c   17.08357068
_cell_angle_alpha   81.46678412
_cell_angle_beta   78.17120211
_cell_angle_gamma   68.35489517
_symmetry_Int_Tables_number   1
_chemical_formula_structural   K3Gd5(PO4)6
_chemical_formula_sum   'K6 Gd10 P12 O48'
_cell_volume   1030.75774116
_cell_formula_units_Z   2
loop_
 _symmetry_equiv_pos_site_id
 _symmetry_equiv_pos_as_xyz
  1  'x, y, z'
loop_
 _atom_site_type_symbol
 _atom_site_label
 _atom_site_symmetry_multiplicity
 _atom_site_fract_x
 _atom_site_fract_y
 _atom_site_fract_z
 _atom_site_occupancy
  K  K0  1  0.021400  0.079691  0.074715  1
  K  K1  1  0.170997  0.749805  0.249964  1
  K  K2  1  0.829003  0.250195  0.750036  1
  K  K3  1  0.175964  0.420480  0.425225  1
  K  K4  1  0.824036  0.579520  0.574775  1
  K  K5  1  0.978600  0.920309  0.925285  1
  Gd  Gd6  1  0.344434  0.851687  0.707807  1
  Gd  Gd7  1  0.096081  0.351667  0.207784  1
  Gd  Gd8  1  0.731232  0.191443  0.519215  1
  Gd  Gd9  1  0.903919  0.648333  0.792216  1
  Gd  Gd10  1  0.268768  0.808557  0.480785  1
  Gd  Gd11  1  0.558078  0.691462  0.019214  1
  Gd  Gd12  1  0.362800  0.249988  0.750012  1
  Gd  Gd13  1  0.441922  0.308538  0.980786  1
  Gd  Gd14  1  0.637200  0.750012  0.249988  1
  Gd  Gd15  1  0.655566  0.148313  0.292193  1
  P  P16  1  0.173553  0.073125  0.341716  1
  P  P17  1  0.588440  0.426868  0.158249  1
  P  P18  1  0.949074  0.359321  0.913399  1
  P  P19  1  0.778272  0.859285  0.413377  1
  P  P20  1  0.521889  0.030370  0.117902  1
  P  P21  1  0.670169  0.469631  0.382067  1
  P  P22  1  0.050926  0.640679  0.086601  1
  P  P23  1  0.411560  0.573133  0.841751  1
  P  P24  1  0.329831  0.530369  0.617933  1
  P  P25  1  0.826447  0.926875  0.658284  1
  P  P26  1  0.478111  0.969630  0.882098  1
  P  P27  1  0.221728  0.140715  0.586623  1
  O  O28  1  0.996842  0.231290  0.572682  1
  O  O29  1  0.036088  0.365595  0.819695  1
  O  O30  1  0.150592  0.514382  0.686631  1
  O  O31  1  0.800847  0.268733  0.927318  1
  O  O32  1  0.413319  0.383144  0.216219  1
  O  O33  1  0.743997  0.437251  0.463928  1
  O  O34  1  0.586681  0.616856  0.783781  1
  O  O35  1  0.331095  0.909821  0.329943  1
  O  O36  1  0.623868  0.786341  0.461131  1
  O  O37  1  0.963912  0.634405  0.180305  1
  O  O38  1  0.686501  0.831669  0.875131  1
  O  O39  1  0.161720  0.467565  0.074881  1
  O  O40  1  0.199153  0.731267  0.072682  1
  O  O41  1  0.838280  0.532435  0.925119  1
  O  O42  1  0.484793  0.620066  0.369810  1
  O  O43  1  0.256003  0.562749  0.536072  1
  O  O44  1  0.012672  0.116887  0.283740  1
  O  O45  1  0.871333  0.713639  0.038840  1
  O  O46  1  0.474730  0.879937  0.130166  1
  O  O47  1  0.376132  0.213659  0.538869  1
  O  O48  1  0.645237  0.062730  0.036049  1
  O  O49  1  0.714672  0.807722  0.682144  1
  O  O50  1  0.204500  0.692276  0.817881  1
  O  O51  1  0.429119  0.409817  0.829989  1
  O  O52  1  0.922996  0.925034  0.568775  1
  O  O53  1  0.778712  0.865549  0.319670  1
  O  O54  1  0.606714  0.331681  0.375079  1
  O  O55  1  0.295823  0.967588  0.574902  1
  O  O56  1  0.393286  0.668319  0.624921  1
  O  O57  1  0.313499  0.168331  0.124869  1
  O  O58  1  0.003158  0.768710  0.427318  1
  O  O59  1  0.416747  0.574976  0.931260  1
  O  O60  1  0.987328  0.883113  0.716260  1
  O  O61  1  0.668905  0.090179  0.670057  1
  O  O62  1  0.583253  0.425024  0.068740  1
  O  O63  1  0.525270  0.120063  0.869834  1
  O  O64  1  0.221288  0.134451  0.680330  1
  O  O65  1  0.351586  0.985594  0.813396  1
  O  O66  1  0.285328  0.192278  0.317856  1
  O  O67  1  0.795500  0.307724  0.182119  1
  O  O68  1  0.704177  0.032412  0.425098  1
  O  O69  1  0.128667  0.286361  0.961160  1
  O  O70  1  0.648414  0.014406  0.186604  1
  O  O71  1  0.515207  0.379934  0.630190  1
  O  O72  1  0.849407  0.485618  0.313369  1
  O  O73  1  0.354763  0.937270  0.963951  1
  O  O74  1  0.570881  0.590183  0.170011  1
  O  O75  1  0.077004  0.074966  0.431225  1
