# generated using pymatgen
data_Lu(PO3)3
_symmetry_space_group_name_H-M   'P 1'
_cell_length_a   10.08039343
_cell_length_b   11.33929508
_cell_length_c   12.32931915
_cell_angle_alpha   113.87036064
_cell_angle_beta   110.28706696
_cell_angle_gamma   97.75784924
_symmetry_Int_Tables_number   1
_chemical_formula_structural   Lu(PO3)3
_chemical_formula_sum   'Lu6 P18 O54'
_cell_volume   1144.85347703
_cell_formula_units_Z   6
loop_
 _symmetry_equiv_pos_site_id
 _symmetry_equiv_pos_as_xyz
  1  'x, y, z'
loop_
 _atom_site_type_symbol
 _atom_site_label
 _atom_site_symmetry_multiplicity
 _atom_site_fract_x
 _atom_site_fract_y
 _atom_site_fract_z
 _atom_site_occupancy
  Lu  Lu0  1  0.576816  0.093502  0.823190  1
  Lu  Lu1  1  0.901975  0.453485  0.510338  1
  Lu  Lu2  1  0.589017  0.603922  0.843580  1
  Lu  Lu3  1  0.253626  0.270312  0.176810  1
  Lu  Lu4  1  0.245437  0.760342  0.156420  1
  Lu  Lu5  1  0.891636  0.943147  0.489662  1
  P  P6  1  0.213458  0.406093  0.728289  1
  P  P7  1  0.534269  0.741626  0.397537  1
  P  P8  1  0.166992  0.538056  0.400168  1
  P  P9  1  0.150893  0.393541  0.943985  1
  P  P10  1  0.610962  0.483673  0.272699  1
  P  P11  1  0.266824  0.137888  0.599832  1
  P  P12  1  0.359872  0.120395  0.383452  1
  P  P13  1  0.946385  0.798304  0.934768  1
  P  P14  1  0.985170  0.677805  0.271711  1
  P  P15  1  0.006205  0.815099  0.721575  1
  P  P16  1  0.706908  0.449556  0.056015  1
  P  P17  1  0.476420  0.736942  0.616548  1
  P  P18  1  0.636733  0.344089  0.602463  1
  P  P19  1  0.881905  0.059750  0.059319  1
  P  P20  1  0.784631  0.093525  0.278425  1
  P  P21  1  0.322585  1.000431  0.940681  1
  P  P22  1  0.511617  0.863536  0.065232  1
  P  P23  1  0.838263  0.210974  0.727301  1
  O  O24  1  0.767301  0.320247  0.701303  1
  O  O25  1  0.271564  0.093644  0.461218  1
  O  O26  1  0.488449  0.376425  0.254468  1
  O  O27  1  0.309270  0.217515  0.337156  1
  O  O28  1  0.734970  0.034997  0.952502  1
  O  O29  1  0.444856  0.795701  0.124779  1
  O  O30  1  0.067297  0.422379  0.660580  1
  O  O31  1  0.132620  0.035817  0.573662  1
  O  O32  1  0.663913  0.531640  0.988002  1
  O  O33  1  0.606499  0.446295  0.131504  1
  O  O34  1  0.695325  0.305397  0.974281  1
  O  O35  1  0.282469  0.082495  0.047498  1
  O  O36  1  0.211283  0.456143  0.296171  1
  O  O37  1  0.017053  0.160856  0.085824  1
  O  O38  1  0.341178  0.981958  0.282307  1
  O  O39  1  0.378468  0.882011  0.962462  1
  O  O40  1  0.058959  0.462155  0.426338  1
  O  O41  1  0.916006  0.919549  0.037538  1
  O  O42  1  0.611509  0.020665  0.171381  1
  O  O43  1  0.175912  0.543639  0.011998  1
  O  O44  1  0.733981  0.121957  0.745532  1
  O  O45  1  0.310346  0.632426  0.538782  1
  O  O46  1  0.472114  0.880359  0.662844  1
  O  O47  1  0.765844  0.514821  0.372805  1
  O  O48  1  0.940128  0.849285  0.828619  1
  O  O49  1  0.057141  0.729007  0.204161  1
  O  O50  1  0.415111  0.159971  0.703829  1
  O  O51  1  0.659104  0.868117  0.451745  1
  O  O52  1  0.431229  0.075033  0.914176  1
  O  O53  1  0.205930  0.352992  0.829968  1
  O  O54  1  0.100927  0.795681  0.001536  1
  O  O55  1  0.893040  0.142016  0.627195  1
  O  O56  1  0.533558  0.189311  0.490333  1
  O  O57  1  0.874416  0.105592  0.197022  1
  O  O58  1  0.835092  0.005503  0.337180  1
  O  O59  1  0.820077  0.670922  0.875221  1
  O  O60  1  0.232636  0.278137  0.622955  1
  O  O61  1  0.543224  0.698977  0.509667  1
  O  O62  1  0.930601  0.866594  0.630757  1
  O  O63  1  0.221043  0.331116  0.025719  1
  O  O64  1  0.551542  0.411825  0.673607  1
  O  O65  1  0.906717  0.761798  0.339420  1
  O  O66  1  0.997912  0.668322  0.662820  1
  O  O67  1  0.177394  0.908570  0.802978  1
  O  O68  1  0.599391  0.794146  0.998464  1
  O  O69  1  0.707359  0.416372  0.548255  1
  O  O70  1  0.875962  0.523024  0.170032  1
  O  O71  1  0.799844  0.235836  0.369243  1
  O  O72  1  0.109681  0.655182  0.377045  1
  O  O73  1  0.565998  0.618944  0.298697  1
  O  O74  1  0.352979  0.524846  0.795839  1
  O  O75  1  0.558871  0.699651  0.717693  1
  O  O76  1  0.377935  0.738219  0.326393  1
  O  O77  1  0.974995  0.314790  0.868496  1
