# generated using pymatgen
data_BN
_symmetry_space_group_name_H-M   'P 1'
_cell_length_a   3.82308522
_cell_length_b   4.95143158
_cell_length_c   4.93772360
_cell_angle_alpha   90.00000000
_cell_angle_beta   90.00000000
_cell_angle_gamma   112.87914468
_symmetry_Int_Tables_number   1
_chemical_formula_structural   BN
_chemical_formula_sum   'B4 N4'
_cell_volume   86.11629310
_cell_formula_units_Z   4
loop_
 _symmetry_equiv_pos_site_id
 _symmetry_equiv_pos_as_xyz
  1  'x, y, z'
loop_
 _atom_site_type_symbol
 _atom_site_label
 _atom_site_symmetry_multiplicity
 _atom_site_fract_x
 _atom_site_fract_y
 _atom_site_fract_z
 _atom_site_occupancy
  B  B0  1  0.858341  0.358057  0.357827  1
  B  B1  1  0.141659  0.641943  0.642173  1
  B  B2  1  0.641659  0.141943  0.857827  1
  B  B3  1  0.358341  0.858057  0.142173  1
  N  N4  1  0.157780  0.656676  0.343178  1
  N  N5  1  0.657780  0.156676  0.156822  1
  N  N6  1  0.842220  0.343324  0.656822  1
  N  N7  1  0.342220  0.843324  0.843178  1
