# generated using pymatgen
data_K2Ba3Sb4
_symmetry_space_group_name_H-M   'P 1'
_cell_length_a   9.46589466
_cell_length_b   11.32349967
_cell_length_c   29.58191800
_cell_angle_alpha   88.58790881
_cell_angle_beta   89.82245531
_cell_angle_gamma   96.94231252
_symmetry_Int_Tables_number   1
_chemical_formula_structural   K2Ba3Sb4
_chemical_formula_sum   'K16 Ba24 Sb32'
_cell_volume   3146.53661164
_cell_formula_units_Z   8
loop_
 _symmetry_equiv_pos_site_id
 _symmetry_equiv_pos_as_xyz
  1  'x, y, z'
loop_
 _atom_site_type_symbol
 _atom_site_label
 _atom_site_symmetry_multiplicity
 _atom_site_fract_x
 _atom_site_fract_y
 _atom_site_fract_z
 _atom_site_occupancy
  Ba  Ba0  1  0.038335  0.904607  0.200298  1
  Ba  Ba1  1  0.988772  0.888664  0.561308  1
  Ba  Ba2  1  0.171400  0.321287  0.691521  1
  Ba  Ba3  1  0.338913  0.803628  0.295651  1
  Ba  Ba4  1  0.328902  0.799985  0.456784  1
  Ba  Ba5  1  0.330626  0.827733  0.800397  1
  Ba  Ba6  1  0.294413  0.785898  0.948102  1
  Ba  Ba7  1  0.505279  0.394825  0.307140  1
  Ba  Ba8  1  0.506102  0.386037  0.442221  1
  Ba  Ba9  1  0.529044  0.328720  0.926224  1
  Ba  Ba10  1  0.461950  0.634352  0.061779  1
  Ba  Ba11  1  0.491400  0.632207  0.686824  1
  Ba  Ba12  1  0.707913  0.213029  0.050647  1
  Ba  Ba13  1  0.654079  0.192047  0.207333  1
  Ba  Ba14  1  0.649699  0.171385  0.545879  1
  Ba  Ba15  1  0.660805  0.189445  0.706152  1
  Ba  Ba16  1  0.829089  0.676419  0.303143  1
  Ba  Ba17  1  0.811793  0.661588  0.802926  1
  Ba  Ba18  1  0.800473  0.670277  0.953679  1
  Ba  Ba19  1  0.827843  0.675886  0.447118  1
  Ba  Ba20  1  0.979052  0.076584  0.799445  1
  Ba  Ba21  1  0.972193  0.092338  0.306953  1
  Ba  Ba22  1  0.962922  0.077812  0.440687  1
  Ba  Ba23  1  0.062882  0.099614  0.935271  1
  K  K24  1  0.970954  0.894326  0.059802  1
  K  K25  1  0.015409  0.885636  0.696323  1
  K  K26  1  0.123592  0.491335  0.374827  1
  K  K27  1  0.146756  0.474410  0.863735  1
  K  K28  1  0.191361  0.315465  0.054631  1
  K  K29  1  0.195896  0.325116  0.200087  1
  K  K30  1  0.171080  0.315802  0.543237  1
  K  K31  1  0.365390  0.033335  0.109777  1
  K  K32  1  0.345721  0.031927  0.640746  1
  K  K33  1  0.510520  0.371518  0.801435  1
  K  K34  1  0.509805  0.647033  0.188583  1
  K  K35  1  0.505921  0.641027  0.559310  1
  K  K36  1  0.562331  0.000662  0.380172  1
  K  K37  1  0.648665  0.959619  0.885289  1
  K  K38  1  0.881055  0.505243  0.136278  1
  K  K39  1  0.871088  0.494395  0.622671  1
  Sb  Sb40  1  0.062025  0.833829  0.372355  1
  Sb  Sb41  1  0.012081  0.831531  0.876506  1
  Sb  Sb42  1  0.133526  0.618499  0.216853  1
  Sb  Sb43  1  0.119866  0.618329  0.539517  1
  Sb  Sb44  1  0.127469  0.612081  0.715192  1
  Sb  Sb45  1  0.096825  0.615584  0.041573  1
  Sb  Sb46  1  0.262314  0.204773  0.374994  1
  Sb  Sb47  1  0.341706  0.110419  0.855757  1
  Sb  Sb48  1  0.207160  0.734546  0.126852  1
  Sb  Sb49  1  0.222439  0.730036  0.624643  1
  Sb  Sb50  1  0.390076  0.071415  0.992546  1
  Sb  Sb51  1  0.336738  0.116087  0.284156  1
  Sb  Sb52  1  0.324269  0.110513  0.466911  1
  Sb  Sb53  1  0.313159  0.116418  0.756452  1
  Sb  Sb54  1  0.515974  0.377582  0.124335  1
  Sb  Sb55  1  0.496347  0.363408  0.625051  1
  Sb  Sb56  1  0.511582  0.643530  0.375386  1
  Sb  Sb57  1  0.503087  0.622630  0.877909  1
  Sb  Sb58  1  0.696485  0.900165  0.242522  1
  Sb  Sb59  1  0.682764  0.894529  0.501080  1
  Sb  Sb60  1  0.677466  0.887180  0.739365  1
  Sb  Sb61  1  0.619082  0.919124  0.006771  1
  Sb  Sb62  1  0.765062  0.269875  0.374085  1
  Sb  Sb63  1  0.818679  0.258469  0.869986  1
  Sb  Sb64  1  0.710920  0.944438  0.142651  1
  Sb  Sb65  1  0.698297  0.935921  0.637302  1
  Sb  Sb66  1  0.909736  0.374193  0.955682  1
  Sb  Sb67  1  0.875385  0.379967  0.287754  1
  Sb  Sb68  1  0.867687  0.367414  0.461065  1
  Sb  Sb69  1  0.895168  0.377118  0.780261  1
  Sb  Sb70  1  0.951365  0.137175  0.133470  1
  Sb  Sb71  1  0.935838  0.132000  0.626635  1
