# generated using pymatgen
data_UCu2(PO5)2
_symmetry_space_group_name_H-M   'P 1'
_cell_length_a   5.10024094
_cell_length_b   5.81213392
_cell_length_c   7.71395316
_cell_angle_alpha   112.12949281
_cell_angle_beta   104.79802171
_cell_angle_gamma   89.99923129
_symmetry_Int_Tables_number   1
_chemical_formula_structural   UCu2(PO5)2
_chemical_formula_sum   'U1 Cu2 P2 O10'
_cell_volume   203.61158034
_cell_formula_units_Z   1
loop_
 _symmetry_equiv_pos_site_id
 _symmetry_equiv_pos_as_xyz
  1  'x, y, z'
loop_
 _atom_site_type_symbol
 _atom_site_label
 _atom_site_symmetry_multiplicity
 _atom_site_fract_x
 _atom_site_fract_y
 _atom_site_fract_z
 _atom_site_occupancy
  U  U0  1  -0.000000  -0.000000  0.000000  1
  Cu  Cu1  1  0.500000  -0.000000  0.500000  1
  Cu  Cu2  1  0.500000  0.500000  0.500000  1
  P  P3  1  0.923415  0.650513  0.301052  1
  P  P4  1  0.076585  0.349487  0.698948  1
  O  O5  1  0.224642  0.719258  0.438518  1
  O  O6  1  0.874924  0.370959  0.178818  1
  O  O7  1  0.775358  0.280742  0.561482  1
  O  O8  1  0.874922  0.807862  0.178821  1
  O  O9  1  0.664012  0.911402  0.822800  1
  O  O10  1  0.335988  0.088598  0.177200  1
  O  O11  1  0.275998  0.282824  0.565642  1
  O  O12  1  0.125076  0.629041  0.821182  1
  O  O13  1  0.125078  0.192138  0.821179  1
  O  O14  1  0.724002  0.717176  0.434358  1
