# generated using pymatgen
data_RbV2I3O13
_symmetry_space_group_name_H-M   'P 1'
_cell_length_a   8.16944192
_cell_length_b   9.69127592
_cell_length_c   9.69127576
_cell_angle_alpha   66.21919346
_cell_angle_beta   65.07166625
_cell_angle_gamma   65.07166242
_symmetry_Int_Tables_number   1
_chemical_formula_structural   RbV2I3O13
_chemical_formula_sum   'Rb2 V4 I6 O26'
_cell_volume   606.76838857
_cell_formula_units_Z   2
loop_
 _symmetry_equiv_pos_site_id
 _symmetry_equiv_pos_as_xyz
  1  'x, y, z'
loop_
 _atom_site_type_symbol
 _atom_site_label
 _atom_site_symmetry_multiplicity
 _atom_site_fract_x
 _atom_site_fract_y
 _atom_site_fract_z
 _atom_site_occupancy
  Rb  Rb0  1  0.444051  0.859157  0.640843  1
  Rb  Rb1  1  0.944051  0.140843  0.359157  1
  V  V2  1  0.585110  0.111296  0.145911  1
  V  V3  1  0.085110  0.645911  0.611296  1
  V  V4  1  0.842317  0.888704  0.854089  1
  V  V5  1  0.342317  0.354089  0.388704  1
  I  I6  1  0.935138  0.765336  0.253057  1
  I  I7  1  0.435138  0.753057  0.265336  1
  I  I8  1  0.218698  0.472283  0.027717  1
  I  I9  1  0.718698  0.527717  0.972283  1
  I  I10  1  0.453531  0.246943  0.734664  1
  I  I11  1  0.953531  0.234664  0.746943  1
  O  O12  1  0.486318  0.553875  0.248132  1
  O  O13  1  0.543309  0.265044  0.234956  1
  O  O14  1  0.012544  0.409722  0.090278  1
  O  O15  1  0.898840  0.527116  0.770053  1
  O  O16  1  0.311929  0.716991  0.486728  1
  O  O17  1  0.398840  0.270053  0.027116  1
  O  O18  1  0.792472  0.305336  0.633035  1
  O  O19  1  0.170848  0.500000  0.500000  1
  O  O20  1  0.015648  0.013272  0.783009  1
  O  O21  1  0.288325  0.446125  0.751868  1
  O  O22  1  0.043309  0.734956  0.765044  1
  O  O23  1  0.936808  0.787533  0.514951  1
  O  O24  1  0.730843  0.694664  0.366965  1
  O  O25  1  0.239293  0.212467  0.485049  1
  O  O26  1  0.670848  0.000000  1.000000  1
  O  O27  1  0.739293  0.985049  0.712467  1
  O  O28  1  0.986318  0.748132  0.053875  1
  O  O29  1  0.811929  0.986728  0.216991  1
  O  O30  1  0.292472  0.133035  0.805336  1
  O  O31  1  0.230843  0.866965  0.194664  1
  O  O32  1  0.788325  0.251868  0.946125  1
  O  O33  1  0.512544  0.590278  0.909722  1
  O  O34  1  0.196008  0.472884  0.229947  1
  O  O35  1  0.436808  0.014951  0.287533  1
  O  O36  1  0.696008  0.729947  0.972884  1
  O  O37  1  0.515648  0.283009  0.513272  1
