# generated using pymatgen
data_Na5Fe3F14
_symmetry_space_group_name_H-M   'P 1'
_cell_length_a   7.42880821
_cell_length_b   7.52872719
_cell_length_c   10.57976834
_cell_angle_alpha   90.99045282
_cell_angle_beta   90.00000000
_cell_angle_gamma   90.00000000
_symmetry_Int_Tables_number   1
_chemical_formula_structural   Na5Fe3F14
_chemical_formula_sum   'Na10 Fe6 F28'
_cell_volume   591.63243054
_cell_formula_units_Z   2
loop_
 _symmetry_equiv_pos_site_id
 _symmetry_equiv_pos_as_xyz
  1  'x, y, z'
loop_
 _atom_site_type_symbol
 _atom_site_label
 _atom_site_symmetry_multiplicity
 _atom_site_fract_x
 _atom_site_fract_y
 _atom_site_fract_z
 _atom_site_occupancy
  Na  Na0  1  0.301548  0.758131  0.752520  1
  Na  Na1  1  0.198452  0.258131  0.252520  1
  Na  Na2  1  0.698452  0.241869  0.247480  1
  Na  Na3  1  0.745708  0.227573  0.738348  1
  Na  Na4  1  0.245708  0.272427  0.761652  1
  Na  Na5  1  0.754292  0.727573  0.238348  1
  Na  Na6  1  0.000000  0.000000  0.500000  1
  Na  Na7  1  0.500000  0.500000  0.000000  1
  Na  Na8  1  0.254292  0.772427  0.261652  1
  Na  Na9  1  0.801548  0.741869  0.747480  1
  Fe  Fe10  1  0.000000  0.500000  0.500000  1
  Fe  Fe11  1  0.500000  0.500000  0.500000  1
  Fe  Fe12  1  0.500000  0.000000  0.000000  1
  Fe  Fe13  1  0.000000  0.500000  0.000000  1
  Fe  Fe14  1  0.000000  0.000000  0.000000  1
  Fe  Fe15  1  0.500000  0.000000  0.500000  1
  F  F16  1  0.708691  0.964925  0.609050  1
  F  F17  1  0.426545  0.747819  0.497241  1
  F  F18  1  0.662476  0.971034  0.357168  1
  F  F19  1  0.940417  0.011583  0.824073  1
  F  F20  1  0.791309  0.464925  0.109050  1
  F  F21  1  0.563952  0.822969  0.871726  1
  F  F22  1  0.162476  0.528966  0.142832  1
  F  F23  1  0.936048  0.322969  0.371726  1
  F  F24  1  0.208691  0.535075  0.890950  1
  F  F25  1  0.752717  0.060404  0.053753  1
  F  F26  1  0.063952  0.677031  0.628274  1
  F  F27  1  0.337524  0.028966  0.642832  1
  F  F28  1  0.005821  0.303038  0.618383  1
  F  F29  1  0.994179  0.696962  0.381617  1
  F  F30  1  0.926545  0.752181  0.002759  1
  F  F31  1  0.494179  0.803038  0.118383  1
  F  F32  1  0.440417  0.488417  0.675927  1
  F  F33  1  0.291309  0.035075  0.390950  1
  F  F34  1  0.559583  0.511583  0.324073  1
  F  F35  1  0.573455  0.252181  0.502759  1
  F  F36  1  0.247283  0.939596  0.946247  1
  F  F37  1  0.747283  0.560404  0.553753  1
  F  F38  1  0.505821  0.196962  0.881617  1
  F  F39  1  0.059583  0.988417  0.175927  1
  F  F40  1  0.073455  0.247819  0.997241  1
  F  F41  1  0.837524  0.471034  0.857168  1
  F  F42  1  0.436047  0.177031  0.128274  1
  F  F43  1  0.252717  0.439596  0.446247  1
