# generated using pymatgen
data_BaZr(BO3)2
_symmetry_space_group_name_H-M   'P 1'
_cell_length_a   11.95031474
_cell_length_b   11.95031483
_cell_length_c   11.95031453
_cell_angle_alpha   25.24662219
_cell_angle_beta   25.24662124
_cell_angle_gamma   25.24661943
_symmetry_Int_Tables_number   1
_chemical_formula_structural   BaZr(BO3)2
_chemical_formula_sum   'Ba2 Zr2 B4 O12'
_cell_volume   273.21453238
_cell_formula_units_Z   2
loop_
 _symmetry_equiv_pos_site_id
 _symmetry_equiv_pos_as_xyz
  1  'x, y, z'
loop_
 _atom_site_type_symbol
 _atom_site_label
 _atom_site_symmetry_multiplicity
 _atom_site_fract_x
 _atom_site_fract_y
 _atom_site_fract_z
 _atom_site_occupancy
  Ba  Ba0  1  -0.000137  -0.000137  -0.000137  1
  Ba  Ba1  1  0.499863  0.499863  0.499863  1
  Zr  Zr2  1  0.249842  0.249842  0.249842  1
  Zr  Zr3  1  0.749842  0.749842  0.749842  1
  B  B4  1  0.880974  0.880974  0.880974  1
  B  B5  1  0.118683  0.118683  0.118683  1
  B  B6  1  0.618683  0.618683  0.618683  1
  B  B7  1  0.380974  0.380974  0.380974  1
  O  O8  1  0.081937  0.586586  0.471787  1
  O  O9  1  0.086586  0.581937  0.971787  1
  O  O10  1  0.528404  0.412639  0.917596  1
  O  O11  1  0.581937  0.971787  0.086586  1
  O  O12  1  0.417596  0.912639  0.028404  1
  O  O13  1  0.917596  0.528404  0.412639  1
  O  O14  1  0.412639  0.917596  0.528404  1
  O  O15  1  0.471787  0.081937  0.586586  1
  O  O16  1  0.028404  0.417596  0.912639  1
  O  O17  1  0.912639  0.028404  0.417596  1
  O  O18  1  0.586586  0.471787  0.081937  1
  O  O19  1  0.971787  0.086586  0.581937  1
