# generated using pymatgen
data_CuC3(OF)3
_symmetry_space_group_name_H-M   'P 1'
_cell_length_a   8.27933255
_cell_length_b   8.27933275
_cell_length_c   10.36976332
_cell_angle_alpha   69.20152651
_cell_angle_beta   69.20152600
_cell_angle_gamma   64.95542537
_symmetry_Int_Tables_number   1
_chemical_formula_structural   CuC3(OF)3
_chemical_formula_sum   'Cu4 C12 O12 F12'
_cell_volume   584.16191728
_cell_formula_units_Z   4
loop_
 _symmetry_equiv_pos_site_id
 _symmetry_equiv_pos_as_xyz
  1  'x, y, z'
loop_
 _atom_site_type_symbol
 _atom_site_label
 _atom_site_symmetry_multiplicity
 _atom_site_fract_x
 _atom_site_fract_y
 _atom_site_fract_z
 _atom_site_occupancy
  Cu  Cu0  1  0.665542  0.426073  0.587137  1
  Cu  Cu1  1  0.426073  0.665542  0.087137  1
  Cu  Cu2  1  0.334458  0.573927  0.412863  1
  Cu  Cu3  1  0.573927  0.334458  0.912863  1
  C  C4  1  0.871621  0.231475  0.582800  1
  C  C5  1  0.532492  0.913389  0.727452  1
  C  C6  1  0.128379  0.768525  0.417200  1
  C  C7  1  0.707238  0.572653  0.240882  1
  C  C8  1  0.231475  0.871621  0.082800  1
  C  C9  1  0.427347  0.292762  0.259118  1
  C  C10  1  0.572653  0.707238  0.740882  1
  C  C11  1  0.086611  0.467508  0.772548  1
  C  C12  1  0.292762  0.427347  0.759118  1
  C  C13  1  0.768525  0.128379  0.917200  1
  C  C14  1  0.467508  0.086611  0.272548  1
  C  C15  1  0.913389  0.532492  0.227452  1
  O  O16  1  0.335729  0.383207  0.874272  1
  O  O17  1  0.664271  0.616793  0.125728  1
  O  O18  1  0.108647  0.006910  0.084015  1
  O  O19  1  0.006910  0.108647  0.584015  1
  O  O20  1  0.550964  0.606127  0.866839  1
  O  O21  1  0.993090  0.891353  0.415985  1
  O  O22  1  0.393873  0.449036  0.633161  1
  O  O23  1  0.616793  0.664271  0.625728  1
  O  O24  1  0.449036  0.393873  0.133161  1
  O  O25  1  0.891353  0.993090  0.915985  1
  O  O26  1  0.606127  0.550964  0.366839  1
  O  O27  1  0.383207  0.335729  0.374272  1
  F  F28  1  0.347122  0.005093  0.747188  1
  F  F29  1  0.587019  0.935688  0.827721  1
  F  F30  1  0.005093  0.347122  0.247188  1
  F  F31  1  0.004398  0.383984  0.901005  1
  F  F32  1  0.412981  0.064312  0.172279  1
  F  F33  1  0.616016  0.995602  0.598995  1
  F  F34  1  0.994907  0.652878  0.752812  1
  F  F35  1  0.064312  0.412981  0.672279  1
  F  F36  1  0.383984  0.004398  0.401005  1
  F  F37  1  0.995602  0.616016  0.098995  1
  F  F38  1  0.652878  0.994907  0.252812  1
  F  F39  1  0.935688  0.587019  0.327721  1
