# generated using pymatgen
data_NbPO5
_symmetry_space_group_name_H-M   'P 1'
_cell_length_a   5.39285384
_cell_length_b   13.28328921
_cell_length_c   13.32904917
_cell_angle_alpha   118.98963161
_cell_angle_beta   90.00000000
_cell_angle_gamma   90.00000000
_symmetry_Int_Tables_number   1
_chemical_formula_structural   NbPO5
_chemical_formula_sum   'Nb8 P8 O40'
_cell_volume   835.19187655
_cell_formula_units_Z   8
loop_
 _symmetry_equiv_pos_site_id
 _symmetry_equiv_pos_as_xyz
  1  'x, y, z'
loop_
 _atom_site_type_symbol
 _atom_site_label
 _atom_site_symmetry_multiplicity
 _atom_site_fract_x
 _atom_site_fract_y
 _atom_site_fract_z
 _atom_site_occupancy
  Nb  Nb0  1  0.756806  0.365752  0.302731  1
  Nb  Nb1  1  0.256806  0.134248  0.197269  1
  Nb  Nb2  1  0.243194  0.634248  0.697269  1
  Nb  Nb3  1  0.743194  0.865752  0.802731  1
  Nb  Nb4  1  0.746359  0.197336  0.634009  1
  Nb  Nb5  1  0.246359  0.302664  0.865991  1
  Nb  Nb6  1  0.253641  0.802664  0.365991  1
  Nb  Nb7  1  0.753641  0.697336  0.134009  1
  P  P8  1  0.739635  0.408595  0.062463  1
  P  P9  1  0.239635  0.091405  0.437537  1
  P  P10  1  0.260365  0.591405  0.937537  1
  P  P11  1  0.760365  0.908595  0.562463  1
  P  P12  1  0.235243  0.062873  0.909218  1
  P  P13  1  0.735243  0.437127  0.590782  1
  P  P14  1  0.764757  0.937127  0.090782  1
  P  P15  1  0.264757  0.562873  0.409218  1
  O  O16  1  0.752735  0.372501  0.156702  1
  O  O17  1  0.252735  0.127499  0.343298  1
  O  O18  1  0.247265  0.627499  0.843298  1
  O  O19  1  0.747265  0.872501  0.656702  1
  O  O20  1  0.761063  0.377461  0.458828  1
  O  O21  1  0.261063  0.122539  0.041172  1
  O  O22  1  0.238937  0.622539  0.541172  1
  O  O23  1  0.738937  0.877461  0.958828  1
  O  O24  1  0.470611  0.266033  0.258545  1
  O  O25  1  0.970611  0.233967  0.241454  1
  O  O26  1  0.529389  0.733967  0.741455  1
  O  O27  1  0.029389  0.766033  0.758545  1
  O  O28  1  0.521755  0.507805  0.372615  1
  O  O29  1  0.021755  0.992195  0.127385  1
  O  O30  1  0.478245  0.492195  0.627385  1
  O  O31  1  0.978245  0.007805  0.872615  1
  O  O32  1  0.057395  0.473640  0.353063  1
  O  O33  1  0.557395  0.026360  0.146937  1
  O  O34  1  0.942605  0.526360  0.646937  1
  O  O35  1  0.442605  0.973640  0.853063  1
  O  O36  1  0.765465  0.343933  0.627894  1
  O  O37  1  0.265465  0.156067  0.872106  1
  O  O38  1  0.234535  0.656067  0.372106  1
  O  O39  1  0.734535  0.843933  0.127894  1
  O  O40  1  0.721738  0.040368  0.620802  1
  O  O41  1  0.221738  0.459632  0.879198  1
  O  O42  1  0.278262  0.959632  0.379198  1
  O  O43  1  0.778262  0.540368  0.120802  1
  O  O44  1  0.526328  0.261946  0.764206  1
  O  O45  1  0.026328  0.238054  0.735794  1
  O  O46  1  0.473672  0.738054  0.235794  1
  O  O47  1  0.973672  0.761946  0.264206  1
  O  O48  1  0.983322  0.123567  0.494387  1
  O  O49  1  0.483322  0.376433  0.005613  1
  O  O50  1  0.016678  0.876433  0.505613  1
  O  O51  1  0.516678  0.623567  0.994387  1
  O  O52  1  0.447281  0.153140  0.524682  1
  O  O53  1  0.947281  0.346860  0.975318  1
  O  O54  1  0.552719  0.846860  0.475318  1
  O  O55  1  0.052719  0.653140  0.024682  1
