# generated using pymatgen
data_KNa3Al4(SiO4)4
_symmetry_space_group_name_H-M   'P 1'
_cell_length_a   10.14314915
_cell_length_b   10.14314889
_cell_length_c   8.52980686
_cell_angle_alpha   90.00000000
_cell_angle_beta   90.00000000
_cell_angle_gamma   120.00000084
_symmetry_Int_Tables_number   1
_chemical_formula_structural   KNa3Al4(SiO4)4
_chemical_formula_sum   'K2 Na6 Al8 Si8 O32'
_cell_volume   760.00322909
_cell_formula_units_Z   2
loop_
 _symmetry_equiv_pos_site_id
 _symmetry_equiv_pos_as_xyz
  1  'x, y, z'
loop_
 _atom_site_type_symbol
 _atom_site_label
 _atom_site_symmetry_multiplicity
 _atom_site_fract_x
 _atom_site_fract_y
 _atom_site_fract_z
 _atom_site_occupancy
  K  K0  1  0.000000  0.000000  0.003982  1
  K  K1  1  0.000000  0.000000  0.503982  1
  Na  Na2  1  0.450295  0.441214  0.500702  1
  Na  Na3  1  0.990919  0.549705  0.500702  1
  Na  Na4  1  0.441214  0.990919  1.000702  1
  Na  Na5  1  0.009081  0.450295  1.000702  1
  Na  Na6  1  0.549705  0.558786  1.000702  1
  Na  Na7  1  0.558786  0.009081  0.500702  1
  Al  Al8  1  0.667207  0.760670  0.312918  1
  Al  Al9  1  0.760670  0.093463  0.812918  1
  Al  Al10  1  0.666667  0.333333  0.303297  1
  Al  Al11  1  0.333333  0.666667  0.803297  1
  Al  Al12  1  0.093463  0.332793  0.312918  1
  Al  Al13  1  0.906537  0.667207  0.812918  1
  Al  Al14  1  0.332793  0.239330  0.812918  1
  Al  Al15  1  0.239330  0.906537  0.312918  1
  Si  Si16  1  0.905999  0.666680  0.185467  1
  Si  Si17  1  0.239319  0.905999  0.685467  1
  Si  Si18  1  0.760681  0.094001  0.185467  1
  Si  Si19  1  0.666680  0.760681  0.685467  1
  Si  Si20  1  0.333333  0.666667  0.197140  1
  Si  Si21  1  0.666667  0.333333  0.697140  1
  Si  Si22  1  0.333320  0.239319  0.185467  1
  Si  Si23  1  0.094001  0.333320  0.685467  1
  O  O24  1  0.225282  0.284022  0.683674  1
  O  O25  1  0.774718  0.715978  0.183674  1
  O  O26  1  0.973512  0.685316  0.006960  1
  O  O27  1  0.957967  0.222093  0.806746  1
  O  O28  1  0.058740  0.774718  0.683674  1
  O  O29  1  0.777907  0.735875  0.806746  1
  O  O30  1  0.264125  0.042033  0.806746  1
  O  O31  1  0.490384  0.651289  0.741574  1
  O  O32  1  0.715978  0.941261  0.683674  1
  O  O33  1  0.651289  0.160904  0.241574  1
  O  O34  1  0.171835  0.523960  0.258189  1
  O  O35  1  0.314684  0.288195  0.006960  1
  O  O36  1  0.839096  0.490384  0.241574  1
  O  O37  1  0.523960  0.352125  0.758189  1
  O  O38  1  0.647875  0.171835  0.758189  1
  O  O39  1  0.711805  0.026488  0.006960  1
  O  O40  1  0.509616  0.348711  0.241574  1
  O  O41  1  0.348711  0.839096  0.741574  1
  O  O42  1  0.828165  0.476040  0.758189  1
  O  O43  1  0.288195  0.973512  0.506960  1
  O  O44  1  0.026488  0.314684  0.506960  1
  O  O45  1  0.160904  0.509616  0.741574  1
  O  O46  1  0.042033  0.777907  0.306746  1
  O  O47  1  0.735875  0.957967  0.306746  1
  O  O48  1  0.476040  0.647875  0.258189  1
  O  O49  1  0.284022  0.058740  0.183674  1
  O  O50  1  0.666667  0.333333  0.506893  1
  O  O51  1  0.352125  0.828165  0.258189  1
  O  O52  1  0.941261  0.225282  0.183674  1
  O  O53  1  0.685316  0.711805  0.506960  1
  O  O54  1  0.333333  0.666667  0.006893  1
  O  O55  1  0.222093  0.264125  0.306746  1
