# generated using pymatgen
data_CuH8C4(NO3)2
_symmetry_space_group_name_H-M   'P 1'
_cell_length_a   8.17687049
_cell_length_b   7.99785610
_cell_length_c   8.08359148
_cell_angle_alpha   90.00000000
_cell_angle_beta   116.72953782
_cell_angle_gamma   90.00000000
_symmetry_Int_Tables_number   1
_chemical_formula_structural   CuH8C4(NO3)2
_chemical_formula_sum   'Cu2 H16 C8 N4 O12'
_cell_volume   472.15481562
_cell_formula_units_Z   2
loop_
 _symmetry_equiv_pos_site_id
 _symmetry_equiv_pos_as_xyz
  1  'x, y, z'
loop_
 _atom_site_type_symbol
 _atom_site_label
 _atom_site_symmetry_multiplicity
 _atom_site_fract_x
 _atom_site_fract_y
 _atom_site_fract_z
 _atom_site_occupancy
  Cu  Cu0  1  0.500000  0.500000  0.500000  1
  Cu  Cu1  1  0.500000  0.000000  0.000000  1
  H  H2  1  0.842881  0.543488  0.364833  1
  H  H3  1  0.240143  0.129161  0.362152  1
  H  H4  1  0.409788  0.717198  0.167123  1
  H  H5  1  0.240143  0.370839  0.862152  1
  H  H6  1  0.409788  0.782802  0.667123  1
  H  H7  1  0.157119  0.043488  0.135167  1
  H  H8  1  0.050905  0.637612  0.155372  1
  H  H9  1  0.759857  0.629161  0.137848  1
  H  H10  1  0.590212  0.282802  0.832877  1
  H  H11  1  0.949095  0.362388  0.844628  1
  H  H12  1  0.842881  0.956512  0.864833  1
  H  H13  1  0.157119  0.456512  0.635167  1
  H  H14  1  0.050905  0.862388  0.655372  1
  H  H15  1  0.759857  0.870839  0.637848  1
  H  H16  1  0.949095  0.137612  0.344628  1
  H  H17  1  0.590212  0.217198  0.332877  1
  C  C18  1  0.507918  0.709309  0.785668  1
  C  C19  1  0.492082  0.290691  0.214332  1
  C  C20  1  0.037649  0.594020  0.278911  1
  C  C21  1  0.962351  0.094020  0.221089  1
  C  C22  1  0.037649  0.905980  0.778911  1
  C  C23  1  0.492082  0.209309  0.714332  1
  C  C24  1  0.507918  0.790691  0.285668  1
  C  C25  1  0.962351  0.405980  0.721089  1
  N  N26  1  0.133728  0.415211  0.743542  1
  N  N27  1  0.133728  0.084789  0.243542  1
  N  N28  1  0.866272  0.584789  0.256458  1
  N  N29  1  0.866272  0.915211  0.756458  1
  O  O30  1  0.823528  0.443496  0.574593  1
  O  O31  1  0.433616  0.070852  0.743891  1
  O  O32  1  0.433616  0.429148  0.243891  1
  O  O33  1  0.560758  0.766786  0.948635  1
  O  O34  1  0.560758  0.733214  0.448635  1
  O  O35  1  0.566384  0.570852  0.756109  1
  O  O36  1  0.176472  0.943496  0.925407  1
  O  O37  1  0.176472  0.556504  0.425407  1
  O  O38  1  0.566384  0.929148  0.256109  1
  O  O39  1  0.439242  0.233214  0.051365  1
  O  O40  1  0.823528  0.056504  0.074593  1
  O  O41  1  0.439242  0.266786  0.551365  1
