# generated using pymatgen
data_La3TiCl5O4
_symmetry_space_group_name_H-M   'P 1'
_cell_length_a   4.08248142
_cell_length_b   14.80485220
_cell_length_c   16.95447350
_cell_angle_alpha   90.00000000
_cell_angle_beta   90.00000000
_cell_angle_gamma   90.00000000
_symmetry_Int_Tables_number   1
_chemical_formula_structural   La3TiCl5O4
_chemical_formula_sum   'La12 Ti4 Cl20 O16'
_cell_volume   1024.73743258
_cell_formula_units_Z   4
loop_
 _symmetry_equiv_pos_site_id
 _symmetry_equiv_pos_as_xyz
  1  'x, y, z'
loop_
 _atom_site_type_symbol
 _atom_site_label
 _atom_site_symmetry_multiplicity
 _atom_site_fract_x
 _atom_site_fract_y
 _atom_site_fract_z
 _atom_site_occupancy
  La  La0  1  0.750000  0.080669  0.620462  1
  La  La1  1  0.250000  0.919331  0.379538  1
  La  La2  1  0.750000  0.915643  0.879157  1
  La  La3  1  0.250000  0.239188  0.869955  1
  La  La4  1  0.750000  0.419331  0.120462  1
  La  La5  1  0.250000  0.084357  0.120843  1
  La  La6  1  0.750000  0.584357  0.379157  1
  La  La7  1  0.250000  0.580669  0.879538  1
  La  La8  1  0.750000  0.739188  0.630045  1
  La  La9  1  0.250000  0.260812  0.369955  1
  La  La10  1  0.250000  0.415643  0.620843  1
  La  La11  1  0.750000  0.760812  0.130045  1
  Ti  Ti12  1  0.750000  0.410780  0.791602  1
  Ti  Ti13  1  0.250000  0.910780  0.708398  1
  Ti  Ti14  1  0.750000  0.089220  0.291602  1
  Ti  Ti15  1  0.250000  0.589220  0.208398  1
  Cl  Cl16  1  0.250000  0.899217  0.201984  1
  Cl  Cl17  1  0.750000  0.399217  0.298016  1
  Cl  Cl18  1  0.750000  0.556496  0.554496  1
  Cl  Cl19  1  0.250000  0.715686  0.478724  1
  Cl  Cl20  1  0.250000  0.096384  0.483643  1
  Cl  Cl21  1  0.250000  0.443504  0.445504  1
  Cl  Cl22  1  0.750000  0.596384  0.016357  1
  Cl  Cl23  1  0.250000  0.224907  0.679773  1
  Cl  Cl24  1  0.750000  0.775093  0.320227  1
  Cl  Cl25  1  0.250000  0.275093  0.179773  1
  Cl  Cl26  1  0.750000  0.903616  0.516357  1
  Cl  Cl27  1  0.250000  0.403616  0.983643  1
  Cl  Cl28  1  0.250000  0.056496  0.945504  1
  Cl  Cl29  1  0.750000  0.724907  0.820227  1
  Cl  Cl30  1  0.250000  0.784314  0.978724  1
  Cl  Cl31  1  0.750000  0.943504  0.054496  1
  Cl  Cl32  1  0.250000  0.600783  0.701984  1
  Cl  Cl33  1  0.750000  0.100783  0.798016  1
  Cl  Cl34  1  0.750000  0.284314  0.521276  1
  Cl  Cl35  1  0.750000  0.215686  0.021276  1
  O  O36  1  0.250000  0.909991  0.817678  1
  O  O37  1  0.250000  0.482066  0.151986  1
  O  O38  1  0.750000  0.517934  0.848014  1
  O  O39  1  0.750000  0.090009  0.182322  1
  O  O40  1  0.250000  0.590009  0.317678  1
  O  O41  1  0.750000  0.982066  0.348014  1
  O  O42  1  0.750000  0.301713  0.845371  1
  O  O43  1  0.250000  0.017934  0.651986  1
  O  O44  1  0.750000  0.591449  0.208417  1
  O  O45  1  0.750000  0.908551  0.708417  1
  O  O46  1  0.250000  0.698287  0.154629  1
  O  O47  1  0.750000  0.198287  0.345371  1
  O  O48  1  0.250000  0.408551  0.791583  1
  O  O49  1  0.250000  0.801713  0.654629  1
  O  O50  1  0.250000  0.091449  0.291583  1
  O  O51  1  0.750000  0.409991  0.682322  1
