# generated using pymatgen
data_Ti4Cr3(PO4)6
_symmetry_space_group_name_H-M   'P 1'
_cell_length_a   6.42564034
_cell_length_b   8.11128174
_cell_length_c   9.63982076
_cell_angle_alpha   106.29873275
_cell_angle_beta   105.30553595
_cell_angle_gamma   103.06634387
_symmetry_Int_Tables_number   1
_chemical_formula_structural   Ti4Cr3(PO4)6
_chemical_formula_sum   'Ti4 Cr3 P6 O24'
_cell_volume   440.00631377
_cell_formula_units_Z   1
loop_
 _symmetry_equiv_pos_site_id
 _symmetry_equiv_pos_as_xyz
  1  'x, y, z'
loop_
 _atom_site_type_symbol
 _atom_site_label
 _atom_site_symmetry_multiplicity
 _atom_site_fract_x
 _atom_site_fract_y
 _atom_site_fract_z
 _atom_site_occupancy
  Ti  Ti0  1  0.025042  0.185240  0.015480  1
  Ti  Ti1  1  0.391550  0.955276  0.601304  1
  Ti  Ti2  1  0.974958  0.814760  0.984520  1
  Ti  Ti3  1  0.608450  0.044724  0.398696  1
  Cr  Cr4  1  0.270225  0.302250  0.779537  1
  Cr  Cr5  1  0.729775  0.697750  0.220463  1
  Cr  Cr6  1  0.000000  0.500000  0.500000  1
  P  P7  1  0.414188  0.747859  0.870151  1
  P  P8  1  0.786643  0.359078  0.742180  1
  P  P9  1  0.902237  0.893408  0.656700  1
  P  P10  1  0.097763  0.106592  0.343300  1
  P  P11  1  0.213357  0.640922  0.257820  1
  P  P12  1  0.585812  0.252141  0.129849  1
  O  O13  1  0.300955  0.547530  0.763990  1
  O  O14  1  0.262622  0.808673  0.963297  1
  O  O15  1  0.181532  0.442528  0.184865  1
  O  O16  1  0.133815  0.302652  0.426862  1
  O  O17  1  0.348312  0.219541  0.010510  1
  O  O18  1  0.082642  0.060714  0.170923  1
  O  O19  1  0.977936  0.300919  0.835967  1
  O  O20  1  0.301086  0.048613  0.421520  1
  O  O21  1  0.651688  0.780459  0.989490  1
  O  O22  1  0.698914  0.951387  0.578480  1
  O  O23  1  0.210408  0.692785  0.428427  1
  O  O24  1  0.699045  0.452470  0.236010  1
  O  O25  1  0.022064  0.699081  0.164033  1
  O  O26  1  0.438928  0.858233  0.765246  1
  O  O27  1  0.917358  0.939286  0.829077  1
  O  O28  1  0.789592  0.307215  0.571573  1
  O  O29  1  0.818468  0.557472  0.815135  1
  O  O30  1  0.123376  0.021122  0.657411  1
  O  O31  1  0.548724  0.237463  0.731277  1
  O  O32  1  0.876624  0.978878  0.342589  1
  O  O33  1  0.866185  0.697348  0.573138  1
  O  O34  1  0.737378  0.191327  0.036703  1
  O  O35  1  0.451276  0.762537  0.268723  1
  O  O36  1  0.561072  0.141767  0.234754  1
