# generated using pymatgen
data_CsLa(PO3)4
_symmetry_space_group_name_H-M   'P 1'
_cell_length_a   7.32161899
_cell_length_b   8.96746470
_cell_length_c   9.39531093
_cell_angle_alpha   90.00000000
_cell_angle_beta   90.00000000
_cell_angle_gamma   99.28648032
_symmetry_Int_Tables_number   1
_chemical_formula_structural   CsLa(PO3)4
_chemical_formula_sum   'Cs2 La2 P8 O24'
_cell_volume   608.77721265
_cell_formula_units_Z   2
loop_
 _symmetry_equiv_pos_site_id
 _symmetry_equiv_pos_as_xyz
  1  'x, y, z'
loop_
 _atom_site_type_symbol
 _atom_site_label
 _atom_site_symmetry_multiplicity
 _atom_site_fract_x
 _atom_site_fract_y
 _atom_site_fract_z
 _atom_site_occupancy
  Cs  Cs0  1  0.326696  0.825307  0.433710  1
  Cs  Cs1  1  0.673304  0.174693  0.933710  1
  La  La2  1  0.202093  0.302687  0.599072  1
  La  La3  1  0.797907  0.697313  0.099072  1
  P  P4  1  0.645560  0.543563  0.474052  1
  P  P5  1  0.694360  0.227787  0.523676  1
  P  P6  1  0.060221  0.374611  0.207345  1
  P  P7  1  0.917316  0.072727  0.322510  1
  P  P8  1  0.354440  0.456437  0.974052  1
  P  P9  1  0.939779  0.625389  0.707345  1
  P  P10  1  0.082684  0.927273  0.822510  1
  P  P11  1  0.305640  0.772213  0.023676  1
  O  O12  1  0.076910  0.532253  0.652264  1
  O  O13  1  0.041127  0.801146  0.698182  1
  O  O14  1  0.494992  0.182689  0.566294  1
  O  O15  1  0.723965  0.388864  0.441280  1
  O  O16  1  0.459854  0.509566  0.544762  1
  O  O17  1  0.923090  0.467747  0.152264  1
  O  O18  1  0.662527  0.634794  0.339931  1
  O  O19  1  0.852429  0.593652  0.850517  1
  O  O20  1  0.857200  0.925576  0.249922  1
  O  O21  1  0.213282  0.364407  0.086569  1
  O  O22  1  0.505008  0.817311  0.066294  1
  O  O23  1  0.958873  0.198854  0.198182  1
  O  O24  1  0.786718  0.635593  0.586569  1
  O  O25  1  0.276035  0.611136  0.941280  1
  O  O26  1  0.156553  0.767615  0.134030  1
  O  O27  1  0.926388  0.910206  0.927864  1
  O  O28  1  0.142800  0.074424  0.749922  1
  O  O29  1  0.147571  0.406348  0.350517  1
  O  O30  1  0.843447  0.232385  0.634030  1
  O  O31  1  0.073612  0.089794  0.427864  1
  O  O32  1  0.540146  0.490434  0.044762  1
  O  O33  1  0.337473  0.365206  0.839931  1
  O  O34  1  0.270769  0.883423  0.894459  1
  O  O35  1  0.729231  0.116577  0.394459  1
