# generated using pymatgen
data_ZnCdC4(SN)4
_symmetry_space_group_name_H-M   'P 1'
_cell_length_a   4.72599123
_cell_length_b   8.28244474
_cell_length_c   8.28244472
_cell_angle_alpha   85.33112963
_cell_angle_beta   73.42311393
_cell_angle_gamma   73.42312099
_symmetry_Int_Tables_number   1
_chemical_formula_structural   ZnCdC4(SN)4
_chemical_formula_sum   'Zn1 Cd1 C4 S4 N4'
_cell_volume   297.80901444
_cell_formula_units_Z   1
loop_
 _symmetry_equiv_pos_site_id
 _symmetry_equiv_pos_as_xyz
  1  'x, y, z'
loop_
 _atom_site_type_symbol
 _atom_site_label
 _atom_site_symmetry_multiplicity
 _atom_site_fract_x
 _atom_site_fract_y
 _atom_site_fract_z
 _atom_site_occupancy
  Cd  Cd0  1  0.000000  0.000000  0.000000  1
  Zn  Zn1  1  0.250000  0.500000  0.500000  1
  S  S2  1  0.594494  0.274905  0.957791  1
  S  S3  1  0.447716  0.957791  0.725095  1
  S  S4  1  0.130601  0.042209  0.274905  1
  S  S5  1  0.827189  0.725095  0.042209  1
  C  C6  1  0.818331  0.349825  0.798633  1
  C  C7  1  0.383037  0.798633  0.650175  1
  C  C8  1  0.831844  0.201367  0.349825  1
  C  C9  1  0.966789  0.650175  0.201367  1
  N  N10  1  0.971453  0.408491  0.684851  1
  N  N11  1  0.343696  0.684851  0.591509  1
  N  N12  1  0.620057  0.315149  0.408491  1
  N  N13  1  0.064795  0.591509  0.315149  1
