# generated using pymatgen
data_CuS4BrN4
_symmetry_space_group_name_H-M   'P 1'
_cell_length_a   7.17462210
_cell_length_b   9.39549916
_cell_length_c   12.39905013
_cell_angle_alpha   90.00000000
_cell_angle_beta   90.00000000
_cell_angle_gamma   106.87106129
_symmetry_Int_Tables_number   1
_chemical_formula_structural   CuS4BrN4
_chemical_formula_sum   'Cu4 S16 Br4 N16'
_cell_volume   799.83650330
_cell_formula_units_Z   4
loop_
 _symmetry_equiv_pos_site_id
 _symmetry_equiv_pos_as_xyz
  1  'x, y, z'
loop_
 _atom_site_type_symbol
 _atom_site_label
 _atom_site_symmetry_multiplicity
 _atom_site_fract_x
 _atom_site_fract_y
 _atom_site_fract_z
 _atom_site_occupancy
  Cu  Cu0  1  0.128127  0.419867  0.167900  1
  Cu  Cu1  1  0.871873  0.580133  0.832100  1
  Cu  Cu2  1  0.371873  0.580133  0.667900  1
  Cu  Cu3  1  0.628127  0.419867  0.332100  1
  S  S4  1  0.760798  0.151707  0.076721  1
  S  S5  1  0.375425  0.758702  0.106852  1
  S  S6  1  0.739202  0.848293  0.576721  1
  S  S7  1  0.522235  0.310723  0.574871  1
  S  S8  1  0.124575  0.241298  0.606852  1
  S  S9  1  0.690150  0.977642  0.383045  1
  S  S10  1  0.624575  0.241298  0.893148  1
  S  S11  1  0.239202  0.848293  0.923279  1
  S  S12  1  0.477765  0.689277  0.425129  1
  S  S13  1  0.022235  0.310723  0.925129  1
  S  S14  1  0.190150  0.977642  0.116955  1
  S  S15  1  0.260798  0.151707  0.423279  1
  S  S16  1  0.309850  0.022358  0.616955  1
  S  S17  1  0.875425  0.758702  0.393148  1
  S  S18  1  0.977765  0.689277  0.074871  1
  S  S19  1  0.809850  0.022358  0.883045  1
  Br  Br20  1  0.546123  0.614166  0.838193  1
  Br  Br21  1  0.046123  0.614166  0.661807  1
  Br  Br22  1  0.453877  0.385834  0.161807  1
  Br  Br23  1  0.953877  0.385834  0.338193  1
  N  N24  1  0.771474  1.004010  0.012720  1
  N  N25  1  0.271474  1.004010  0.487280  1
  N  N26  1  0.528684  0.721170  0.554424  1
  N  N27  1  0.728526  -0.004010  0.512720  1
  N  N28  1  0.340129  0.365884  0.622120  1
  N  N29  1  0.857280  0.908671  0.335248  1
  N  N30  1  0.840129  0.365884  0.877880  1
  N  N31  1  0.659871  0.634116  0.377880  1
  N  N32  1  0.971316  0.278830  0.054424  1
  N  N33  1  0.159871  0.634116  0.122120  1
  N  N34  1  0.028684  0.721170  0.945576  1
  N  N35  1  0.228526  -0.004010  0.987280  1
  N  N36  1  0.357280  0.908671  0.164752  1
  N  N37  1  0.142720  0.091329  0.664752  1
  N  N38  1  0.471316  0.278830  0.445576  1
  N  N39  1  0.642720  0.091329  0.835248  1
