# generated using pymatgen
data_Na2U2Si(O4F)2
_symmetry_space_group_name_H-M   'P 1'
_cell_length_a   7.03014677
_cell_length_b   7.03059830
_cell_length_c   10.53172029
_cell_angle_alpha   109.49841036
_cell_angle_beta   109.49662500
_cell_angle_gamma   90.00487800
_symmetry_Int_Tables_number   1
_chemical_formula_structural   Na2U2Si(O4F)2
_chemical_formula_sum   'Na4 U4 Si2 O16 F4'
_cell_volume   458.89911889
_cell_formula_units_Z   2
loop_
 _symmetry_equiv_pos_site_id
 _symmetry_equiv_pos_as_xyz
  1  'x, y, z'
loop_
 _atom_site_type_symbol
 _atom_site_label
 _atom_site_symmetry_multiplicity
 _atom_site_fract_x
 _atom_site_fract_y
 _atom_site_fract_z
 _atom_site_occupancy
  Na  Na0  1  0.500000  0.500000  0.500000  1
  Na  Na1  1  0.500000  0.000000  0.000000  1
  Na  Na2  1  0.500000  0.000000  0.500000  1
  Na  Na3  1  0.000000  0.000000  0.000000  1
  U  U4  1  0.048721  0.798840  0.597662  1
  U  U5  1  0.951279  0.201160  0.402338  1
  U  U6  1  0.298839  0.548734  0.097660  1
  U  U7  1  0.701161  0.451266  0.902340  1
  Si  Si8  1  0.124962  0.375022  0.749982  1
  Si  Si9  1  0.875038  0.624978  0.250018  1
  O  O10  1  0.994371  0.567399  0.134760  1
  O  O11  1  0.067401  0.494358  0.634763  1
  O  O12  1  0.309813  0.797840  0.595703  1
  O  O13  1  0.702148  0.714248  0.904290  1
  O  O14  1  0.214276  0.202144  0.404283  1
  O  O15  1  0.932599  0.505642  0.365237  1
  O  O16  1  0.702160  0.190194  0.904298  1
  O  O17  1  0.640442  0.567391  0.134743  1
  O  O18  1  0.297840  0.809806  0.095702  1
  O  O19  1  0.067391  0.140458  0.634745  1
  O  O20  1  0.297852  0.285752  0.095710  1
  O  O21  1  0.359558  0.432609  0.865257  1
  O  O22  1  0.785724  0.797856  0.595717  1
  O  O23  1  0.005629  0.432601  0.865240  1
  O  O24  1  0.932609  0.859542  0.365255  1
  O  O25  1  0.690187  0.202160  0.404297  1
  F  F26  1  0.832078  0.082051  0.164106  1
  F  F27  1  0.417940  0.667922  0.335888  1
  F  F28  1  0.167922  0.917949  0.835894  1
  F  F29  1  0.582060  0.332078  0.664111  1
