# generated using pymatgen
data_Ba3Ce2C5O15F2
_symmetry_space_group_name_H-M   'P 1'
_cell_length_a   5.14814292
_cell_length_b   11.11680668
_cell_length_c   13.40440742
_cell_angle_alpha   94.54859792
_cell_angle_beta   90.00000000
_cell_angle_gamma   103.38821079
_symmetry_Int_Tables_number   1
_chemical_formula_structural   Ba3Ce2C5O15F2
_chemical_formula_sum   'Ba6 Ce4 C10 O30 F4'
_cell_volume   743.81420271
_cell_formula_units_Z   2
loop_
 _symmetry_equiv_pos_site_id
 _symmetry_equiv_pos_as_xyz
  1  'x, y, z'
loop_
 _atom_site_type_symbol
 _atom_site_label
 _atom_site_symmetry_multiplicity
 _atom_site_fract_x
 _atom_site_fract_y
 _atom_site_fract_z
 _atom_site_occupancy
  Ba  Ba0  1  0.313771  0.627541  0.904828  1
  Ba  Ba1  1  0.192277  0.384555  0.600311  1
  Ba  Ba2  1  0.500000  0.000000  0.500000  1
  Ba  Ba3  1  0.807723  0.615445  0.399689  1
  Ba  Ba4  1  0.686229  0.372459  0.095172  1
  Ba  Ba5  1  0.000000  0.000000  0.000000  1
  Ce  Ce6  1  0.599844  0.199688  0.814781  1
  Ce  Ce7  1  0.400156  0.800312  0.185219  1
  Ce  Ce8  1  0.105541  0.211082  0.288019  1
  Ce  Ce9  1  0.894459  0.788918  0.711981  1
  C  C10  1  0.458736  0.917472  0.799878  1
  C  C11  1  0.047883  0.095765  0.647245  1
  C  C12  1  0.246344  0.492689  0.274999  1
  C  C13  1  0.541264  0.082528  0.200122  1
  C  C14  1  0.160484  0.320969  0.902213  1
  C  C15  1  0.839516  0.679031  0.097787  1
  C  C16  1  0.349747  0.699495  0.541104  1
  C  C17  1  0.753656  0.507311  0.725001  1
  C  C18  1  0.650253  0.300505  0.458896  1
  C  C19  1  0.952117  0.904235  0.352755  1
  O  O20  1  0.431999  0.430871  0.275079  1
  O  O21  1  0.306265  0.612529  0.279635  1
  O  O22  1  0.897794  0.795588  0.131918  1
  O  O23  1  0.705987  0.975496  0.813760  1
  O  O24  1  0.102206  0.204412  0.868082  1
  O  O25  1  0.294540  0.589079  0.496936  1
  O  O26  1  0.141220  0.844872  0.340296  1
  O  O27  1  1.001128  0.569129  0.724921  1
  O  O28  1  0.597100  0.757446  0.560322  1
  O  O29  1  0.294013  0.024504  0.186240  1
  O  O30  1  -0.001128  0.430871  0.275079  1
  O  O31  1  0.693735  0.387471  0.720365  1
  O  O32  1  0.030646  0.621985  0.083915  1
  O  O33  1  0.010198  0.020396  0.385036  1
  O  O34  1  0.730491  0.024504  0.186240  1
  O  O35  1  0.839653  0.242554  0.439678  1
  O  O36  1  0.599308  0.198616  0.233920  1
  O  O37  1  0.703652  0.844872  0.340296  1
  O  O38  1  0.402900  0.242554  0.439678  1
  O  O39  1  0.269509  0.975496  0.813760  1
  O  O40  1  0.989802  0.979604  0.614964  1
  O  O41  1  0.296348  0.155128  0.659704  1
  O  O42  1  0.705460  0.410921  0.503064  1
  O  O43  1  0.408661  0.378015  0.916085  1
  O  O44  1  0.160347  0.757446  0.560322  1
  O  O45  1  0.969354  0.378015  0.916085  1
  O  O46  1  0.591339  0.621985  0.083915  1
  O  O47  1  0.400692  0.801384  0.766080  1
  O  O48  1  0.568001  0.569129  0.724921  1
  O  O49  1  0.858780  0.155128  0.659704  1
  F  F50  1  0.573751  0.147503  0.982360  1
  F  F51  1  0.426249  0.852497  0.017640  1
  F  F52  1  0.124940  0.249880  0.115369  1
  F  F53  1  0.875060  0.750120  0.884631  1
