# generated using pymatgen
data_CsSiTe3
_symmetry_space_group_name_H-M   'P 1'
_cell_length_a   8.35938300
_cell_length_b   8.35938290
_cell_length_c   13.68171968
_cell_angle_alpha   95.45551800
_cell_angle_beta   95.45551795
_cell_angle_gamma   117.62240564
_symmetry_Int_Tables_number   1
_chemical_formula_structural   CsSiTe3
_chemical_formula_sum   'Cs4 Si4 Te12'
_cell_volume   832.70035884
_cell_formula_units_Z   4
loop_
 _symmetry_equiv_pos_site_id
 _symmetry_equiv_pos_as_xyz
  1  'x, y, z'
loop_
 _atom_site_type_symbol
 _atom_site_label
 _atom_site_symmetry_multiplicity
 _atom_site_fract_x
 _atom_site_fract_y
 _atom_site_fract_z
 _atom_site_occupancy
  Cs  Cs0  1  0.723978  0.223034  0.810484  1
  Cs  Cs1  1  0.479749  0.658758  0.586971  1
  Cs  Cs2  1  0.223034  0.723978  0.310484  1
  Cs  Cs3  1  0.658758  0.479749  0.086971  1
  Si  Si4  1  0.169175  0.056679  0.611308  1
  Si  Si5  1  0.048731  0.899667  0.867395  1
  Si  Si6  1  0.899667  0.048731  0.367395  1
  Si  Si7  1  0.056679  0.169175  0.111308  1
  Te  Te8  1  0.206783  0.197735  0.794964  1
  Te  Te9  1  0.142118  0.686693  0.775384  1
  Te  Te10  1  0.457803  0.153345  0.545209  1
  Te  Te11  1  0.968269  0.704294  0.584815  1
  Te  Te12  1  0.153345  0.457803  0.045209  1
  Te  Te13  1  0.712498  0.768031  0.867139  1
  Te  Te14  1  0.197735  0.206783  0.294964  1
  Te  Te15  1  0.768031  0.712498  0.367139  1
  Te  Te16  1  0.686693  0.142118  0.275384  1
  Te  Te17  1  0.199284  0.971374  0.048431  1
  Te  Te18  1  0.971374  0.199284  0.548431  1
  Te  Te19  1  0.704294  0.968269  0.084815  1
