# generated using pymatgen
data_NaB(CN)4
_symmetry_space_group_name_H-M   'P 1'
_cell_length_a   8.39837992
_cell_length_b   8.39837984
_cell_length_c   8.39837954
_cell_angle_alpha   59.99999699
_cell_angle_beta   59.99999733
_cell_angle_gamma   59.99999794
_symmetry_Int_Tables_number   1
_chemical_formula_structural   NaB(CN)4
_chemical_formula_sum   'Na2 B2 C8 N8'
_cell_volume   418.86252267
_cell_formula_units_Z   2
loop_
 _symmetry_equiv_pos_site_id
 _symmetry_equiv_pos_as_xyz
  1  'x, y, z'
loop_
 _atom_site_type_symbol
 _atom_site_label
 _atom_site_symmetry_multiplicity
 _atom_site_fract_x
 _atom_site_fract_y
 _atom_site_fract_z
 _atom_site_occupancy
  Na  Na0  1  0.625000  0.625000  0.625000  1
  Na  Na1  1  0.375000  0.375000  0.375000  1
  B  B2  1  0.875000  0.875000  0.875000  1
  B  B3  1  0.125000  0.125000  0.125000  1
  C  C4  1  0.797797  0.797797  0.106609  1
  C  C5  1  0.202203  0.202203  0.893391  1
  C  C6  1  0.202203  0.893391  0.202203  1
  C  C7  1  0.893391  0.202203  0.202203  1
  C  C8  1  0.797797  0.106609  0.797797  1
  C  C9  1  0.202203  0.202203  0.202203  1
  C  C10  1  0.797797  0.797797  0.797797  1
  C  C11  1  0.106609  0.797797  0.797797  1
  N  N12  1  0.258767  0.723700  0.258767  1
  N  N13  1  0.258767  0.258767  0.258767  1
  N  N14  1  0.276300  0.741233  0.741233  1
  N  N15  1  0.741233  0.741233  0.741233  1
  N  N16  1  0.723700  0.258767  0.258767  1
  N  N17  1  0.741233  0.741233  0.276300  1
  N  N18  1  0.741233  0.276300  0.741233  1
  N  N19  1  0.258767  0.258767  0.723700  1
