# generated using pymatgen
data_BaVOF4
_symmetry_space_group_name_H-M   'P 1'
_cell_length_a   5.49846707
_cell_length_b   5.49840219
_cell_length_c   14.59215667
_cell_angle_alpha   100.20140818
_cell_angle_beta   100.17823704
_cell_angle_gamma   93.51155133
_symmetry_Int_Tables_number   1
_chemical_formula_structural   BaVOF4
_chemical_formula_sum   'Ba4 V4 O4 F16'
_cell_volume   425.39964378
_cell_formula_units_Z   4
loop_
 _symmetry_equiv_pos_site_id
 _symmetry_equiv_pos_as_xyz
  1  'x, y, z'
loop_
 _atom_site_type_symbol
 _atom_site_label
 _atom_site_symmetry_multiplicity
 _atom_site_fract_x
 _atom_site_fract_y
 _atom_site_fract_z
 _atom_site_occupancy
  Ba  Ba0  1  0.816372  0.290312  0.109230  1
  Ba  Ba1  1  0.181068  0.707180  0.890787  1
  Ba  Ba2  1  0.540418  0.566383  0.609211  1
  Ba  Ba3  1  0.957176  0.931130  0.390813  1
  V  V4  1  0.070735  0.080670  0.654854  1
  V  V5  1  0.665707  0.175751  0.845114  1
  V  V6  1  0.425809  0.415809  0.345126  1
  V  V7  1  0.330569  0.820688  0.154910  1
  O  O8  1  0.402831  0.561760  0.093947  1
  O  O9  1  0.467731  0.308992  0.906062  1
  O  O10  1  0.559123  0.218056  0.406115  1
  O  O11  1  0.812013  0.153086  0.593865  1
  F  F12  1  0.278240  0.116999  0.562127  1
  F  F13  1  0.218467  0.166093  0.237169  1
  F  F14  1  0.035012  0.727646  0.597928  1
  F  F15  1  0.367133  0.028005  0.062161  1
  F  F16  1  0.129732  0.437117  0.402052  1
  F  F17  1  0.965829  0.305004  0.937869  1
  F  F18  1  0.977577  0.785140  0.097984  1
  F  F19  1  0.679857  0.496630  0.275539  1
  F  F20  1  0.686960  0.879664  0.901992  1
  F  F21  1  0.221296  0.404324  0.724437  1
  F  F22  1  0.231258  0.678905  0.262880  1
  F  F23  1  0.654163  0.971144  0.224489  1
  F  F24  1  0.416183  0.968394  0.737088  1
  F  F25  1  0.928994  0.981293  0.762808  1
  F  F26  1  0.746846  0.429757  0.775578  1
  F  F27  1  0.554900  0.716071  0.437863  1
