# generated using pymatgen
data_FeH6(CO3)2
_symmetry_space_group_name_H-M   'P 1'
_cell_length_a   7.25267249
_cell_length_b   8.87258534
_cell_length_c   9.52729730
_cell_angle_alpha   97.47510650
_cell_angle_beta   90.00000000
_cell_angle_gamma   90.00000000
_symmetry_Int_Tables_number   1
_chemical_formula_structural   FeH6(CO3)2
_chemical_formula_sum   'Fe4 H24 C8 O24'
_cell_volume   607.87087461
_cell_formula_units_Z   4
loop_
 _symmetry_equiv_pos_site_id
 _symmetry_equiv_pos_as_xyz
  1  'x, y, z'
loop_
 _atom_site_type_symbol
 _atom_site_label
 _atom_site_symmetry_multiplicity
 _atom_site_fract_x
 _atom_site_fract_y
 _atom_site_fract_z
 _atom_site_occupancy
  Fe  Fe0  1  0.000000  0.000000  0.000000  1
  Fe  Fe1  1  0.500000  0.000000  0.500000  1
  Fe  Fe2  1  0.500000  0.500000  0.000000  1
  Fe  Fe3  1  0.000000  0.500000  0.500000  1
  C  C4  1  0.776979  0.961238  0.724037  1
  C  C5  1  0.276979  0.038762  0.775963  1
  C  C6  1  0.223021  0.038762  0.275963  1
  C  C7  1  0.723021  0.961238  0.224037  1
  H  H8  1  0.710754  0.066709  0.774353  1
  H  H9  1  0.210754  0.933291  0.725647  1
  H  H10  1  0.289246  0.933291  0.225647  1
  H  H11  1  0.789246  0.066709  0.274353  1
  C  C12  1  0.384752  0.673992  0.566815  1
  C  C13  1  0.884752  0.326008  0.933185  1
  C  C14  1  0.615248  0.326008  0.433185  1
  C  C15  1  0.115248  0.673992  0.066815  1
  H  H16  1  0.526162  0.672071  0.610148  1
  H  H17  1  0.026162  0.327929  0.889852  1
  H  H18  1  0.473838  0.327929  0.389852  1
  H  H19  1  0.973838  0.672071  0.110148  1
  O  O20  1  0.895467  0.897539  0.794347  1
  O  O21  1  0.395467  0.102461  0.705653  1
  O  O22  1  0.104533  0.102461  0.205653  1
  O  O23  1  0.604533  0.897539  0.294347  1
  O  O24  1  0.729311  0.910565  0.597812  1
  O  O25  1  0.229311  0.089435  0.902188  1
  O  O26  1  0.270689  0.089435  0.402188  1
  O  O27  1  0.770689  0.910565  0.097812  1
  O  O28  1  0.280286  0.562772  0.583715  1
  O  O29  1  0.780286  0.437228  0.916285  1
  O  O30  1  0.719714  0.437228  0.416285  1
  O  O31  1  0.219714  0.562772  0.083715  1
  O  O32  1  0.339099  0.787776  0.505146  1
  O  O33  1  0.839099  0.212224  0.994854  1
  O  O34  1  0.660901  0.212224  0.494854  1
  O  O35  1  0.160901  0.787776  0.005146  1
  O  O36  1  0.520263  0.724247  0.932857  1
  O  O37  1  0.020263  0.275753  0.567143  1
  O  O38  1  0.479737  0.275753  0.067143  1
  O  O39  1  0.979737  0.724247  0.432857  1
  H  H40  1  0.609346  0.791099  0.990141  1
  H  H41  1  0.109346  0.208901  0.509859  1
  H  H42  1  0.390654  0.208901  0.009859  1
  H  H43  1  0.890654  0.791099  0.490141  1
  H  H44  1  0.394406  0.766250  0.954342  1
  H  H45  1  0.894406  0.233750  0.545658  1
  H  H46  1  0.605594  0.233750  0.045658  1
  H  H47  1  0.105594  0.766250  0.454342  1
  O  O48  1  0.890884  0.589175  0.699436  1
  O  O49  1  0.390884  0.410825  0.800564  1
  O  O50  1  0.109116  0.410825  0.300564  1
  O  O51  1  0.609116  0.589175  0.199436  1
  H  H52  1  0.901709  0.698261  0.736958  1
  H  H53  1  0.401709  0.301739  0.763042  1
  H  H54  1  0.098291  0.301739  0.263041  1
  H  H55  1  0.598291  0.698261  0.236958  1
  H  H56  1  0.852613  0.533136  0.778783  1
  H  H57  1  0.352613  0.466864  0.721217  1
  H  H58  1  0.147387  0.466864  0.221217  1
  H  H59  1  0.647387  0.533136  0.278783  1
