# generated using pymatgen
data_AsP3H18C6(SO)6
_symmetry_space_group_name_H-M   'P 1'
_cell_length_a   8.63282991
_cell_length_b   9.28752030
_cell_length_c   15.15940459
_cell_angle_alpha   80.97972555
_cell_angle_beta   75.97627192
_cell_angle_gamma   87.39783001
_symmetry_Int_Tables_number   1
_chemical_formula_structural   AsP3H18C6(SO)6
_chemical_formula_sum   'As2 P6 H36 C12 S12 O12'
_cell_volume   1164.60035487
_cell_formula_units_Z   2
loop_
 _symmetry_equiv_pos_site_id
 _symmetry_equiv_pos_as_xyz
  1  'x, y, z'
loop_
 _atom_site_type_symbol
 _atom_site_label
 _atom_site_symmetry_multiplicity
 _atom_site_fract_x
 _atom_site_fract_y
 _atom_site_fract_z
 _atom_site_occupancy
  As  As0  1  0.496145  0.204361  0.265429  1
  As  As1  1  0.503855  0.795639  0.734571  1
  P  P2  1  0.237518  0.554068  0.841043  1
  P  P3  1  0.257775  0.274255  0.456215  1
  P  P4  1  0.742225  0.725745  0.543785  1
  P  P5  1  0.457710  0.929871  0.165416  1
  P  P6  1  0.542290  0.070129  0.834584  1
  P  P7  1  0.762482  0.445932  0.158957  1
  H  H8  1  0.769898  0.019952  0.051749  1
  H  H9  1  0.294221  0.007140  0.580970  1
  H  H10  1  0.143938  0.644081  0.453668  1
  H  H11  1  0.348272  0.580799  0.434972  1
  H  H12  1  0.705779  0.992860  0.419030  1
  H  H13  1  0.856062  0.355919  0.546332  1
  H  H14  1  0.201158  0.139659  0.868880  1
  H  H15  1  0.643511  0.449086  0.994710  1
  H  H16  1  0.816628  0.538931  0.918854  1
  H  H17  1  0.143174  0.828855  0.273816  1
  H  H18  1  0.193775  0.965497  0.497141  1
  H  H19  1  0.230102  0.980048  0.948251  1
  H  H20  1  0.356489  0.550914  0.005290  1
  H  H21  1  0.183372  0.461069  0.081146  1
  H  H22  1  0.798842  0.860341  0.131120  1
  H  H23  1  0.068916  0.816510  0.174193  1
  H  H24  1  0.083275  0.970334  0.613453  1
  H  H25  1  0.856826  0.171145  0.726184  1
  H  H26  1  0.184086  0.154296  0.987482  1
  H  H27  1  0.651728  0.419201  0.565028  1
  H  H28  1  0.806225  0.034503  0.502859  1
  H  H29  1  0.916725  0.029666  0.386547  1
  H  H30  1  0.833675  0.356211  0.976205  1
  H  H31  1  0.117160  0.360060  0.687086  1
  H  H32  1  0.767236  0.437975  0.646603  1
  H  H33  1  0.931084  0.183490  0.825807  1
  H  H34  1  0.166325  0.643789  0.023795  1
  H  H35  1  0.300821  0.457301  0.663486  1
  H  H36  1  0.699179  0.542699  0.336514  1
  H  H37  1  0.886840  0.444524  0.321959  1
  H  H38  1  0.884259  0.008360  0.802892  1
  H  H39  1  0.232764  0.562025  0.353397  1
  H  H40  1  0.113160  0.555476  0.678041  1
  H  H41  1  0.115741  0.991640  0.197108  1
  H  H42  1  0.815914  0.845704  0.012519  1
  H  H43  1  0.882840  0.639940  0.312914  1
  C  C44  1  0.226760  0.537906  0.018170  1
  C  C45  1  0.817771  0.981409  0.441623  1
  C  C46  1  0.174295  0.454806  0.700051  1
  C  C47  1  0.754115  0.901359  0.069886  1
  C  C48  1  0.245885  0.098641  0.930114  1
  C  C49  1  0.771334  0.438643  0.573536  1
  C  C50  1  0.773240  0.462094  0.981830  1
  C  C51  1  0.850934  0.124536  0.798150  1
  C  C52  1  0.149066  0.875464  0.201850  1
  C  C53  1  0.228666  0.561357  0.426464  1
  C  C54  1  0.825705  0.545194  0.299949  1
  C  C55  1  0.182229  0.018591  0.558377  1
  S  S56  1  0.557814  0.847087  0.872392  1
  S  S57  1  0.517589  0.457879  0.204100  1
  S  S58  1  0.482411  0.542121  0.795900  1
  S  S59  1  0.485061  0.262186  0.454877  1
  S  S60  1  0.160286  0.755372  0.817184  1
  S  S61  1  0.839714  0.244628  0.182816  1
  S  S62  1  0.488390  0.882097  0.290733  1
  S  S63  1  0.511610  0.117903  0.709267  1
  S  S64  1  0.442186  0.152913  0.127608  1
  S  S65  1  0.514939  0.737814  0.545123  1
  S  S66  1  0.217088  0.233558  0.333504  1
  S  S67  1  0.782912  0.766442  0.666496  1
  O  O68  1  0.187225  0.474143  0.945036  1
  O  O69  1  0.141482  0.171817  0.538697  1
  O  O70  1  0.812775  0.525857  0.054964  1
  O  O71  1  0.158909  0.436019  0.798764  1
  O  O72  1  0.307327  0.856362  0.145425  1
  O  O73  1  0.412904  0.134858  0.913496  1
  O  O74  1  0.858518  0.828183  0.461303  1
  O  O75  1  0.692673  0.143638  0.854575  1
  O  O76  1  0.587096  0.865142  0.086504  1
  O  O77  1  0.841091  0.563981  0.201236  1
  O  O78  1  0.168078  0.423151  0.479921  1
  O  O79  1  0.831922  0.576849  0.520079  1
