# generated using pymatgen
data_K3Mn(CN)6
_symmetry_space_group_name_H-M   'P 1'
_cell_length_a   7.19846947
_cell_length_b   8.44847541
_cell_length_c   10.67141345
_cell_angle_alpha   90.00000000
_cell_angle_beta   90.00000000
_cell_angle_gamma   106.97092206
_symmetry_Int_Tables_number   1
_chemical_formula_structural   K3Mn(CN)6
_chemical_formula_sum   'K6 Mn2 C12 N12'
_cell_volume   620.73194658
_cell_formula_units_Z   2
loop_
 _symmetry_equiv_pos_site_id
 _symmetry_equiv_pos_as_xyz
  1  'x, y, z'
loop_
 _atom_site_type_symbol
 _atom_site_label
 _atom_site_symmetry_multiplicity
 _atom_site_fract_x
 _atom_site_fract_y
 _atom_site_fract_z
 _atom_site_occupancy
  Mn  Mn0  1  0.000000  0.000000  0.000000  1
  Mn  Mn1  1  0.000000  0.500000  0.500000  1
  K  K2  1  0.000000  0.500000  0.000000  1
  K  K3  1  0.000000  0.000000  0.500000  1
  K  K4  1  0.500088  0.376161  0.772504  1
  K  K5  1  0.499912  0.123839  0.272504  1
  K  K6  1  0.499912  0.623839  0.227496  1
  K  K7  1  0.500088  0.876161  0.727496  1
  C  C8  1  0.122086  0.030347  0.832950  1
  C  C9  1  0.877914  0.469653  0.332950  1
  C  C10  1  0.877914  0.969653  0.167050  1
  C  C11  1  0.122086  0.530347  0.667050  1
  C  C12  1  0.815106  0.791086  0.945093  1
  C  C13  1  0.184894  0.708914  0.445093  1
  C  C14  1  0.184894  0.208914  0.054907  1
  C  C15  1  0.815106  0.291086  0.554907  1
  C  C16  1  0.813717  0.115739  0.944255  1
  C  C17  1  0.186283  0.384261  0.444255  1
  C  C18  1  0.186283  0.884261  0.055745  1
  C  C19  1  0.813717  0.615739  0.555745  1
  N  N20  1  0.199896  0.049460  0.734652  1
  N  N21  1  0.800104  0.450540  0.234652  1
  N  N22  1  0.800104  0.950540  0.265348  1
  N  N23  1  0.199896  0.549460  0.765348  1
  N  N24  1  0.706904  0.664119  0.912649  1
  N  N25  1  0.293096  0.835881  0.412649  1
  N  N26  1  0.293096  0.335881  0.087351  1
  N  N27  1  0.706904  0.164119  0.587351  1
  N  N28  1  0.704896  0.187619  0.910569  1
  N  N29  1  0.295104  0.312381  0.410569  1
  N  N30  1  0.295104  0.812381  0.089431  1
  N  N31  1  0.704896  0.687619  0.589431  1
