# generated using pymatgen
data_MgAl6O10
_symmetry_space_group_name_H-M   'P 1'
_cell_length_a   5.68016163
_cell_length_b   5.73061083
_cell_length_c   28.58488583
_cell_angle_alpha   59.92165563
_cell_angle_beta   59.78231320
_cell_angle_gamma   59.70366511
_symmetry_Int_Tables_number   1
_chemical_formula_structural   MgAl6O10
_chemical_formula_sum   'Mg4 Al24 O40'
_cell_volume   654.98114594
_cell_formula_units_Z   4
loop_
 _symmetry_equiv_pos_site_id
 _symmetry_equiv_pos_as_xyz
  1  'x, y, z'
loop_
 _atom_site_type_symbol
 _atom_site_label
 _atom_site_symmetry_multiplicity
 _atom_site_fract_x
 _atom_site_fract_y
 _atom_site_fract_z
 _atom_site_occupancy
  Al  Al0  1  0.131260  0.117415  0.026778  1
  Al  Al1  1  0.497949  0.998736  0.101245  1
  Al  Al2  1  0.465184  0.500410  0.006798  1
  Al  Al3  1  0.497922  0.497111  0.101241  1
  Al  Al4  1  0.498657  0.004613  0.299892  1
  Al  Al5  1  0.520968  0.492322  0.198889  1
  Al  Al6  1  0.134055  0.118310  0.425860  1
  Al  Al7  1  0.498687  0.497208  0.299894  1
  Al  Al8  1  0.501657  1.000742  0.499638  1
  Al  Al9  1  0.468292  0.502064  0.405509  1
  Al  Al10  1  0.862095  0.881955  0.174814  1
  Al  Al11  1  0.501737  0.499340  0.499642  1
  Al  Al12  1  0.004281  0.497837  0.300004  1
  Al  Al13  1  0.502716  0.004920  0.698450  1
  Al  Al14  1  0.524499  0.493979  0.597490  1
  Al  Al15  1  0.856862  0.876209  0.378125  1
  Al  Al16  1  0.502769  0.500138  0.698439  1
  Al  Al17  1  0.501754  0.501863  0.798900  1
  Al  Al18  1  0.866151  0.884103  0.573135  1
  Al  Al19  1  0.496735  0.001641  0.900911  1
  Al  Al20  1  0.008609  0.500079  0.698252  1
  Al  Al21  1  0.496743  0.497047  0.900913  1
  Al  Al22  1  0.997631  0.498047  0.901261  1
  Al  Al23  1  0.852665  0.872455  0.980478  1
  Mg  Mg24  1  0.145183  0.128497  0.219567  1
  Mg  Mg25  1  0.148831  0.131687  0.617553  1
  Mg  Mg26  1  0.127281  0.123320  0.825229  1
  Mg  Mg27  1  0.875126  0.878877  0.773426  1
  O  O28  1  0.287028  0.238867  0.045956  1
  O  O29  1  0.291530  0.259384  0.137944  1
  O  O30  1  0.287049  0.744318  0.045956  1
  O  O31  1  0.741245  0.259813  0.047822  1
  O  O32  1  0.260024  0.260679  0.255027  1
  O  O33  1  0.261307  0.743369  0.150407  1
  O  O34  1  0.719757  0.751404  0.055489  1
  O  O35  1  0.260004  0.704166  0.255030  1
  O  O36  1  0.711307  0.259515  0.154572  1
  O  O37  1  0.256613  0.255625  0.346424  1
  O  O38  1  0.715075  0.256510  0.254376  1
  O  O39  1  0.711346  0.756312  0.154578  1
  O  O40  1  0.266915  0.745735  0.348321  1
  O  O41  1  0.289656  0.240859  0.444795  1
  O  O42  1  0.739316  0.740712  0.255844  1
  O  O43  1  0.745273  0.277538  0.346443  1
  O  O44  1  0.295336  0.261685  0.536260  1
  O  O45  1  0.289676  0.745500  0.444796  1
  O  O46  1  0.744398  0.261433  0.446552  1
  O  O47  1  0.745245  0.744945  0.346440  1
  O  O48  1  0.265785  0.745294  0.548732  1
  O  O49  1  0.261551  0.260867  0.653759  1
  O  O50  1  0.724178  0.754873  0.453216  1
  O  O51  1  0.714544  0.261996  0.553072  1
  O  O52  1  0.265960  0.259715  0.742935  1
  O  O53  1  0.261568  0.708784  0.653757  1
  O  O54  1  0.720467  0.256842  0.653167  1
  O  O55  1  0.714553  0.758109  0.553066  1
  O  O56  1  0.292368  0.735632  0.747278  1
  O  O57  1  0.259985  0.261875  0.854634  1
  O  O58  1  0.747158  0.743112  0.653331  1
  O  O59  1  0.259986  0.705014  0.854636  1
  O  O60  1  0.736382  0.292846  0.747367  1
  O  O61  1  0.252914  0.256205  0.946936  1
  O  O62  1  0.705897  0.260793  0.854498  1
  O  O63  1  0.736369  0.733922  0.747374  1
  O  O64  1  0.260098  0.744503  0.950182  1
  O  O65  1  0.727883  0.734304  0.860700  1
  O  O66  1  0.743985  0.271295  0.947996  1
  O  O67  1  0.743970  0.744721  0.947999  1
