# generated using pymatgen
data_Nd(AlGa)2
_symmetry_space_group_name_H-M   'P 1'
_cell_length_a   4.22567528
_cell_length_b   4.22566403
_cell_length_c   6.35644127
_cell_angle_alpha   109.48854745
_cell_angle_beta   109.48852532
_cell_angle_gamma   89.95965280
_symmetry_Int_Tables_number   1
_chemical_formula_structural   Nd(AlGa)2
_chemical_formula_sum   'Nd1 Al2 Ga2'
_cell_volume   100.08532406
_cell_formula_units_Z   1
loop_
 _symmetry_equiv_pos_site_id
 _symmetry_equiv_pos_as_xyz
  1  'x, y, z'
loop_
 _atom_site_type_symbol
 _atom_site_label
 _atom_site_symmetry_multiplicity
 _atom_site_fract_x
 _atom_site_fract_y
 _atom_site_fract_z
 _atom_site_occupancy
  Nd  Nd0  1  0.000000  0.000000  0.000000  1
  Al  Al1  1  0.250063  0.749937  0.500000  1
  Al  Al2  1  0.749937  0.250063  0.500000  1
  Ga  Ga3  1  0.611750  0.611750  0.223548  1
  Ga  Ga4  1  0.388250  0.388250  0.776452  1
