# generated using pymatgen
data_TaH20C6N3Cl4
_symmetry_space_group_name_H-M   'P 1'
_cell_length_a   8.88406332
_cell_length_b   10.43443588
_cell_length_c   18.47084771
_cell_angle_alpha   90.00000000
_cell_angle_beta   90.00000000
_cell_angle_gamma   106.62133627
_symmetry_Int_Tables_number   1
_chemical_formula_structural   TaH20C6N3Cl4
_chemical_formula_sum   'Ta4 H80 C24 N12 Cl16'
_cell_volume   1640.70658194
_cell_formula_units_Z   4
loop_
 _symmetry_equiv_pos_site_id
 _symmetry_equiv_pos_as_xyz
  1  'x, y, z'
loop_
 _atom_site_type_symbol
 _atom_site_label
 _atom_site_symmetry_multiplicity
 _atom_site_fract_x
 _atom_site_fract_y
 _atom_site_fract_z
 _atom_site_occupancy
  Ta  Ta0  1  0.764570  0.718199  0.377548  1
  Ta  Ta1  1  0.735430  0.781801  0.877548  1
  Ta  Ta2  1  0.235430  0.281801  0.622452  1
  Ta  Ta3  1  0.264570  0.218199  0.122452  1
  H  H4  1  0.667353  0.424602  0.675160  1
  H  H5  1  0.341499  0.555811  0.420572  1
  H  H6  1  0.952731  0.904938  0.190864  1
  H  H7  1  0.838255  0.664261  0.183031  1
  H  H8  1  0.950761  0.181699  0.483367  1
  H  H9  1  0.143207  0.637013  0.090559  1
  H  H10  1  0.325596  0.893944  0.497329  1
  H  H11  1  0.372280  0.555337  0.071010  1
  H  H12  1  0.332647  0.575398  0.324840  1
  H  H13  1  0.174404  0.606056  0.997329  1
  H  H14  1  0.302599  0.998105  0.284310  1
  H  H15  1  0.356793  0.862987  0.590559  1
  H  H16  1  0.509586  0.614702  0.596945  1
  H  H17  1  0.080621  0.782352  0.880807  1
  H  H18  1  0.850801  0.075689  0.839828  1
  H  H19  1  0.091482  0.683657  0.344730  1
  H  H20  1  0.825596  0.393944  0.002671  1
  H  H21  1  0.591482  0.183657  0.155270  1
  H  H22  1  0.593714  0.207448  0.250844  1
  H  H23  1  0.856793  0.362987  0.909441  1
  H  H24  1  0.381591  0.699233  0.173578  1
  H  H25  1  0.337785  0.412451  0.768565  1
  H  H26  1  0.571270  0.723801  0.133338  1
  H  H27  1  0.463970  0.957572  0.785139  1
  H  H28  1  0.167353  0.924602  0.824840  1
  H  H29  1  0.009586  0.114702  0.903055  1
  H  H30  1  0.233352  0.774644  0.031501  1
  H  H31  1  0.071270  0.223801  0.366662  1
  H  H32  1  0.406286  0.792552  0.749156  1
  H  H33  1  0.618409  0.300767  0.826422  1
  H  H34  1  0.841499  0.055811  0.079428  1
  H  H35  1  0.962403  0.341110  0.384527  1
  H  H36  1  0.627720  0.444663  0.928990  1
  H  H37  1  0.802599  0.498105  0.215690  1
  H  H38  1  0.766648  0.225356  0.968499  1
  H  H39  1  0.037597  0.658890  0.615473  1
  H  H40  1  0.197401  0.501895  0.784310  1
  H  H41  1  0.928730  0.776199  0.633338  1
  H  H42  1  0.162215  0.087549  0.268565  1
  H  H43  1  0.733352  0.274644  0.468499  1
  H  H44  1  0.643207  0.137013  0.409441  1
  H  H45  1  0.908518  0.316343  0.655270  1
  H  H46  1  0.490414  0.385298  0.403055  1
  H  H47  1  0.266648  0.725356  0.531501  1
  H  H48  1  0.419379  0.717648  0.380807  1
  H  H49  1  0.462403  0.841110  0.115473  1
  H  H50  1  0.906286  0.292552  0.750844  1
  H  H51  1  0.118409  0.800767  0.673578  1
  H  H52  1  0.649199  0.424311  0.339828  1
  H  H53  1  0.350801  0.575689  0.660172  1
  H  H54  1  0.161745  0.335739  0.816969  1
  H  H55  1  0.661745  0.835739  0.683031  1
  H  H56  1  0.452731  0.404938  0.309136  1
  H  H57  1  0.149199  0.924311  0.160172  1
  H  H58  1  0.658501  0.444189  0.579428  1
  H  H59  1  0.127720  0.944663  0.571010  1
  H  H60  1  0.549239  0.318301  0.983367  1
  H  H61  1  0.428730  0.276199  0.866662  1
  H  H62  1  0.047269  0.095062  0.809136  1
  H  H63  1  0.408518  0.816343  0.844730  1
  H  H64  1  0.990414  0.885298  0.096945  1
  H  H65  1  0.963970  0.457572  0.714861  1
  H  H66  1  0.547269  0.595062  0.690864  1
  H  H67  1  0.697401  0.001895  0.715690  1
  H  H68  1  0.837785  0.912451  0.731435  1
  H  H69  1  0.158501  0.944189  0.920572  1
  H  H70  1  0.036030  0.542428  0.285139  1
  H  H71  1  0.537597  0.158890  0.884527  1
  H  H72  1  0.536030  0.042428  0.214861  1
  H  H73  1  0.049239  0.818301  0.516633  1
  H  H74  1  0.881591  0.199233  0.326422  1
  H  H75  1  0.832647  0.075398  0.175160  1
  H  H76  1  0.662215  0.587549  0.231435  1
  H  H77  1  0.674404  0.106056  0.502671  1
  H  H78  1  0.093714  0.707448  0.249156  1
  H  H79  1  0.580621  0.282352  0.619193  1
  H  H80  1  0.338255  0.164261  0.316969  1
  H  H81  1  0.450761  0.681699  0.016633  1
  H  H82  1  0.919379  0.217648  0.119193  1
  H  H83  1  0.872280  0.055337  0.428990  1
  C  C84  1  0.787921  0.597107  0.228612  1
  C  C85  1  0.287921  0.097107  0.271388  1
  C  C86  1  0.404963  0.610747  0.373456  1
  C  C87  1  0.278976  0.830497  0.543984  1
  C  C88  1  0.969623  0.354479  0.705650  1
  C  C89  1  0.595037  0.389253  0.626544  1
  C  C90  1  0.778976  0.330497  0.956016  1
  C  C91  1  0.545987  0.264081  0.874268  1
  C  C92  1  0.469623  0.854479  0.794350  1
  C  C93  1  0.095037  0.889253  0.873456  1
  C  C94  1  0.904963  0.110747  0.126544  1
  C  C95  1  0.212079  0.402893  0.771388  1
  C  C96  1  0.963052  0.057741  0.853549  1
  C  C97  1  0.221024  0.669503  0.043984  1
  C  C98  1  0.045987  0.764081  0.625732  1
  C  C99  1  0.454013  0.735919  0.125732  1
  C  C100  1  0.030377  0.645521  0.294350  1
  C  C101  1  0.712079  0.902893  0.728612  1
  C  C102  1  0.463052  0.557741  0.646451  1
  C  C103  1  0.036948  0.942259  0.146451  1
  C  C104  1  0.530377  0.145521  0.205650  1
  C  C105  1  0.536948  0.442259  0.353549  1
  C  C106  1  0.721024  0.169503  0.456016  1
  C  C107  1  0.954013  0.235919  0.374268  1
  N  N108  1  0.379070  0.655262  0.061937  1
  N  N109  1  0.442740  0.415036  0.634867  1
  N  N110  1  0.367313  0.148425  0.203565  1
  N  N111  1  0.557260  0.584964  0.365133  1
  N  N112  1  0.120930  0.844738  0.561937  1
  N  N113  1  0.867313  0.648425  0.296435  1
  N  N114  1  0.057260  0.084964  0.134867  1
  N  N115  1  0.879070  0.155262  0.438063  1
  N  N116  1  0.632687  0.851575  0.796435  1
  N  N117  1  0.620930  0.344738  0.938063  1
  N  N118  1  0.132687  0.351575  0.703565  1
  N  N119  1  0.942740  0.915036  0.865133  1
  Cl  Cl120  1  0.519274  0.403702  0.101753  1
  Cl  Cl121  1  0.367674  0.086618  0.038034  1
  Cl  Cl122  1  0.172226  0.315088  0.013487  1
  Cl  Cl123  1  0.480726  0.596298  0.898247  1
  Cl  Cl124  1  0.019274  0.903702  0.398247  1
  Cl  Cl125  1  0.867674  0.586618  0.461966  1
  Cl  Cl126  1  0.185623  0.381583  0.194778  1
  Cl  Cl127  1  0.685623  0.881583  0.305222  1
  Cl  Cl128  1  0.132326  0.413382  0.538034  1
  Cl  Cl129  1  0.814377  0.618417  0.805222  1
  Cl  Cl130  1  0.980726  0.096298  0.601753  1
  Cl  Cl131  1  0.632326  0.913382  0.961966  1
  Cl  Cl132  1  0.327774  0.184913  0.513487  1
  Cl  Cl133  1  0.314377  0.118417  0.694778  1
  Cl  Cl134  1  0.672226  0.815087  0.486513  1
  Cl  Cl135  1  0.827774  0.684913  0.986513  1
