# generated using pymatgen
data_Ca(Ni2Sn)2
_symmetry_space_group_name_H-M   'P 1'
_cell_length_a   6.72195608
_cell_length_b   6.72195584
_cell_length_c   6.72195626
_cell_angle_alpha   107.95993841
_cell_angle_beta   110.23210714
_cell_angle_gamma   110.23211041
_symmetry_Int_Tables_number   1
_chemical_formula_structural   Ca(Ni2Sn)2
_chemical_formula_sum   'Ca2 Ni8 Sn4'
_cell_volume   233.68946934
_cell_formula_units_Z   2
loop_
 _symmetry_equiv_pos_site_id
 _symmetry_equiv_pos_as_xyz
  1  'x, y, z'
loop_
 _atom_site_type_symbol
 _atom_site_label
 _atom_site_symmetry_multiplicity
 _atom_site_fract_x
 _atom_site_fract_y
 _atom_site_fract_z
 _atom_site_occupancy
  Sn  Sn0  1  0.500000  0.158493  0.341507  1
  Sn  Sn1  1  0.183014  0.341507  0.841507  1
  Sn  Sn2  1  0.816986  0.658493  0.158493  1
  Sn  Sn3  1  0.500000  0.841507  0.658493  1
  Ni  Ni4  1  0.500000  0.474473  0.695336  1
  Ni  Ni5  1  0.220863  0.695336  0.195336  1
  Ni  Ni6  1  0.779137  0.974473  0.474473  1
  Ni  Ni7  1  0.779137  0.304664  0.804664  1
  Ni  Ni8  1  0.220863  0.025527  0.525527  1
  Ni  Ni9  1  0.500000  0.195336  0.974473  1
  Ni  Ni10  1  0.500000  0.804664  0.025527  1
  Ni  Ni11  1  0.500000  0.525527  0.304664  1
  Ca  Ca12  1  0.000000  0.250000  0.250000  1
  Ca  Ca13  1  0.000000  0.750000  0.750000  1
