# generated using pymatgen
data_La5Sb4(O4F)3
_symmetry_space_group_name_H-M   'P 1'
_cell_length_a   11.62368364
_cell_length_b   12.29337369
_cell_length_c   12.29337369
_cell_angle_alpha   90.00000000
_cell_angle_beta   90.00000000
_cell_angle_gamma   90.00000000
_symmetry_Int_Tables_number   1
_chemical_formula_structural   La5Sb4(O4F)3
_chemical_formula_sum   'La20 Sb16 O48 F12'
_cell_volume   1756.65286384
_cell_formula_units_Z   4
loop_
 _symmetry_equiv_pos_site_id
 _symmetry_equiv_pos_as_xyz
  1  'x, y, z'
loop_
 _atom_site_type_symbol
 _atom_site_label
 _atom_site_symmetry_multiplicity
 _atom_site_fract_x
 _atom_site_fract_y
 _atom_site_fract_z
 _atom_site_occupancy
  La  La0  1  0.605073  0.078876  0.397885  1
  La  La1  1  0.105073  0.102115  0.421124  1
  La  La2  1  0.894927  0.578876  0.602115  1
  La  La3  1  0.351272  0.250000  0.250000  1
  La  La4  1  0.394927  0.897885  0.921124  1
  La  La5  1  0.605073  0.397885  0.421124  1
  La  La6  1  0.894927  0.921124  0.897885  1
  La  La7  1  0.851272  0.250000  0.250000  1
  La  La8  1  0.648728  0.750000  0.750000  1
  La  La9  1  0.394927  0.578876  0.897885  1
  La  La10  1  0.894927  0.602115  0.921124  1
  La  La11  1  0.394927  0.921124  0.602115  1
  La  La12  1  0.605073  0.102115  0.078876  1
  La  La13  1  0.105073  0.397885  0.078876  1
  La  La14  1  0.894927  0.897885  0.578876  1
  La  La15  1  0.605073  0.421124  0.102115  1
  La  La16  1  0.105073  0.078876  0.102115  1
  La  La17  1  0.105073  0.421124  0.397885  1
  La  La18  1  0.148728  0.750000  0.750000  1
  La  La19  1  0.394927  0.602115  0.578876  1
  Sb  Sb20  1  0.129260  0.736140  0.049255  1
  Sb  Sb21  1  0.870740  0.549255  0.263860  1
  Sb  Sb22  1  0.129260  0.763860  0.450745  1
  Sb  Sb23  1  0.370740  0.549255  0.236140  1
  Sb  Sb24  1  0.629260  0.763860  0.049255  1
  Sb  Sb25  1  0.370740  0.950745  0.263860  1
  Sb  Sb26  1  0.629260  0.736140  0.450745  1
  Sb  Sb27  1  0.870740  0.236140  0.549255  1
  Sb  Sb28  1  0.370740  0.263860  0.549255  1
  Sb  Sb29  1  0.129260  0.049255  0.763860  1
  Sb  Sb30  1  0.870740  0.950745  0.236140  1
  Sb  Sb31  1  0.629260  0.049255  0.736140  1
  Sb  Sb32  1  0.129260  0.450745  0.736140  1
  Sb  Sb33  1  0.870740  0.263860  0.950745  1
  Sb  Sb34  1  0.629260  0.450745  0.763860  1
  Sb  Sb35  1  0.370740  0.236140  0.950745  1
  O  O36  1  0.257074  0.558729  0.723561  1
  O  O37  1  0.742926  0.276439  0.058729  1
  O  O38  1  0.026112  0.923453  0.729078  1
  O  O39  1  0.757074  0.776439  0.941271  1
  O  O40  1  0.063008  0.587784  0.050432  1
  O  O41  1  0.742926  0.223561  0.441271  1
  O  O42  1  0.063008  0.449568  0.587784  1
  O  O43  1  0.242926  0.276439  0.441271  1
  O  O44  1  0.757074  0.723561  0.558729  1
  O  O45  1  0.473888  0.229078  0.423453  1
  O  O46  1  0.742926  0.441271  0.276439  1
  O  O47  1  0.526112  0.770922  0.576547  1
  O  O48  1  0.563008  0.050432  0.587784  1
  O  O49  1  0.563008  0.912216  0.050432  1
  O  O50  1  0.063008  0.050432  0.912216  1
  O  O51  1  0.063008  0.912216  0.449568  1
  O  O52  1  0.973888  0.076547  0.270922  1
  O  O53  1  0.563008  0.587784  0.449568  1
  O  O54  1  0.526112  0.923453  0.770922  1
  O  O55  1  0.526112  0.729078  0.923453  1
  O  O56  1  0.242926  0.441271  0.223561  1
  O  O57  1  0.973888  0.270922  0.423453  1
  O  O58  1  0.563008  0.449568  0.912216  1
  O  O59  1  0.936992  0.087784  0.550432  1
  O  O60  1  0.742926  0.058729  0.223561  1
  O  O61  1  0.473888  0.076547  0.229078  1
  O  O62  1  0.436992  0.412216  0.550432  1
  O  O63  1  0.473888  0.270922  0.076547  1
  O  O64  1  0.757074  0.558729  0.776439  1
  O  O65  1  0.526112  0.576547  0.729078  1
  O  O66  1  0.973888  0.423453  0.229078  1
  O  O67  1  0.936992  0.412216  0.949568  1
  O  O68  1  0.242926  0.058729  0.276439  1
  O  O69  1  0.257074  0.723561  0.941271  1
  O  O70  1  0.436992  0.550432  0.087784  1
  O  O71  1  0.757074  0.941271  0.723561  1
  O  O72  1  0.242926  0.223561  0.058729  1
  O  O73  1  0.026112  0.770922  0.923453  1
  O  O74  1  0.973888  0.229078  0.076547  1
  O  O75  1  0.257074  0.776439  0.558729  1
  O  O76  1  0.257074  0.941271  0.776439  1
  O  O77  1  0.436992  0.949568  0.412216  1
  O  O78  1  0.026112  0.729078  0.576547  1
  O  O79  1  0.026112  0.576547  0.770922  1
  O  O80  1  0.936992  0.550432  0.412216  1
  O  O81  1  0.473888  0.423453  0.270922  1
  O  O82  1  0.436992  0.087784  0.949568  1
  O  O83  1  0.936992  0.949568  0.087784  1
  F  F84  1  0.369501  0.750000  0.750000  1
  F  F85  1  0.750000  0.555186  0.055186  1
  F  F86  1  0.750000  0.444814  0.555186  1
  F  F87  1  0.869501  0.750000  0.750000  1
  F  F88  1  0.130499  0.250000  0.250000  1
  F  F89  1  0.250000  0.055186  0.555186  1
  F  F90  1  0.250000  0.944814  0.055186  1
  F  F91  1  0.250000  0.444814  0.944814  1
  F  F92  1  0.750000  0.055186  0.944814  1
  F  F93  1  0.630499  0.250000  0.250000  1
  F  F94  1  0.250000  0.555186  0.444814  1
  F  F95  1  0.750000  0.944814  0.444814  1
