# generated using pymatgen
data_CsOsNO3
_symmetry_space_group_name_H-M   'P 1'
_cell_length_a   7.46518425
_cell_length_b   8.30617329
_cell_length_c   8.61371301
_cell_angle_alpha   90.00000000
_cell_angle_beta   90.00000000
_cell_angle_gamma   90.00000000
_symmetry_Int_Tables_number   1
_chemical_formula_structural   CsOsNO3
_chemical_formula_sum   'Cs4 Os4 N4 O12'
_cell_volume   534.11148477
_cell_formula_units_Z   4
loop_
 _symmetry_equiv_pos_site_id
 _symmetry_equiv_pos_as_xyz
  1  'x, y, z'
loop_
 _atom_site_type_symbol
 _atom_site_label
 _atom_site_symmetry_multiplicity
 _atom_site_fract_x
 _atom_site_fract_y
 _atom_site_fract_z
 _atom_site_occupancy
  Cs  Cs0  1  0.250000  0.153155  0.631130  1
  Cs  Cs1  1  0.750000  0.846845  0.368870  1
  Cs  Cs2  1  0.250000  0.346845  0.131130  1
  Cs  Cs3  1  0.750000  0.653155  0.868870  1
  Os  Os4  1  0.750000  0.156453  0.880071  1
  Os  Os5  1  0.250000  0.656453  0.619929  1
  Os  Os6  1  0.750000  0.343547  0.380071  1
  Os  Os7  1  0.250000  0.843547  0.119929  1
  N  N8  1  0.750000  0.044881  0.714086  1
  N  N9  1  0.750000  0.455119  0.214086  1
  N  N10  1  0.250000  0.955119  0.285914  1
  N  N11  1  0.250000  0.544881  0.785914  1
  O  O12  1  0.750000  0.021705  0.038192  1
  O  O13  1  0.555590  0.277925  0.879043  1
  O  O14  1  0.250000  0.521705  0.461808  1
  O  O15  1  0.944410  0.222075  0.379043  1
  O  O16  1  0.055590  0.722075  0.120957  1
  O  O17  1  0.444410  0.722075  0.120957  1
  O  O18  1  0.250000  0.978295  0.961808  1
  O  O19  1  0.944410  0.277925  0.879043  1
  O  O20  1  0.055590  0.777925  0.620957  1
  O  O21  1  0.555590  0.222075  0.379043  1
  O  O22  1  0.750000  0.478295  0.538192  1
  O  O23  1  0.444410  0.777925  0.620957  1
