# generated using pymatgen
data_BiAsPbO5
_symmetry_space_group_name_H-M   'P 1'
_cell_length_a   5.62470271
_cell_length_b   7.24256978
_cell_length_c   7.26659078
_cell_angle_alpha   110.01920230
_cell_angle_beta   112.76786028
_cell_angle_gamma   89.98795226
_symmetry_Int_Tables_number   1
_chemical_formula_structural   BiAsPbO5
_chemical_formula_sum   'Bi2 As2 Pb2 O10'
_cell_volume   253.45623447
_cell_formula_units_Z   2
loop_
 _symmetry_equiv_pos_site_id
 _symmetry_equiv_pos_as_xyz
  1  'x, y, z'
loop_
 _atom_site_type_symbol
 _atom_site_label
 _atom_site_symmetry_multiplicity
 _atom_site_fract_x
 _atom_site_fract_y
 _atom_site_fract_z
 _atom_site_occupancy
  Bi  Bi0  1  0.013488  0.249882  0.026896  1
  Bi  Bi1  1  0.986512  0.750118  0.973104  1
  As  As2  1  0.664776  0.651708  0.329619  1
  As  As3  1  0.335224  0.348292  0.670381  1
  Pb  Pb4  1  0.337995  0.879857  0.675624  1
  Pb  Pb5  1  0.662005  0.120143  0.324376  1
  O  O6  1  0.198242  0.295095  0.396521  1
  O  O7  1  0.393967  0.773054  0.283615  1
  O  O8  1  0.801758  0.704905  0.603479  1
  O  O9  1  0.591041  0.401448  0.182001  1
  O  O10  1  0.110520  0.226979  0.716455  1
  O  O11  1  0.889480  0.773021  0.283545  1
  O  O12  1  0.236060  0.999964  0.999990  1
  O  O13  1  0.763940  0.000036  0.000010  1
  O  O14  1  0.408959  0.598552  0.817999  1
  O  O15  1  0.606033  0.226946  0.716385  1
