# generated using pymatgen
data_VCl4
_symmetry_space_group_name_H-M   'P 1'
_cell_length_a   6.59860811
_cell_length_b   13.46843245
_cell_length_c   12.86445276
_cell_angle_alpha   118.45837290
_cell_angle_beta   90.00000000
_cell_angle_gamma   90.00000000
_symmetry_Int_Tables_number   1
_chemical_formula_structural   VCl4
_chemical_formula_sum   'V4 Cl16'
_cell_volume   1005.14884915
_cell_formula_units_Z   4
loop_
 _symmetry_equiv_pos_site_id
 _symmetry_equiv_pos_as_xyz
  1  'x, y, z'
loop_
 _atom_site_type_symbol
 _atom_site_label
 _atom_site_symmetry_multiplicity
 _atom_site_fract_x
 _atom_site_fract_y
 _atom_site_fract_z
 _atom_site_occupancy
  V  V0  1  0.926838  0.742669  0.138546  1
  V  V1  1  0.073162  0.257331  0.861454  1
  V  V2  1  0.073162  0.742669  0.638546  1
  V  V3  1  0.926838  0.257331  0.361454  1
  Cl  Cl4  1  0.079990  0.385409  0.337319  1
  Cl  Cl5  1  0.916935  0.773764  0.510667  1
  Cl  Cl6  1  0.924928  0.895960  0.303639  1
  Cl  Cl7  1  0.920010  0.614591  0.662681  1
  Cl  Cl8  1  0.916935  0.226236  0.989333  1
  Cl  Cl9  1  0.377017  0.689312  0.579327  1
  Cl  Cl10  1  0.622983  0.310688  0.420673  1
  Cl  Cl11  1  0.920010  0.385409  0.837319  1
  Cl  Cl12  1  0.377017  0.310688  0.920673  1
  Cl  Cl13  1  0.075072  0.104040  0.696361  1
  Cl  Cl14  1  0.622983  0.689312  0.079327  1
  Cl  Cl15  1  0.083065  0.773764  0.010667  1
  Cl  Cl16  1  0.079990  0.614591  0.162681  1
  Cl  Cl17  1  0.075072  0.895960  0.803639  1
  Cl  Cl18  1  0.924928  0.104040  0.196361  1
  Cl  Cl19  1  0.083065  0.226236  0.489333  1
