# generated using pymatgen
data_Ni3(BiS)2
_symmetry_space_group_name_H-M   'P 1'
_cell_length_a   6.88279923
_cell_length_b   6.88279905
_cell_length_c   11.47926113
_cell_angle_alpha   90.07950472
_cell_angle_beta   90.07950473
_cell_angle_gamma   72.23464417
_symmetry_Int_Tables_number   1
_chemical_formula_structural   Ni3(BiS)2
_chemical_formula_sum   'Ni12 Bi8 S8'
_cell_volume   517.87349244
_cell_formula_units_Z   4
loop_
 _symmetry_equiv_pos_site_id
 _symmetry_equiv_pos_as_xyz
  1  'x, y, z'
loop_
 _atom_site_type_symbol
 _atom_site_label
 _atom_site_symmetry_multiplicity
 _atom_site_fract_x
 _atom_site_fract_y
 _atom_site_fract_z
 _atom_site_occupancy
  Ni  Ni0  1  0.124277  0.124277  0.139877  1
  Ni  Ni1  1  0.875723  0.875723  0.860123  1
  Ni  Ni2  1  0.000000  0.500000  0.500000  1
  Ni  Ni3  1  0.761795  0.238205  0.500000  1
  Ni  Ni4  1  0.261510  0.738490  0.000000  1
  Ni  Ni5  1  0.624289  0.624289  0.640632  1
  Ni  Ni6  1  0.500000  0.000000  0.500000  1
  Ni  Ni7  1  0.738490  0.261510  1.000000  1
  Ni  Ni8  1  0.000000  0.500000  0.000000  1
  Ni  Ni9  1  0.238205  0.761795  0.500000  1
  Ni  Ni10  1  0.375711  0.375711  0.359368  1
  Ni  Ni11  1  0.500000  0.000000  0.000000  1
  Bi  Bi12  1  0.624347  0.624347  0.877163  1
  Bi  Bi13  1  0.623401  0.623401  0.384043  1
  Bi  Bi14  1  0.376599  0.376599  0.615957  1
  Bi  Bi15  1  0.123571  0.123571  0.882710  1
  Bi  Bi16  1  0.875472  0.875472  0.623197  1
  Bi  Bi17  1  0.375653  0.375653  0.122837  1
  Bi  Bi18  1  0.876429  0.876429  0.117290  1
  Bi  Bi19  1  0.124528  0.124528  0.376803  1
  S  S20  1  0.143152  0.605408  0.854178  1
  S  S21  1  0.394592  0.856848  0.145822  1
  S  S22  1  0.856848  0.394592  0.145822  1
  S  S23  1  0.605408  0.143152  0.854178  1
  S  S24  1  0.643249  0.105428  0.354126  1
  S  S25  1  0.105428  0.643249  0.354126  1
  S  S26  1  0.356751  0.894572  0.645874  1
  S  S27  1  0.894572  0.356751  0.645874  1
