# generated using pymatgen
data_Li3Fe2(AsO4)3
_symmetry_space_group_name_H-M   'P 1'
_cell_length_a   8.76483403
_cell_length_b   9.09356756
_cell_length_c   12.45563515
_cell_angle_alpha   90.00000000
_cell_angle_beta   90.76975363
_cell_angle_gamma   90.00000000
_symmetry_Int_Tables_number   1
_chemical_formula_structural   Li3Fe2(AsO4)3
_chemical_formula_sum   'Li12 Fe8 As12 O48'
_cell_volume   992.66949975
_cell_formula_units_Z   4
loop_
 _symmetry_equiv_pos_site_id
 _symmetry_equiv_pos_as_xyz
  1  'x, y, z'
loop_
 _atom_site_type_symbol
 _atom_site_label
 _atom_site_symmetry_multiplicity
 _atom_site_fract_x
 _atom_site_fract_y
 _atom_site_fract_z
 _atom_site_occupancy
  Li  Li0  1  0.681702  0.720651  0.681248  1
  Li  Li1  1  0.818298  0.220651  0.818752  1
  Li  Li2  1  0.318298  0.279349  0.318752  1
  Li  Li3  1  0.181702  0.779349  0.181248  1
  Li  Li4  1  0.426750  0.587151  0.803402  1
  Li  Li5  1  0.073250  0.087151  0.696598  1
  Li  Li6  1  0.573250  0.412849  0.196598  1
  Li  Li7  1  0.926750  0.912849  0.303402  1
  Li  Li8  1  0.936574  0.491342  0.656903  1
  Li  Li9  1  0.563426  0.991342  0.843097  1
  Li  Li10  1  0.063426  0.508658  0.343097  1
  Li  Li11  1  0.436574  0.008658  0.156903  1
  Fe  Fe12  1  0.754025  0.532760  0.888489  1
  Fe  Fe13  1  0.745975  0.032760  0.611511  1
  Fe  Fe14  1  0.245975  0.467240  0.111511  1
  Fe  Fe15  1  0.254025  0.967240  0.388489  1
  Fe  Fe16  1  0.254837  0.523411  0.604514  1
  Fe  Fe17  1  0.245163  0.023411  0.895486  1
  Fe  Fe18  1  0.745163  0.476589  0.395486  1
  Fe  Fe19  1  0.754837  0.976589  0.104514  1
  As  As20  1  0.886909  0.884966  0.856680  1
  As  As21  1  0.613091  0.384966  0.643320  1
  As  As22  1  0.113091  0.115034  0.143320  1
  As  As23  1  0.386909  0.615034  0.356680  1
  As  As24  1  0.384449  0.879239  0.649299  1
  As  As25  1  0.115551  0.379239  0.850701  1
  As  As26  1  0.615551  0.120761  0.350701  1
  As  As27  1  0.884449  0.620761  0.149299  1
  As  As28  1  0.961416  0.751806  0.508935  1
  As  As29  1  0.538584  0.251806  0.991065  1
  As  As30  1  0.038584  0.248194  0.491065  1
  As  As31  1  0.461416  0.748194  0.008935  1
  O  O32  1  0.570338  0.920472  0.691390  1
  O  O33  1  0.929662  0.420472  0.808610  1
  O  O34  1  0.429662  0.079528  0.308610  1
  O  O35  1  0.070338  0.579528  0.191390  1
  O  O36  1  0.066891  0.886677  0.908964  1
  O  O37  1  0.433109  0.386677  0.591036  1
  O  O38  1  0.933109  0.113323  0.091036  1
  O  O39  1  0.566891  0.613323  0.408964  1
  O  O40  1  0.627610  0.513768  0.745978  1
  O  O41  1  0.872390  0.013768  0.754022  1
  O  O42  1  0.372390  0.486232  0.254022  1
  O  O43  1  0.127610  0.986232  0.245978  1
  O  O44  1  0.240166  0.477209  0.773640  1
  O  O45  1  0.259834  0.977209  0.726360  1
  O  O46  1  0.759834  0.522791  0.226360  1
  O  O47  1  0.740166  0.022791  0.273640  1
  O  O48  1  0.748049  0.948357  0.943648  1
  O  O49  1  0.751951  0.448357  0.556352  1
  O  O50  1  0.251951  0.051643  0.056352  1
  O  O51  1  0.248049  0.551643  0.443648  1
  O  O52  1  0.362914  0.912792  0.516316  1
  O  O53  1  0.137086  0.412792  0.983684  1
  O  O54  1  0.637086  0.087208  0.483684  1
  O  O55  1  0.862914  0.587208  0.016316  1
  O  O56  1  0.552617  0.616538  0.935103  1
  O  O57  1  0.947383  0.116538  0.564897  1
  O  O58  1  0.447383  0.383462  0.064897  1
  O  O59  1  0.052617  0.883462  0.435103  1
  O  O60  1  0.063299  0.663638  0.608585  1
  O  O61  1  0.436701  0.163638  0.891415  1
  O  O62  1  0.936701  0.336362  0.391415  1
  O  O63  1  0.563299  0.836362  0.108585  1
  O  O64  1  0.802722  0.824307  0.568909  1
  O  O65  1  0.697278  0.324307  0.931091  1
  O  O66  1  0.197278  0.175693  0.431091  1
  O  O67  1  0.302722  0.675693  0.068909  1
  O  O68  1  0.402787  0.865425  0.907162  1
  O  O69  1  0.097213  0.365425  0.592838  1
  O  O70  1  0.597213  0.134575  0.092838  1
  O  O71  1  0.902787  0.634575  0.407162  1
  O  O72  1  0.825496  0.718052  0.808108  1
  O  O73  1  0.674504  0.218052  0.691892  1
  O  O74  1  0.174504  0.281948  0.191892  1
  O  O75  1  0.325496  0.781948  0.308108  1
  O  O76  1  0.382425  0.690215  0.665277  1
  O  O77  1  0.117575  0.190215  0.834723  1
  O  O78  1  0.617575  0.309785  0.334723  1
  O  O79  1  0.882425  0.809785  0.165277  1
