# generated using pymatgen
data_PrSbO4
_symmetry_space_group_name_H-M   'P 1'
_cell_length_a   4.74906902
_cell_length_b   6.03378049
_cell_length_c   13.09253752
_cell_angle_alpha   85.83373545
_cell_angle_beta   90.00000000
_cell_angle_gamma   90.00000000
_symmetry_Int_Tables_number   1
_chemical_formula_structural   PrSbO4
_chemical_formula_sum   'Pr4 Sb4 O16'
_cell_volume   374.17316761
_cell_formula_units_Z   4
loop_
 _symmetry_equiv_pos_site_id
 _symmetry_equiv_pos_as_xyz
  1  'x, y, z'
loop_
 _atom_site_type_symbol
 _atom_site_label
 _atom_site_symmetry_multiplicity
 _atom_site_fract_x
 _atom_site_fract_y
 _atom_site_fract_z
 _atom_site_occupancy
  Pr  Pr0  1  0.843270  0.034194  0.365483  1
  Pr  Pr1  1  0.156730  0.534194  0.865483  1
  Pr  Pr2  1  0.156730  0.965806  0.634517  1
  Pr  Pr3  1  0.843270  0.465806  0.134517  1
  Sb  Sb4  1  0.228950  0.512822  0.403062  1
  Sb  Sb5  1  0.771050  1.012822  0.903062  1
  Sb  Sb6  1  0.228950  -0.012822  0.096938  1
  Sb  Sb7  1  0.771050  0.487178  0.596938  1
  O  O8  1  0.360666  0.877478  0.328685  1
  O  O9  1  0.347187  0.066931  0.397485  1
  O  O10  1  0.990453  0.779960  0.015286  1
  O  O11  1  0.652813  0.933069  0.602515  1
  O  O12  1  0.090682  0.559795  0.686253  1
  O  O13  1  0.009547  0.279960  0.515286  1
  O  O14  1  0.652813  0.566931  0.897485  1
  O  O15  1  0.360666  0.622522  0.171315  1
  O  O16  1  0.639334  0.377478  0.828685  1
  O  O17  1  0.909318  0.059795  0.186253  1
  O  O18  1  0.009547  0.220040  0.984714  1
  O  O19  1  0.990453  0.720040  0.484714  1
  O  O20  1  0.909318  0.440205  0.313747  1
  O  O21  1  0.347187  0.433069  0.102515  1
  O  O22  1  0.090682  0.940205  0.813747  1
  O  O23  1  0.639334  0.122522  0.671315  1
