# generated using pymatgen
data_SrV4(AgO6)2
_symmetry_space_group_name_H-M   'P 1'
_cell_length_a   5.08656256
_cell_length_b   10.73786850
_cell_length_c   10.73786850
_cell_angle_alpha   90.00000000
_cell_angle_beta   90.00000000
_cell_angle_gamma   90.00000000
_symmetry_Int_Tables_number   1
_chemical_formula_structural   SrV4(AgO6)2
_chemical_formula_sum   'Sr2 V8 Ag4 O24'
_cell_volume   586.48992032
_cell_formula_units_Z   2
loop_
 _symmetry_equiv_pos_site_id
 _symmetry_equiv_pos_as_xyz
  1  'x, y, z'
loop_
 _atom_site_type_symbol
 _atom_site_label
 _atom_site_symmetry_multiplicity
 _atom_site_fract_x
 _atom_site_fract_y
 _atom_site_fract_z
 _atom_site_occupancy
  Sr  Sr0  1  0.500000  0.250000  0.250000  1
  Sr  Sr1  1  0.500000  0.750000  0.750000  1
  V  V2  1  0.000000  0.467274  0.750000  1
  V  V3  1  0.000000  0.750000  0.467274  1
  V  V4  1  0.000000  0.532726  0.250000  1
  V  V5  1  0.000000  0.250000  0.967274  1
  V  V6  1  0.000000  0.032726  0.750000  1
  V  V7  1  0.000000  0.967274  0.250000  1
  V  V8  1  0.000000  0.750000  0.032726  1
  V  V9  1  0.000000  0.250000  0.532726  1
  Ag  Ag10  1  0.500000  0.000000  0.000000  1
  Ag  Ag11  1  0.500000  0.500000  0.000000  1
  Ag  Ag12  1  0.500000  0.500000  0.500000  1
  Ag  Ag13  1  0.500000  0.000000  0.500000  1
  O  O14  1  0.236751  0.553235  0.680336  1
  O  O15  1  0.236751  0.680336  0.946765  1
  O  O16  1  0.236751  0.319664  0.446765  1
  O  O17  1  0.763249  0.446765  0.319664  1
  O  O18  1  0.151030  0.132964  0.632964  1
  O  O19  1  0.236751  0.446765  0.180336  1
  O  O20  1  0.151030  0.632964  0.367036  1
  O  O21  1  0.848970  0.132964  0.867036  1
  O  O22  1  0.236751  0.819664  0.553235  1
  O  O23  1  0.848970  0.632964  0.132964  1
  O  O24  1  0.763249  0.053235  0.180336  1
  O  O25  1  0.236751  0.180336  0.053235  1
  O  O26  1  0.236751  0.053235  0.319664  1
  O  O27  1  0.763249  0.553235  0.819664  1
  O  O28  1  0.763249  0.680336  0.553235  1
  O  O29  1  0.151030  0.367036  0.867036  1
  O  O30  1  0.848970  0.867036  0.367036  1
  O  O31  1  0.763249  0.946765  0.680336  1
  O  O32  1  0.763249  0.319664  0.053235  1
  O  O33  1  0.763249  0.180336  0.446765  1
  O  O34  1  0.151030  0.867036  0.132964  1
  O  O35  1  0.848970  0.367036  0.632964  1
  O  O36  1  0.236751  0.946765  0.819664  1
  O  O37  1  0.763249  0.819664  0.946765  1
