# generated using pymatgen
data_Li9Bi3P8O29
_symmetry_space_group_name_H-M   'P 1'
_cell_length_a   10.32720234
_cell_length_b   10.32722878
_cell_length_c   14.16363854
_cell_angle_alpha   90.00143539
_cell_angle_beta   90.00069093
_cell_angle_gamma   59.99980126
_symmetry_Int_Tables_number   1
_chemical_formula_structural   Li9Bi3P8O29
_chemical_formula_sum   'Li18 Bi6 P16 O58'
_cell_volume   1308.19077177
_cell_formula_units_Z   2
loop_
 _symmetry_equiv_pos_site_id
 _symmetry_equiv_pos_as_xyz
  1  'x, y, z'
loop_
 _atom_site_type_symbol
 _atom_site_label
 _atom_site_symmetry_multiplicity
 _atom_site_fract_x
 _atom_site_fract_y
 _atom_site_fract_z
 _atom_site_occupancy
  Li  Li0  1  0.222700  0.105718  0.061033  1
  Li  Li1  1  0.328413  0.894287  0.438970  1
  Li  Li2  1  0.671586  0.222695  0.061029  1
  Li  Li3  1  0.671587  0.105717  0.561034  1
  Li  Li4  1  0.105723  0.222693  0.561029  1
  Li  Li5  1  0.777303  0.894286  0.938966  1
  Li  Li6  1  0.666678  0.666665  0.621682  1
  Li  Li7  1  0.333330  0.333331  0.378313  1
  Li  Li8  1  0.894288  0.328416  0.938973  1
  Li  Li9  1  0.777300  0.328419  0.438972  1
  Li  Li10  1  0.999988  0.000022  0.499996  1
  Li  Li11  1  0.999989  0.999998  0.999997  1
  Li  Li12  1  0.222701  0.671584  0.561026  1
  Li  Li13  1  0.666669  0.666671  0.121687  1
  Li  Li14  1  0.105715  0.671586  0.061030  1
  Li  Li15  1  0.333344  0.333331  0.878317  1
  Li  Li16  1  0.894281  0.777303  0.438968  1
  Li  Li17  1  0.328419  0.777309  0.938973  1
  Bi  Bi18  1  0.561454  -0.000002  0.749997  1
  Bi  Bi19  1  0.561452  0.438550  0.250001  1
  Bi  Bi20  1  0.438551  0.999995  0.250005  1
  Bi  Bi21  1  0.438553  0.561457  0.750001  1
  Bi  Bi22  1  0.000009  0.561445  0.250000  1
  Bi  Bi23  1  0.000010  0.438546  0.749998  1
  P  P24  1  0.910764  0.784540  0.653644  1
  P  P25  1  0.333343  0.333334  0.610447  1
  P  P26  1  0.089238  0.695306  0.846361  1
  P  P27  1  0.666672  0.666667  0.389536  1
  P  P28  1  0.333338  0.333324  0.110463  1
  P  P29  1  0.089233  0.215465  0.346359  1
  P  P30  1  0.784536  0.304706  0.653639  1
  P  P31  1  0.784534  0.910766  0.153641  1
  P  P32  1  0.304704  0.784535  0.153644  1
  P  P33  1  0.910766  0.304705  0.153644  1
  P  P34  1  0.666681  0.666665  0.889548  1
  P  P35  1  0.215477  0.089224  0.846357  1
  P  P36  1  0.695304  0.215463  0.846356  1
  P  P37  1  0.215467  0.695292  0.346357  1
  P  P38  1  0.695295  0.089237  0.346359  1
  P  P39  1  0.304704  0.910769  0.653639  1
  O  O40  1  0.062505  0.234052  0.847199  1
  O  O41  1  0.340372  0.129647  0.841883  1
  O  O42  1  1.000000  0.222050  0.250003  1
  O  O43  1  0.765962  0.937478  0.652803  1
  O  O44  1  0.529979  0.340381  0.841894  1
  O  O45  1  0.234058  0.703448  0.847200  1
  O  O46  1  0.305322  0.206111  0.148417  1
  O  O47  1  0.488575  0.206105  0.648409  1
  O  O48  1  0.870356  0.659624  0.658112  1
  O  O49  1  0.224581  0.781075  0.431327  1
  O  O50  1  0.224579  0.994354  0.931327  1
  O  O51  1  0.305330  0.488571  0.648403  1
  O  O52  1  0.529983  0.129649  0.341889  1
  O  O53  1  0.296556  0.765947  0.652800  1
  O  O54  1  0.206116  0.488565  0.148398  1
  O  O55  1  0.129639  0.340373  0.341901  1
  O  O56  1  0.005653  0.218925  0.068677  1
  O  O57  1  0.694684  0.511428  0.351597  1
  O  O58  1  0.659625  0.870362  0.158105  1
  O  O59  1  0.703436  0.062528  0.847196  1
  O  O60  1  0.777946  0.222055  0.750009  1
  O  O61  1  0.340364  0.529979  0.341888  1
  O  O62  1  0.234047  0.062512  0.347197  1
  O  O63  1  0.937499  0.296556  0.652803  1
  O  O64  1  0.222043  0.000004  0.750003  1
  O  O65  1  0.694683  0.793893  0.851594  1
  O  O66  1  0.870345  0.470021  0.158116  1
  O  O67  1  0.129660  0.529982  0.841894  1
  O  O68  1  0.488573  0.305317  0.148402  1
  O  O69  1  0.000004  0.777952  0.749995  1
  O  O70  1  0.765950  0.296556  0.152802  1
  O  O71  1  0.666692  0.666670  0.495766  1
  O  O72  1  0.994352  0.781089  0.931323  1
  O  O73  1  0.781076  0.994355  0.431327  1
  O  O74  1  0.062511  0.703447  0.347196  1
  O  O75  1  0.659638  0.470026  0.658109  1
  O  O76  1  0.937488  0.765948  0.152802  1
  O  O77  1  0.333362  0.333326  0.504231  1
  O  O78  1  0.775437  0.005644  0.068672  1
  O  O79  1  0.511440  0.694675  0.851605  1
  O  O80  1  0.511434  0.793885  0.351600  1
  O  O81  1  0.781079  0.224575  0.931329  1
  O  O82  1  0.333341  0.333297  0.004233  1
  O  O83  1  0.777955  0.999998  0.249997  1
  O  O84  1  0.222057  0.777948  0.249996  1
  O  O85  1  0.218929  0.775419  0.068674  1
  O  O86  1  0.470027  0.659631  0.158109  1
  O  O87  1  0.005652  0.775419  0.568669  1
  O  O88  1  0.666694  0.666669  0.995769  1
  O  O89  1  0.296559  0.937484  0.152802  1
  O  O90  1  0.793889  0.694681  0.351581  1
  O  O91  1  0.470016  0.870354  0.658111  1
  O  O92  1  0.775429  0.218923  0.568678  1
  O  O93  1  0.703441  0.234053  0.347199  1
  O  O94  1  0.994347  0.224562  0.431329  1
  O  O95  1  0.206110  0.305327  0.648393  1
  O  O96  1  0.218924  0.005649  0.568670  1
  O  O97  1  0.793902  0.511430  0.851596  1
