# generated using pymatgen
data_YbPS4
_symmetry_space_group_name_H-M   'P 1'
_cell_length_a   11.19407346
_cell_length_b   11.20389368
_cell_length_c   12.08826894
_cell_angle_alpha   117.61603737
_cell_angle_beta   117.58176099
_cell_angle_gamma   90.00000357
_symmetry_Int_Tables_number   1
_chemical_formula_structural   YbPS4
_chemical_formula_sum   'Yb8 P8 S32'
_cell_volume   1145.36075872
_cell_formula_units_Z   8
loop_
 _symmetry_equiv_pos_site_id
 _symmetry_equiv_pos_as_xyz
  1  'x, y, z'
loop_
 _atom_site_type_symbol
 _atom_site_label
 _atom_site_symmetry_multiplicity
 _atom_site_fract_x
 _atom_site_fract_y
 _atom_site_fract_z
 _atom_site_occupancy
  Yb  Yb0  1  0.875114  0.625185  0.750302  1
  Yb  Yb1  1  0.624812  0.874815  0.249698  1
  Yb  Yb2  1  0.375188  0.125185  0.750302  1
  Yb  Yb3  1  0.375088  0.625035  0.750091  1
  Yb  Yb4  1  0.875003  0.125035  0.750091  1
  Yb  Yb5  1  0.124997  0.874965  0.249909  1
  Yb  Yb6  1  0.124886  0.374815  0.249698  1
  Yb  Yb7  1  0.624912  0.374965  0.249909  1
  P  P8  1  0.299125  0.250000  0.500000  1
  P  P9  1  0.249971  0.200675  0.999918  1
  P  P10  1  0.249947  0.700675  0.999918  1
  P  P11  1  0.750053  0.299325  0.000082  1
  P  P12  1  0.700875  0.750000  0.500000  1
  P  P13  1  0.750029  0.799325  0.000082  1
  P  P14  1  0.200820  0.750000  0.500000  1
  P  P15  1  0.799180  0.250000  0.500000  1
  S  S16  1  0.218865  0.663886  0.319742  1
  S  S17  1  0.599822  0.900129  1.009338  1
  S  S18  1  0.600877  0.163886  0.319742  1
  S  S19  1  0.781135  0.336114  0.680258  1
  S  S20  1  0.400178  0.099871  -0.009338  1
  S  S21  1  0.900188  0.890856  -0.009243  1
  S  S22  1  0.344059  0.399038  0.180057  1
  S  S23  1  0.836120  0.281262  0.180294  1
  S  S24  1  0.099817  0.590630  0.490627  1
  S  S25  1  0.100785  0.155833  0.319769  1
  S  S26  1  0.155826  0.218738  0.819706  1
  S  S27  1  0.664002  0.100962  0.819943  1
  S  S28  1  0.899215  0.844167  0.680231  1
  S  S29  1  0.109190  0.909370  0.509373  1
  S  S30  1  0.590570  0.390856  -0.009243  1
  S  S31  1  0.090483  0.599871  -0.009338  1
  S  S32  1  0.400101  0.099979  0.509318  1
  S  S33  1  0.399123  0.836114  0.680258  1
  S  S34  1  0.390783  0.400021  0.490682  1
  S  S35  1  0.718984  0.655833  0.319769  1
  S  S36  1  0.409430  0.609144  1.009243  1
  S  S37  1  0.890810  0.090630  0.490627  1
  S  S38  1  0.609217  0.599979  0.509318  1
  S  S39  1  0.335998  0.899038  0.180057  1
  S  S40  1  0.844174  0.781262  0.180294  1
  S  S41  1  0.281016  0.344167  0.680231  1
  S  S42  1  0.099812  0.109144  1.009243  1
  S  S43  1  0.655941  0.600962  0.819943  1
  S  S44  1  0.163880  0.718738  0.819706  1
  S  S45  1  0.909517  0.400129  1.009338  1
  S  S46  1  0.900183  0.409370  0.509373  1
  S  S47  1  0.599899  0.900021  0.490682  1
