# generated using pymatgen
data_CdI2
_symmetry_space_group_name_H-M   'P 1'
_cell_length_a   4.33298933
_cell_length_b   4.33298960
_cell_length_c   60.15454657
_cell_angle_alpha   90.00000000
_cell_angle_beta   90.00000000
_cell_angle_gamma   119.99999803
_symmetry_Int_Tables_number   1
_chemical_formula_structural   CdI2
_chemical_formula_sum   'Cd8 I16'
_cell_volume   978.07996703
_cell_formula_units_Z   8
loop_
 _symmetry_equiv_pos_site_id
 _symmetry_equiv_pos_as_xyz
  1  'x, y, z'
loop_
 _atom_site_type_symbol
 _atom_site_label
 _atom_site_symmetry_multiplicity
 _atom_site_fract_x
 _atom_site_fract_y
 _atom_site_fract_z
 _atom_site_occupancy
  Cd  Cd0  1  0.666667  0.333333  0.906223  1
  Cd  Cd1  1  0.666667  0.333333  0.781289  1
  Cd  Cd2  1  0.666667  0.333333  0.531281  1
  Cd  Cd3  1  0.666667  0.333333  0.281290  1
  Cd  Cd4  1  0.000000  0.000000  0.156204  1
  Cd  Cd5  1  0.666667  0.333333  0.031280  1
  Cd  Cd6  1  0.666667  0.333333  0.656224  1
  Cd  Cd7  1  0.666667  0.333333  0.406240  1
  I  I8  1  0.333333  0.666667  0.809973  1
  I  I9  1  0.000000  0.000000  0.002584  1
  I  I10  1  0.333333  0.666667  0.559965  1
  I  I11  1  0.000000  0.000000  0.252593  1
  I  I12  1  0.000000  0.000000  0.377546  1
  I  I13  1  0.333333  0.666667  0.059962  1
  I  I14  1  0.666667  0.333333  0.127517  1
  I  I15  1  0.333333  0.666667  0.434923  1
  I  I16  1  0.333333  0.666667  0.184892  1
  I  I17  1  0.000000  0.000000  0.627525  1
  I  I18  1  0.333333  0.666667  0.309974  1
  I  I19  1  0.333333  0.666667  0.934907  1
  I  I20  1  0.000000  0.000000  0.752592  1
  I  I21  1  0.000000  0.000000  0.877525  1
  I  I22  1  0.333333  0.666667  0.684908  1
  I  I23  1  0.000000  0.000000  0.502585  1
