# generated using pymatgen
data_K2YbMoPO8
_symmetry_space_group_name_H-M   'P 1'
_cell_length_a   6.98895150
_cell_length_b   12.30937368
_cell_length_c   12.30937332
_cell_angle_alpha   60.42066515
_cell_angle_beta   73.50765478
_cell_angle_gamma   73.50764940
_symmetry_Int_Tables_number   1
_chemical_formula_structural   K2YbMoPO8
_chemical_formula_sum   'K8 Yb4 Mo4 P4 O32'
_cell_volume   869.84764490
_cell_formula_units_Z   4
loop_
 _symmetry_equiv_pos_site_id
 _symmetry_equiv_pos_as_xyz
  1  'x, y, z'
loop_
 _atom_site_type_symbol
 _atom_site_label
 _atom_site_symmetry_multiplicity
 _atom_site_fract_x
 _atom_site_fract_y
 _atom_site_fract_z
 _atom_site_occupancy
  Yb  Yb0  1  0.250000  0.180079  0.319921  1
  Yb  Yb1  1  0.750000  0.319921  0.180079  1
  Yb  Yb2  1  0.250000  0.680079  0.819921  1
  Yb  Yb3  1  0.750000  0.819921  0.680079  1
  K  K4  1  0.817548  0.240351  0.574192  1
  K  K5  1  0.632091  0.259649  0.925808  1
  K  K6  1  0.367909  0.740351  0.074192  1
  K  K7  1  0.867909  0.574192  0.240351  1
  K  K8  1  0.132091  0.425808  0.759649  1
  K  K9  1  0.317548  0.074192  0.740351  1
  K  K10  1  0.682452  0.925808  0.259649  1
  K  K11  1  0.182452  0.759649  0.425808  1
  Mo  Mo12  1  0.164073  0.085927  0.085927  1
  Mo  Mo13  1  0.335927  0.414073  0.414073  1
  Mo  Mo14  1  0.835927  0.914073  0.914073  1
  Mo  Mo15  1  0.664073  0.585927  0.585927  1
  P  P16  1  0.250000  0.432262  0.067738  1
  P  P17  1  0.750000  0.067738  0.432262  1
  P  P18  1  0.750000  0.567738  0.932262  1
  P  P19  1  0.250000  0.932262  0.567738  1
  O  O20  1  0.566147  0.652794  0.865615  1
  O  O21  1  0.823248  0.661820  0.611023  1
  O  O22  1  0.584556  0.134385  0.347206  1
  O  O23  1  0.915444  0.152794  0.365615  1
  O  O24  1  0.084556  0.847206  0.634385  1
  O  O25  1  0.831711  0.932807  0.443596  1
  O  O26  1  0.903909  0.161820  0.111023  1
  O  O27  1  0.668289  0.056404  0.567193  1
  O  O28  1  0.331711  0.943596  0.432807  1
  O  O29  1  0.708115  0.556404  0.067193  1
  O  O30  1  0.736823  0.848118  0.080682  1
  O  O31  1  0.168289  0.067193  0.556404  1
  O  O32  1  0.066147  0.365615  0.152794  1
  O  O33  1  0.834379  0.080682  0.848118  1
  O  O34  1  0.433853  0.347206  0.134385  1
  O  O35  1  0.933853  0.634385  0.847206  1
  O  O36  1  0.165621  0.919318  0.151882  1
  O  O37  1  0.415444  0.865615  0.652794  1
  O  O38  1  0.323248  0.111023  0.161820  1
  O  O39  1  0.236823  0.580682  0.348118  1
  O  O40  1  0.791885  0.432807  0.943596  1
  O  O41  1  0.334379  0.348118  0.580682  1
  O  O42  1  0.291885  0.443596  0.932807  1
  O  O43  1  0.763177  0.419318  0.651882  1
  O  O44  1  0.676752  0.888977  0.838180  1
  O  O45  1  0.096091  0.838180  0.888977  1
  O  O46  1  0.403909  0.611023  0.661820  1
  O  O47  1  0.208115  0.567193  0.056404  1
  O  O48  1  0.176752  0.338180  0.388977  1
  O  O49  1  0.263177  0.151882  0.919318  1
  O  O50  1  0.596091  0.388977  0.338180  1
  O  O51  1  0.665621  0.651882  0.419318  1
