# generated using pymatgen
data_Cs3U2Ge2O11
_symmetry_space_group_name_H-M   'P 1'
_cell_length_a   7.20347340
_cell_length_b   12.76625904
_cell_length_c   15.80267096
_cell_angle_alpha   90.00000000
_cell_angle_beta   101.23246433
_cell_angle_gamma   90.00000000
_symmetry_Int_Tables_number   1
_chemical_formula_structural   Cs3U2Ge2O11
_chemical_formula_sum   'Cs12 U8 Ge8 O44'
_cell_volume   1425.39904675
_cell_formula_units_Z   4
loop_
 _symmetry_equiv_pos_site_id
 _symmetry_equiv_pos_as_xyz
  1  'x, y, z'
loop_
 _atom_site_type_symbol
 _atom_site_label
 _atom_site_symmetry_multiplicity
 _atom_site_fract_x
 _atom_site_fract_y
 _atom_site_fract_z
 _atom_site_occupancy
  Cs  Cs0  1  0.918500  0.173045  0.925074  1
  Cs  Cs1  1  0.076953  0.845545  0.591038  1
  Cs  Cs2  1  0.576953  0.654455  0.091038  1
  Cs  Cs3  1  0.081500  0.826955  0.074926  1
  Cs  Cs4  1  0.418500  0.326955  0.425074  1
  Cs  Cs5  1  0.610955  0.350758  0.165747  1
  Cs  Cs6  1  0.110955  0.149242  0.665747  1
  Cs  Cs7  1  0.581500  0.673045  0.574926  1
  Cs  Cs8  1  0.889045  0.850758  0.334253  1
  Cs  Cs9  1  0.423047  0.345545  0.908962  1
  Cs  Cs10  1  0.389045  0.649242  0.834253  1
  Cs  Cs11  1  0.923047  0.154455  0.408962  1
  U  U12  1  0.392593  0.054771  0.240817  1
  U  U13  1  0.892593  0.445229  0.740817  1
  U  U14  1  0.607407  0.945229  0.759183  1
  U  U15  1  0.107407  0.554771  0.259183  1
  U  U16  1  0.000000  0.500000  0.000000  1
  U  U17  1  0.000000  0.500000  0.500000  1
  U  U18  1  0.500000  0.000000  0.500000  1
  U  U19  1  0.500000  0.000000  0.000000  1
  Ge  Ge20  1  0.371256  0.422624  0.674107  1
  Ge  Ge21  1  0.387700  0.791906  0.338561  1
  Ge  Ge22  1  0.628744  0.577376  0.325893  1
  Ge  Ge23  1  0.112300  0.291906  0.161439  1
  Ge  Ge24  1  0.612300  0.208094  0.661439  1
  Ge  Ge25  1  0.871256  0.077376  0.174107  1
  Ge  Ge26  1  0.128744  0.922624  0.825893  1
  Ge  Ge27  1  0.887700  0.708094  0.838561  1
  O  O28  1  0.853519  0.477065  0.613527  1
  O  O29  1  0.738101  0.955010  0.480960  1
  O  O30  1  0.531925  0.144917  0.993697  1
  O  O31  1  0.811191  0.278360  0.716543  1
  O  O32  1  0.146481  0.522935  0.386473  1
  O  O33  1  0.917429  0.970394  0.760393  1
  O  O34  1  0.261899  0.044990  0.519040  1
  O  O35  1  0.648500  0.145744  0.566033  1
  O  O36  1  0.283372  0.510661  0.590149  1
  O  O37  1  0.351500  0.854256  0.433967  1
  O  O38  1  0.311191  0.221640  0.216543  1
  O  O39  1  0.188809  0.721640  0.283457  1
  O  O40  1  0.581884  0.701883  0.371862  1
  O  O41  1  0.303707  0.903204  0.761976  1
  O  O42  1  0.196293  0.403204  0.738024  1
  O  O43  1  0.081884  0.798117  0.871861  1
  O  O44  1  0.050130  0.583796  0.128940  1
  O  O45  1  0.968075  0.644917  0.506303  1
  O  O46  1  0.688809  0.778360  0.783457  1
  O  O47  1  0.582571  0.470394  0.739607  1
  O  O48  1  0.082571  0.029606  0.239607  1
  O  O49  1  0.761899  0.455010  0.019040  1
  O  O50  1  0.031925  0.355083  0.493697  1
  O  O51  1  0.696293  0.096796  0.238024  1
  O  O52  1  0.949870  0.416204  0.871060  1
  O  O53  1  0.783372  0.989339  0.090149  1
  O  O54  1  0.851500  0.645744  0.933967  1
  O  O55  1  0.418116  0.298117  0.628139  1
  O  O56  1  0.148500  0.354256  0.066033  1
  O  O57  1  0.646481  0.977065  0.886473  1
  O  O58  1  0.353519  0.022935  0.113527  1
  O  O59  1  0.546007  0.114541  0.733017  1
  O  O60  1  0.468075  0.855083  0.006303  1
  O  O61  1  0.918116  0.201883  0.128138  1
  O  O62  1  0.238101  0.544990  0.980960  1
  O  O63  1  0.453993  0.885459  0.266983  1
  O  O64  1  0.216628  0.010661  0.909851  1
  O  O65  1  0.449870  0.083796  0.371060  1
  O  O66  1  0.417429  0.529606  0.260393  1
  O  O67  1  0.953993  0.614541  0.766983  1
  O  O68  1  0.716628  0.489339  0.409851  1
  O  O69  1  0.803707  0.596796  0.261976  1
  O  O70  1  0.046007  0.385459  0.233017  1
  O  O71  1  0.550130  0.916204  0.628940  1
