# generated using pymatgen
data_Al2CuO4
_symmetry_space_group_name_H-M   'P 1'
_cell_length_a   5.74824160
_cell_length_b   5.74824202
_cell_length_c   23.11804963
_cell_angle_alpha   60.17882091
_cell_angle_beta   60.17881850
_cell_angle_gamma   60.00000094
_symmetry_Int_Tables_number   1
_chemical_formula_structural   Al2CuO4
_chemical_formula_sum   'Al16 Cu8 O32'
_cell_volume   541.59521536
_cell_formula_units_Z   8
loop_
 _symmetry_equiv_pos_site_id
 _symmetry_equiv_pos_as_xyz
  1  'x, y, z'
loop_
 _atom_site_type_symbol
 _atom_site_label
 _atom_site_symmetry_multiplicity
 _atom_site_fract_x
 _atom_site_fract_y
 _atom_site_fract_z
 _atom_site_occupancy
  Al  Al0  1  0.497020  0.004988  0.125243  1
  Al  Al1  1  0.497020  0.497020  0.125243  1
  Al  Al2  1  0.004577  0.496853  0.375429  1
  Al  Al3  1  0.496853  0.004577  0.375429  1
  Al  Al4  1  0.004988  0.497020  0.125243  1
  Al  Al5  1  0.496853  0.496853  0.375429  1
  Al  Al6  1  0.000941  0.498017  0.625756  1
  Al  Al7  1  0.498017  0.000941  0.625756  1
  Al  Al8  1  0.877845  0.877845  0.216617  1
  Al  Al9  1  0.498017  0.498017  0.625756  1
  Al  Al10  1  0.500589  0.500589  0.749559  1
  Al  Al11  1  0.878994  0.878994  0.465754  1
  Al  Al12  1  0.499497  0.499497  0.874514  1
  Al  Al13  1  0.499497  0.002949  0.874514  1
  Al  Al14  1  0.002949  0.499497  0.874514  1
  Al  Al15  1  0.875498  0.875498  0.968377  1
  Cu  Cu16  1  0.126400  0.126400  0.030200  1
  Cu  Cu17  1  0.497442  0.497442  0.001919  1
  Cu  Cu18  1  0.124275  0.124275  0.281793  1
  Cu  Cu19  1  0.496495  0.496495  0.252629  1
  Cu  Cu20  1  0.122681  0.122681  0.532989  1
  Cu  Cu21  1  0.495387  0.495387  0.503459  1
  Cu  Cu22  1  0.126083  0.126083  0.780438  1
  Cu  Cu23  1  0.875753  0.875753  0.718185  1
  O  O24  1  0.253423  0.253423  0.070422  1
  O  O25  1  0.263008  0.263008  0.177744  1
  O  O26  1  0.253423  0.711467  0.070422  1
  O  O27  1  0.711467  0.253423  0.070422  1
  O  O28  1  0.253490  0.253490  0.320588  1
  O  O29  1  0.268507  0.753978  0.180884  1
  O  O30  1  0.753978  0.268507  0.180884  1
  O  O31  1  0.253490  0.710669  0.320588  1
  O  O32  1  0.262311  0.262311  0.428267  1
  O  O33  1  0.742215  0.742215  0.068338  1
  O  O34  1  0.710669  0.253490  0.320588  1
  O  O35  1  0.753978  0.753978  0.180884  1
  O  O36  1  0.251924  0.251924  0.571190  1
  O  O37  1  0.271034  0.754059  0.430212  1
  O  O38  1  0.754059  0.271034  0.430212  1
  O  O39  1  0.251924  0.711392  0.571190  1
  O  O40  1  0.744885  0.744885  0.316336  1
  O  O41  1  0.263760  0.263760  0.677180  1
  O  O42  1  0.711392  0.251924  0.571190  1
  O  O43  1  0.754059  0.754059  0.430212  1
  O  O44  1  0.266369  0.266369  0.815321  1
  O  O45  1  0.299824  0.735622  0.682233  1
  O  O46  1  0.265073  0.265073  0.926195  1
  O  O47  1  0.266369  0.705977  0.815321  1
  O  O48  1  0.735622  0.299824  0.682233  1
  O  O49  1  0.749683  0.749683  0.562738  1
  O  O50  1  0.705977  0.266369  0.815321  1
  O  O51  1  0.735622  0.735622  0.682233  1
  O  O52  1  0.260995  0.754585  0.932459  1
  O  O53  1  0.754585  0.260995  0.932459  1
  O  O54  1  0.728636  0.728636  0.828523  1
  O  O55  1  0.754585  0.754585  0.932459  1
