# generated using pymatgen
data_BaLiCrF6
_symmetry_space_group_name_H-M   'P 1'
_cell_length_a   5.48984504
_cell_length_b   8.80195899
_cell_length_c   10.59337454
_cell_angle_alpha   90.00000000
_cell_angle_beta   90.00000000
_cell_angle_gamma   90.79979573
_symmetry_Int_Tables_number   1
_chemical_formula_structural   BaLiCrF6
_chemical_formula_sum   'Ba4 Li4 Cr4 F24'
_cell_volume   511.83672071
_cell_formula_units_Z   4
loop_
 _symmetry_equiv_pos_site_id
 _symmetry_equiv_pos_as_xyz
  1  'x, y, z'
loop_
 _atom_site_type_symbol
 _atom_site_label
 _atom_site_symmetry_multiplicity
 _atom_site_fract_x
 _atom_site_fract_y
 _atom_site_fract_z
 _atom_site_occupancy
  Ba  Ba0  1  0.698528  0.496968  0.686767  1
  Ba  Ba1  1  0.698528  0.996968  0.813233  1
  Ba  Ba2  1  0.301472  0.503032  0.313233  1
  Ba  Ba3  1  0.301472  0.003032  0.186767  1
  Li  Li4  1  0.240450  0.679104  0.911377  1
  Li  Li5  1  0.759550  0.320896  0.088623  1
  Li  Li6  1  0.759550  0.820896  0.411377  1
  Li  Li7  1  0.240450  0.179104  0.588623  1
  Cr  Cr8  1  0.239127  0.269065  0.911885  1
  Cr  Cr9  1  0.760873  0.230935  0.411885  1
  Cr  Cr10  1  0.760873  0.730935  0.088115  1
  Cr  Cr11  1  0.239127  0.769065  0.588115  1
  F  F12  1  0.601992  0.257796  0.247181  1
  F  F13  1  0.461026  0.800927  0.006512  1
  F  F14  1  0.103962  0.292194  0.082101  1
  F  F15  1  0.398008  0.742204  0.752819  1
  F  F16  1  0.461026  0.300927  0.493488  1
  F  F17  1  0.341225  0.978513  0.604189  1
  F  F18  1  0.896038  0.707806  0.917899  1
  F  F19  1  0.896038  0.207806  0.582101  1
  F  F20  1  0.923377  0.308713  0.840038  1
  F  F21  1  0.341225  0.478513  0.895811  1
  F  F22  1  0.076623  0.691287  0.159962  1
  F  F23  1  0.839222  0.447424  0.407214  1
  F  F24  1  0.160778  0.552576  0.592786  1
  F  F25  1  0.538974  0.699073  0.506512  1
  F  F26  1  0.601992  0.757796  0.252819  1
  F  F27  1  0.398008  0.242204  0.747181  1
  F  F28  1  0.076623  0.191287  0.340038  1
  F  F29  1  0.538974  0.199073  0.993488  1
  F  F30  1  0.658775  0.021487  0.395811  1
  F  F31  1  0.923377  0.808713  0.659962  1
  F  F32  1  0.658775  0.521487  0.104189  1
  F  F33  1  0.839222  0.947424  0.092786  1
  F  F34  1  0.160778  0.052576  0.907214  1
  F  F35  1  0.103962  0.792194  0.417899  1
