# generated using pymatgen
data_KLuP2O7
_symmetry_space_group_name_H-M   'P 1'
_cell_length_a   7.63587329
_cell_length_b   8.61781805
_cell_length_c   10.83685364
_cell_angle_alpha   90.00000000
_cell_angle_beta   90.00000000
_cell_angle_gamma   106.83822455
_symmetry_Int_Tables_number   1
_chemical_formula_structural   KLuP2O7
_chemical_formula_sum   'K4 Lu4 P8 O28'
_cell_volume   682.54071589
_cell_formula_units_Z   4
loop_
 _symmetry_equiv_pos_site_id
 _symmetry_equiv_pos_as_xyz
  1  'x, y, z'
loop_
 _atom_site_type_symbol
 _atom_site_label
 _atom_site_symmetry_multiplicity
 _atom_site_fract_x
 _atom_site_fract_y
 _atom_site_fract_z
 _atom_site_occupancy
  K  K0  1  0.180080  0.566491  0.178163  1
  K  K1  1  0.819920  0.433509  0.821837  1
  K  K2  1  0.180080  0.066490  0.321837  1
  K  K3  1  0.819920  0.933509  0.678163  1
  Lu  Lu4  1  0.767097  0.247904  0.403463  1
  Lu  Lu5  1  0.232903  0.752096  0.596537  1
  Lu  Lu6  1  0.232903  0.252096  0.903463  1
  Lu  Lu7  1  0.767097  0.747904  0.096537  1
  P  P8  1  0.868977  0.685457  0.398581  1
  P  P9  1  0.131023  0.814543  0.898581  1
  P  P10  1  0.868977  0.185457  0.101419  1
  P  P11  1  0.131023  0.314543  0.601419  1
  P  P12  1  0.555076  0.809841  0.357989  1
  P  P13  1  0.444924  0.190159  0.642011  1
  P  P14  1  0.555076  0.309841  0.142011  1
  P  P15  1  0.444924  0.690159  0.857989  1
  O  O16  1  0.860642  0.007910  0.095752  1
  O  O17  1  0.336588  0.515634  0.887336  1
  O  O18  1  0.990009  0.785868  0.500655  1
  O  O19  1  0.337240  0.805141  0.926584  1
  O  O20  1  0.364268  0.760126  0.416073  1
  O  O21  1  0.990009  0.285868  0.999345  1
  O  O22  1  0.009991  0.214132  0.499345  1
  O  O23  1  0.544128  0.266142  0.279442  1
  O  O24  1  0.139358  0.992090  0.904248  1
  O  O25  1  0.009991  0.714132  0.000655  1
  O  O26  1  0.663412  0.984366  0.387336  1
  O  O27  1  0.364268  0.260126  0.083927  1
  O  O28  1  0.455872  0.233858  0.779442  1
  O  O29  1  0.860642  0.507910  0.404248  1
  O  O30  1  0.927008  0.259754  0.229457  1
  O  O31  1  0.927008  0.759754  0.270543  1
  O  O32  1  0.635732  0.239874  0.583927  1
  O  O33  1  0.336588  0.015634  0.612664  1
  O  O34  1  0.663412  0.484366  0.112664  1
  O  O35  1  0.662760  0.694859  0.426584  1
  O  O36  1  0.635732  0.739874  0.916073  1
  O  O37  1  0.139358  0.492090  0.595752  1
  O  O38  1  0.337240  0.305141  0.573416  1
  O  O39  1  0.455872  0.733858  0.720558  1
  O  O40  1  0.662760  0.194859  0.073416  1
  O  O41  1  0.072992  0.240246  0.729457  1
  O  O42  1  0.072992  0.740246  0.770543  1
  O  O43  1  0.544128  0.766142  0.220558  1
