# generated using pymatgen
data_Cs2MnBi2S5
_symmetry_space_group_name_H-M   'P 1'
_cell_length_a   4.19042836
_cell_length_b   16.04103297
_cell_length_c   18.47209274
_cell_angle_alpha   90.00000000
_cell_angle_beta   90.00000000
_cell_angle_gamma   90.00000000
_symmetry_Int_Tables_number   1
_chemical_formula_structural   Cs2MnBi2S5
_chemical_formula_sum   'Cs8 Mn4 Bi8 S20'
_cell_volume   1241.67189789
_cell_formula_units_Z   4
loop_
 _symmetry_equiv_pos_site_id
 _symmetry_equiv_pos_as_xyz
  1  'x, y, z'
loop_
 _atom_site_type_symbol
 _atom_site_label
 _atom_site_symmetry_multiplicity
 _atom_site_fract_x
 _atom_site_fract_y
 _atom_site_fract_z
 _atom_site_occupancy
  Cs  Cs0  1  0.250000  0.007347  0.623588  1
  Cs  Cs1  1  0.750000  0.037194  0.883191  1
  Cs  Cs2  1  0.250000  0.462806  0.383191  1
  Cs  Cs3  1  0.750000  0.492653  0.123588  1
  Cs  Cs4  1  0.750000  0.992653  0.376412  1
  Cs  Cs5  1  0.750000  0.537194  0.616809  1
  Cs  Cs6  1  0.250000  0.962806  0.116809  1
  Cs  Cs7  1  0.250000  0.507347  0.876412  1
  Mn  Mn8  1  0.750000  0.291696  0.854444  1
  Mn  Mn9  1  0.750000  0.791696  0.645556  1
  Mn  Mn10  1  0.250000  0.708304  0.145556  1
  Mn  Mn11  1  0.250000  0.208304  0.354444  1
  Bi  Bi12  1  0.250000  0.751939  0.483553  1
  Bi  Bi13  1  0.750000  0.748061  0.983553  1
  Bi  Bi14  1  0.750000  0.208549  0.197846  1
  Bi  Bi15  1  0.750000  0.248061  0.516447  1
  Bi  Bi16  1  0.250000  0.291451  0.697846  1
  Bi  Bi17  1  0.750000  0.708549  0.302154  1
  Bi  Bi18  1  0.250000  0.251939  0.016447  1
  Bi  Bi19  1  0.250000  0.791451  0.802154  1
  S  S20  1  0.250000  0.608581  0.243619  1
  S  S21  1  0.250000  0.864012  0.938811  1
  S  S22  1  0.250000  0.364012  0.561189  1
  S  S23  1  0.750000  0.391419  0.756381  1
  S  S24  1  0.750000  0.891419  0.743619  1
  S  S25  1  0.750000  0.287605  0.343796  1
  S  S26  1  0.250000  0.817182  0.351411  1
  S  S27  1  0.250000  0.212395  0.843796  1
  S  S28  1  0.750000  0.182818  0.648589  1
  S  S29  1  0.250000  0.317182  0.148589  1
  S  S30  1  0.250000  0.641355  0.029289  1
  S  S31  1  0.250000  0.712395  0.656204  1
  S  S32  1  0.750000  0.787605  0.156204  1
  S  S33  1  0.750000  0.358645  0.970711  1
  S  S34  1  0.750000  0.135988  0.061189  1
  S  S35  1  0.250000  0.141355  0.470711  1
  S  S36  1  0.250000  0.108581  0.256381  1
  S  S37  1  0.750000  0.635988  0.438811  1
  S  S38  1  0.750000  0.682818  0.851411  1
  S  S39  1  0.750000  0.858645  0.529289  1
