# generated using pymatgen
data_CsYP2O7
_symmetry_space_group_name_H-M   'P 1'
_cell_length_a   8.02774141
_cell_length_b   8.89866113
_cell_length_c   11.05068588
_cell_angle_alpha   90.00000000
_cell_angle_beta   90.00000000
_cell_angle_gamma   104.31599208
_symmetry_Int_Tables_number   1
_chemical_formula_structural   CsYP2O7
_chemical_formula_sum   'Cs4 Y4 P8 O28'
_cell_volume   764.90445270
_cell_formula_units_Z   4
loop_
 _symmetry_equiv_pos_site_id
 _symmetry_equiv_pos_as_xyz
  1  'x, y, z'
loop_
 _atom_site_type_symbol
 _atom_site_label
 _atom_site_symmetry_multiplicity
 _atom_site_fract_x
 _atom_site_fract_y
 _atom_site_fract_z
 _atom_site_occupancy
  Cs  Cs0  1  0.800080  0.947772  0.690845  1
  Cs  Cs1  1  0.199920  0.552228  0.190845  1
  Cs  Cs2  1  0.199920  0.052228  0.309155  1
  Cs  Cs3  1  0.800080  0.447772  0.809155  1
  Y  Y4  1  0.763331  0.247400  0.400530  1
  Y  Y5  1  0.236670  0.252600  0.900530  1
  Y  Y6  1  0.236670  0.752600  0.599470  1
  Y  Y7  1  0.763331  0.747400  0.099470  1
  P  P8  1  0.572659  0.817299  0.370336  1
  P  P9  1  0.427341  0.682701  0.870336  1
  P  P10  1  0.427341  0.182701  0.629664  1
  P  P11  1  0.572659  0.317299  0.129664  1
  P  P12  1  0.868790  0.178411  0.096387  1
  P  P13  1  0.131210  0.321589  0.596387  1
  P  P14  1  0.131210  0.821589  0.903613  1
  P  P15  1  0.868790  0.678411  0.403613  1
  O  O16  1  0.682759  0.210001  0.061341  1
  O  O17  1  0.317241  0.289999  0.561341  1
  O  O18  1  0.317241  0.789999  0.938659  1
  O  O19  1  0.682759  0.710001  0.438659  1
  O  O20  1  0.915087  0.738625  0.274349  1
  O  O21  1  0.084913  0.761375  0.774349  1
  O  O22  1  0.084913  0.261375  0.725651  1
  O  O23  1  0.915087  0.238625  0.225651  1
  O  O24  1  0.394379  0.768674  0.428507  1
  O  O25  1  0.605621  0.731326  0.928507  1
  O  O26  1  0.605621  0.231326  0.571493  1
  O  O27  1  0.394379  0.268674  0.071493  1
  O  O28  1  0.846384  0.504502  0.414739  1
  O  O29  1  0.153616  0.995498  0.914739  1
  O  O30  1  0.153616  0.495498  0.585261  1
  O  O31  1  0.846384  0.004502  0.085261  1
  O  O32  1  0.665889  0.985530  0.396305  1
  O  O33  1  0.334111  0.514470  0.896305  1
  O  O34  1  0.334111  0.014470  0.603695  1
  O  O35  1  0.665889  0.485530  0.103695  1
  O  O36  1  0.996505  0.771213  0.496215  1
  O  O37  1  0.003495  0.728787  0.996215  1
  O  O38  1  0.003495  0.228787  0.503785  1
  O  O39  1  0.996505  0.271213  0.003785  1
  O  O40  1  0.562479  0.774845  0.235752  1
  O  O41  1  0.437521  0.725155  0.735752  1
  O  O42  1  0.437521  0.225155  0.764248  1
  O  O43  1  0.562479  0.274845  0.264248  1
