# generated using pymatgen
data_Ba3ScCO3F7
_symmetry_space_group_name_H-M   'P 1'
_cell_length_a   6.09461971
_cell_length_b   8.95972939
_cell_length_c   8.95972949
_cell_angle_alpha   98.71115972
_cell_angle_beta   90.00000000
_cell_angle_gamma   90.00000000
_symmetry_Int_Tables_number   1
_chemical_formula_structural   Ba3ScCO3F7
_chemical_formula_sum   'Ba6 Sc2 C2 O6 F14'
_cell_volume   483.61241120
_cell_formula_units_Z   2
loop_
 _symmetry_equiv_pos_site_id
 _symmetry_equiv_pos_as_xyz
  1  'x, y, z'
loop_
 _atom_site_type_symbol
 _atom_site_label
 _atom_site_symmetry_multiplicity
 _atom_site_fract_x
 _atom_site_fract_y
 _atom_site_fract_z
 _atom_site_occupancy
  Ba  Ba0  1  0.250000  0.844501  0.603068  1
  Ba  Ba1  1  0.750000  0.603068  0.844501  1
  Ba  Ba2  1  0.250000  0.396932  0.155499  1
  Ba  Ba3  1  0.750000  0.094509  0.905491  1
  Ba  Ba4  1  0.250000  0.905491  0.094509  1
  Ba  Ba5  1  0.750000  0.155499  0.396932  1
  Sc  Sc6  1  0.250000  0.269554  0.730446  1
  Sc  Sc7  1  0.750000  0.730446  0.269554  1
  C  C8  1  0.250000  0.463855  0.536145  1
  C  C9  1  0.750000  0.536145  0.463855  1
  O  O10  1  0.250000  0.557785  0.442215  1
  O  O11  1  0.750000  0.682741  0.507972  1
  O  O12  1  0.250000  0.507972  0.682741  1
  O  O13  1  0.250000  0.317259  0.492028  1
  O  O14  1  0.750000  0.442215  0.557785  1
  O  O15  1  0.750000  0.492028  0.317259  1
  F  F16  1  0.500000  0.160615  0.160615  1
  F  F17  1  0.250000  0.115200  0.884800  1
  F  F18  1  0.750000  0.884800  0.115200  1
  F  F19  1  0.500000  0.839385  0.839385  1
  F  F20  1  0.493929  0.117959  0.640819  1
  F  F21  1  0.506071  0.640819  0.117959  1
  F  F22  1  0.006071  0.359181  0.882041  1
  F  F23  1  0.493929  0.359181  0.882041  1
  F  F24  1  0.006071  0.117959  0.640819  1
  F  F25  1  0.993929  0.882041  0.359181  1
  F  F26  1  0.000000  0.839385  0.839385  1
  F  F27  1  0.000000  0.160615  0.160615  1
  F  F28  1  0.993929  0.640819  0.117959  1
  F  F29  1  0.506071  0.882041  0.359181  1
