# generated using pymatgen
data_Pr2Ti2S2O5
_symmetry_space_group_name_H-M   'P 1'
_cell_length_a   3.88886202
_cell_length_b   3.88885925
_cell_length_c   12.02598019
_cell_angle_alpha   99.30476322
_cell_angle_beta   99.30476681
_cell_angle_gamma   90.00000370
_symmetry_Int_Tables_number   1
_chemical_formula_structural   Pr2Ti2S2O5
_chemical_formula_sum   'Pr2 Ti2 S2 O5'
_cell_volume   177.05337015
_cell_formula_units_Z   1
loop_
 _symmetry_equiv_pos_site_id
 _symmetry_equiv_pos_as_xyz
  1  'x, y, z'
loop_
 _atom_site_type_symbol
 _atom_site_label
 _atom_site_symmetry_multiplicity
 _atom_site_fract_x
 _atom_site_fract_y
 _atom_site_fract_z
 _atom_site_occupancy
  O  O0  1  0.596042  0.096042  0.192083  1
  Pr  Pr1  1  0.665704  0.665704  0.331408  1
  O  O2  1  0.403958  0.903958  0.807917  1
  S  S3  1  0.796704  0.796704  0.593409  1
  Pr  Pr4  1  0.334298  0.334298  0.668596  1
  Ti  Ti5  1  0.077364  0.077364  0.154728  1
  O  O6  1  0.000004  0.000004  0.000009  1
  S  S7  1  0.203294  0.203294  0.406588  1
  O  O8  1  0.903958  0.403958  0.807917  1
  Ti  Ti9  1  0.922631  0.922631  0.845262  1
  O  O10  1  0.096042  0.596042  0.192084  1
