# generated using pymatgen
data_MnH12C2(NCl2)2
_symmetry_space_group_name_H-M   'P 1'
_cell_length_a   7.28467063
_cell_length_b   7.28467063
_cell_length_c   19.69359191
_cell_angle_alpha   90.00000000
_cell_angle_beta   90.00000000
_cell_angle_gamma   90.00000000
_symmetry_Int_Tables_number   1
_chemical_formula_structural   MnH12C2(NCl2)2
_chemical_formula_sum   'Mn4 H48 C8 N8 Cl16'
_cell_volume   1045.06854146
_cell_formula_units_Z   4
loop_
 _symmetry_equiv_pos_site_id
 _symmetry_equiv_pos_as_xyz
  1  'x, y, z'
loop_
 _atom_site_type_symbol
 _atom_site_label
 _atom_site_symmetry_multiplicity
 _atom_site_fract_x
 _atom_site_fract_y
 _atom_site_fract_z
 _atom_site_occupancy
  Mn  Mn0  1  0.000000  0.000000  0.000000  1
  Mn  Mn1  1  0.500000  0.500000  0.000000  1
  Mn  Mn2  1  0.000000  0.500000  0.500000  1
  Mn  Mn3  1  0.500000  0.000000  0.500000  1
  H  H4  1  0.555516  0.555516  0.279038  1
  H  H5  1  0.655274  0.493503  0.393832  1
  H  H6  1  0.006497  0.844726  0.393832  1
  H  H7  1  0.493503  0.655274  0.393832  1
  H  H8  1  0.944484  0.944484  0.279038  1
  H  H9  1  0.500273  0.674522  0.695841  1
  H  H10  1  0.825478  -0.000273  0.695841  1
  H  H11  1  0.506497  0.155274  0.106168  1
  H  H12  1  0.438649  0.438649  0.417950  1
  H  H13  1  0.344726  0.993503  0.106168  1
  H  H14  1  0.174522  1.000273  0.304159  1
  H  H15  1  0.561351  0.561351  0.582050  1
  H  H16  1  0.938649  0.561351  0.082050  1
  H  H17  1  0.993503  0.344726  0.106168  1
  H  H18  1  0.655274  0.006497  0.893832  1
  H  H19  1  0.325478  0.499727  0.304159  1
  H  H20  1  0.844726  0.006497  0.393832  1
  H  H21  1  1.000273  0.174522  0.304159  1
  H  H22  1  0.155274  0.993503  0.606168  1
  H  H23  1  0.061351  0.061351  0.417950  1
  H  H24  1  -0.000273  0.825478  0.695841  1
  H  H25  1  0.055517  0.444483  0.220962  1
  H  H26  1  0.993503  0.155274  0.606168  1
  H  H27  1  0.944484  0.555516  0.779038  1
  H  H28  1  0.500273  0.825478  0.195841  1
  H  H29  1  0.055517  0.055517  0.720962  1
  H  H30  1  0.444483  0.055517  0.220962  1
  H  H31  1  0.844726  0.493503  0.893832  1
  H  H32  1  0.561351  0.938649  0.082050  1
  H  H33  1  0.061351  0.438649  0.917950  1
  H  H34  1  0.438649  0.061351  0.917950  1
  H  H35  1  0.499727  0.325478  0.304159  1
  H  H36  1  0.506497  0.344726  0.606168  1
  H  H37  1  0.444483  0.444483  0.720962  1
  H  H38  1  0.344726  0.506497  0.606168  1
  H  H39  1  0.825478  0.500273  0.195841  1
  H  H40  1  1.000273  0.325478  0.804159  1
  H  H41  1  -0.000273  0.674522  0.195841  1
  H  H42  1  0.674522  -0.000273  0.195841  1
  H  H43  1  0.006497  0.655274  0.893832  1
  H  H44  1  0.674522  0.500273  0.695841  1
  H  H45  1  0.493503  0.844726  0.893832  1
  H  H46  1  0.155274  0.506497  0.106168  1
  H  H47  1  0.938649  0.938649  0.582050  1
  H  H48  1  0.499727  0.174522  0.804159  1
  H  H49  1  0.555516  0.944484  0.779038  1
  H  H50  1  0.174522  0.499727  0.804159  1
  H  H51  1  0.325478  1.000273  0.804159  1
  C  C52  1  0.528827  0.528827  0.687232  1
  C  C53  1  0.971173  0.971173  0.687232  1
  C  C54  1  0.471173  0.028827  0.812768  1
  C  C55  1  0.028827  0.028827  0.312768  1
  C  C56  1  0.528827  0.971173  0.187232  1
  C  C57  1  0.471173  0.471173  0.312768  1
  C  C58  1  0.971173  0.528827  0.187232  1
  C  C59  1  0.028827  0.471173  0.812768  1
  N  N60  1  0.483386  0.016614  0.115646  1
  N  N61  1  0.516614  0.516614  0.384354  1
  N  N62  1  0.983386  0.516614  0.884354  1
  N  N63  1  0.483386  0.483386  0.615646  1
  N  N64  1  0.016614  0.483386  0.115646  1
  N  N65  1  0.016614  0.016614  0.615646  1
  N  N66  1  0.516614  0.983386  0.884354  1
  N  N67  1  0.983386  0.983386  0.384354  1
  Cl  Cl68  1  0.536068  0.963932  0.374879  1
  Cl  Cl69  1  0.463932  0.463932  0.125121  1
  Cl  Cl70  1  0.250000  0.250000  0.977340  1
  Cl  Cl71  1  0.250000  0.250000  0.477340  1
  Cl  Cl72  1  0.963932  0.536068  0.374879  1
  Cl  Cl73  1  0.963932  0.963932  0.874879  1
  Cl  Cl74  1  0.750000  0.750000  0.022660  1
  Cl  Cl75  1  0.536068  0.536068  0.874879  1
  Cl  Cl76  1  0.036068  0.463932  0.625121  1
  Cl  Cl77  1  0.036068  0.036068  0.125121  1
  Cl  Cl78  1  0.750000  0.250000  0.500000  1
  Cl  Cl79  1  0.250000  0.750000  0.500000  1
  Cl  Cl80  1  0.750000  0.750000  0.522660  1
  Cl  Cl81  1  0.750000  0.250000  0.000000  1
  Cl  Cl82  1  0.463932  0.036068  0.625121  1
  Cl  Cl83  1  0.250000  0.750000  0.000000  1
