# generated using pymatgen
data_Ta3P
_symmetry_space_group_name_H-M   'P 1'
_cell_length_a   5.04418067
_cell_length_b   10.22605073
_cell_length_c   10.22605073
_cell_angle_alpha   90.00000000
_cell_angle_beta   90.00000000
_cell_angle_gamma   90.00000000
_symmetry_Int_Tables_number   1
_chemical_formula_structural   Ta3P
_chemical_formula_sum   'Ta24 P8'
_cell_volume   527.48063370
_cell_formula_units_Z   8
loop_
 _symmetry_equiv_pos_site_id
 _symmetry_equiv_pos_as_xyz
  1  'x, y, z'
loop_
 _atom_site_type_symbol
 _atom_site_label
 _atom_site_symmetry_multiplicity
 _atom_site_fract_x
 _atom_site_fract_y
 _atom_site_fract_z
 _atom_site_occupancy
  Ta  Ta0  1  0.743281  0.159002  0.655621  1
  Ta  Ta1  1  0.243281  0.344379  0.659002  1
  Ta  Ta2  1  0.243281  0.155621  0.840998  1
  Ta  Ta3  1  0.743281  0.340998  0.844379  1
  Ta  Ta4  1  0.256719  0.840998  0.344379  1
  Ta  Ta5  1  0.756719  0.655621  0.340998  1
  Ta  Ta6  1  0.756719  0.844379  0.159002  1
  Ta  Ta7  1  0.256719  0.659002  0.155621  1
  Ta  Ta8  1  0.504873  0.104390  0.253686  1
  Ta  Ta9  1  0.004873  0.746314  0.604390  1
  Ta  Ta10  1  0.004873  0.753686  0.895610  1
  Ta  Ta11  1  0.504873  0.395610  0.246314  1
  Ta  Ta12  1  0.495127  0.895610  0.746314  1
  Ta  Ta13  1  0.995127  0.253686  0.395610  1
  Ta  Ta14  1  0.995127  0.246314  0.104390  1
  Ta  Ta15  1  0.495127  0.604390  0.753686  1
  Ta  Ta16  1  0.247419  0.052753  0.545688  1
  Ta  Ta17  1  0.747419  0.454312  0.552753  1
  Ta  Ta18  1  0.747419  0.045688  0.947247  1
  Ta  Ta19  1  0.247419  0.447247  0.954312  1
  Ta  Ta20  1  0.752581  0.947247  0.454312  1
  Ta  Ta21  1  0.252581  0.545688  0.447247  1
  Ta  Ta22  1  0.252581  0.954312  0.052753  1
  Ta  Ta23  1  0.752581  0.552753  0.045688  1
  P  P24  1  0.006253  0.042454  0.257944  1
  P  P25  1  0.506253  0.742056  0.542454  1
  P  P26  1  0.506253  0.757944  0.957546  1
  P  P27  1  0.006253  0.457546  0.242056  1
  P  P28  1  0.993747  0.957546  0.742056  1
  P  P29  1  0.493747  0.257944  0.457546  1
  P  P30  1  0.493747  0.242056  0.042454  1
  P  P31  1  0.993747  0.542454  0.757944  1
