# generated using pymatgen
data_Zn(Mo4O5)2
_symmetry_space_group_name_H-M   'P 1'
_cell_length_a   6.01050618
_cell_length_b   6.01050618
_cell_length_c   13.29690091
_cell_angle_alpha   103.06236765
_cell_angle_beta   103.06236766
_cell_angle_gamma   90.00000000
_symmetry_Int_Tables_number   1
_chemical_formula_structural   Zn(Mo4O5)2
_chemical_formula_sum   'Zn2 Mo16 O20'
_cell_volume   455.16767755
_cell_formula_units_Z   2
loop_
 _symmetry_equiv_pos_site_id
 _symmetry_equiv_pos_as_xyz
  1  'x, y, z'
loop_
 _atom_site_type_symbol
 _atom_site_label
 _atom_site_symmetry_multiplicity
 _atom_site_fract_x
 _atom_site_fract_y
 _atom_site_fract_z
 _atom_site_occupancy
  O  O0  1  0.497671  0.753321  0.506641  1
  O  O1  1  0.856794  0.581960  0.163920  1
  O  O2  1  0.694192  0.416340  0.832679  1
  O  O3  1  0.166340  0.944192  0.332679  1
  O  O4  1  0.166340  0.388487  0.332679  1
  O  O5  1  0.138487  0.416340  0.832679  1
  O  O6  1  0.354555  0.088916  0.177832  1
  O  O7  1  0.838916  0.604555  0.677832  1
  O  O8  1  0.838916  0.073277  0.677832  1
  O  O9  1  0.823277  0.088916  0.177832  1
  O  O10  1  0.331960  0.106794  0.663920  1
  O  O11  1  0.672510  0.909454  0.345021  1
  O  O12  1  0.672510  0.435567  0.345021  1
  O  O13  1  0.185567  0.922510  0.845021  1
  O  O14  1  0.307126  0.581960  0.163920  1
  O  O15  1  0.331960  0.557126  0.663920  1
  O  O16  1  0.008970  0.753321  0.506641  1
  O  O17  1  0.503321  0.258970  0.006641  1
  O  O18  1  0.503321  0.747671  0.006641  1
  O  O19  1  0.659454  0.922510  0.845021  1
  Zn  Zn20  1  0.620533  0.620533  0.241066  1
  Zn  Zn21  1  0.370533  0.870533  0.741066  1
  Mo  Mo22  1  0.053691  0.327734  0.655468  1
  Mo  Mo23  1  0.927580  0.705290  0.855160  1
  Mo  Mo24  1  0.927580  0.149870  0.855160  1
  Mo  Mo25  1  0.899870  0.177580  0.355160  1
  Mo  Mo26  1  0.601777  0.327734  0.655468  1
  Mo  Mo27  1  0.077734  0.851777  0.155468  1
  Mo  Mo28  1  0.077734  0.303691  0.155468  1
  Mo  Mo29  1  0.455290  0.177580  0.355160  1
  Mo  Mo30  1  0.245225  0.004763  0.009527  1
  Mo  Mo31  1  0.754763  0.495225  0.509527  1
  Mo  Mo32  1  0.754763  0.014302  0.509527  1
  Mo  Mo33  1  0.764302  0.004763  0.009527  1
  Mo  Mo34  1  0.215290  0.499749  0.999499  1
  Mo  Mo35  1  0.249749  0.465290  0.499499  1
  Mo  Mo36  1  0.249749  0.034208  0.499499  1
  Mo  Mo37  1  0.784208  0.499749  0.999499  1
