# generated using pymatgen
data_CoO2
_symmetry_space_group_name_H-M   'P 1'
_cell_length_a   2.84260482
_cell_length_b   2.84260399
_cell_length_c   20.44058416
_cell_angle_alpha   90.33866046
_cell_angle_beta   86.35055579
_cell_angle_gamma   60.01386373
_symmetry_Int_Tables_number   1
_chemical_formula_structural   CoO2
_chemical_formula_sum   'Co2 O4'
_cell_volume   142.63361844
_cell_formula_units_Z   2
loop_
 _symmetry_equiv_pos_site_id
 _symmetry_equiv_pos_as_xyz
  1  'x, y, z'
loop_
 _atom_site_type_symbol
 _atom_site_label
 _atom_site_symmetry_multiplicity
 _atom_site_fract_x
 _atom_site_fract_y
 _atom_site_fract_z
 _atom_site_occupancy
  Co  Co0  1  0.999718  0.003059  0.003341  1
  Co  Co1  1  0.999713  0.503055  0.503341  1
  O  O2  1  0.362431  0.819619  0.457188  1
  O  O3  1  0.362640  0.319488  0.956848  1
  O  O4  1  0.636648  0.686458  0.049810  1
  O  O5  1  0.636851  0.186324  0.549473  1
