# generated using pymatgen
data_RbGeI3
_symmetry_space_group_name_H-M   'P 1'
_cell_length_a   4.59912902
_cell_length_b   10.41364552
_cell_length_c   17.19098014
_cell_angle_alpha   90.00000000
_cell_angle_beta   90.00000000
_cell_angle_gamma   90.00000000
_symmetry_Int_Tables_number   1
_chemical_formula_structural   RbGeI3
_chemical_formula_sum   'Rb4 Ge4 I12'
_cell_volume   823.33963376
_cell_formula_units_Z   4
loop_
 _symmetry_equiv_pos_site_id
 _symmetry_equiv_pos_as_xyz
  1  'x, y, z'
loop_
 _atom_site_type_symbol
 _atom_site_label
 _atom_site_symmetry_multiplicity
 _atom_site_fract_x
 _atom_site_fract_y
 _atom_site_fract_z
 _atom_site_occupancy
  Rb  Rb0  1  0.244713  0.920111  0.419991  1
  Rb  Rb1  1  0.255287  0.420111  0.580009  1
  Rb  Rb2  1  0.755287  0.579889  0.919991  1
  Rb  Rb3  1  0.744713  0.079889  0.080009  1
  Ge  Ge4  1  0.284011  0.658819  0.187349  1
  Ge  Ge5  1  0.715989  0.841181  0.687349  1
  Ge  Ge6  1  0.784011  0.341181  0.312651  1
  Ge  Ge7  1  0.215989  0.158819  0.812651  1
  I  I8  1  0.261767  0.021652  0.639163  1
  I  I9  1  0.232862  0.170141  0.250117  1
  I  I10  1  0.267138  0.670141  0.749883  1
  I  I11  1  0.761767  0.978348  0.860837  1
  I  I12  1  0.767138  0.329859  0.750117  1
  I  I13  1  0.242007  0.290167  0.958526  1
  I  I14  1  0.738233  0.478348  0.139163  1
  I  I15  1  0.257993  0.790167  0.041474  1
  I  I16  1  0.238233  0.521652  0.360837  1
  I  I17  1  0.732862  0.829859  0.249883  1
  I  I18  1  0.757993  0.209833  0.458526  1
  I  I19  1  0.742007  0.709833  0.541474  1
