# generated using pymatgen
data_CdI2
_symmetry_space_group_name_H-M   'P 1'
_cell_length_a   4.33549106
_cell_length_b   4.33549132
_cell_length_c   89.31204227
_cell_angle_alpha   90.00000000
_cell_angle_beta   90.00000000
_cell_angle_gamma   119.99999799
_symmetry_Int_Tables_number   1
_chemical_formula_structural   CdI2
_chemical_formula_sum   'Cd12 I24'
_cell_volume   1453.84222179
_cell_formula_units_Z   12
loop_
 _symmetry_equiv_pos_site_id
 _symmetry_equiv_pos_as_xyz
  1  'x, y, z'
loop_
 _atom_site_type_symbol
 _atom_site_label
 _atom_site_symmetry_multiplicity
 _atom_site_fract_x
 _atom_site_fract_y
 _atom_site_fract_z
 _atom_site_occupancy
  Cd  Cd0  1  0.333333  0.666667  0.937502  1
  Cd  Cd1  1  0.666667  0.333333  0.020851  1
  Cd  Cd2  1  0.666667  0.333333  0.187492  1
  Cd  Cd3  1  0.666667  0.333333  0.520847  1
  Cd  Cd4  1  0.666667  0.333333  0.354175  1
  Cd  Cd5  1  0.333333  0.666667  0.270825  1
  Cd  Cd6  1  0.333333  0.666667  0.770816  1
  Cd  Cd7  1  0.000000  0.000000  0.854158  1
  Cd  Cd8  1  0.333333  0.666667  0.104159  1
  Cd  Cd9  1  0.000000  0.000000  0.687493  1
  Cd  Cd10  1  0.333333  0.666667  0.604160  1
  Cd  Cd11  1  0.333333  0.666667  0.437493  1
  I  I12  1  0.000000  0.000000  0.168189  1
  I  I13  1  0.666667  0.333333  0.706805  1
  I  I14  1  0.333333  0.666667  0.668186  1
  I  I15  1  0.666667  0.333333  0.456808  1
  I  I16  1  0.000000  0.000000  0.418189  1
  I  I17  1  0.333333  0.666667  0.206803  1
  I  I18  1  0.000000  0.000000  0.918194  1
  I  I19  1  0.666667  0.333333  0.873469  1
  I  I20  1  0.666667  0.333333  0.623469  1
  I  I21  1  0.000000  0.000000  0.584861  1
  I  I22  1  0.333333  0.666667  0.540150  1
  I  I23  1  0.333333  0.666667  0.040153  1
  I  I24  1  0.000000  0.000000  0.001552  1
  I  I25  1  0.000000  0.000000  0.084858  1
  I  I26  1  0.666667  0.333333  0.956821  1
  I  I27  1  0.000000  0.000000  0.334878  1
  I  I28  1  0.666667  0.333333  0.290135  1
  I  I29  1  0.333333  0.666667  0.834851  1
  I  I30  1  0.000000  0.000000  0.751499  1
  I  I31  1  0.666667  0.333333  0.790140  1
  I  I32  1  0.666667  0.333333  0.123469  1
  I  I33  1  0.000000  0.000000  0.501549  1
  I  I34  1  0.333333  0.666667  0.373480  1
  I  I35  1  0.000000  0.000000  0.251522  1
