# generated using pymatgen
data_Rb2Zn3(P2O7)2
_symmetry_space_group_name_H-M   'P 1'
_cell_length_a   7.30905647
_cell_length_b   7.34317430
_cell_length_c   13.43130596
_cell_angle_alpha   90.00000000
_cell_angle_beta   92.22989343
_cell_angle_gamma   90.00000000
_symmetry_Int_Tables_number   1
_chemical_formula_structural   Rb2Zn3(P2O7)2
_chemical_formula_sum   'Rb4 Zn6 P8 O28'
_cell_volume   720.33481103
_cell_formula_units_Z   2
loop_
 _symmetry_equiv_pos_site_id
 _symmetry_equiv_pos_as_xyz
  1  'x, y, z'
loop_
 _atom_site_type_symbol
 _atom_site_label
 _atom_site_symmetry_multiplicity
 _atom_site_fract_x
 _atom_site_fract_y
 _atom_site_fract_z
 _atom_site_occupancy
  Rb  Rb0  1  0.946314  0.249508  0.416610  1
  Rb  Rb1  1  0.053686  0.749508  0.583390  1
  Rb  Rb2  1  0.388886  0.006708  0.093337  1
  Rb  Rb3  1  0.611114  0.506708  0.906663  1
  Zn  Zn4  1  0.208198  0.379592  0.736814  1
  Zn  Zn5  1  0.790447  1.000081  0.901526  1
  Zn  Zn6  1  0.548361  0.910809  0.613272  1
  Zn  Zn7  1  0.791802  0.879592  0.263186  1
  Zn  Zn8  1  0.209553  0.500081  0.098474  1
  Zn  Zn9  1  0.451639  0.410809  0.386728  1
  P  P10  1  0.567094  0.487767  0.611942  1
  P  P11  1  0.364363  0.013615  0.816205  1
  P  P12  1  0.635637  0.513615  0.183795  1
  P  P13  1  0.165238  0.712064  0.310068  1
  P  P14  1  0.834762  0.212064  0.689932  1
  P  P15  1  0.111583  0.724305  0.892055  1
  P  P16  1  0.432906  0.987767  0.388058  1
  P  P17  1  0.888417  0.224305  0.107945  1
  O  O18  1  0.233737  0.653547  0.979121  1
  O  O19  1  0.657383  0.720309  0.168389  1
  O  O20  1  0.342617  0.220309  0.831611  1
  O  O21  1  0.338898  0.850132  0.305470  1
  O  O22  1  0.661102  0.350132  0.694530  1
  O  O23  1  0.529393  0.933764  0.875320  1
  O  O24  1  0.223237  0.553347  0.378538  1
  O  O25  1  0.877150  0.109504  0.201828  1
  O  O26  1  0.997059  0.314355  0.646503  1
  O  O27  1  0.352132  0.959394  0.706253  1
  O  O28  1  0.337283  0.170411  0.367256  1
  O  O29  1  0.635908  0.988957  0.365246  1
  O  O30  1  0.813029  0.428331  0.131640  1
  O  O31  1  0.086481  0.263932  0.079586  1
  O  O32  1  0.647868  0.459394  0.293747  1
  O  O33  1  0.470607  0.433764  0.124680  1
  O  O34  1  0.122850  0.609504  0.798172  1
  O  O35  1  0.662717  0.670411  0.632744  1
  O  O36  1  0.913519  0.763932  0.920414  1
  O  O37  1  0.392597  0.910714  0.490836  1
  O  O38  1  0.364092  0.488957  0.634754  1
  O  O39  1  0.776763  0.053347  0.621462  1
  O  O40  1  0.002941  0.814355  0.353497  1
  O  O41  1  0.126803  0.664654  0.200807  1
  O  O42  1  0.607403  0.410714  0.509164  1
  O  O43  1  0.186971  0.928331  0.868360  1
  O  O44  1  0.766263  0.153547  0.020879  1
  O  O45  1  0.873197  0.164654  0.799193  1
