# generated using pymatgen
data_SeS4N3Cl5
_symmetry_space_group_name_H-M   'P 1'
_cell_length_a   8.69106062
_cell_length_b   8.59612112
_cell_length_c   18.63156144
_cell_angle_alpha   90.00000000
_cell_angle_beta   90.00000000
_cell_angle_gamma   102.67429674
_symmetry_Int_Tables_number   1
_chemical_formula_structural   SeS4N3Cl5
_chemical_formula_sum   'Se4 S16 N12 Cl20'
_cell_volume   1358.03533771
_cell_formula_units_Z   4
loop_
 _symmetry_equiv_pos_site_id
 _symmetry_equiv_pos_as_xyz
  1  'x, y, z'
loop_
 _atom_site_type_symbol
 _atom_site_label
 _atom_site_symmetry_multiplicity
 _atom_site_fract_x
 _atom_site_fract_y
 _atom_site_fract_z
 _atom_site_occupancy
  Se  Se0  1  0.365715  0.513830  0.407743  1
  Se  Se1  1  0.634285  0.486170  0.592257  1
  Se  Se2  1  0.865715  0.513830  0.092257  1
  Se  Se3  1  0.134285  0.486170  0.907743  1
  S  S4  1  0.320918  0.792975  0.663149  1
  S  S5  1  0.679082  0.207025  0.336851  1
  S  S6  1  0.721908  0.821954  0.938841  1
  S  S7  1  0.221908  0.821954  0.561159  1
  S  S8  1  0.741029  0.079768  0.763796  1
  S  S9  1  0.179082  0.207025  0.163149  1
  S  S10  1  0.397683  0.881300  0.094906  1
  S  S11  1  0.897683  0.881300  0.405094  1
  S  S12  1  0.758971  0.920232  0.263796  1
  S  S13  1  0.278092  0.178046  0.061159  1
  S  S14  1  0.778092  0.178046  0.438841  1
  S  S15  1  0.602317  0.118700  0.905094  1
  S  S16  1  0.258971  0.920232  0.236204  1
  S  S17  1  0.241029  0.079768  0.736204  1
  S  S18  1  0.820918  0.792975  0.836851  1
  S  S19  1  0.102317  0.118700  0.594906  1
  N  N20  1  0.856254  0.030785  0.439810  1
  N  N21  1  0.800976  0.927214  0.782842  1
  N  N22  1  0.148306  0.152601  0.676508  1
  N  N23  1  0.356254  0.030785  0.060190  1
  N  N24  1  0.643746  0.969215  0.939810  1
  N  N25  1  0.851694  0.847399  0.323492  1
  N  N26  1  0.699024  0.072786  0.282842  1
  N  N27  1  0.648306  0.152601  0.823492  1
  N  N28  1  0.351694  0.847399  0.176508  1
  N  N29  1  0.143746  0.969215  0.560190  1
  N  N30  1  0.199024  0.072786  0.217158  1
  N  N31  1  0.300976  0.927214  0.717158  1
  Cl  Cl32  1  0.543968  0.197575  0.590114  1
  Cl  Cl33  1  0.280272  0.231303  0.409209  1
  Cl  Cl34  1  0.922615  0.511857  0.209979  1
  Cl  Cl35  1  0.219728  0.768697  0.909209  1
  Cl  Cl36  1  0.077385  0.488143  0.790021  1
  Cl  Cl37  1  0.780272  0.231303  0.090791  1
  Cl  Cl38  1  0.456032  0.802425  0.409886  1
  Cl  Cl39  1  0.338843  0.518178  0.558902  1
  Cl  Cl40  1  0.612165  0.540880  0.105335  1
  Cl  Cl41  1  0.043968  0.197575  0.909886  1
  Cl  Cl42  1  0.956032  0.802425  0.090114  1
  Cl  Cl43  1  0.112165  0.540880  0.394665  1
  Cl  Cl44  1  0.387835  0.459120  0.894665  1
  Cl  Cl45  1  0.719728  0.768697  0.590791  1
  Cl  Cl46  1  0.838843  0.518178  0.941098  1
  Cl  Cl47  1  0.161157  0.481822  0.058902  1
  Cl  Cl48  1  0.422615  0.511857  0.290021  1
  Cl  Cl49  1  0.577385  0.488143  0.709979  1
  Cl  Cl50  1  0.887835  0.459120  0.605335  1
  Cl  Cl51  1  0.661157  0.481822  0.441098  1
