# generated using pymatgen
data_NaC4N3
_symmetry_space_group_name_H-M   'P 1'
_cell_length_a   3.81672103
_cell_length_b   7.80612701
_cell_length_c   9.30266498
_cell_angle_alpha   74.61349049
_cell_angle_beta   88.78744317
_cell_angle_gamma   80.85257014
_symmetry_Int_Tables_number   1
_chemical_formula_structural   NaC4N3
_chemical_formula_sum   'Na2 C8 N6'
_cell_volume   263.76497848
_cell_formula_units_Z   2
loop_
 _symmetry_equiv_pos_site_id
 _symmetry_equiv_pos_as_xyz
  1  'x, y, z'
loop_
 _atom_site_type_symbol
 _atom_site_label
 _atom_site_symmetry_multiplicity
 _atom_site_fract_x
 _atom_site_fract_y
 _atom_site_fract_z
 _atom_site_occupancy
  Na  Na0  1  0.819543  0.843816  0.158644  1
  Na  Na1  1  0.180457  0.156184  0.841356  1
  C  C2  1  0.748970  0.817394  0.798454  1
  C  C3  1  0.715284  0.703681  0.707857  1
  C  C4  1  0.644277  0.529295  0.771501  1
  C  C5  1  0.284716  0.296319  0.292143  1
  C  C6  1  0.355723  0.470705  0.228499  1
  C  C7  1  0.251030  0.182606  0.201546  1
  C  C8  1  0.763681  0.760911  0.552901  1
  C  C9  1  0.236319  0.239089  0.447099  1
  N  N10  1  0.804529  0.804967  0.424026  1
  N  N11  1  0.195471  0.195033  0.575974  1
  N  N12  1  0.587810  0.381760  0.822545  1
  N  N13  1  0.776267  0.913017  0.875002  1
  N  N14  1  0.223733  0.086983  0.124998  1
  N  N15  1  0.412190  0.618240  0.177455  1
