# generated using pymatgen
data_Sb4PtC4(O2F11)2
_symmetry_space_group_name_H-M   'P 1'
_cell_length_a   10.01309515
_cell_length_b   13.05179012
_cell_length_c   18.28908966
_cell_angle_alpha   103.51864111
_cell_angle_beta   90.00000000
_cell_angle_gamma   90.00000000
_symmetry_Int_Tables_number   1
_chemical_formula_structural   Sb4PtC4(O2F11)2
_chemical_formula_sum   'Sb16 Pt4 C16 O16 F88'
_cell_volume   2323.95697004
_cell_formula_units_Z   4
loop_
 _symmetry_equiv_pos_site_id
 _symmetry_equiv_pos_as_xyz
  1  'x, y, z'
loop_
 _atom_site_type_symbol
 _atom_site_label
 _atom_site_symmetry_multiplicity
 _atom_site_fract_x
 _atom_site_fract_y
 _atom_site_fract_z
 _atom_site_occupancy
  Sb  Sb0  1  0.254060  0.052806  0.331183  1
  Sb  Sb1  1  0.258707  0.931949  0.515097  1
  Sb  Sb2  1  0.754060  0.947194  0.168817  1
  Sb  Sb3  1  0.745355  0.378390  0.867435  1
  Sb  Sb4  1  0.758707  0.068051  0.984903  1
  Sb  Sb5  1  0.740792  0.489362  0.176436  1
  Sb  Sb6  1  0.759208  0.489362  0.676436  1
  Sb  Sb7  1  0.741293  0.068051  0.484903  1
  Sb  Sb8  1  0.254645  0.621610  0.132565  1
  Sb  Sb9  1  0.241292  0.931949  0.015097  1
  Sb  Sb10  1  0.245355  0.621610  0.632565  1
  Sb  Sb11  1  0.245940  0.052806  0.831183  1
  Sb  Sb12  1  0.240792  0.510638  0.323564  1
  Sb  Sb13  1  0.745940  0.947194  0.668817  1
  Sb  Sb14  1  0.259208  0.510638  0.823564  1
  Sb  Sb15  1  0.754645  0.378390  0.367435  1
  Pt  Pt16  1  0.741405  0.728372  0.410310  1
  Pt  Pt17  1  0.241405  0.271628  0.089690  1
  Pt  Pt18  1  0.758595  0.728372  0.910310  1
  Pt  Pt19  1  0.258595  0.271628  0.589690  1
  C  C20  1  0.408387  0.235218  0.650048  1
  C  C21  1  0.388021  0.320107  0.522979  1
  C  C22  1  0.622462  0.775191  0.846124  1
  C  C23  1  0.386401  0.304321  0.025085  1
  C  C24  1  0.122462  0.224809  0.653876  1
  C  C25  1  0.611979  0.679893  0.477021  1
  C  C26  1  0.113599  0.304321  0.525085  1
  C  C27  1  0.877538  0.775191  0.346124  1
  C  C28  1  0.591613  0.764782  0.349952  1
  C  C29  1  0.888021  0.679893  0.977021  1
  C  C30  1  0.377538  0.224809  0.153876  1
  C  C31  1  0.091613  0.235218  0.150048  1
  C  C32  1  0.908387  0.764782  0.849952  1
  C  C33  1  0.886401  0.695679  0.474915  1
  C  C34  1  0.613599  0.695679  0.974915  1
  C  C35  1  0.111979  0.320107  0.022979  1
  O  O36  1  0.033643  0.320653  0.485548  1
  O  O37  1  -0.003325  0.786718  0.818073  1
  O  O38  1  0.040928  0.197836  0.687980  1
  O  O39  1  0.533643  0.679347  0.014452  1
  O  O40  1  0.466357  0.320653  0.985548  1
  O  O41  1  0.543137  0.652026  0.517509  1
  O  O42  1  0.956863  0.652026  0.017509  1
  O  O43  1  0.503325  0.786718  0.318073  1
  O  O44  1  0.043137  0.347974  0.982491  1
  O  O45  1  0.459072  0.197836  0.187980  1
  O  O46  1  0.496675  0.213282  0.681927  1
  O  O47  1  0.456863  0.347974  0.482491  1
  O  O48  1  1.003325  0.213282  0.181927  1
  O  O49  1  0.966357  0.679347  0.514452  1
  O  O50  1  0.959072  0.802164  0.312020  1
  O  O51  1  0.540928  0.802164  0.812020  1
  F  F52  1  0.879321  0.486491  0.889497  1
  F  F53  1  0.366742  0.046191  0.034641  1
  F  F54  1  0.620679  0.486491  0.389497  1
  F  F55  1  0.397331  0.714873  0.167697  1
  F  F56  1  0.732927  0.818841  0.591204  1
  F  F57  1  0.377775  0.603237  0.371463  1
  F  F58  1  0.441181  0.058362  0.317901  1
  F  F59  1  0.122225  0.603237  0.871463  1
  F  F60  1  0.897331  0.285127  0.332303  1
  F  F61  1  0.102669  0.714873  0.667697  1
  F  F62  1  0.251367  0.646815  0.534777  1
  F  F63  1  0.120679  0.513509  0.110503  1
  F  F64  1  0.748633  0.353185  0.465223  1
  F  F65  1  0.558819  0.941638  0.682099  1
  F  F66  1  0.261886  0.590396  0.239068  1
  F  F67  1  0.926858  0.955089  0.640382  1
  F  F68  1  0.738114  0.409604  0.760931  1
  F  F69  1  0.282601  0.126022  0.754462  1
  F  F70  1  0.073142  0.044911  0.359618  1
  F  F71  1  0.888651  0.965913  0.938391  1
  F  F72  1  0.109687  0.426225  0.261346  1
  F  F73  1  0.609687  0.573775  0.238654  1
  F  F74  1  0.279267  0.888714  0.104092  1
  F  F75  1  0.379321  0.513509  0.610503  1
  F  F76  1  0.388651  0.034087  0.561609  1
  F  F77  1  0.622225  0.396763  0.628537  1
  F  F78  1  0.879028  0.279374  0.826726  1
  F  F79  1  0.720733  0.111286  0.895908  1
  F  F80  1  0.803029  0.021009  0.082211  1
  F  F81  1  0.779267  0.111286  0.395908  1
  F  F82  1  0.380573  0.508292  0.103676  1
  F  F83  1  0.397511  0.831729  0.482373  1
  F  F84  1  0.369457  0.841307  0.956118  1
  F  F85  1  0.877775  0.396763  0.128537  1
  F  F86  1  0.130543  0.841307  0.456118  1
  F  F87  1  0.111349  0.034087  0.061609  1
  F  F88  1  0.245738  0.914974  0.269805  1
  F  F89  1  0.238114  0.590396  0.739069  1
  F  F90  1  0.129250  0.414832  0.769935  1
  F  F91  1  0.274446  0.439659  0.902752  1
  F  F92  1  0.696971  0.021009  0.582211  1
  F  F93  1  0.761886  0.409604  0.260931  1
  F  F94  1  0.196971  0.978991  0.917789  1
  F  F95  1  0.120972  0.720626  0.173274  1
  F  F96  1  0.725554  0.560341  0.097248  1
  F  F97  1  0.602489  0.168271  0.517627  1
  F  F98  1  0.745738  0.085026  0.230195  1
  F  F99  1  0.058819  0.058362  0.817901  1
  F  F100  1  0.426858  0.044911  0.859618  1
  F  F101  1  0.866742  0.953809  0.465359  1
  F  F102  1  0.119427  0.508292  0.603676  1
  F  F103  1  0.891055  0.386125  0.637719  1
  F  F104  1  0.869457  0.158693  0.543882  1
  F  F105  1  0.941181  0.941638  0.182099  1
  F  F106  1  0.108945  0.613875  0.362281  1
  F  F107  1  0.248633  0.646815  0.034777  1
  F  F108  1  0.611349  0.965913  0.438391  1
  F  F109  1  0.102489  0.831729  0.982373  1
  F  F110  1  0.774446  0.560341  0.597248  1
  F  F111  1  0.391055  0.613875  0.862281  1
  F  F112  1  0.303029  0.978991  0.417789  1
  F  F113  1  0.870750  0.585168  0.230065  1
  F  F114  1  0.220733  0.888714  0.604092  1
  F  F115  1  0.608945  0.386125  0.137719  1
  F  F116  1  0.717399  0.873978  0.245538  1
  F  F117  1  0.619427  0.491708  0.896324  1
  F  F118  1  0.751367  0.353185  0.965223  1
  F  F119  1  0.390313  0.426225  0.761346  1
  F  F120  1  0.890313  0.573775  0.738654  1
  F  F121  1  0.767073  0.818841  0.091204  1
  F  F122  1  0.629250  0.585168  0.730065  1
  F  F123  1  0.633258  0.953809  0.965359  1
  F  F124  1  0.254262  0.914974  0.769805  1
  F  F125  1  0.133258  0.046191  0.534641  1
  F  F126  1  0.573142  0.955089  0.140382  1
  F  F127  1  0.232927  0.181159  0.908796  1
  F  F128  1  0.630543  0.158693  0.043882  1
  F  F129  1  0.620972  0.279374  0.326726  1
  F  F130  1  0.379028  0.720626  0.673274  1
  F  F131  1  0.267073  0.181159  0.408796  1
  F  F132  1  0.217399  0.126022  0.254462  1
  F  F133  1  0.880573  0.491708  0.396324  1
  F  F134  1  0.782601  0.873978  0.745538  1
  F  F135  1  0.754262  0.085026  0.730195  1
  F  F136  1  0.225554  0.439659  0.402752  1
  F  F137  1  0.370750  0.414832  0.269935  1
  F  F138  1  0.897511  0.168271  0.017627  1
  F  F139  1  0.602669  0.285127  0.832303  1
