# generated using pymatgen
data_Mo6PbCl14
_symmetry_space_group_name_H-M   'P 1'
_cell_length_a   13.08628696
_cell_length_b   13.08628696
_cell_length_c   13.08628696
_cell_angle_alpha   90.00000000
_cell_angle_beta   90.00000000
_cell_angle_gamma   90.00000000
_symmetry_Int_Tables_number   1
_chemical_formula_structural   Mo6PbCl14
_chemical_formula_sum   'Mo24 Pb4 Cl56'
_cell_volume   2241.03850330
_cell_formula_units_Z   4
loop_
 _symmetry_equiv_pos_site_id
 _symmetry_equiv_pos_as_xyz
  1  'x, y, z'
loop_
 _atom_site_type_symbol
 _atom_site_label
 _atom_site_symmetry_multiplicity
 _atom_site_fract_x
 _atom_site_fract_y
 _atom_site_fract_z
 _atom_site_occupancy
  Mo  Mo0  1  0.037333  0.365385  0.529010  1
  Mo  Mo1  1  0.529010  0.037333  0.365385  1
  Mo  Mo2  1  0.865385  0.470990  0.537333  1
  Mo  Mo3  1  0.365385  0.970990  0.462667  1
  Mo  Mo4  1  0.970990  0.462667  0.365385  1
  Mo  Mo5  1  0.134615  0.970990  0.037333  1
  Mo  Mo6  1  0.634615  0.470990  0.962667  1
  Mo  Mo7  1  0.470990  0.537333  0.865385  1
  Mo  Mo8  1  0.970990  0.037333  0.134615  1
  Mo  Mo9  1  0.037333  0.134615  0.970990  1
  Mo  Mo10  1  0.865385  0.029010  0.962667  1
  Mo  Mo11  1  0.029010  0.962667  0.865385  1
  Mo  Mo12  1  0.962667  0.634615  0.470990  1
  Mo  Mo13  1  0.134615  0.529010  0.462667  1
  Mo  Mo14  1  0.029010  0.537333  0.634615  1
  Mo  Mo15  1  0.537333  0.865385  0.470990  1
  Mo  Mo16  1  0.962667  0.865385  0.029010  1
  Mo  Mo17  1  0.470990  0.962667  0.634615  1
  Mo  Mo18  1  0.529010  0.462667  0.134615  1
  Mo  Mo19  1  0.365385  0.529010  0.037333  1
  Mo  Mo20  1  0.537333  0.634615  0.029010  1
  Mo  Mo21  1  0.634615  0.029010  0.537333  1
  Mo  Mo22  1  0.462667  0.134615  0.529010  1
  Mo  Mo23  1  0.462667  0.365385  0.970990  1
  Pb  Pb24  1  0.000000  0.000000  0.500000  1
  Pb  Pb25  1  0.500000  0.500000  0.500000  1
  Pb  Pb26  1  0.500000  0.000000  0.000000  1
  Pb  Pb27  1  0.000000  0.500000  0.000000  1
  Cl  Cl28  1  0.189552  0.928055  0.408908  1
  Cl  Cl29  1  0.188526  0.063636  0.879642  1
  Cl  Cl30  1  0.436364  0.879642  0.311474  1
  Cl  Cl31  1  0.811474  0.563636  0.379642  1
  Cl  Cl32  1  0.428055  0.908908  0.810448  1
  Cl  Cl33  1  0.091092  0.189552  0.571945  1
  Cl  Cl34  1  0.311474  0.436364  0.879642  1
  Cl  Cl35  1  0.810448  0.071945  0.591092  1
  Cl  Cl36  1  0.571945  0.091092  0.189552  1
  Cl  Cl37  1  0.936364  0.120358  0.811474  1
  Cl  Cl38  1  0.689552  0.071945  0.908908  1
  Cl  Cl39  1  0.563636  0.120358  0.688526  1
  Cl  Cl40  1  0.364635  0.135365  0.364635  1
  Cl  Cl41  1  0.879642  0.311474  0.436364  1
  Cl  Cl42  1  0.864635  0.864635  0.864635  1
  Cl  Cl43  1  0.936364  0.379642  0.688526  1
  Cl  Cl44  1  0.620358  0.188526  0.436364  1
  Cl  Cl45  1  0.591092  0.810448  0.071945  1
  Cl  Cl46  1  0.689552  0.428055  0.591092  1
  Cl  Cl47  1  0.135365  0.364635  0.364635  1
  Cl  Cl48  1  0.379642  0.688526  0.936364  1
  Cl  Cl49  1  0.071945  0.591092  0.810448  1
  Cl  Cl50  1  0.688526  0.936364  0.379642  1
  Cl  Cl51  1  0.310448  0.571945  0.408908  1
  Cl  Cl52  1  0.428055  0.591092  0.689552  1
  Cl  Cl53  1  0.688526  0.563636  0.120358  1
  Cl  Cl54  1  0.620358  0.311474  0.063636  1
  Cl  Cl55  1  0.071945  0.908908  0.689552  1
  Cl  Cl56  1  0.364635  0.364635  0.135365  1
  Cl  Cl57  1  0.408908  0.310448  0.571945  1
  Cl  Cl58  1  0.928055  0.408908  0.189552  1
  Cl  Cl59  1  0.436364  0.620358  0.188526  1
  Cl  Cl60  1  0.189552  0.571945  0.091092  1
  Cl  Cl61  1  0.063636  0.620358  0.311474  1
  Cl  Cl62  1  0.135365  0.135365  0.135365  1
  Cl  Cl63  1  0.120358  0.688526  0.563636  1
  Cl  Cl64  1  0.379642  0.811474  0.563636  1
  Cl  Cl65  1  0.810448  0.428055  0.908908  1
  Cl  Cl66  1  0.311474  0.063636  0.620358  1
  Cl  Cl67  1  0.908908  0.689552  0.071945  1
  Cl  Cl68  1  0.811474  0.936364  0.120358  1
  Cl  Cl69  1  0.563636  0.379642  0.811474  1
  Cl  Cl70  1  0.120358  0.811474  0.936364  1
  Cl  Cl71  1  0.408908  0.189552  0.928055  1
  Cl  Cl72  1  0.310448  0.928055  0.091092  1
  Cl  Cl73  1  0.091092  0.310448  0.928055  1
  Cl  Cl74  1  0.591092  0.689552  0.428055  1
  Cl  Cl75  1  0.864635  0.635365  0.635365  1
  Cl  Cl76  1  0.928055  0.091092  0.310448  1
  Cl  Cl77  1  0.571945  0.408908  0.310448  1
  Cl  Cl78  1  0.879642  0.188526  0.063636  1
  Cl  Cl79  1  0.908908  0.810448  0.428055  1
  Cl  Cl80  1  0.635365  0.635365  0.864635  1
  Cl  Cl81  1  0.635365  0.864635  0.635365  1
  Cl  Cl82  1  0.188526  0.436364  0.620358  1
  Cl  Cl83  1  0.063636  0.879642  0.188526  1
