# generated using pymatgen
data_Sr2MnP3O11
_symmetry_space_group_name_H-M   'P 1'
_cell_length_a   6.74933828
_cell_length_b   6.93932394
_cell_length_c   19.44562405
_cell_angle_alpha   90.00000000
_cell_angle_beta   99.44697875
_cell_angle_gamma   90.00000000
_symmetry_Int_Tables_number   1
_chemical_formula_structural   Sr2MnP3O11
_chemical_formula_sum   'Sr8 Mn4 P12 O44'
_cell_volume   898.40052825
_cell_formula_units_Z   4
loop_
 _symmetry_equiv_pos_site_id
 _symmetry_equiv_pos_as_xyz
  1  'x, y, z'
loop_
 _atom_site_type_symbol
 _atom_site_label
 _atom_site_symmetry_multiplicity
 _atom_site_fract_x
 _atom_site_fract_y
 _atom_site_fract_z
 _atom_site_occupancy
  Sr  Sr0  1  0.662196  0.043154  0.767024  1
  Sr  Sr1  1  0.319241  0.640922  0.427026  1
  Sr  Sr2  1  0.680759  0.359078  0.572974  1
  Sr  Sr3  1  0.337804  0.543154  0.732976  1
  Sr  Sr4  1  0.680759  0.140922  0.072974  1
  Sr  Sr5  1  0.337804  0.956846  0.232976  1
  Sr  Sr6  1  0.319241  0.859078  0.927026  1
  Sr  Sr7  1  0.662196  0.456846  0.267024  1
  Mn  Mn8  1  0.960341  0.628888  0.123516  1
  Mn  Mn9  1  0.039659  0.371112  0.876484  1
  Mn  Mn10  1  0.039659  0.128888  0.376484  1
  Mn  Mn11  1  0.960341  0.871112  0.623516  1
  P  P12  1  0.177414  0.043870  0.771325  1
  P  P13  1  0.178191  0.310118  0.043101  1
  P  P14  1  0.822586  0.956130  0.228675  1
  P  P15  1  0.558867  0.361986  0.908055  1
  P  P16  1  0.441133  0.638014  0.091945  1
  P  P17  1  0.821809  0.689882  0.956899  1
  P  P18  1  0.441133  0.861986  0.591945  1
  P  P19  1  0.821809  0.810118  0.456899  1
  P  P20  1  0.178191  0.189882  0.543101  1
  P  P21  1  0.177414  0.456130  0.271325  1
  P  P22  1  0.822586  0.543870  0.728675  1
  P  P23  1  0.558867  0.138014  0.408055  1
  O  O24  1  0.689250  0.501104  0.967879  1
  O  O25  1  0.296084  0.681846  0.143131  1
  O  O26  1  0.296084  0.818154  0.643131  1
  O  O27  1  0.077487  0.113620  0.835657  1
  O  O28  1  0.372403  0.022351  0.375387  1
  O  O29  1  0.689694  0.804977  0.254548  1
  O  O30  1  0.509410  0.312041  0.449545  1
  O  O31  1  0.000242  0.377057  0.079617  1
  O  O32  1  0.689250  0.998896  0.467879  1
  O  O33  1  0.308123  0.161735  0.085046  1
  O  O34  1  0.703916  0.318154  0.856869  1
  O  O35  1  0.691877  0.661735  0.414954  1
  O  O36  1  0.310750  0.001104  0.532121  1
  O  O37  1  0.305654  0.866630  0.797502  1
  O  O38  1  0.509410  0.187959  0.949545  1
  O  O39  1  0.009159  0.011354  0.284219  1
  O  O40  1  0.627597  0.977649  0.624613  1
  O  O41  1  0.308123  0.338265  0.585046  1
  O  O42  1  0.091544  0.240857  0.968230  1
  O  O43  1  0.999758  0.622943  0.920383  1
  O  O44  1  0.689694  0.695023  0.754548  1
  O  O45  1  0.077487  0.386380  0.335657  1
  O  O46  1  0.310306  0.304977  0.245452  1
  O  O47  1  0.694346  0.133370  0.202498  1
  O  O48  1  0.490590  0.687959  0.550455  1
  O  O49  1  0.310750  0.498896  0.032121  1
  O  O50  1  0.922513  0.886380  0.164343  1
  O  O51  1  0.908456  0.740857  0.531770  1
  O  O52  1  0.305654  0.633370  0.297502  1
  O  O53  1  0.990841  0.988646  0.715781  1
  O  O54  1  0.490590  0.812041  0.050455  1
  O  O55  1  0.009159  0.488646  0.784219  1
  O  O56  1  0.703916  0.181846  0.356869  1
  O  O57  1  0.372403  0.477649  0.875387  1
  O  O58  1  0.000242  0.122943  0.579617  1
  O  O59  1  0.999758  0.877057  0.420383  1
  O  O60  1  0.694346  0.366630  0.702498  1
  O  O61  1  0.627597  0.522351  0.124613  1
  O  O62  1  0.922513  0.613620  0.664343  1
  O  O63  1  0.990841  0.511354  0.215781  1
  O  O64  1  0.691877  0.838265  0.914954  1
  O  O65  1  0.091544  0.259143  0.468230  1
  O  O66  1  0.908456  0.759143  0.031770  1
  O  O67  1  0.310306  0.195023  0.745452  1
