# generated using pymatgen
data_NaP(HO2)2
_symmetry_space_group_name_H-M   'P 1'
_cell_length_a   6.23752712
_cell_length_b   9.79048101
_cell_length_c   12.52176863
_cell_angle_alpha   90.00000000
_cell_angle_beta   90.00000000
_cell_angle_gamma   91.42710204
_symmetry_Int_Tables_number   1
_chemical_formula_structural   NaP(HO2)2
_chemical_formula_sum   'Na8 P8 H16 O32'
_cell_volume   764.44707087
_cell_formula_units_Z   8
loop_
 _symmetry_equiv_pos_site_id
 _symmetry_equiv_pos_as_xyz
  1  'x, y, z'
loop_
 _atom_site_type_symbol
 _atom_site_label
 _atom_site_symmetry_multiplicity
 _atom_site_fract_x
 _atom_site_fract_y
 _atom_site_fract_z
 _atom_site_occupancy
  P  P0  1  0.399283  0.188129  0.996825  1
  P  P1  1  0.600717  0.311871  0.496825  1
  P  P2  1  0.600717  0.811871  0.003175  1
  P  P3  1  0.399283  0.688129  0.503175  1
  P  P4  1  0.456098  0.489739  0.321647  1
  P  P5  1  0.543902  0.010261  0.821647  1
  P  P6  1  0.543902  0.510261  0.678353  1
  P  P7  1  0.456098  0.989739  0.178353  1
  Na  Na8  1  0.938248  0.071939  0.126086  1
  Na  Na9  1  0.061753  0.428061  0.626086  1
  Na  Na10  1  0.061753  0.928061  0.873914  1
  Na  Na11  1  0.938248  0.571939  0.373914  1
  Na  Na12  1  0.741257  0.470230  0.062261  1
  Na  Na13  1  0.258743  0.029770  0.562261  1
  Na  Na14  1  0.258743  0.529770  0.937739  1
  Na  Na15  1  0.741257  0.970230  0.437739  1
  O  O16  1  0.514356  0.119284  0.100646  1
  O  O17  1  0.485644  0.380716  0.600646  1
  O  O18  1  0.485644  0.880716  0.899354  1
  O  O19  1  0.514356  0.619284  0.399354  1
  O  O20  1  0.435707  0.361776  0.403968  1
  O  O21  1  0.564293  0.138224  0.903968  1
  O  O22  1  0.564293  0.638224  0.596032  1
  O  O23  1  0.435707  0.861776  0.096032  1
  O  O24  1  0.568206  0.161233  0.507898  1
  O  O25  1  0.431794  0.338767  0.007898  1
  O  O26  1  0.431794  0.838767  0.492102  1
  O  O27  1  0.568206  0.661233  0.992102  1
  O  O28  1  0.820762  0.374926  0.479536  1
  O  O29  1  0.179237  0.125074  0.979536  1
  O  O30  1  0.179237  0.625074  0.520464  1
  O  O31  1  0.820762  0.874926  0.020464  1
  O  O32  1  0.651696  0.476778  0.253009  1
  O  O33  1  0.348304  0.023222  0.753009  1
  O  O34  1  0.348304  0.523222  0.746991  1
  O  O35  1  0.651696  0.976778  0.246991  1
  O  O36  1  0.238506  0.503967  0.272385  1
  O  O37  1  0.761494  0.996033  0.772385  1
  O  O38  1  0.761494  0.496033  0.727615  1
  O  O39  1  0.238506  0.003967  0.227615  1
  O  O40  1  0.055040  0.117756  0.416128  1
  O  O41  1  0.944960  0.382244  0.916128  1
  O  O42  1  0.944960  0.882244  0.583872  1
  O  O43  1  0.055040  0.617756  0.083872  1
  O  O44  1  0.948045  0.297299  0.182902  1
  O  O45  1  0.051955  0.202701  0.682902  1
  O  O46  1  0.051955  0.702701  0.817098  1
  O  O47  1  0.948045  0.797299  0.317098  1
  H  H48  1  1.007534  0.212111  0.421339  1
  H  H49  1  -0.007534  0.287889  0.921339  1
  H  H50  1  -0.007534  0.787889  0.578661  1
  H  H51  1  1.007534  0.712111  0.078661  1
  H  H52  1  0.133986  0.108966  0.348704  1
  H  H53  1  0.866014  0.391034  0.848704  1
  H  H54  1  0.866014  0.891034  0.651296  1
  H  H55  1  0.133986  0.608966  0.151296  1
  H  H56  1  0.076051  0.352509  0.201892  1
  H  H57  1  0.923949  0.147491  0.701892  1
  H  H58  1  0.923949  0.647491  0.798108  1
  H  H59  1  0.076051  0.852509  0.298108  1
  H  H60  1  0.832927  0.338972  0.224841  1
  H  H61  1  0.167073  0.161028  0.724841  1
  H  H62  1  0.167073  0.661028  0.775159  1
  H  H63  1  0.832927  0.838972  0.275159  1
