# generated using pymatgen
data_CsTaPS6
_symmetry_space_group_name_H-M   'P 1'
_cell_length_a   14.98912823
_cell_length_b   16.29306879
_cell_length_c   18.04227455
_cell_angle_alpha   90.00000000
_cell_angle_beta   90.00000000
_cell_angle_gamma   105.79865069
_symmetry_Int_Tables_number   1
_chemical_formula_structural   CsTaPS6
_chemical_formula_sum   'Cs16 Ta16 P16 S96'
_cell_volume   4239.81513901
_cell_formula_units_Z   16
loop_
 _symmetry_equiv_pos_site_id
 _symmetry_equiv_pos_as_xyz
  1  'x, y, z'
loop_
 _atom_site_type_symbol
 _atom_site_label
 _atom_site_symmetry_multiplicity
 _atom_site_fract_x
 _atom_site_fract_y
 _atom_site_fract_z
 _atom_site_occupancy
  Cs  Cs0  1  0.865416  0.029289  0.331501  1
  Cs  Cs1  1  0.141295  0.451982  0.934201  1
  Cs  Cs2  1  0.992391  0.126855  0.982534  1
  Cs  Cs3  1  0.007609  0.873145  0.017466  1
  Cs  Cs4  1  0.555412  1.001816  0.872895  1
  Cs  Cs5  1  0.444588  -0.001816  0.127105  1
  Cs  Cs6  1  0.492391  0.626855  0.517466  1
  Cs  Cs7  1  0.365416  0.529289  0.168499  1
  Cs  Cs8  1  0.858705  0.548018  0.065799  1
  Cs  Cs9  1  0.507609  0.373145  0.482534  1
  Cs  Cs10  1  0.358705  0.048018  0.434201  1
  Cs  Cs11  1  0.641295  0.951982  0.565799  1
  Cs  Cs12  1  0.134584  0.970711  0.668499  1
  Cs  Cs13  1  0.944588  0.498184  0.372895  1
  Cs  Cs14  1  0.055412  0.501816  0.627105  1
  Cs  Cs15  1  0.634584  0.470711  0.831501  1
  Ta  Ta16  1  0.362424  0.689317  0.728612  1
  Ta  Ta17  1  0.862424  0.189317  0.771388  1
  Ta  Ta18  1  0.252175  0.744611  0.891266  1
  Ta  Ta19  1  0.247825  0.755389  0.391266  1
  Ta  Ta20  1  0.637576  0.310683  0.271388  1
  Ta  Ta21  1  0.287660  0.266935  0.712678  1
  Ta  Ta22  1  0.674769  0.842534  0.125078  1
  Ta  Ta23  1  0.787660  0.766935  0.787322  1
  Ta  Ta24  1  0.137576  0.810683  0.228612  1
  Ta  Ta25  1  0.712340  0.733065  0.287322  1
  Ta  Ta26  1  0.747825  0.255389  0.108734  1
  Ta  Ta27  1  0.325231  0.157466  0.874922  1
  Ta  Ta28  1  0.825231  0.657466  0.625078  1
  Ta  Ta29  1  0.174769  0.342534  0.374922  1
  Ta  Ta30  1  0.752175  0.244611  0.608734  1
  Ta  Ta31  1  0.212340  0.233065  0.212678  1
  P  P32  1  0.839093  0.980845  0.783417  1
  P  P33  1  0.250588  0.552131  0.388263  1
  P  P34  1  0.339093  0.480845  0.716583  1
  P  P35  1  0.690902  0.171401  0.436790  1
  P  P36  1  0.809098  0.328599  0.936790  1
  P  P37  1  0.249412  0.947869  0.888262  1
  P  P38  1  0.660907  0.519155  0.283417  1
  P  P39  1  0.749412  0.447869  0.611738  1
  P  P40  1  0.792563  0.795386  0.456398  1
  P  P41  1  0.707437  0.704614  0.956398  1
  P  P42  1  0.190902  0.671401  0.063210  1
  P  P43  1  0.309098  0.828599  0.563210  1
  P  P44  1  0.750588  0.052131  0.111738  1
  P  P45  1  0.160907  0.019155  0.216583  1
  P  P46  1  0.292563  0.295386  0.043602  1
  P  P47  1  0.207437  0.204614  0.543602  1
  S  S48  1  0.583038  0.590167  0.330836  1
  S  S49  1  0.426040  0.217091  0.760059  1
  S  S50  1  0.393649  0.306148  0.827611  1
  S  S51  1  0.637961  0.172882  0.209320  1
  S  S52  1  0.392280  0.398203  0.018996  1
  S  S53  1  0.694211  0.328727  0.003478  1
  S  S54  1  0.407361  0.568183  0.793825  1
  S  S55  1  0.606351  0.693852  0.172389  1
  S  S56  1  0.318764  0.182601  0.605295  1
  S  S57  1  0.677373  0.790664  0.881347  1
  S  S58  1  0.152593  0.844344  0.845103  1
  S  S59  1  0.181236  0.317399  0.105295  1
  S  S60  1  0.323970  0.892161  0.958060  1
  S  S61  1  0.847407  0.155656  0.154897  1
  S  S62  1  0.727563  0.891304  0.738758  1
  S  S63  1  0.907361  0.068183  0.706175  1
  S  S64  1  0.607720  0.601797  0.981004  1
  S  S65  1  0.106351  0.193852  0.327611  1
  S  S66  1  0.822627  0.709336  0.381347  1
  S  S67  1  0.416962  0.409833  0.669164  1
  S  S68  1  0.694410  0.142450  0.695982  1
  S  S69  1  0.823970  0.392161  0.541940  1
  S  S70  1  0.916962  0.909833  0.830836  1
  S  S71  1  0.805789  0.171273  0.503478  1
  S  S72  1  0.883031  0.287380  0.020776  1
  S  S73  1  0.592639  0.431817  0.206175  1
  S  S74  1  0.275120  0.266970  0.449873  1
  S  S75  1  0.751345  0.267154  0.361179  1
  S  S76  1  0.874085  0.439820  0.892282  1
  S  S77  1  0.200176  0.039347  0.939036  1
  S  S78  1  0.305590  0.857550  0.304018  1
  S  S79  1  0.194410  0.642450  0.804018  1
  S  S80  1  0.008844  0.745189  0.169911  1
  S  S81  1  0.625915  0.060180  0.392282  1
  S  S82  1  0.805590  0.357550  0.195982  1
  S  S83  1  0.362039  0.827118  0.790680  1
  S  S84  1  0.116969  0.712620  0.979224  1
  S  S85  1  0.248655  0.732846  0.638821  1
  S  S86  1  0.828085  0.522924  0.694201  1
  S  S87  1  0.177373  0.290664  0.618653  1
  S  S88  1  0.251345  0.767154  0.138821  1
  S  S89  1  0.580692  0.247650  0.143394  1
  S  S90  1  0.060120  0.335779  0.453276  1
  S  S91  1  0.775120  0.766970  0.050127  1
  S  S92  1  0.092639  0.931817  0.293825  1
  S  S93  1  0.560120  0.835779  0.046724  1
  S  S94  1  0.083038  0.090167  0.169164  1
  S  S95  1  0.814062  0.830555  0.216999  1
  S  S96  1  0.299824  0.460653  0.439036  1
  S  S97  1  0.272437  0.108696  0.261242  1
  S  S98  1  0.685938  0.669445  0.716999  1
  S  S99  1  0.616969  0.212620  0.520776  1
  S  S100  1  0.939880  0.664221  0.546724  1
  S  S101  1  0.681236  0.817399  0.394705  1
  S  S102  1  0.818764  0.682601  0.894705  1
  S  S103  1  0.892280  0.898203  0.481004  1
  S  S104  1  0.508844  0.245189  0.330089  1
  S  S105  1  0.702014  0.437430  0.355343  1
  S  S106  1  0.439880  0.164221  0.953276  1
  S  S107  1  0.322627  0.209336  0.118653  1
  S  S108  1  0.893649  0.806148  0.672389  1
  S  S109  1  0.224880  0.233030  0.949873  1
  S  S110  1  0.176030  0.607839  0.458060  1
  S  S111  1  0.185938  0.169445  0.783001  1
  S  S112  1  0.314062  0.330555  0.283001  1
  S  S113  1  0.227563  0.391304  0.761242  1
  S  S114  1  0.799824  0.960653  0.060964  1
  S  S115  1  0.305789  0.671273  0.996522  1
  S  S116  1  0.671915  0.977076  0.194201  1
  S  S117  1  0.383031  0.787380  0.479224  1
  S  S118  1  0.573959  0.782909  0.239941  1
  S  S119  1  0.797986  0.062570  0.855343  1
  S  S120  1  0.652593  0.344344  0.654897  1
  S  S121  1  0.676030  0.107839  0.041940  1
  S  S122  1  0.080692  0.747650  0.356606  1
  S  S123  1  0.919308  0.252350  0.643394  1
  S  S124  1  0.194211  0.828727  0.496522  1
  S  S125  1  0.202014  0.937430  0.144657  1
  S  S126  1  0.748655  0.232846  0.861179  1
  S  S127  1  0.125915  0.560180  0.107718  1
  S  S128  1  0.700176  0.539347  0.560964  1
  S  S129  1  0.772437  0.608696  0.238758  1
  S  S130  1  0.862039  0.327118  0.709320  1
  S  S131  1  0.347407  0.655656  0.345103  1
  S  S132  1  0.926041  0.717091  0.739941  1
  S  S133  1  0.724880  0.733030  0.550127  1
  S  S134  1  0.073959  0.282909  0.260059  1
  S  S135  1  0.491156  0.754811  0.669911  1
  S  S136  1  0.328085  0.022924  0.805799  1
  S  S137  1  0.374085  0.939820  0.607718  1
  S  S138  1  0.297986  0.562570  0.644657  1
  S  S139  1  0.991156  0.254811  0.830089  1
  S  S140  1  0.171915  0.477076  0.305799  1
  S  S141  1  0.107720  0.101797  0.518996  1
  S  S142  1  0.419308  0.752350  0.856606  1
  S  S143  1  0.137961  0.672882  0.290680  1
