# generated using pymatgen
data_U2AuF11
_symmetry_space_group_name_H-M   'P 1'
_cell_length_a   6.37288400
_cell_length_b   8.56080983
_cell_length_c   8.56080988
_cell_angle_alpha   82.03650084
_cell_angle_beta   68.14785806
_cell_angle_gamma   68.14785725
_symmetry_Int_Tables_number   1
_chemical_formula_structural   U2AuF11
_chemical_formula_sum   'U4 Au2 F22'
_cell_volume   402.34600373
_cell_formula_units_Z   2
loop_
 _symmetry_equiv_pos_site_id
 _symmetry_equiv_pos_as_xyz
  1  'x, y, z'
loop_
 _atom_site_type_symbol
 _atom_site_label
 _atom_site_symmetry_multiplicity
 _atom_site_fract_x
 _atom_site_fract_y
 _atom_site_fract_z
 _atom_site_occupancy
  U  U0  1  0.644526  0.210949  0.500000  1
  U  U1  1  0.855474  0.500000  0.789052  1
  U  U2  1  0.144526  0.500000  0.210949  1
  U  U3  1  0.355474  0.789052  0.500000  1
  Au  Au4  1  0.500000  0.000000  0.000000  1
  Au  Au5  1  0.000000  0.000000  0.000000  1
  F  F6  1  0.928304  0.321696  0.321696  1
  F  F7  1  0.669353  0.733297  0.927997  1
  F  F8  1  0.330647  0.266703  0.072003  1
  F  F9  1  0.000000  0.500000  0.500000  1
  F  F10  1  0.571696  0.678304  0.678304  1
  F  F11  1  0.402650  0.927997  0.266703  1
  F  F12  1  0.902650  0.266703  0.927997  1
  F  F13  1  0.071696  0.678304  0.678304  1
  F  F14  1  0.097350  0.733297  0.072003  1
  F  F15  1  0.830647  0.072003  0.266703  1
  F  F16  1  0.750000  0.678304  0.321696  1
  F  F17  1  0.428304  0.321696  0.321696  1
  F  F18  1  0.750000  0.321696  0.678304  1
  F  F19  1  0.500000  0.500000  0.000000  1
  F  F20  1  0.000000  0.500000  0.000000  1
  F  F21  1  0.250000  0.321696  0.678304  1
  F  F22  1  0.169353  0.927997  0.733297  1
  F  F23  1  0.000000  0.000000  0.500000  1
  F  F24  1  0.250000  0.678304  0.321696  1
  F  F25  1  0.597350  0.072003  0.733297  1
  F  F26  1  0.500000  0.500000  0.500000  1
  F  F27  1  0.500000  0.000000  0.500000  1
