# generated using pymatgen
data_NaMo2(PO4)3
_symmetry_space_group_name_H-M   'P 1'
_cell_length_a   9.06322086
_cell_length_b   9.06322040
_cell_length_c   9.06322045
_cell_angle_alpha   58.25302574
_cell_angle_beta   58.25302753
_cell_angle_gamma   58.25302482
_symmetry_Int_Tables_number   1
_chemical_formula_structural   NaMo2(PO4)3
_chemical_formula_sum   'Na2 Mo4 P6 O24'
_cell_volume   505.35382085
_cell_formula_units_Z   2
loop_
 _symmetry_equiv_pos_site_id
 _symmetry_equiv_pos_as_xyz
  1  'x, y, z'
loop_
 _atom_site_type_symbol
 _atom_site_label
 _atom_site_symmetry_multiplicity
 _atom_site_fract_x
 _atom_site_fract_y
 _atom_site_fract_z
 _atom_site_occupancy
  Na  Na0  1  0.000000  0.000000  0.000000  1
  Na  Na1  1  0.500000  0.500000  0.500000  1
  Mo  Mo2  1  0.144371  0.144371  0.144371  1
  Mo  Mo3  1  0.355629  0.355629  0.355629  1
  Mo  Mo4  1  0.855629  0.855629  0.855629  1
  Mo  Mo5  1  0.644371  0.644371  0.644371  1
  P  P6  1  0.539682  0.250000  0.960318  1
  P  P7  1  0.960318  0.539682  0.250000  1
  P  P8  1  0.250000  0.960318  0.539682  1
  P  P9  1  0.460318  0.750000  0.039682  1
  P  P10  1  0.039682  0.460318  0.750000  1
  P  P11  1  0.750000  0.039682  0.460318  1
  O  O12  1  0.278905  0.917287  0.062485  1
  O  O13  1  0.062485  0.278905  0.917287  1
  O  O14  1  0.917287  0.062485  0.278905  1
  O  O15  1  0.582713  0.221095  0.437515  1
  O  O16  1  0.437515  0.582713  0.221095  1
  O  O17  1  0.221095  0.437515  0.582713  1
  O  O18  1  0.721095  0.082713  0.937515  1
  O  O19  1  0.937515  0.721095  0.082713  1
  O  O20  1  0.082713  0.937515  0.721095  1
  O  O21  1  0.417287  0.778905  0.562485  1
  O  O22  1  0.562485  0.417287  0.778905  1
  O  O23  1  0.778905  0.562485  0.417287  1
  O  O24  1  0.211659  0.990900  0.377541  1
  O  O25  1  0.377541  0.211659  0.990900  1
  O  O26  1  0.990900  0.377541  0.211659  1
  O  O27  1  0.509100  0.288341  0.122459  1
  O  O28  1  0.122459  0.509100  0.288341  1
  O  O29  1  0.288341  0.122459  0.509100  1
  O  O30  1  0.788341  0.009100  0.622459  1
  O  O31  1  0.622459  0.788341  0.009100  1
  O  O32  1  0.009100  0.622459  0.788341  1
  O  O33  1  0.490900  0.711659  0.877541  1
  O  O34  1  0.877541  0.490900  0.711659  1
  O  O35  1  0.711659  0.877541  0.490900  1
