# generated using pymatgen
data_Rb2V3O8
_symmetry_space_group_name_H-M   'P 1'
_cell_length_a   5.81610404
_cell_length_b   9.05246615
_cell_length_c   9.05246615
_cell_angle_alpha   90.00000000
_cell_angle_beta   90.00000000
_cell_angle_gamma   90.00000000
_symmetry_Int_Tables_number   1
_chemical_formula_structural   Rb2V3O8
_chemical_formula_sum   'Rb4 V6 O16'
_cell_volume   476.61311178
_cell_formula_units_Z   2
loop_
 _symmetry_equiv_pos_site_id
 _symmetry_equiv_pos_as_xyz
  1  'x, y, z'
loop_
 _atom_site_type_symbol
 _atom_site_label
 _atom_site_symmetry_multiplicity
 _atom_site_fract_x
 _atom_site_fract_y
 _atom_site_fract_z
 _atom_site_occupancy
  O  O0  1  0.251917  0.499999  0.499999  1
  O  O1  1  0.251917  0.000000  0.000000  1
  O  O2  1  0.633946  0.084941  0.806917  1
  O  O3  1  0.633946  0.915059  0.193083  1
  O  O4  1  0.633946  0.806917  0.915059  1
  O  O5  1  0.633946  0.193083  0.084941  1
  O  O6  1  0.633946  0.693084  0.415060  1
  O  O7  1  0.633946  0.584940  0.693084  1
  O  O8  1  0.633946  0.415060  0.306916  1
  O  O9  1  0.633946  0.306916  0.584940  1
  O  O10  1  0.636244  0.000000  0.499999  1
  O  O11  1  0.636244  0.499999  0.000000  1
  O  O12  1  0.238659  0.131799  0.631799  1
  O  O13  1  0.238659  0.868201  0.368201  1
  O  O14  1  0.238659  0.631799  0.868201  1
  O  O15  1  0.238659  0.368201  0.131799  1
  V  V16  1  0.525354  0.866002  0.366002  1
  V  V17  1  0.525354  0.633998  0.866002  1
  V  V18  1  0.525354  0.366002  0.133998  1
  V  V19  1  0.525354  0.133998  0.633998  1
  V  V20  1  0.534455  0.499999  0.499999  1
  V  V21  1  0.534455  0.000000  0.000000  1
  Rb  Rb22  1  0.997938  0.669358  0.169358  1
  Rb  Rb23  1  0.997938  0.830642  0.669358  1
  Rb  Rb24  1  0.997938  0.169358  0.330642  1
  Rb  Rb25  1  0.997938  0.330642  0.830642  1
