# generated using pymatgen
data_SiO2
_symmetry_space_group_name_H-M   'P 1'
_cell_length_a   5.01469137
_cell_length_b   6.70078564
_cell_length_c   6.70100922
_cell_angle_alpha   81.95054113
_cell_angle_beta   68.02376247
_cell_angle_gamma   68.02778417
_symmetry_Int_Tables_number   1
_chemical_formula_structural   SiO2
_chemical_formula_sum   'Si4 O8'
_cell_volume   193.64203056
_cell_formula_units_Z   4
loop_
 _symmetry_equiv_pos_site_id
 _symmetry_equiv_pos_as_xyz
  1  'x, y, z'
loop_
 _atom_site_type_symbol
 _atom_site_label
 _atom_site_symmetry_multiplicity
 _atom_site_fract_x
 _atom_site_fract_y
 _atom_site_fract_z
 _atom_site_occupancy
  Si  Si0  1  0.803947  0.352064  0.002122  1
  Si  Si1  1  0.193929  0.002097  0.647967  1
  Si  Si2  1  0.843974  0.997892  0.352027  1
  Si  Si3  1  0.158109  0.647935  0.997872  1
  O  O4  1  0.914844  0.522940  0.069815  1
  O  O5  1  0.562225  0.930185  0.522929  1
  O  O6  1  0.015354  0.069806  0.477072  1
  O  O7  1  0.093011  0.792487  0.198789  1
  O  O8  1  0.084212  0.207528  0.801213  1
  O  O9  1  0.708183  0.198825  0.207562  1
  O  O10  1  0.507594  0.477039  0.930204  1
  O  O11  1  0.114618  0.801203  0.792430  1
