# generated using pymatgen
data_SiO2
_symmetry_space_group_name_H-M   'P 1'
_cell_length_a   5.20295765
_cell_length_b   13.24241838
_cell_length_c   13.24241791
_cell_angle_alpha   100.67034194
_cell_angle_beta   90.00000000
_cell_angle_gamma   90.00000000
_symmetry_Int_Tables_number   1
_chemical_formula_structural   SiO2
_chemical_formula_sum   'Si16 O32'
_cell_volume   896.62267480
_cell_formula_units_Z   16
loop_
 _symmetry_equiv_pos_site_id
 _symmetry_equiv_pos_as_xyz
  1  'x, y, z'
loop_
 _atom_site_type_symbol
 _atom_site_label
 _atom_site_symmetry_multiplicity
 _atom_site_fract_x
 _atom_site_fract_y
 _atom_site_fract_z
 _atom_site_occupancy
  Si  Si0  1  0.466781  0.739855  0.892178  1
  Si  Si1  1  0.466781  0.260145  0.107822  1
  Si  Si2  1  0.468660  0.499334  0.122432  1
  Si  Si3  1  0.971513  0.371179  0.813492  1
  Si  Si4  1  0.028487  0.813492  0.371179  1
  Si  Si5  1  0.965576  0.786862  0.028957  1
  Si  Si6  1  0.034424  0.028957  0.786862  1
  Si  Si7  1  0.034424  0.971043  0.213138  1
  Si  Si8  1  0.971513  0.628821  0.186508  1
  Si  Si9  1  0.028487  0.186508  0.628821  1
  Si  Si10  1  0.468660  0.500666  0.877568  1
  Si  Si11  1  0.531340  0.122432  0.499334  1
  Si  Si12  1  0.531340  0.877568  0.500666  1
  Si  Si13  1  0.533219  0.107822  0.260145  1
  Si  Si14  1  0.533219  0.892178  0.739855  1
  Si  Si15  1  0.965576  0.213138  0.971043  1
  O  O16  1  0.500000  0.209081  0.209081  1
  O  O17  1  0.818323  0.060806  0.231548  1
  O  O18  1  0.000000  0.700933  0.299067  1
  O  O19  1  0.194747  0.542164  0.170567  1
  O  O20  1  0.181677  0.231548  0.060806  1
  O  O21  1  0.319480  0.978923  0.783625  1
  O  O22  1  0.503703  0.616687  0.856865  1
  O  O23  1  0.000000  0.100511  0.899489  1
  O  O24  1  1.003904  0.902912  0.302605  1
  O  O25  1  0.680520  0.783625  0.978923  1
  O  O26  1  0.181677  0.768452  0.939194  1
  O  O27  1  0.000000  0.299067  0.700933  1
  O  O28  1  0.694801  0.572080  0.180248  1
  O  O29  1  0.500000  0.790919  0.790919  1
  O  O30  1  0.818323  0.939194  0.768452  1
  O  O31  1  0.194747  0.457836  0.829433  1
  O  O32  1  0.503703  0.383313  0.143135  1
  O  O33  1  0.319480  0.021077  0.216375  1
  O  O34  1  0.305199  0.819752  0.427920  1
  O  O35  1  -0.003904  0.697395  0.097088  1
  O  O36  1  0.680520  0.216375  0.021077  1
  O  O37  1  1.003904  0.097088  0.697395  1
  O  O38  1  -0.003904  0.302605  0.902912  1
  O  O39  1  0.477620  0.500000  0.000000  1
  O  O40  1  0.496297  0.856865  0.616687  1
  O  O41  1  0.805253  0.170567  0.542164  1
  O  O42  1  0.305199  0.180248  0.572080  1
  O  O43  1  0.000000  0.899489  0.100511  1
  O  O44  1  0.496297  0.143135  0.383313  1
  O  O45  1  0.694801  0.427920  0.819752  1
  O  O46  1  0.805253  0.829433  0.457836  1
  O  O47  1  0.522380  0.000000  0.500000  1
