# generated using pymatgen
data_Sr3Cu3(PO4)4
_symmetry_space_group_name_H-M   'P 1'
_cell_length_a   5.00599231
_cell_length_b   9.51605525
_cell_length_c   15.76505153
_cell_angle_alpha   83.31135448
_cell_angle_beta   80.86456278
_cell_angle_gamma   74.75014620
_symmetry_Int_Tables_number   1
_chemical_formula_structural   Sr3Cu3(PO4)4
_chemical_formula_sum   'Sr6 Cu6 P8 O32'
_cell_volume   713.16575795
_cell_formula_units_Z   2
loop_
 _symmetry_equiv_pos_site_id
 _symmetry_equiv_pos_as_xyz
  1  'x, y, z'
loop_
 _atom_site_type_symbol
 _atom_site_label
 _atom_site_symmetry_multiplicity
 _atom_site_fract_x
 _atom_site_fract_y
 _atom_site_fract_z
 _atom_site_occupancy
  Sr  Sr0  1  0.846716  0.333223  0.363040  1
  Sr  Sr1  1  0.542979  0.166777  0.136960  1
  Sr  Sr2  1  0.287809  0.250000  0.750000  1
  Sr  Sr3  1  0.712191  0.750000  0.250000  1
  Sr  Sr4  1  0.457021  0.833223  0.863040  1
  Sr  Sr5  1  0.153284  0.666777  0.636960  1
  Cu  Cu6  1  0.162963  0.231121  0.969909  1
  Cu  Cu7  1  0.636006  0.731121  0.469909  1
  Cu  Cu8  1  0.363994  0.268879  0.530091  1
  Cu  Cu9  1  0.837037  0.768879  0.030091  1
  Cu  Cu10  1  0.500000  0.500000  0.000000  1
  Cu  Cu11  1  0.000000  0.000000  0.500000  1
  P  P12  1  0.184762  0.932821  0.101189  1
  P  P13  1  0.476549  0.942016  0.619789  1
  P  P14  1  0.961646  0.442016  0.119789  1
  P  P15  1  0.038354  0.557984  0.880211  1
  P  P16  1  0.523451  0.057984  0.380211  1
  P  P17  1  0.815238  0.067179  0.898811  1
  P  P18  1  0.218772  0.567179  0.398811  1
  P  P19  1  0.781228  0.432821  0.601189  1
  O  O20  1  0.199097  0.093636  0.404031  1
  O  O21  1  0.688368  0.603244  0.577482  1
  O  O22  1  0.629482  0.158436  0.969887  1
  O  O23  1  0.212586  0.385269  0.046222  1
  O  O24  1  0.242194  0.658436  0.469887  1
  O  O25  1  0.696763  0.406364  0.095969  1
  O  O26  1  0.644077  0.114731  0.453778  1
  O  O27  1  0.303237  0.593636  0.904031  1
  O  O28  1  0.757806  0.341564  0.530113  1
  O  O29  1  0.348686  0.108714  0.622310  1
  O  O30  1  0.920289  0.608714  0.122310  1
  O  O31  1  0.130905  0.103244  0.077482  1
  O  O32  1  0.393671  0.594289  0.312363  1
  O  O33  1  0.355923  0.885269  0.546222  1
  O  O34  1  0.883947  0.901572  0.113784  1
  O  O35  1  0.397774  0.860083  0.705253  1
  O  O36  1  0.963110  0.639917  0.794747  1
  O  O37  1  0.651314  0.891286  0.377690  1
  O  O38  1  0.602226  0.139917  0.294747  1
  O  O39  1  0.100697  0.401572  0.613784  1
  O  O40  1  0.606329  0.405711  0.687637  1
  O  O41  1  0.869095  0.896756  0.922518  1
  O  O42  1  0.800903  0.906364  0.595969  1
  O  O43  1  0.311632  0.396756  0.422518  1
  O  O44  1  0.116053  0.098428  0.886216  1
  O  O45  1  0.699677  0.094289  0.812363  1
  O  O46  1  0.899303  0.598428  0.386216  1
  O  O47  1  0.370518  0.841564  0.030113  1
  O  O48  1  0.079711  0.391286  0.877690  1
  O  O49  1  0.300323  0.905711  0.187637  1
  O  O50  1  0.787414  0.614731  0.953778  1
  O  O51  1  0.036890  0.360083  0.205253  1
