# generated using pymatgen
data_AgH8C5S2O2F3
_symmetry_space_group_name_H-M   'P 1'
_cell_length_a   9.08531502
_cell_length_b   10.74405932
_cell_length_c   11.04494018
_cell_angle_alpha   90.00000000
_cell_angle_beta   90.00000000
_cell_angle_gamma   90.00000000
_symmetry_Int_Tables_number   1
_chemical_formula_structural   AgH8C5S2O2F3
_chemical_formula_sum   'Ag4 H32 C20 S8 O8 F12'
_cell_volume   1078.13155181
_cell_formula_units_Z   4
loop_
 _symmetry_equiv_pos_site_id
 _symmetry_equiv_pos_as_xyz
  1  'x, y, z'
loop_
 _atom_site_type_symbol
 _atom_site_label
 _atom_site_symmetry_multiplicity
 _atom_site_fract_x
 _atom_site_fract_y
 _atom_site_fract_z
 _atom_site_occupancy
  Ag  Ag0  1  0.662777  0.726029  0.970858  1
  Ag  Ag1  1  0.162777  0.773971  0.970858  1
  Ag  Ag2  1  0.662777  0.226029  0.029142  1
  Ag  Ag3  1  0.162777  0.273971  0.029142  1
  H  H4  1  0.763517  0.476208  0.652719  1
  H  H5  1  0.503786  0.703430  0.282830  1
  H  H6  1  0.973413  1.001201  0.143145  1
  H  H7  1  0.143646  0.894183  0.678779  1
  H  H8  1  0.003786  0.296570  0.717170  1
  H  H9  1  0.309038  0.233708  0.720818  1
  H  H10  1  0.838288  0.621338  0.705848  1
  H  H11  1  0.436415  0.854029  0.238679  1
  H  H12  1  0.973413  0.501201  0.856855  1
  H  H13  1  0.263517  0.523792  0.347281  1
  H  H14  1  0.338288  0.378662  0.294152  1
  H  H15  1  0.809038  0.766292  0.279182  1
  H  H16  1  0.003786  0.796570  0.282830  1
  H  H17  1  0.143646  0.394183  0.321221  1
  H  H18  1  0.838288  0.121338  0.294152  1
  H  H19  1  0.402063  0.012166  0.008317  1
  H  H20  1  0.263517  0.023792  0.652719  1
  H  H21  1  0.643646  0.105817  0.321221  1
  H  H22  1  0.338288  0.878662  0.705848  1
  H  H23  1  0.643646  0.605817  0.678779  1
  H  H24  1  0.809038  0.266292  0.720818  1
  H  H25  1  0.503786  0.203430  0.717170  1
  H  H26  1  0.936415  0.645971  0.238679  1
  H  H27  1  0.473413  -0.001201  0.856855  1
  H  H28  1  0.902063  0.487834  0.008317  1
  H  H29  1  0.902063  0.987834  0.991683  1
  H  H30  1  0.763517  0.976208  0.347281  1
  H  H31  1  0.309038  0.733708  0.279182  1
  H  H32  1  0.936415  0.145971  0.761321  1
  H  H33  1  0.402063  0.512166  0.991683  1
  H  H34  1  0.473413  0.498799  0.143145  1
  H  H35  1  0.436415  0.354029  0.761321  1
  C  C36  1  0.760244  0.895573  0.754645  1
  C  C37  1  0.387080  0.540376  0.086325  1
  C  C38  1  0.415270  0.753516  0.236269  1
  C  C39  1  0.243665  0.441858  0.290811  1
  C  C40  1  0.243665  0.941858  0.709189  1
  C  C41  1  0.387080  0.040376  0.913675  1
  C  C42  1  0.760244  0.395573  0.245355  1
  C  C43  1  0.915270  0.246484  0.763731  1
  C  C44  1  0.887080  0.959624  0.086325  1
  C  C45  1  0.415270  0.253516  0.763731  1
  C  C46  1  0.887080  0.459624  0.913675  1
  C  C47  1  0.743665  0.058142  0.290811  1
  C  C48  1  0.743872  0.439348  0.380094  1
  C  C49  1  0.243872  0.060652  0.380094  1
  C  C50  1  0.243872  0.560652  0.619906  1
  C  C51  1  0.915270  0.746484  0.236269  1
  C  C52  1  0.260244  0.104427  0.245355  1
  C  C53  1  0.743872  0.939348  0.619906  1
  C  C54  1  0.743665  0.558142  0.709189  1
  C  C55  1  0.260244  0.604427  0.754645  1
  S  S56  1  0.207680  0.987707  0.864263  1
  S  S57  1  0.909870  0.291178  0.921836  1
  S  S58  1  0.409870  0.208822  0.921836  1
  S  S59  1  0.707680  0.012293  0.135737  1
  S  S60  1  0.207680  0.487707  0.135737  1
  S  S61  1  0.909870  0.791178  0.078164  1
  S  S62  1  0.707680  0.512293  0.864263  1
  S  S63  1  0.409870  0.708822  0.078164  1
  O  O64  1  0.885434  0.402964  0.199529  1
  O  O65  1  0.139664  0.642026  0.800134  1
  O  O66  1  0.139664  0.142026  0.199866  1
  O  O67  1  0.885434  0.902964  0.800471  1
  O  O68  1  0.385434  0.597036  0.800471  1
  O  O69  1  0.385434  0.097036  0.199529  1
  O  O70  1  0.639664  0.357974  0.199866  1
  O  O71  1  0.639664  0.857974  0.800134  1
  F  F72  1  0.150226  0.460403  0.611220  1
  F  F73  1  0.187231  0.652397  0.547683  1
  F  F74  1  0.873742  0.475201  0.430763  1
  F  F75  1  0.187231  0.152397  0.452317  1
  F  F76  1  0.687231  0.347603  0.452317  1
  F  F77  1  0.373742  0.524799  0.569237  1
  F  F78  1  0.150226  0.960403  0.388780  1
  F  F79  1  0.650226  0.039597  0.611220  1
  F  F80  1  0.373742  0.024799  0.430763  1
  F  F81  1  0.873742  0.975201  0.569237  1
  F  F82  1  0.687231  0.847603  0.547683  1
  F  F83  1  0.650226  0.539597  0.388780  1
