# generated using pymatgen
data_ZnSi4As2(H3C)12
_symmetry_space_group_name_H-M   'P 1'
_cell_length_a   9.99702439
_cell_length_b   11.06230165
_cell_length_c   12.74837595
_cell_angle_alpha   92.72290906
_cell_angle_beta   104.95455245
_cell_angle_gamma   105.81684089
_symmetry_Int_Tables_number   1
_chemical_formula_structural   ZnSi4As2(H3C)12
_chemical_formula_sum   'Zn2 Si8 As4 H72 C24'
_cell_volume   1299.94866506
_cell_formula_units_Z   2
loop_
 _symmetry_equiv_pos_site_id
 _symmetry_equiv_pos_as_xyz
  1  'x, y, z'
loop_
 _atom_site_type_symbol
 _atom_site_label
 _atom_site_symmetry_multiplicity
 _atom_site_fract_x
 _atom_site_fract_y
 _atom_site_fract_z
 _atom_site_occupancy
  Zn  Zn0  1  0.982554  0.113566  0.404561  1
  Zn  Zn1  1  0.017446  0.886434  0.595439  1
  Si  Si2  1  0.139264  0.829265  0.348792  1
  Si  Si3  1  0.860736  0.170735  0.651208  1
  Si  Si4  1  0.736828  0.176837  0.162204  1
  Si  Si5  1  0.730802  0.695495  0.300483  1
  Si  Si6  1  0.855608  0.693756  0.786258  1
  Si  Si7  1  0.263172  0.823163  0.837796  1
  Si  Si8  1  0.269198  0.304505  0.699517  1
  Si  Si9  1  0.144392  0.306244  0.213742  1
  As  As10  1  0.955150  0.285641  0.299094  1
  As  As11  1  0.044850  0.714359  0.700906  1
  As  As12  1  0.935671  0.873308  0.389723  1
  As  As13  1  0.064329  0.126692  0.610277  1
  H  H14  1  0.332866  0.445704  0.376806  1
  H  H15  1  0.849258  0.527037  0.355803  1
  H  H16  1  0.571578  0.756841  0.404311  1
  H  H17  1  0.676772  0.374189  0.106058  1
  H  H18  1  0.151811  0.526964  0.172343  1
  H  H19  1  0.038702  0.710710  0.158489  1
  H  H20  1  0.095064  0.598561  0.372581  1
  H  H21  1  0.672246  0.715416  0.616370  1
  H  H22  1  0.447048  0.180239  0.722871  1
  H  H23  1  0.233595  0.455079  0.088323  1
  H  H24  1  0.587476  0.628562  0.707097  1
  H  H25  1  0.182673  0.695256  0.499935  1
  H  H26  1  0.428422  0.243159  0.595689  1
  H  H27  1  0.202511  0.369003  0.866014  1
  H  H28  1  0.220433  0.033428  0.860545  1
  H  H29  1  0.606691  0.590140  0.110635  1
  H  H30  1  0.292791  0.250888  0.891618  1
  H  H31  1  0.080568  0.876641  0.153585  1
  H  H32  1  0.717136  0.318646  0.594903  1
  H  H33  1  0.041791  0.414609  0.057346  1
  H  H34  1  0.532541  0.343052  0.719889  1
  H  H35  1  0.797489  0.630997  0.133986  1
  H  H36  1  0.198843  0.952437  0.974843  1
  H  H37  1  0.767605  0.565367  0.455637  1
  H  H38  1  0.552952  0.819761  0.277129  1
  H  H39  1  0.396587  0.960523  0.395975  1
  H  H40  1  0.801157  0.047563  0.025157  1
  H  H41  1  0.467459  0.656948  0.280111  1
  H  H42  1  0.150742  0.472963  0.644197  1
  H  H43  1  0.487803  0.081111  0.181337  1
  H  H44  1  0.719089  0.941187  0.628622  1
  H  H45  1  0.948693  0.866810  0.945270  1
  H  H46  1  0.423098  0.757285  0.995984  1
  H  H47  1  0.316315  0.996169  0.498239  1
  H  H48  1  0.904936  0.401439  0.627419  1
  H  H49  1  0.584975  0.212662  0.284007  1
  H  H50  1  0.232395  0.434633  0.544363  1
  H  H51  1  0.683685  0.003831  0.501761  1
  H  H52  1  0.779567  0.966572  0.139455  1
  H  H53  1  0.378129  0.934742  0.702172  1
  H  H54  1  0.624320  0.974511  0.036286  1
  H  H55  1  0.237825  0.680738  0.984294  1
  H  H56  1  0.323228  0.625811  0.893942  1
  H  H57  1  0.848189  0.473036  0.827657  1
  H  H58  1  0.659007  0.468948  0.330686  1
  H  H59  1  0.621871  0.065258  0.297828  1
  H  H60  1  0.576902  0.242715  0.004016  1
  H  H61  1  0.860316  0.919045  0.824315  1
  H  H62  1  0.512197  0.918889  0.818663  1
  H  H63  1  0.817327  0.304744  0.500065  1
  H  H64  1  0.222018  0.803976  0.184558  1
  H  H65  1  0.958209  0.585391  0.942654  1
  H  H66  1  0.766405  0.544921  0.911677  1
  H  H67  1  0.777982  0.196024  0.815442  1
  H  H68  1  0.282864  0.681354  0.405097  1
  H  H69  1  0.051307  0.133190  0.054730  1
  H  H70  1  0.139684  0.080955  0.175685  1
  H  H71  1  0.340993  0.531052  0.669314  1
  H  H72  1  0.667134  0.554296  0.623194  1
  H  H73  1  0.919432  0.123359  0.846415  1
  H  H74  1  0.280911  0.058813  0.371378  1
  H  H75  1  0.393309  0.409860  0.889365  1
  H  H76  1  0.375680  0.025489  0.963714  1
  H  H77  1  0.412524  0.371438  0.292903  1
  H  H78  1  0.762175  0.319262  0.015706  1
  H  H79  1  0.756323  0.818450  0.897606  1
  H  H80  1  0.603413  0.039477  0.604025  1
  H  H81  1  0.961298  0.289290  0.841511  1
  H  H82  1  0.415025  0.787338  0.715993  1
  H  H83  1  0.327754  0.284584  0.383630  1
  H  H84  1  0.707209  0.749112  0.108382  1
  H  H85  1  0.243677  0.181550  0.102394  1
  C  C86  1  0.856083  0.838221  0.871433  1
  C  C87  1  0.116542  0.802680  0.196979  1
  C  C88  1  0.320187  0.356743  0.327768  1
  C  C89  1  0.594833  0.130089  0.238518  1
  C  C90  1  0.297434  0.975027  0.409598  1
  C  C91  1  0.405167  0.869911  0.761482  1
  C  C92  1  0.142477  0.438101  0.124751  1
  C  C93  1  0.702566  0.024973  0.590402  1
  C  C94  1  0.143917  0.161779  0.128567  1
  C  C95  1  0.754110  0.551596  0.367203  1
  C  C96  1  0.177644  0.687950  0.412631  1
  C  C97  1  0.290370  0.335649  0.850599  1
  C  C98  1  0.264012  0.972252  0.916844  1
  C  C99  1  0.679813  0.643257  0.672232  1
  C  C100  1  0.434334  0.263586  0.682257  1
  C  C101  1  0.709630  0.664351  0.149401  1
  C  C102  1  0.316361  0.711275  0.937226  1
  C  C103  1  0.857523  0.561899  0.875249  1
  C  C104  1  0.565666  0.736414  0.317743  1
  C  C105  1  0.245890  0.448404  0.632797  1
  C  C106  1  0.822356  0.312050  0.587369  1
  C  C107  1  0.683639  0.288725  0.062774  1
  C  C108  1  0.735988  0.027748  0.083156  1
  C  C109  1  0.883458  0.197320  0.803021  1
