# generated using pymatgen
data_KNa2LiTi2Fe2(SiO3)8
_symmetry_space_group_name_H-M   'P 1'
_cell_length_a   10.10227877
_cell_length_b   10.48271308
_cell_length_c   10.48271298
_cell_angle_alpha   75.09304452
_cell_angle_beta   69.99474032
_cell_angle_gamma   69.99474464
_symmetry_Int_Tables_number   1
_chemical_formula_structural   KNa2LiTi2Fe2(SiO3)8
_chemical_formula_sum   'K2 Na4 Li2 Ti4 Fe4 Si16 O48'
_cell_volume   967.75034534
_cell_formula_units_Z   2
loop_
 _symmetry_equiv_pos_site_id
 _symmetry_equiv_pos_as_xyz
  1  'x, y, z'
loop_
 _atom_site_type_symbol
 _atom_site_label
 _atom_site_symmetry_multiplicity
 _atom_site_fract_x
 _atom_site_fract_y
 _atom_site_fract_z
 _atom_site_occupancy
  Si  Si0  1  0.933318  0.551300  0.740336  1
  Si  Si1  1  0.433318  0.740336  0.551300  1
  Si  Si2  1  0.052639  0.451784  0.258966  1
  Si  Si3  1  0.552639  0.258966  0.451784  1
  Si  Si4  1  0.911969  0.751437  0.294659  1
  Si  Si5  1  0.411969  0.294659  0.751437  1
  Si  Si6  1  0.077752  0.245379  0.710531  1
  Si  Si7  1  0.577752  0.710531  0.245379  1
  Si  Si8  1  0.884505  0.243234  0.296255  1
  Si  Si9  1  0.384505  0.296255  0.243234  1
  Si  Si10  1  0.104160  0.751277  0.705237  1
  Si  Si11  1  0.604160  0.705237  0.751277  1
  Si  Si12  1  0.914587  0.041419  0.746145  1
  Si  Si13  1  0.414587  0.746145  0.041419  1
  Si  Si14  1  0.077197  0.959010  0.251631  1
  Si  Si15  1  0.577197  0.251631  0.959010  1
  Ti  Ti16  1  0.890846  0.668279  0.017180  1
  Ti  Ti17  1  0.390846  0.017180  0.668279  1
  Ti  Ti18  1  0.878239  0.139250  0.037393  1
  Ti  Ti19  1  0.378239  0.037393  0.139250  1
  Fe  Fe20  1  0.092371  0.343174  0.978622  1
  Fe  Fe21  1  0.592371  0.978622  0.343174  1
  Fe  Fe22  1  0.107412  0.852220  0.969590  1
  Fe  Fe23  1  0.607412  0.969590  0.852220  1
  Na  Na24  1  0.687947  0.464959  0.062747  1
  Na  Na25  1  0.187947  0.062747  0.464959  1
  Na  Na26  1  0.290395  0.538401  0.940907  1
  Na  Na27  1  0.790395  0.940907  0.538401  1
  K  K28  1  0.745375  0.416545  0.580859  1
  K  K29  1  0.245375  0.580859  0.416545  1
  Li  Li30  1  0.735600  0.938255  0.066827  1
  Li  Li31  1  0.235600  0.066827  0.938255  1
  O  O32  1  0.921792  0.006983  0.907198  1
  O  O33  1  0.421792  0.907198  0.006983  1
  O  O34  1  0.064182  0.006960  0.094244  1
  O  O35  1  0.564182  0.094244  0.006960  1
  O  O36  1  0.923444  0.778411  0.129380  1
  O  O37  1  0.423444  0.129380  0.778411  1
  O  O38  1  0.059253  0.210935  0.874771  1
  O  O39  1  0.559253  0.874771  0.210935  1
  O  O40  1  0.735371  0.271910  0.944480  1
  O  O41  1  0.235371  0.944480  0.271910  1
  O  O42  1  0.262620  0.720610  0.055971  1
  O  O43  1  0.762620  0.055971  0.720610  1
  O  O44  1  0.771824  0.801290  0.938871  1
  O  O45  1  0.271824  0.938871  0.801290  1
  O  O46  1  0.252454  0.174049  0.071597  1
  O  O47  1  0.752454  0.071597  0.174049  1
  O  O48  1  0.896713  0.277604  0.132390  1
  O  O49  1  0.396713  0.132390  0.277604  1
  O  O50  1  0.085965  0.709166  0.868721  1
  O  O51  1  0.585965  0.868721  0.709166  1
  O  O52  1  0.955656  0.078233  0.347151  1
  O  O53  1  0.455656  0.347151  0.078233  1
  O  O54  1  0.042643  0.918345  0.659493  1
  O  O55  1  0.542643  0.659493  0.918345  1
  O  O56  1  0.916577  0.522925  0.904794  1
  O  O57  1  0.416577  0.904794  0.522925  1
  O  O58  1  0.060287  0.491649  0.098302  1
  O  O59  1  0.560287  0.098302  0.491649  1
  O  O60  1  0.969552  0.329266  0.337141  1
  O  O61  1  0.469552  0.337141  0.329266  1
  O  O62  1  0.017841  0.671246  0.657254  1
  O  O63  1  0.517841  0.657254  0.671246  1
  O  O64  1  0.772986  0.606731  0.708402  1
  O  O65  1  0.272986  0.708402  0.606731  1
  O  O66  1  0.215653  0.392115  0.286877  1
  O  O67  1  0.715653  0.286877  0.392115  1
  O  O68  1  0.741956  0.612752  0.179702  1
  O  O69  1  0.241956  0.179702  0.612752  1
  O  O70  1  0.254422  0.392930  0.817446  1
  O  O71  1  0.754422  0.817446  0.392930  1
  O  O72  1  0.970553  0.582234  0.344189  1
  O  O73  1  0.470553  0.344189  0.582234  1
  O  O74  1  0.020257  0.414727  0.664243  1
  O  O75  1  0.520257  0.664243  0.414727  1
  O  O76  1  0.969181  0.182167  0.669420  1
  O  O77  1  0.469181  0.669420  0.182167  1
  O  O78  1  0.031349  0.814650  0.320667  1
  O  O79  1  0.531349  0.320667  0.814650  1
