# generated using pymatgen
data_LiLa(PO3)4
_symmetry_space_group_name_H-M   'P 1'
_cell_length_a   7.20977811
_cell_length_b   9.12820224
_cell_length_c   9.15064461
_cell_angle_alpha   66.29817593
_cell_angle_beta   66.79954717
_cell_angle_gamma   66.73915578
_symmetry_Int_Tables_number   1
_chemical_formula_structural   LiLa(PO3)4
_chemical_formula_sum   'Li2 La2 P8 O24'
_cell_volume   486.40095717
_cell_formula_units_Z   2
loop_
 _symmetry_equiv_pos_site_id
 _symmetry_equiv_pos_as_xyz
  1  'x, y, z'
loop_
 _atom_site_type_symbol
 _atom_site_label
 _atom_site_symmetry_multiplicity
 _atom_site_fract_x
 _atom_site_fract_y
 _atom_site_fract_z
 _atom_site_occupancy
  Li  Li0  1  0.198670  0.750000  0.250000  1
  Li  Li1  1  0.801330  0.250000  0.750000  1
  La  La2  1  0.303105  0.250000  0.750000  1
  La  La3  1  0.696895  0.750000  0.250000  1
  P  P4  1  0.813222  0.297599  0.402831  1
  P  P5  1  0.079568  0.887117  0.835094  1
  P  P6  1  0.486348  0.797599  0.902831  1
  P  P7  1  0.513652  0.202401  0.097169  1
  P  P8  1  0.198221  0.387117  0.335094  1
  P  P9  1  0.801779  0.612883  0.664906  1
  P  P10  1  0.920432  0.112883  0.164906  1
  P  P11  1  0.186778  0.702401  0.597169  1
  O  O12  1  0.895223  0.821822  0.949918  1
  O  O13  1  0.253375  0.538621  0.720735  1
  O  O14  1  0.276571  0.767978  0.908009  1
  O  O15  1  0.335337  0.357305  0.155964  1
  O  O16  1  0.104777  0.178178  0.050082  1
  O  O17  1  0.151395  0.857305  0.655964  1
  O  O18  1  0.848605  0.142695  0.344037  1
  O  O19  1  0.487269  0.038621  0.220735  1
  O  O20  1  0.059726  0.068994  0.796707  1
  O  O21  1  0.940274  0.931006  0.203293  1
  O  O22  1  0.952558  0.732022  0.591991  1
  O  O23  1  0.318130  0.735200  0.418589  1
  O  O24  1  0.528081  0.235200  0.918589  1
  O  O25  1  0.681870  0.264800  0.581411  1
  O  O26  1  0.664663  0.642695  0.844036  1
  O  O27  1  0.925427  0.431006  0.703293  1
  O  O28  1  0.512731  0.961379  0.779265  1
  O  O29  1  0.666963  0.678178  0.550082  1
  O  O30  1  0.333037  0.321822  0.449918  1
  O  O31  1  0.471919  0.764800  0.081411  1
  O  O32  1  0.723429  0.232022  0.091991  1
  O  O33  1  0.074573  0.568994  0.296707  1
  O  O34  1  0.047442  0.267978  0.408009  1
  O  O35  1  0.746625  0.461379  0.279265  1
