# generated using pymatgen
data_KNO2
_symmetry_space_group_name_H-M   'P 1'
_cell_length_a   4.19060068
_cell_length_b   4.19472274
_cell_length_c   6.16805732
_cell_angle_alpha   123.47433889
_cell_angle_beta   123.37735803
_cell_angle_gamma   87.63732673
_symmetry_Int_Tables_number   1
_chemical_formula_structural   KNO2
_chemical_formula_sum   'K1 N1 O2'
_cell_volume   69.96801055
_cell_formula_units_Z   1
loop_
 _symmetry_equiv_pos_site_id
 _symmetry_equiv_pos_as_xyz
  1  'x, y, z'
loop_
 _atom_site_type_symbol
 _atom_site_label
 _atom_site_symmetry_multiplicity
 _atom_site_fract_x
 _atom_site_fract_y
 _atom_site_fract_z
 _atom_site_occupancy
  O  O0  1  0.205862  0.834805  0.599970  1
  K  K1  1  0.042774  0.043023  0.050527  1
  N  N2  1  0.942114  0.941975  0.443285  1
  O  O3  1  0.835250  0.206198  0.600218  1
