# generated using pymatgen
data_K2CdSiO4
_symmetry_space_group_name_H-M   'P 1'
_cell_length_a   5.69067729
_cell_length_b   11.44143633
_cell_length_c   16.22446670
_cell_angle_alpha   90.00000000
_cell_angle_beta   90.00000000
_cell_angle_gamma   90.00000000
_symmetry_Int_Tables_number   1
_chemical_formula_structural   K2CdSiO4
_chemical_formula_sum   'K16 Cd8 Si8 O32'
_cell_volume   1056.36726973
_cell_formula_units_Z   8
loop_
 _symmetry_equiv_pos_site_id
 _symmetry_equiv_pos_as_xyz
  1  'x, y, z'
loop_
 _atom_site_type_symbol
 _atom_site_label
 _atom_site_symmetry_multiplicity
 _atom_site_fract_x
 _atom_site_fract_y
 _atom_site_fract_z
 _atom_site_occupancy
  K  K0  1  0.489523  0.991245  0.059759  1
  K  K1  1  0.510477  0.008755  0.559759  1
  K  K2  1  0.510477  0.491245  0.059759  1
  K  K3  1  0.489523  0.508755  0.559759  1
  K  K4  1  0.461066  0.739184  0.179732  1
  K  K5  1  0.538934  0.260816  0.679732  1
  K  K6  1  0.538934  0.239184  0.179732  1
  K  K7  1  0.461066  0.760816  0.679732  1
  K  K8  1  0.005246  0.014566  0.940058  1
  K  K9  1  0.994754  0.985434  0.440058  1
  K  K10  1  0.994754  0.514566  0.940058  1
  K  K11  1  0.005246  0.485434  0.440058  1
  K  K12  1  0.047511  0.271981  0.812919  1
  K  K13  1  0.952489  0.728019  0.312919  1
  K  K14  1  0.952489  0.771981  0.812919  1
  K  K15  1  0.047511  0.228019  0.312919  1
  Cd  Cd16  1  0.990147  0.988607  0.188176  1
  Cd  Cd17  1  0.009853  0.011393  0.688176  1
  Cd  Cd18  1  0.009853  0.488607  0.188176  1
  Cd  Cd19  1  0.990147  0.511393  0.688176  1
  Cd  Cd20  1  0.535144  0.258147  0.935611  1
  Cd  Cd21  1  0.464856  0.741853  0.435611  1
  Cd  Cd22  1  0.464856  0.758147  0.935611  1
  Cd  Cd23  1  0.535144  0.241853  0.435611  1
  Si  Si24  1  0.514657  0.007902  0.810011  1
  Si  Si25  1  0.485343  0.992098  0.310011  1
  Si  Si26  1  0.485343  0.507902  0.810011  1
  Si  Si27  1  0.514657  0.492098  0.310011  1
  Si  Si28  1  0.976930  0.732300  0.066536  1
  Si  Si29  1  0.023070  0.267700  0.566536  1
  Si  Si30  1  0.023070  0.232300  0.066536  1
  Si  Si31  1  0.976930  0.767700  0.566536  1
  O  O32  1  0.722783  0.693209  0.025109  1
  O  O33  1  0.277217  0.306791  0.525109  1
  O  O34  1  0.277217  0.193209  0.025109  1
  O  O35  1  0.722783  0.806791  0.525109  1
  O  O36  1  0.122625  0.610423  0.089730  1
  O  O37  1  0.877375  0.389577  0.589730  1
  O  O38  1  0.877375  0.110423  0.089730  1
  O  O39  1  0.122625  0.889577  0.589730  1
  O  O40  1  0.929273  0.806192  0.152700  1
  O  O41  1  0.070727  0.193808  0.652700  1
  O  O42  1  0.070727  0.306192  0.152700  1
  O  O43  1  0.929273  0.693808  0.652700  1
  O  O44  1  0.355610  0.030687  0.222288  1
  O  O45  1  0.644390  0.969313  0.722288  1
  O  O46  1  0.644390  0.530687  0.222288  1
  O  O47  1  0.355610  0.469313  0.722288  1
  O  O48  1  0.860474  0.309092  1.001202  1
  O  O49  1  0.139526  0.690908  0.501202  1
  O  O50  1  0.139526  0.809092  1.001202  1
  O  O51  1  0.860474  0.190908  0.501202  1
  O  O52  1  0.395083  0.426639  0.888649  1
  O  O53  1  0.604917  0.573361  0.388649  1
  O  O54  1  0.604917  0.926639  0.888649  1
  O  O55  1  0.395083  0.073361  0.388649  1
  O  O56  1  0.588336  0.146463  0.828096  1
  O  O57  1  0.411664  0.853537  0.328096  1
  O  O58  1  0.411664  0.646463  0.828096  1
  O  O59  1  0.588336  0.353537  0.328096  1
  O  O60  1  0.227575  0.988482  0.799422  1
  O  O61  1  0.772425  0.011518  0.299422  1
  O  O62  1  0.772425  0.488482  0.799422  1
  O  O63  1  0.227575  0.511518  0.299422  1
