# generated using pymatgen
data_K4V3S5O23
_symmetry_space_group_name_H-M   'P 1'
_cell_length_a   8.90879473
_cell_length_b   14.64969862
_cell_length_c   16.38989279
_cell_angle_alpha   90.00000000
_cell_angle_beta   90.00000000
_cell_angle_gamma   106.54224243
_symmetry_Int_Tables_number   1
_chemical_formula_structural   K4V3S5O23
_chemical_formula_sum   'K16 V12 S20 O92'
_cell_volume   2050.52820005
_cell_formula_units_Z   4
loop_
 _symmetry_equiv_pos_site_id
 _symmetry_equiv_pos_as_xyz
  1  'x, y, z'
loop_
 _atom_site_type_symbol
 _atom_site_label
 _atom_site_symmetry_multiplicity
 _atom_site_fract_x
 _atom_site_fract_y
 _atom_site_fract_z
 _atom_site_occupancy
  K  K0  1  0.476369  0.761700  0.797717  1
  K  K1  1  0.753663  0.377209  0.976452  1
  K  K2  1  0.759331  0.513450  0.747671  1
  K  K3  1  0.779300  0.644000  0.525720  1
  K  K4  1  0.740669  0.986550  0.247671  1
  K  K5  1  0.220700  0.356000  0.474280  1
  K  K6  1  0.976369  0.261700  0.702283  1
  K  K7  1  0.720700  0.856000  0.025720  1
  K  K8  1  0.253663  0.877209  0.523548  1
  K  K9  1  0.746337  0.122791  0.476452  1
  K  K10  1  0.023631  0.738300  0.297717  1
  K  K11  1  0.240669  0.486550  0.252329  1
  K  K12  1  0.246337  0.622791  0.023548  1
  K  K13  1  0.259331  0.013450  0.752329  1
  K  K14  1  0.523631  0.238300  0.202283  1
  K  K15  1  0.279300  0.144000  0.974280  1
  V  V16  1  0.822914  0.420171  0.361377  1
  V  V17  1  0.335950  0.412010  0.858941  1
  V  V18  1  0.991503  0.253641  0.109117  1
  V  V19  1  0.835950  0.912010  0.641059  1
  V  V20  1  0.664050  0.587990  0.141059  1
  V  V21  1  0.322914  0.920171  0.138623  1
  V  V22  1  0.491503  0.753641  0.390883  1
  V  V23  1  0.677086  0.079829  0.861377  1
  V  V24  1  0.508497  0.246359  0.609117  1
  V  V25  1  0.164050  0.087990  0.358941  1
  V  V26  1  0.008497  0.746359  0.890883  1
  V  V27  1  0.177086  0.579829  0.638623  1
  S  S28  1  0.596740  0.558970  0.344212  1
  S  S29  1  0.159110  0.600927  0.437140  1
  S  S30  1  0.659110  0.100927  0.062860  1
  S  S31  1  0.046595  0.764507  0.678366  1
  S  S32  1  0.546595  0.264507  0.821634  1
  S  S33  1  0.341284  0.398686  0.064752  1
  S  S34  1  0.903260  0.941030  0.844212  1
  S  S35  1  0.879403  0.444276  0.161425  1
  S  S36  1  0.158716  0.101314  0.564752  1
  S  S37  1  0.403260  0.441030  0.655788  1
  S  S38  1  0.379403  0.944276  0.338575  1
  S  S39  1  0.953405  0.235493  0.321634  1
  S  S40  1  0.120597  0.555724  0.838575  1
  S  S41  1  0.841284  0.898686  0.435248  1
  S  S42  1  0.096740  0.058970  0.155788  1
  S  S43  1  0.620597  0.055724  0.661425  1
  S  S44  1  0.840890  0.399073  0.562860  1
  S  S45  1  0.453405  0.735493  0.178366  1
  S  S46  1  0.658716  0.601314  0.935248  1
  S  S47  1  0.340890  0.899073  0.937140  1
  O  O48  1  0.278060  0.539108  0.849426  1
  O  O49  1  0.449227  0.309105  0.876382  1
  O  O50  1  0.440205  0.439581  0.745156  1
  O  O51  1  0.301358  0.137767  0.618260  1
  O  O52  1  0.931157  0.331096  0.550978  1
  O  O53  1  0.119262  0.157000  0.120302  1
  O  O54  1  0.500138  0.995811  0.609956  1
  O  O55  1  0.050979  0.677709  0.629613  1
  O  O56  1  0.339228  0.652375  0.671725  1
  O  O57  1  0.050773  0.190895  0.376382  1
  O  O58  1  0.619262  0.657000  0.379698  1
  O  O59  1  0.221940  0.960892  0.349426  1
  O  O60  1  0.774131  0.422625  0.484069  1
  O  O61  1  0.431157  0.831096  0.949022  1
  O  O62  1  0.071525  0.540267  0.750698  1
  O  O63  1  0.829398  0.659084  0.172480  1
  O  O64  1  0.801358  0.637767  0.881740  1
  O  O65  1  0.207473  0.859527  0.878067  1
  O  O66  1  0.971031  0.987028  0.116366  1
  O  O67  1  0.713946  0.582024  0.018493  1
  O  O68  1  0.449021  0.822291  0.129613  1
  O  O69  1  0.462569  0.233803  0.744129  1
  O  O70  1  0.499862  0.004189  0.390044  1
  O  O71  1  0.568843  0.168904  0.050978  1
  O  O72  1  0.949227  0.809105  0.623618  1
  O  O73  1  0.571525  0.040267  0.749302  1
  O  O74  1  0.572379  0.508217  0.897868  1
  O  O75  1  0.160772  0.847625  0.171725  1
  O  O76  1  0.380738  0.343000  0.620302  1
  O  O77  1  0.255651  0.044093  0.144223  1
  O  O78  1  0.839229  0.152375  0.828275  1
  O  O79  1  0.428475  0.959733  0.250698  1
  O  O80  1  0.928475  0.459733  0.249302  1
  O  O81  1  0.698642  0.862233  0.381740  1
  O  O82  1  0.940205  0.939581  0.754844  1
  O  O83  1  0.349277  0.839925  0.359268  1
  O  O84  1  0.650723  0.160075  0.640732  1
  O  O85  1  0.150723  0.660075  0.859268  1
  O  O86  1  0.670602  0.840916  0.672480  1
  O  O87  1  0.072379  0.008217  0.602132  1
  O  O88  1  0.434572  0.989951  0.899313  1
  O  O89  1  0.244349  0.455907  0.644223  1
  O  O90  1  0.329398  0.159084  0.327520  1
  O  O91  1  0.537431  0.766197  0.255871  1
  O  O92  1  0.021308  0.737524  0.989337  1
  O  O93  1  0.565428  0.010049  0.100687  1
  O  O94  1  0.934572  0.489951  0.600687  1
  O  O95  1  0.755651  0.544093  0.355777  1
  O  O96  1  0.433177  0.330638  0.061397  1
  O  O97  1  0.707473  0.359527  0.621933  1
  O  O98  1  0.703366  0.329359  0.810494  1
  O  O99  1  0.849277  0.339925  0.140732  1
  O  O100  1  0.286054  0.417976  0.981507  1
  O  O101  1  0.274131  0.922625  0.015931  1
  O  O102  1  0.880738  0.843000  0.879698  1
  O  O103  1  0.478692  0.762476  0.489337  1
  O  O104  1  0.065428  0.510049  0.399313  1
  O  O105  1  0.999862  0.504189  0.109956  1
  O  O106  1  0.000138  0.495811  0.890044  1
  O  O107  1  0.225869  0.577375  0.515931  1
  O  O108  1  0.198642  0.362233  0.118260  1
  O  O109  1  0.550979  0.177709  0.870387  1
  O  O110  1  0.292527  0.640473  0.378067  1
  O  O111  1  0.521308  0.237524  0.510663  1
  O  O112  1  0.933177  0.830638  0.438603  1
  O  O113  1  0.427621  0.491783  0.102132  1
  O  O114  1  0.792527  0.140473  0.121933  1
  O  O115  1  0.296634  0.670641  0.189506  1
  O  O116  1  0.203366  0.829359  0.689506  1
  O  O117  1  0.559795  0.560419  0.254844  1
  O  O118  1  0.170602  0.340916  0.827520  1
  O  O119  1  0.962569  0.733803  0.755871  1
  O  O120  1  0.028969  0.012972  0.883634  1
  O  O121  1  0.068843  0.668904  0.449022  1
  O  O122  1  0.927621  0.991783  0.397868  1
  O  O123  1  0.660771  0.347625  0.328275  1
  O  O124  1  0.725869  0.077375  0.984069  1
  O  O125  1  0.066823  0.169362  0.561397  1
  O  O126  1  0.037431  0.266197  0.244129  1
  O  O127  1  0.949021  0.322291  0.370387  1
  O  O128  1  0.566823  0.669362  0.938603  1
  O  O129  1  0.059795  0.060419  0.245156  1
  O  O130  1  0.778060  0.039108  0.650574  1
  O  O131  1  0.786054  0.917976  0.518493  1
  O  O132  1  0.796634  0.170641  0.310494  1
  O  O133  1  0.471031  0.487028  0.383634  1
  O  O134  1  0.528969  0.512972  0.616366  1
  O  O135  1  0.550773  0.690895  0.123618  1
  O  O136  1  0.978692  0.262476  0.010663  1
  O  O137  1  0.721940  0.460892  0.150574  1
  O  O138  1  0.213946  0.082024  0.481507  1
  O  O139  1  0.744349  0.955907  0.855777  1
