# generated using pymatgen
data_SiO2
_symmetry_space_group_name_H-M   'P 1'
_cell_length_a   8.14986548
_cell_length_b   9.06774014
_cell_length_c   9.06774014
_cell_angle_alpha   90.00000000
_cell_angle_beta   90.00000000
_cell_angle_gamma   90.00000000
_symmetry_Int_Tables_number   1
_chemical_formula_structural   SiO2
_chemical_formula_sum   'Si16 O32'
_cell_volume   670.11381590
_cell_formula_units_Z   16
loop_
 _symmetry_equiv_pos_site_id
 _symmetry_equiv_pos_as_xyz
  1  'x, y, z'
loop_
 _atom_site_type_symbol
 _atom_site_label
 _atom_site_symmetry_multiplicity
 _atom_site_fract_x
 _atom_site_fract_y
 _atom_site_fract_z
 _atom_site_occupancy
  Si  Si0  1  0.687191  0.032427  0.805395  1
  Si  Si1  1  0.187191  0.305395  0.532427  1
  Si  Si2  1  0.312809  0.467573  0.805395  1
  Si  Si3  1  0.812809  0.305395  0.967573  1
  Si  Si4  1  0.687191  0.532427  0.194605  1
  Si  Si5  1  0.812809  0.194605  0.532427  1
  Si  Si6  1  0.187191  0.805395  0.467573  1
  Si  Si7  1  0.312809  0.532427  0.305395  1
  Si  Si8  1  0.687191  0.467573  0.694605  1
  Si  Si9  1  0.812809  0.694605  0.467573  1
  Si  Si10  1  0.687191  0.967573  0.305395  1
  Si  Si11  1  0.812809  0.805395  0.032427  1
  Si  Si12  1  0.187191  0.194605  0.967573  1
  Si  Si13  1  0.312809  0.032427  0.694605  1
  Si  Si14  1  0.312809  0.967573  0.194605  1
  Si  Si15  1  0.187191  0.694605  0.032427  1
  O  O16  1  0.750000  0.620212  0.620212  1
  O  O17  1  0.194069  0.573222  0.166024  1
  O  O18  1  0.694069  0.333976  0.573222  1
  O  O19  1  0.750000  0.379788  0.120212  1
  O  O20  1  0.000000  0.250000  0.511213  1
  O  O21  1  0.694069  0.166024  0.926778  1
  O  O22  1  0.000000  0.250000  0.988787  1
  O  O23  1  0.805931  0.926778  0.166024  1
  O  O24  1  0.250000  0.879788  0.620212  1
  O  O25  1  0.194069  0.926778  0.333976  1
  O  O26  1  0.194069  0.073222  0.833976  1
  O  O27  1  0.194069  0.426778  0.666024  1
  O  O28  1  0.250000  0.120212  0.120212  1
  O  O29  1  0.805931  0.426778  0.833976  1
  O  O30  1  0.305931  0.333976  0.926778  1
  O  O31  1  0.805931  0.073222  0.666024  1
  O  O32  1  0.500000  0.488787  0.750000  1
  O  O33  1  0.750000  0.879788  0.879788  1
  O  O34  1  0.305931  0.166024  0.573222  1
  O  O35  1  0.805931  0.573222  0.333976  1
  O  O36  1  0.694069  0.666024  0.073222  1
  O  O37  1  0.500000  0.988787  0.250000  1
  O  O38  1  0.694069  0.833976  0.426778  1
  O  O39  1  0.500000  0.511213  0.250000  1
  O  O40  1  0.500000  0.011213  0.750000  1
  O  O41  1  0.305931  0.666024  0.426778  1
  O  O42  1  0.000000  0.750000  0.488787  1
  O  O43  1  0.305931  0.833976  0.073222  1
  O  O44  1  0.000000  0.750000  0.011213  1
  O  O45  1  0.250000  0.379788  0.379788  1
  O  O46  1  0.250000  0.620212  0.879788  1
  O  O47  1  0.750000  0.120212  0.379788  1
