# generated using pymatgen
data_CdCu2(BO3)2
_symmetry_space_group_name_H-M   'P 1'
_cell_length_a   3.56526551
_cell_length_b   9.51937647
_cell_length_c   15.24658513
_cell_angle_alpha   90.00000000
_cell_angle_beta   90.00000000
_cell_angle_gamma   95.64897062
_symmetry_Int_Tables_number   1
_chemical_formula_structural   CdCu2(BO3)2
_chemical_formula_sum   'Cd4 Cu8 B8 O24'
_cell_volume   514.94249376
_cell_formula_units_Z   4
loop_
 _symmetry_equiv_pos_site_id
 _symmetry_equiv_pos_as_xyz
  1  'x, y, z'
loop_
 _atom_site_type_symbol
 _atom_site_label
 _atom_site_symmetry_multiplicity
 _atom_site_fract_x
 _atom_site_fract_y
 _atom_site_fract_z
 _atom_site_occupancy
  Cd  Cd0  1  0.212467  0.386179  0.133120  1
  Cd  Cd1  1  0.787533  0.113821  0.633120  1
  Cd  Cd2  1  0.212467  0.886179  0.366880  1
  Cd  Cd3  1  0.787533  0.613821  0.866880  1
  Cu  Cu4  1  0.687384  0.137607  0.040980  1
  Cu  Cu5  1  0.687384  0.637607  0.459020  1
  Cu  Cu6  1  0.312616  0.362393  0.540980  1
  Cu  Cu7  1  0.312616  0.862393  0.959020  1
  Cu  Cu8  1  0.319690  0.364377  0.753521  1
  Cu  Cu9  1  0.680310  0.135623  0.253521  1
  Cu  Cu10  1  0.319690  0.864377  0.746479  1
  Cu  Cu11  1  0.680310  0.635623  0.246479  1
  B  B12  1  0.211792  0.419763  0.348962  1
  B  B13  1  0.891697  0.685308  0.088357  1
  B  B14  1  0.211792  0.919763  0.151038  1
  B  B15  1  0.788208  0.580237  0.651038  1
  B  B16  1  0.891697  0.185308  0.411643  1
  B  B17  1  0.108303  0.314692  0.911643  1
  B  B18  1  0.788208  0.080237  0.848962  1
  B  B19  1  0.108303  0.814692  0.588357  1
  O  O20  1  0.717738  0.563127  0.124475  1
  O  O21  1  0.319134  0.762645  0.850931  1
  O  O22  1  0.717738  0.063127  0.375525  1
  O  O23  1  0.680866  0.737355  0.350931  1
  O  O24  1  0.959673  0.210479  0.497241  1
  O  O25  1  0.267156  0.990009  0.228308  1
  O  O26  1  0.732844  0.509991  0.728308  1
  O  O27  1  0.040327  0.289521  0.997241  1
  O  O28  1  0.282262  0.436873  0.875525  1
  O  O29  1  0.319134  0.262645  0.649069  1
  O  O30  1  0.000120  0.214380  0.844538  1
  O  O31  1  0.680866  0.237355  0.149069  1
  O  O32  1  0.654170  0.031719  0.929219  1
  O  O33  1  0.959673  0.710479  0.002759  1
  O  O34  1  0.732844  0.009991  0.771692  1
  O  O35  1  0.000120  0.714380  0.655462  1
  O  O36  1  0.999880  0.285620  0.344538  1
  O  O37  1  0.282262  0.936873  0.624475  1
  O  O38  1  0.654170  0.531719  0.570781  1
  O  O39  1  0.267156  0.490009  0.271692  1
  O  O40  1  0.345830  0.468281  0.429219  1
  O  O41  1  0.345830  0.968281  0.070781  1
  O  O42  1  0.999880  0.785620  0.155462  1
  O  O43  1  0.040327  0.789521  0.502759  1
