# generated using pymatgen
data_SiO2
_symmetry_space_group_name_H-M   'P 1'
_cell_length_a   4.94765957
_cell_length_b   8.10950965
_cell_length_c   10.67427579
_cell_angle_alpha   85.94592521
_cell_angle_beta   76.59950826
_cell_angle_gamma   72.23865481
_symmetry_Int_Tables_number   1
_chemical_formula_structural   SiO2
_chemical_formula_sum   'Si8 O16'
_cell_volume   396.76619614
_cell_formula_units_Z   8
loop_
 _symmetry_equiv_pos_site_id
 _symmetry_equiv_pos_as_xyz
  1  'x, y, z'
loop_
 _atom_site_type_symbol
 _atom_site_label
 _atom_site_symmetry_multiplicity
 _atom_site_fract_x
 _atom_site_fract_y
 _atom_site_fract_z
 _atom_site_occupancy
  Si  Si0  1  0.888262  0.377719  0.614593  1
  Si  Si1  1  0.111738  0.622281  0.385407  1
  Si  Si2  1  0.380574  0.122281  0.885407  1
  Si  Si3  1  0.497145  0.122281  0.614593  1
  Si  Si4  1  0.619426  0.877719  0.114593  1
  Si  Si5  1  0.502855  0.877719  0.385407  1
  Si  Si6  1  0.265981  0.622281  0.114593  1
  Si  Si7  1  0.734019  0.377719  0.885407  1
  O  O8  1  0.287182  0.750000  0.425636  1
  O  O9  1  0.575325  0.250000  0.849350  1
  O  O10  1  0.712818  0.250000  0.574364  1
  O  O11  1  0.246098  0.507804  0.250000  1
  O  O12  1  0.503902  0.992196  0.250000  1
  O  O13  1  0.962818  0.750000  0.074364  1
  O  O14  1  0.753902  0.492196  0.750000  1
  O  O15  1  0.174675  0.250000  0.650650  1
  O  O16  1  0.825325  0.750000  0.349350  1
  O  O17  1  0.500000  0.500000  0.000000  1
  O  O18  1  0.496098  0.007804  0.750000  1
  O  O19  1  0.037182  0.250000  0.925636  1
  O  O20  1  0.424675  0.750000  0.150650  1
  O  O21  1  0.500000  0.000000  0.500000  1
  O  O22  1  0.000000  0.500000  0.500000  1
  O  O23  1  0.500000  0.000000  0.000000  1
