# generated using pymatgen
data_NiAs2S6(NF3)6
_symmetry_space_group_name_H-M   'P 1'
_cell_length_a   9.56287277
_cell_length_b   9.15629206
_cell_length_c   13.27197829
_cell_angle_alpha   90.00000000
_cell_angle_beta   90.20909133
_cell_angle_gamma   90.00000000
_symmetry_Int_Tables_number   1
_chemical_formula_structural   NiAs2S6(NF3)6
_chemical_formula_sum   'Ni2 As4 S12 N12 F36'
_cell_volume   1162.09273286
_cell_formula_units_Z   2
loop_
 _symmetry_equiv_pos_site_id
 _symmetry_equiv_pos_as_xyz
  1  'x, y, z'
loop_
 _atom_site_type_symbol
 _atom_site_label
 _atom_site_symmetry_multiplicity
 _atom_site_fract_x
 _atom_site_fract_y
 _atom_site_fract_z
 _atom_site_occupancy
  Ni  Ni0  1  0.000000  0.000000  0.000000  1
  Ni  Ni1  1  0.500000  0.500000  0.500000  1
  As  As2  1  0.998396  0.449078  0.255265  1
  As  As3  1  0.001604  0.550922  0.744735  1
  As  As4  1  0.501604  0.949078  0.244735  1
  As  As5  1  0.498396  0.050922  0.755265  1
  S  S6  1  0.417543  0.503216  0.244074  1
  S  S7  1  0.703773  0.190004  0.457631  1
  S  S8  1  0.582457  0.496784  0.755926  1
  S  S9  1  0.796227  0.690004  0.042369  1
  S  S10  1  0.082457  0.003216  0.255926  1
  S  S11  1  0.296227  0.809996  0.542369  1
  S  S12  1  0.917543  0.996784  0.744074  1
  S  S13  1  0.805830  0.700683  0.460289  1
  S  S14  1  0.194170  0.299317  0.539711  1
  S  S15  1  0.203773  0.309996  0.957631  1
  S  S16  1  0.305830  0.799317  0.960289  1
  S  S17  1  0.694170  0.200683  0.039711  1
  N  N18  1  0.815846  0.109326  0.034046  1
  N  N19  1  0.101344  0.195606  0.964274  1
  N  N20  1  0.932081  0.988614  0.851611  1
  N  N21  1  0.432081  0.511386  0.351611  1
  N  N22  1  0.315846  0.390674  0.534046  1
  N  N23  1  0.398656  0.695606  0.535726  1
  N  N24  1  0.684154  0.609326  0.465954  1
  N  N25  1  0.898656  0.804394  0.035726  1
  N  N26  1  0.567919  0.488614  0.648389  1
  N  N27  1  0.184154  0.890674  0.965954  1
  N  N28  1  0.601344  0.304394  0.464274  1
  N  N29  1  0.067919  0.011386  0.148389  1
  F  F30  1  0.613726  0.795485  0.229821  1
  F  F31  1  0.852249  0.568394  0.255980  1
  F  F32  1  0.145639  0.329848  0.254579  1
  F  F33  1  0.016705  0.567882  0.877863  1
  F  F34  1  0.983295  0.432118  0.122137  1
  F  F35  1  0.647751  0.068394  0.244020  1
  F  F36  1  0.645639  0.170152  0.754579  1
  F  F37  1  0.841625  0.207227  0.535427  1
  F  F38  1  0.113726  0.704515  0.729821  1
  F  F39  1  0.354361  0.829848  0.245421  1
  F  F40  1  0.147751  0.431606  0.744020  1
  F  F41  1  0.297972  0.645574  0.029565  1
  F  F42  1  0.561397  0.448977  0.182173  1
  F  F43  1  0.511477  0.036744  0.888809  1
  F  F44  1  0.111733  0.600414  0.240854  1
  F  F45  1  0.352249  0.931606  0.755980  1
  F  F46  1  0.658375  0.707227  0.964573  1
  F  F47  1  0.702028  0.354426  0.970435  1
  F  F48  1  0.483295  0.067882  0.622137  1
  F  F49  1  0.011477  0.463256  0.388809  1
  F  F50  1  0.061397  0.051023  0.682173  1
  F  F51  1  0.797972  0.854426  0.529565  1
  F  F52  1  0.886274  0.295485  0.270179  1
  F  F53  1  0.438603  0.551023  0.817827  1
  F  F54  1  0.488523  0.963256  0.111191  1
  F  F55  1  0.158375  0.792773  0.464573  1
  F  F56  1  0.386274  0.204515  0.770179  1
  F  F57  1  0.388267  0.100414  0.259146  1
  F  F58  1  0.202028  0.145574  0.470435  1
  F  F59  1  0.888267  0.399586  0.759146  1
  F  F60  1  0.611733  0.899586  0.740854  1
  F  F61  1  0.341625  0.292773  0.035427  1
  F  F62  1  0.988523  0.536744  0.611191  1
  F  F63  1  0.516705  0.932118  0.377863  1
  F  F64  1  0.854361  0.670152  0.745421  1
  F  F65  1  0.938603  0.948977  0.317827  1
