# generated using pymatgen
data_Y10W2O21
_symmetry_space_group_name_H-M   'P 1'
_cell_length_a   10.64464023
_cell_length_b   10.72426579
_cell_length_c   16.08810920
_cell_angle_alpha   90.00000000
_cell_angle_beta   90.00000000
_cell_angle_gamma   90.00000000
_symmetry_Int_Tables_number   1
_chemical_formula_structural   Y10W2O21
_chemical_formula_sum   'Y40 W8 O84'
_cell_volume   1836.55340657
_cell_formula_units_Z   4
loop_
 _symmetry_equiv_pos_site_id
 _symmetry_equiv_pos_as_xyz
  1  'x, y, z'
loop_
 _atom_site_type_symbol
 _atom_site_label
 _atom_site_symmetry_multiplicity
 _atom_site_fract_x
 _atom_site_fract_y
 _atom_site_fract_z
 _atom_site_occupancy
  Y  Y0  1  0.249834  0.344315  0.098850  1
  Y  Y1  1  0.478783  0.110447  0.089030  1
  Y  Y2  1  0.013689  0.140333  0.743156  1
  Y  Y3  1  0.511446  0.634858  0.419730  1
  Y  Y4  1  0.011446  0.865142  0.919730  1
  Y  Y5  1  0.748913  0.627488  0.271444  1
  Y  Y6  1  0.986311  0.859667  0.256844  1
  Y  Y7  1  0.978783  0.110447  0.410970  1
  Y  Y8  1  0.486311  0.640333  0.756844  1
  Y  Y9  1  0.488554  0.365142  0.580270  1
  Y  Y10  1  0.511446  0.865142  0.580270  1
  Y  Y11  1  0.251087  0.372512  0.728556  1
  Y  Y12  1  0.751087  0.372512  0.771444  1
  Y  Y13  1  0.251087  0.127488  0.271444  1
  Y  Y14  1  0.750166  0.844315  0.098850  1
  Y  Y15  1  0.978783  0.389553  0.589030  1
  Y  Y16  1  0.749834  0.155685  0.598850  1
  Y  Y17  1  0.750166  0.655685  0.901150  1
  Y  Y18  1  0.478783  0.389553  0.910970  1
  Y  Y19  1  0.248913  0.627488  0.228556  1
  Y  Y20  1  0.748913  0.872512  0.728556  1
  Y  Y21  1  0.521217  0.610447  0.089030  1
  Y  Y22  1  0.250166  0.844315  0.401150  1
  Y  Y23  1  0.249834  0.155685  0.901150  1
  Y  Y24  1  0.986311  0.640333  0.743156  1
  Y  Y25  1  0.513689  0.140333  0.756844  1
  Y  Y26  1  0.513689  0.359667  0.243156  1
  Y  Y27  1  0.749834  0.344315  0.401150  1
  Y  Y28  1  0.021217  0.610447  0.410970  1
  Y  Y29  1  0.751087  0.127488  0.228556  1
  Y  Y30  1  0.021217  0.889553  0.589030  1
  Y  Y31  1  0.250166  0.655685  0.598850  1
  Y  Y32  1  0.486311  0.859667  0.243156  1
  Y  Y33  1  0.013689  0.359667  0.256844  1
  Y  Y34  1  0.488554  0.134858  0.419730  1
  Y  Y35  1  0.988554  0.365142  0.919730  1
  Y  Y36  1  0.988554  0.134858  0.080270  1
  Y  Y37  1  0.521217  0.889553  0.910970  1
  Y  Y38  1  0.011446  0.634858  0.080270  1
  Y  Y39  1  0.248913  0.872512  0.771444  1
  W  W40  1  0.251835  0.876607  0.085506  1
  W  W41  1  0.751835  0.876607  0.414494  1
  W  W42  1  0.248165  0.123393  0.585506  1
  W  W43  1  0.748165  0.376607  0.085506  1
  W  W44  1  0.251835  0.623393  0.914494  1
  W  W45  1  0.751835  0.623393  0.585506  1
  W  W46  1  0.248165  0.376607  0.414494  1
  W  W47  1  0.748165  0.123393  0.914494  1
  O  O48  1  0.191039  0.750000  0.000000  1
  O  O49  1  0.892823  0.491239  0.329350  1
  O  O50  1  0.380251  0.783822  0.677623  1
  O  O51  1  0.308961  0.250000  0.500000  1
  O  O52  1  0.385285  0.506145  0.658547  1
  O  O53  1  0.129434  0.248216  0.632761  1
  O  O54  1  0.629923  0.786772  0.343293  1
  O  O55  1  0.880140  0.250000  0.500000  1
  O  O56  1  0.629923  0.713228  0.656707  1
  O  O57  1  0.121919  0.978172  0.041336  1
  O  O58  1  0.621919  0.978172  0.458664  1
  O  O59  1  0.870566  0.748216  0.632761  1
  O  O60  1  0.124186  0.054913  0.512298  1
  O  O61  1  0.119749  0.216178  0.177623  1
  O  O62  1  0.114715  0.006145  0.841453  1
  O  O63  1  0.619860  0.750000  0.000000  1
  O  O64  1  0.375814  0.554913  0.987702  1
  O  O65  1  0.878140  0.270144  0.678728  1
  O  O66  1  0.386946  0.750000  0.500000  1
  O  O67  1  0.375814  0.945087  0.012298  1
  O  O68  1  0.892823  0.008761  0.670650  1
  O  O69  1  0.691039  0.750000  0.500000  1
  O  O70  1  0.107177  0.508761  0.670650  1
  O  O71  1  0.119860  0.750000  0.500000  1
  O  O72  1  0.129923  0.713228  0.843293  1
  O  O73  1  0.129923  0.786772  0.156707  1
  O  O74  1  0.380251  0.716178  0.322377  1
  O  O75  1  0.621860  0.729856  0.178728  1
  O  O76  1  0.370077  0.213228  0.656707  1
  O  O77  1  0.378140  0.270144  0.821272  1
  O  O78  1  0.886946  0.750000  0.000000  1
  O  O79  1  0.811629  0.516118  0.670209  1
  O  O80  1  0.124186  0.445087  0.487702  1
  O  O81  1  0.378081  0.021828  0.541336  1
  O  O82  1  0.121860  0.770144  0.678728  1
  O  O83  1  0.621860  0.770144  0.821272  1
  O  O84  1  0.129434  0.251784  0.367239  1
  O  O85  1  0.121860  0.729856  0.321272  1
  O  O86  1  0.607177  0.991239  0.170650  1
  O  O87  1  0.114715  0.493855  0.158547  1
  O  O88  1  0.619749  0.283822  0.677623  1
  O  O89  1  0.370566  0.751784  0.132761  1
  O  O90  1  0.392823  0.008761  0.829350  1
  O  O91  1  0.688371  0.483882  0.170209  1
  O  O92  1  0.878081  0.478172  0.041336  1
  O  O93  1  0.392823  0.491239  0.170650  1
  O  O94  1  0.121919  0.521828  0.958664  1
  O  O95  1  0.614715  0.006145  0.658547  1
  O  O96  1  0.880251  0.783822  0.822377  1
  O  O97  1  0.878140  0.229856  0.321272  1
  O  O98  1  0.188371  0.483882  0.329791  1
  O  O99  1  0.878081  0.021828  0.958664  1
  O  O100  1  0.119749  0.283822  0.822377  1
  O  O101  1  0.311629  0.516118  0.829791  1
  O  O102  1  0.378081  0.478172  0.458664  1
  O  O103  1  0.311629  0.983882  0.170209  1
  O  O104  1  0.885285  0.506145  0.841453  1
  O  O105  1  0.370077  0.286772  0.343293  1
  O  O106  1  0.113054  0.250000  0.000000  1
  O  O107  1  0.870077  0.213228  0.843293  1
  O  O108  1  0.107177  0.991239  0.329350  1
  O  O109  1  0.624186  0.054913  0.987702  1
  O  O110  1  0.688371  0.016118  0.829791  1
  O  O111  1  0.370566  0.748216  0.867239  1
  O  O112  1  0.188371  0.016118  0.670209  1
  O  O113  1  0.811629  0.983882  0.329791  1
  O  O114  1  0.880251  0.716178  0.177623  1
  O  O115  1  0.613054  0.250000  0.500000  1
  O  O116  1  0.614715  0.493855  0.341453  1
  O  O117  1  0.378140  0.229856  0.178728  1
  O  O118  1  0.380140  0.250000  0.000000  1
  O  O119  1  0.629434  0.248216  0.867239  1
  O  O120  1  0.808961  0.250000  0.000000  1
  O  O121  1  0.870566  0.751784  0.367239  1
  O  O122  1  0.875814  0.554913  0.512298  1
  O  O123  1  0.629434  0.251784  0.132761  1
  O  O124  1  0.619749  0.216178  0.322377  1
  O  O125  1  0.607177  0.508761  0.829350  1
  O  O126  1  0.870077  0.286772  0.156707  1
  O  O127  1  0.885285  0.993855  0.158547  1
  O  O128  1  0.624186  0.445087  0.012298  1
  O  O129  1  0.385285  0.993855  0.341453  1
  O  O130  1  0.875814  0.945087  0.487702  1
  O  O131  1  0.621919  0.521828  0.541336  1
