# generated using pymatgen
data_Rb2Ge2S5
_symmetry_space_group_name_H-M   'P 1'
_cell_length_a   9.30532536
_cell_length_b   11.20735814
_cell_length_c   11.20735800
_cell_angle_alpha   90.22607305
_cell_angle_beta   100.41214393
_cell_angle_gamma   100.41214208
_symmetry_Int_Tables_number   1
_chemical_formula_structural   Rb2Ge2S5
_chemical_formula_sum   'Rb8 Ge8 S20'
_cell_volume   1129.80861015
_cell_formula_units_Z   4
loop_
 _symmetry_equiv_pos_site_id
 _symmetry_equiv_pos_as_xyz
  1  'x, y, z'
loop_
 _atom_site_type_symbol
 _atom_site_label
 _atom_site_symmetry_multiplicity
 _atom_site_fract_x
 _atom_site_fract_y
 _atom_site_fract_z
 _atom_site_occupancy
  Rb  Rb0  1  0.125886  0.474838  0.210590  1
  Rb  Rb1  1  0.374114  0.789410  0.525162  1
  Rb  Rb2  1  0.874114  0.525162  0.789410  1
  Rb  Rb3  1  0.625886  0.210590  0.474838  1
  Rb  Rb4  1  0.372568  0.791382  0.940404  1
  Rb  Rb5  1  0.127432  0.059596  0.208618  1
  Rb  Rb6  1  0.627432  0.208618  0.059596  1
  Rb  Rb7  1  0.872568  0.940404  0.791382  1
  Ge  Ge8  1  0.600928  0.527153  0.267164  1
  Ge  Ge9  1  0.899072  0.732836  0.472847  1
  Ge  Ge10  1  0.399072  0.472847  0.732836  1
  Ge  Ge11  1  0.100928  0.267164  0.527153  1
  Ge  Ge12  1  0.114955  0.270161  0.862184  1
  Ge  Ge13  1  0.385045  0.137816  0.729839  1
  Ge  Ge14  1  0.885045  0.729839  0.137816  1
  Ge  Ge15  1  0.614955  0.862184  0.270161  1
  S  S16  1  0.739846  0.544062  0.117516  1
  S  S17  1  0.760154  0.882484  0.455938  1
  S  S18  1  0.260154  0.455938  0.882484  1
  S  S19  1  0.239846  0.117516  0.544062  1
  S  S20  1  0.537636  0.322959  0.755152  1
  S  S21  1  0.962364  0.244848  0.677041  1
  S  S22  1  0.462364  0.677041  0.244848  1
  S  S23  1  0.037636  0.755152  0.322959  1
  S  S24  1  0.454864  0.354636  0.243618  1
  S  S25  1  0.045136  0.756382  0.645364  1
  S  S26  1  0.545136  0.645364  0.756382  1
  S  S27  1  0.954864  0.243618  0.354636  1
  S  S28  1  0.024255  0.752856  0.003801  1
  S  S29  1  0.475745  0.996199  0.247144  1
  S  S30  1  0.975745  0.247144  0.996199  1
  S  S31  1  0.524255  0.003801  0.752856  1
  S  S32  1  0.750000  0.881066  0.118934  1
  S  S33  1  0.250000  0.118934  0.881066  1
  S  S34  1  0.750000  0.547324  0.452676  1
  S  S35  1  0.250000  0.452676  0.547324  1
