# generated using pymatgen
data_VCdClO3
_symmetry_space_group_name_H-M   'P 1'
_cell_length_a   3.70145215
_cell_length_b   6.99960082
_cell_length_c   16.09609163
_cell_angle_alpha   90.00000000
_cell_angle_beta   90.00000000
_cell_angle_gamma   90.00000000
_symmetry_Int_Tables_number   1
_chemical_formula_structural   VCdClO3
_chemical_formula_sum   'V4 Cd4 Cl4 O12'
_cell_volume   417.02860808
_cell_formula_units_Z   4
loop_
 _symmetry_equiv_pos_site_id
 _symmetry_equiv_pos_as_xyz
  1  'x, y, z'
loop_
 _atom_site_type_symbol
 _atom_site_label
 _atom_site_symmetry_multiplicity
 _atom_site_fract_x
 _atom_site_fract_y
 _atom_site_fract_z
 _atom_site_occupancy
  V  V0  1  0.750000  0.319248  0.003511  1
  V  V1  1  0.250000  0.819248  0.496489  1
  V  V2  1  0.750000  0.180752  0.503511  1
  V  V3  1  0.250000  0.680752  0.996489  1
  Cd  Cd4  1  0.250000  0.076313  0.168078  1
  Cd  Cd5  1  0.750000  0.576313  0.331922  1
  Cd  Cd6  1  0.250000  0.423687  0.668078  1
  Cd  Cd7  1  0.750000  0.923687  0.831922  1
  Cl  Cl8  1  0.750000  0.942520  0.268119  1
  Cl  Cl9  1  0.750000  0.557480  0.768119  1
  Cl  Cl10  1  0.250000  0.442520  0.231881  1
  Cl  Cl11  1  0.250000  0.057480  0.731881  1
  O  O12  1  0.250000  0.683368  0.406967  1
  O  O13  1  0.750000  0.316632  0.593033  1
  O  O14  1  0.750000  0.320896  0.420657  1
  O  O15  1  0.250000  0.395804  0.008188  1
  O  O16  1  0.750000  0.604196  0.991812  1
  O  O17  1  0.750000  0.895804  0.491812  1
  O  O18  1  0.750000  0.183368  0.093033  1
  O  O19  1  0.250000  0.816632  0.906967  1
  O  O20  1  0.250000  0.104196  0.508188  1
  O  O21  1  0.250000  0.820896  0.079343  1
  O  O22  1  0.750000  0.179104  0.920657  1
  O  O23  1  0.250000  0.679104  0.579343  1
