# generated using pymatgen
data_Ca3SiBr2
_symmetry_space_group_name_H-M   'P 1'
_cell_length_a   4.60263129
_cell_length_b   4.58713224
_cell_length_c   11.70588118
_cell_angle_alpha   81.15283800
_cell_angle_beta   78.66209604
_cell_angle_gamma   59.88816354
_symmetry_Int_Tables_number   1
_chemical_formula_structural   Ca3SiBr2
_chemical_formula_sum   'Ca3 Si1 Br2'
_cell_volume   209.17599493
_cell_formula_units_Z   1
loop_
 _symmetry_equiv_pos_site_id
 _symmetry_equiv_pos_as_xyz
  1  'x, y, z'
loop_
 _atom_site_type_symbol
 _atom_site_label
 _atom_site_symmetry_multiplicity
 _atom_site_fract_x
 _atom_site_fract_y
 _atom_site_fract_z
 _atom_site_occupancy
  Ca  Ca0  1  0.980012  0.478924  0.561053  1
  Ca  Ca1  1  0.400868  0.062392  0.135872  1
  Ca  Ca2  1  0.157401  0.765234  0.919964  1
  Si  Si3  1  0.779554  0.414862  0.026031  1
  Br  Br4  1  0.365523  0.835609  0.433345  1
  Br  Br5  1  0.595643  0.127980  0.680734  1
