# generated using pymatgen
data_Dy2In16Pt7
_symmetry_space_group_name_H-M   'P 1'
_cell_length_a   4.43649389
_cell_length_b   11.94626884
_cell_length_c   11.94626818
_cell_angle_alpha   117.62381378
_cell_angle_beta   90.00000000
_cell_angle_gamma   90.00000000
_symmetry_Int_Tables_number   1
_chemical_formula_structural   Dy2In16Pt7
_chemical_formula_sum   'Dy2 In16 Pt7'
_cell_volume   560.97501365
_cell_formula_units_Z   1
loop_
 _symmetry_equiv_pos_site_id
 _symmetry_equiv_pos_as_xyz
  1  'x, y, z'
loop_
 _atom_site_type_symbol
 _atom_site_label
 _atom_site_symmetry_multiplicity
 _atom_site_fract_x
 _atom_site_fract_y
 _atom_site_fract_z
 _atom_site_occupancy
  Dy  Dy0  1  0.500000  0.828665  0.828665  1
  Dy  Dy1  1  0.500000  0.171335  0.171335  1
  Pt  Pt2  1  0.500000  0.500000  0.500000  1
  Pt  Pt3  1  0.500000  0.275972  0.724028  1
  Pt  Pt4  1  0.500000  0.724028  0.275972  1
  Pt  Pt5  1  0.000000  0.669342  0.883701  1
  Pt  Pt6  1  0.000000  0.330658  0.116299  1
  Pt  Pt7  1  0.000000  0.883701  0.669342  1
  Pt  Pt8  1  0.000000  0.116299  0.330658  1
  In  In9  1  0.000000  0.632064  0.632064  1
  In  In10  1  0.000000  0.367936  0.367936  1
  In  In11  1  0.500000  0.517092  0.742761  1
  In  In12  1  0.500000  0.482908  0.257239  1
  In  In13  1  0.500000  0.742761  0.517092  1
  In  In14  1  0.500000  0.257239  0.482908  1
  In  In15  1  0.000000  0.413433  0.858931  1
  In  In16  1  0.000000  0.586567  0.141069  1
  In  In17  1  0.000000  0.858931  0.413433  1
  In  In18  1  0.000000  0.141069  0.586567  1
  In  In19  1  0.500000  0.287270  0.961263  1
  In  In20  1  0.500000  0.712730  0.038737  1
  In  In21  1  0.500000  0.961263  0.287270  1
  In  In22  1  0.500000  0.038737  0.712730  1
  In  In23  1  0.000000  0.926975  0.073025  1
  In  In24  1  0.000000  0.073025  0.926975  1
