# generated using pymatgen
data_GaSi2As(H3C)8
_symmetry_space_group_name_H-M   'P 1'
_cell_length_a   9.38788757
_cell_length_b   9.78828949
_cell_length_c   10.02629704
_cell_angle_alpha   77.58377905
_cell_angle_beta   81.03355746
_cell_angle_gamma   64.73824994
_symmetry_Int_Tables_number   1
_chemical_formula_structural   GaSi2As(H3C)8
_chemical_formula_sum   'Ga2 Si4 As2 H48 C16'
_cell_volume   811.58747542
_cell_formula_units_Z   2
loop_
 _symmetry_equiv_pos_site_id
 _symmetry_equiv_pos_as_xyz
  1  'x, y, z'
loop_
 _atom_site_type_symbol
 _atom_site_label
 _atom_site_symmetry_multiplicity
 _atom_site_fract_x
 _atom_site_fract_y
 _atom_site_fract_z
 _atom_site_occupancy
  Ga  Ga0  1  0.468167  0.354774  0.427175  1
  Ga  Ga1  1  0.531833  0.645226  0.572825  1
  Si  Si2  1  0.326029  0.357828  0.833704  1
  Si  Si3  1  0.228140  0.814592  0.263774  1
  Si  Si4  1  0.771860  0.185408  0.736226  1
  Si  Si5  1  0.673971  0.642172  0.166296  1
  As  As6  1  0.525302  0.379981  0.661454  1
  As  As7  1  0.474698  0.620019  0.338546  1
  H  H8  1  0.708982  0.676452  0.912405  1
  H  H9  1  0.375346  0.807762  0.760681  1
  H  H10  1  0.829786  0.333403  0.879801  1
  H  H11  1  0.954362  0.470343  0.118926  1
  H  H12  1  0.840347  0.538495  0.524424  1
  H  H13  1  0.807023  0.821546  0.103593  1
  H  H14  1  0.060399  0.867292  0.074943  1
  H  H15  1  0.906923  0.167962  0.500454  1
  H  H16  1  0.263247  0.033973  0.322622  1
  H  H17  1  0.352437  0.925433  0.596721  1
  H  H18  1  0.507459  0.773251  0.965590  1
  H  H19  1  0.170214  0.666597  0.120199  1
  H  H20  1  0.098846  0.558318  0.702659  1
  H  H21  1  0.192977  0.178454  0.896407  1
  H  H22  1  0.221459  0.380489  0.322584  1
  H  H23  1  0.778541  0.619511  0.677416  1
  H  H24  1  0.737444  0.218105  0.983828  1
  H  H25  1  0.879488  0.901628  0.799790  1
  H  H26  1  0.755476  0.740594  0.515547  1
  H  H27  1  0.159653  0.461505  0.475576  1
  H  H28  1  0.061627  0.699271  0.424468  1
  H  H29  1  0.325017  0.016665  0.147889  1
  H  H30  1  0.291018  0.323548  0.087595  1
  H  H31  1  0.938373  0.300729  0.575532  1
  H  H32  1  0.250038  0.198416  0.718151  1
  H  H33  1  0.393106  0.079922  0.837004  1
  H  H34  1  0.760243  0.186687  0.348458  1
  H  H35  1  0.045638  0.529657  0.881074  1
  H  H36  1  0.624654  0.192238  0.239319  1
  H  H37  1  0.749962  0.801584  0.281849  1
  H  H38  1  0.244524  0.259406  0.484453  1
  H  H39  1  0.939601  0.132708  0.925057  1
  H  H40  1  0.409250  0.428866  0.026335  1
  H  H41  1  0.093077  0.832038  0.499546  1
  H  H42  1  0.647563  0.074567  0.403279  1
  H  H43  1  0.606894  0.920078  0.162996  1
  H  H44  1  0.239757  0.813313  0.651542  1
  H  H45  1  0.492541  0.226749  0.034410  1
  H  H46  1  0.044669  0.100859  0.627674  1
  H  H47  1  0.841026  0.360996  0.185060  1
  H  H48  1  0.955331  0.899141  0.372326  1
  H  H49  1  0.262556  0.781895  0.016172  1
  H  H50  1  0.590750  0.571134  0.973665  1
  H  H51  1  0.901154  0.441682  0.297341  1
  H  H52  1  0.736753  0.966027  0.677378  1
  H  H53  1  0.158974  0.639004  0.814940  1
  H  H54  1  0.120512  0.098372  0.200210  1
  H  H55  1  0.674983  0.983335  0.852111  1
  C  C56  1  0.287504  0.187648  0.819688  1
  C  C57  1  0.250480  0.366664  0.428156  1
  C  C58  1  0.355397  0.814918  0.653754  1
  C  C59  1  0.712496  0.812352  0.180312  1
  C  C60  1  0.176968  0.778443  0.103530  1
  C  C61  1  0.859506  0.461596  0.195551  1
  C  C62  1  0.613799  0.667643  0.988588  1
  C  C63  1  0.386201  0.332357  0.011412  1
  C  C64  1  0.644603  0.185082  0.346246  1
  C  C65  1  0.929374  0.189844  0.596308  1
  C  C66  1  0.235880  0.008469  0.230582  1
  C  C67  1  0.140494  0.538404  0.804449  1
  C  C68  1  0.749520  0.633336  0.571844  1
  C  C69  1  0.823032  0.221557  0.896470  1
  C  C70  1  0.764120  0.991531  0.769418  1
  C  C71  1  0.070626  0.810156  0.403692  1
