# generated using pymatgen
data_BaMnF4
_symmetry_space_group_name_H-M   'P 1'
_cell_length_a   4.28106377
_cell_length_b   6.09806056
_cell_length_c   8.01688869
_cell_angle_alpha   90.00000000
_cell_angle_beta   105.48599463
_cell_angle_gamma   90.00000000
_symmetry_Int_Tables_number   1
_chemical_formula_structural   BaMnF4
_chemical_formula_sum   'Ba2 Mn2 F8'
_cell_volume   201.69225755
_cell_formula_units_Z   2
loop_
 _symmetry_equiv_pos_site_id
 _symmetry_equiv_pos_as_xyz
  1  'x, y, z'
loop_
 _atom_site_type_symbol
 _atom_site_label
 _atom_site_symmetry_multiplicity
 _atom_site_fract_x
 _atom_site_fract_y
 _atom_site_fract_z
 _atom_site_occupancy
  F  F0  1  0.918657  0.524003  0.837313  1
  F  F1  1  0.081343  0.024003  0.162687  1
  F  F2  1  0.462353  0.841162  0.924707  1
  F  F3  1  0.537647  0.341162  0.075293  1
  F  F4  1  0.701027  0.191659  0.402055  1
  F  F5  1  0.298973  0.691659  0.597945  1
  F  F6  1  0.664503  0.718976  0.329005  1
  F  F7  1  0.335497  0.218976  0.670995  1
  Mn  Mn8  1  0.416449  0.497324  0.832899  1
  Mn  Mn9  1  0.583551  0.997324  0.167101  1
  Ba  Ba10  1  0.842346  0.946477  0.684691  1
  Ba  Ba11  1  0.157654  0.446477  0.315309  1
