# generated using pymatgen
data_K2Ca(NO2)4
_symmetry_space_group_name_H-M   'P 1'
_cell_length_a   5.47113298
_cell_length_b   5.47113300
_cell_length_c   11.44038334
_cell_angle_alpha   87.49739003
_cell_angle_beta   87.49739001
_cell_angle_gamma   67.59244327
_symmetry_Int_Tables_number   1
_chemical_formula_structural   K2Ca(NO2)4
_chemical_formula_sum   'K2 Ca1 N4 O8'
_cell_volume   316.15474872
_cell_formula_units_Z   1
loop_
 _symmetry_equiv_pos_site_id
 _symmetry_equiv_pos_as_xyz
  1  'x, y, z'
loop_
 _atom_site_type_symbol
 _atom_site_label
 _atom_site_symmetry_multiplicity
 _atom_site_fract_x
 _atom_site_fract_y
 _atom_site_fract_z
 _atom_site_occupancy
  K  K0  1  0.631450  0.631450  0.301758  1
  K  K1  1  0.368550  0.368550  0.698242  1
  Ca  Ca2  1  0.000000  0.000000  0.000000  1
  N  N3  1  0.554684  0.554684  0.035311  1
  N  N4  1  0.269218  0.269218  0.274120  1
  N  N5  1  0.730782  0.730782  0.725880  1
  N  N6  1  0.445316  0.445316  0.964689  1
  O  O7  1  0.419798  0.793113  0.071179  1
  O  O8  1  0.793113  0.419798  0.071179  1
  O  O9  1  0.580202  0.206887  0.928821  1
  O  O10  1  0.517236  0.163693  0.290599  1
  O  O11  1  0.836307  0.482764  0.709401  1
  O  O12  1  0.163693  0.517236  0.290599  1
  O  O13  1  0.206887  0.580202  0.928821  1
  O  O14  1  0.482764  0.836307  0.709401  1
