# generated using pymatgen
data_Ru(OF3)2
_symmetry_space_group_name_H-M   'P 1'
_cell_length_a   9.24851964
_cell_length_b   9.24851952
_cell_length_c   9.24851964
_cell_angle_alpha   109.47122089
_cell_angle_beta   109.47122063
_cell_angle_gamma   109.47121715
_symmetry_Int_Tables_number   1
_chemical_formula_structural   Ru(OF3)2
_chemical_formula_sum   'Ru4 O8 F24'
_cell_volume   608.96844684
_cell_formula_units_Z   4
loop_
 _symmetry_equiv_pos_site_id
 _symmetry_equiv_pos_as_xyz
  1  'x, y, z'
loop_
 _atom_site_type_symbol
 _atom_site_label
 _atom_site_symmetry_multiplicity
 _atom_site_fract_x
 _atom_site_fract_y
 _atom_site_fract_z
 _atom_site_occupancy
  O  O0  1  0.564639  0.564639  0.564639  1
  O  O1  1  1.000000  0.935361  0.500000  1
  O  O2  1  0.500000  0.000000  0.935361  1
  O  O3  1  0.935361  0.500000  1.000000  1
  O  O4  1  0.435361  0.435361  0.435361  1
  O  O5  1  0.000000  0.064639  0.500000  1
  O  O6  1  0.500000  0.000000  0.064639  1
  O  O7  1  0.064639  0.500000  0.000000  1
  Ru  Ru8  1  0.000000  0.000000  0.000000  1
  Ru  Ru9  1  0.000000  0.500000  0.500000  1
  Ru  Ru10  1  0.500000  0.000000  0.500000  1
  Ru  Ru11  1  0.500000  0.500000  0.000000  1
  F  F12  1  0.232238  0.077673  0.042042  1
  F  F13  1  0.190196  0.457958  0.535630  1
  F  F14  1  0.654566  0.964370  0.422327  1
  F  F15  1  0.309804  0.845434  0.267762  1
  F  F16  1  0.457958  0.535630  0.190196  1
  F  F17  1  0.422327  0.654566  0.964370  1
  F  F18  1  0.845434  0.267762  0.309804  1
  F  F19  1  0.042042  0.232238  0.077673  1
  F  F20  1  0.077673  0.042042  0.232238  1
  F  F21  1  0.535630  0.190196  0.457958  1
  F  F22  1  0.964370  0.422327  0.654566  1
  F  F23  1  0.267762  0.309804  0.845434  1
  F  F24  1  0.767762  0.922327  0.957958  1
  F  F25  1  0.809804  0.542042  0.464370  1
  F  F26  1  0.345434  0.035630  0.577673  1
  F  F27  1  0.690196  0.154566  0.732238  1
  F  F28  1  0.542042  0.464370  0.809804  1
  F  F29  1  0.577673  0.345434  0.035630  1
  F  F30  1  0.154566  0.732238  0.690196  1
  F  F31  1  0.957958  0.767762  0.922327  1
  F  F32  1  0.922327  0.957958  0.767762  1
  F  F33  1  0.464370  0.809804  0.542042  1
  F  F34  1  0.035630  0.577673  0.345434  1
  F  F35  1  0.732238  0.690196  0.154566  1
