# generated using pymatgen
data_H14C5(SN)2
_symmetry_space_group_name_H-M   'P 1'
_cell_length_a   7.82589163
_cell_length_b   10.11904110
_cell_length_c   12.45119474
_cell_angle_alpha   105.65848880
_cell_angle_beta   90.00000000
_cell_angle_gamma   90.00000000
_symmetry_Int_Tables_number   1
_chemical_formula_structural   H14C5(SN)2
_chemical_formula_sum   'H56 C20 S8 N8'
_cell_volume   949.42307938
_cell_formula_units_Z   4
loop_
 _symmetry_equiv_pos_site_id
 _symmetry_equiv_pos_as_xyz
  1  'x, y, z'
loop_
 _atom_site_type_symbol
 _atom_site_label
 _atom_site_symmetry_multiplicity
 _atom_site_fract_x
 _atom_site_fract_y
 _atom_site_fract_z
 _atom_site_occupancy
  H  H0  1  0.638953  0.406496  0.585984  1
  H  H1  1  0.474281  0.105700  0.940020  1
  H  H2  1  0.728946  0.122596  0.291757  1
  H  H3  1  0.886174  0.002280  0.259695  1
  H  H4  1  0.307465  0.512099  0.578056  1
  H  H5  1  0.110125  0.469985  0.781274  1
  H  H6  1  0.386174  0.997720  0.240305  1
  H  H7  1  0.389875  0.469985  0.281274  1
  H  H8  1  0.936566  0.177951  0.170938  1
  H  H9  1  0.232626  0.332288  0.059806  1
  H  H10  1  0.153680  0.780182  0.525485  1
  H  H11  1  0.361047  0.593504  0.414016  1
  H  H12  1  0.767374  0.667712  0.940194  1
  H  H13  1  0.099160  0.177687  0.271795  1
  H  H14  1  0.069181  0.696943  0.695588  1
  H  H15  1  0.113430  0.436201  0.514637  1
  H  H16  1  0.267374  0.332288  0.559806  1
  H  H17  1  0.319658  0.509582  0.838290  1
  H  H18  1  0.692535  0.487901  0.421944  1
  H  H19  1  0.613430  0.563799  0.985363  1
  H  H20  1  0.386570  0.436201  0.014637  1
  H  H21  1  0.192535  0.512099  0.078056  1
  H  H22  1  0.807465  0.487901  0.921944  1
  H  H23  1  0.185503  0.960547  0.547811  1
  H  H24  1  0.732626  0.667712  0.440194  1
  H  H25  1  0.846320  0.219818  0.474515  1
  H  H26  1  0.685503  0.039453  0.952189  1
  H  H27  1  0.563434  0.177951  0.670938  1
  H  H28  1  0.180342  0.509582  0.338290  1
  H  H29  1  0.346320  0.780182  0.025485  1
  H  H30  1  0.814497  0.039453  0.452189  1
  H  H31  1  0.430819  0.696943  0.195588  1
  H  H32  1  0.400840  0.177687  0.771795  1
  H  H33  1  0.653680  0.219818  0.974515  1
  H  H34  1  0.889875  0.530015  0.218726  1
  H  H35  1  0.771054  0.122596  0.791757  1
  H  H36  1  0.900840  0.822313  0.728205  1
  H  H37  1  0.314497  0.960547  0.047811  1
  H  H38  1  0.271054  0.877404  0.708243  1
  H  H39  1  0.599160  0.822313  0.228205  1
  H  H40  1  0.569181  0.303057  0.804412  1
  H  H41  1  0.861047  0.406496  0.085984  1
  H  H42  1  0.819658  0.490418  0.661710  1
  H  H43  1  0.610125  0.530015  0.718726  1
  H  H44  1  0.138953  0.593504  0.914016  1
  H  H45  1  0.886570  0.563799  0.485363  1
  H  H46  1  0.025719  0.105700  0.440020  1
  H  H47  1  0.613826  0.002280  0.759695  1
  H  H48  1  0.680342  0.490418  0.161710  1
  H  H49  1  0.063434  0.822049  0.829062  1
  H  H50  1  0.930819  0.303057  0.304412  1
  H  H51  1  0.436566  0.822049  0.329062  1
  H  H52  1  0.228946  0.877404  0.208243  1
  H  H53  1  0.113826  0.997720  0.740305  1
  H  H54  1  0.525719  0.894300  0.059980  1
  H  H55  1  0.974281  0.894300  0.559980  1
  C  C56  1  0.748857  0.581781  0.476973  1
  C  C57  1  0.963661  0.197169  0.260105  1
  C  C58  1  0.588019  0.735454  0.632873  1
  C  C59  1  0.251143  0.418219  0.523027  1
  C  C60  1  0.536339  0.197169  0.760105  1
  C  C61  1  0.684655  0.504103  0.641543  1
  C  C62  1  0.888627  0.117656  0.426748  1
  C  C63  1  0.611373  0.117656  0.926748  1
  C  C64  1  0.248857  0.418219  0.023027  1
  C  C65  1  0.463661  0.802831  0.239895  1
  C  C66  1  0.184655  0.495897  0.858457  1
  C  C67  1  0.815345  0.504103  0.141543  1
  C  C68  1  0.411981  0.264546  0.367127  1
  C  C69  1  0.388627  0.882344  0.073252  1
  C  C70  1  0.911981  0.735454  0.132873  1
  C  C71  1  0.315345  0.495897  0.358457  1
  C  C72  1  0.111373  0.882344  0.573252  1
  C  C73  1  0.036339  0.802831  0.739895  1
  C  C74  1  0.751143  0.581781  0.976973  1
  C  C75  1  0.088019  0.264546  0.867127  1
  S  S76  1  -0.003662  0.234598  0.736386  1
  S  S77  1  0.503662  0.234598  0.236386  1
  S  S78  1  1.003662  0.765402  0.263614  1
  S  S79  1  0.419816  0.139163  0.436316  1
  S  S80  1  0.496338  0.765402  0.763614  1
  S  S81  1  0.919816  0.860837  0.063684  1
  S  S82  1  0.580184  0.860837  0.563684  1
  S  S83  1  0.080184  0.139163  0.936316  1
  N  N84  1  0.832833  0.613259  0.086131  1
  N  N85  1  0.858399  0.102862  0.306104  1
  N  N86  1  0.667167  0.613259  0.586131  1
  N  N87  1  0.141601  0.897138  0.693896  1
  N  N88  1  0.641601  0.102862  0.806104  1
  N  N89  1  0.167167  0.386741  0.913869  1
  N  N90  1  0.358399  0.897138  0.193896  1
  N  N91  1  0.332833  0.386741  0.413869  1
