# generated using pymatgen
data_Na5Mn3F14
_symmetry_space_group_name_H-M   'P 1'
_cell_length_a   7.54956454
_cell_length_b   12.30817523
_cell_length_c   12.62920399
_cell_angle_alpha   90.00000000
_cell_angle_beta   90.00000000
_cell_angle_gamma   90.00000000
_symmetry_Int_Tables_number   1
_chemical_formula_structural   Na5Mn3F14
_chemical_formula_sum   'Na20 Mn12 F56'
_cell_volume   1173.52285175
_cell_formula_units_Z   4
loop_
 _symmetry_equiv_pos_site_id
 _symmetry_equiv_pos_as_xyz
  1  'x, y, z'
loop_
 _atom_site_type_symbol
 _atom_site_label
 _atom_site_symmetry_multiplicity
 _atom_site_fract_x
 _atom_site_fract_y
 _atom_site_fract_z
 _atom_site_occupancy
  Na  Na0  1  0.823776  0.757925  0.420555  1
  Na  Na1  1  0.176224  0.257925  0.579445  1
  Na  Na2  1  0.676224  0.757925  0.920555  1
  Na  Na3  1  0.323776  0.257925  0.079445  1
  Na  Na4  1  0.732363  0.997366  0.229162  1
  Na  Na5  1  0.267637  0.497366  0.770838  1
  Na  Na6  1  0.767637  0.997366  0.729162  1
  Na  Na7  1  0.232363  0.497366  0.270838  1
  Na  Na8  1  0.797418  0.253204  0.077449  1
  Na  Na9  1  0.202582  0.753204  0.922551  1
  Na  Na10  1  0.702582  0.253204  0.577449  1
  Na  Na11  1  0.297418  0.753204  0.422551  1
  Na  Na12  1  0.721094  0.499845  0.237377  1
  Na  Na13  1  0.278906  0.999845  0.762623  1
  Na  Na14  1  0.778906  0.499845  0.737377  1
  Na  Na15  1  0.221094  0.999845  0.262623  1
  Na  Na16  1  0.027504  0.034592  0.020330  1
  Na  Na17  1  0.972496  0.534592  0.979670  1
  Na  Na18  1  0.472496  0.034592  0.520330  1
  Na  Na19  1  0.527504  0.534592  0.479670  1
  Mn  Mn20  1  0.500263  0.245580  0.335574  1
  Mn  Mn21  1  0.499737  0.745580  0.664426  1
  Mn  Mn22  1  0.999737  0.245580  0.835574  1
  Mn  Mn23  1  0.000263  0.745580  0.164426  1
  Mn  Mn24  1  0.996595  0.499751  0.502035  1
  Mn  Mn25  1  0.003405  0.999751  0.497965  1
  Mn  Mn26  1  0.503405  0.499751  0.002035  1
  Mn  Mn27  1  0.496595  0.999751  0.997965  1
  Mn  Mn28  1  0.999996  0.246622  0.311905  1
  Mn  Mn29  1  0.000004  0.746622  0.688095  1
  Mn  Mn30  1  0.500004  0.246622  0.811905  1
  Mn  Mn31  1  0.499996  0.746622  0.188095  1
  F  F32  1  0.420023  0.360248  0.923526  1
  F  F33  1  0.579977  0.860248  0.076474  1
  F  F34  1  0.079977  0.360248  0.423526  1
  F  F35  1  0.920023  0.860248  0.576474  1
  F  F36  1  0.574682  0.251722  0.194012  1
  F  F37  1  0.425318  0.751722  0.805988  1
  F  F38  1  0.925318  0.251722  0.694012  1
  F  F39  1  0.074682  0.751722  0.305988  1
  F  F40  1  0.131430  0.447514  0.616761  1
  F  F41  1  0.868570  0.947514  0.383239  1
  F  F42  1  0.368570  0.447514  0.116761  1
  F  F43  1  0.631430  0.947514  0.883239  1
  F  F44  1  0.269937  0.744507  0.115026  1
  F  F45  1  0.730063  0.244507  0.884974  1
  F  F46  1  0.230063  0.744507  0.615026  1
  F  F47  1  0.769937  0.244507  0.384974  1
  F  F48  1  0.459095  0.629248  0.300416  1
  F  F49  1  0.540905  0.129248  0.699584  1
  F  F50  1  0.040905  0.629248  0.800416  1
  F  F51  1  0.959095  0.129248  0.199584  1
  F  F52  1  0.713753  0.437612  0.058698  1
  F  F53  1  0.286247  0.937612  0.941302  1
  F  F54  1  0.786247  0.437612  0.558698  1
  F  F55  1  0.213753  0.937612  0.441302  1
  F  F56  1  0.200591  0.568154  0.445749  1
  F  F57  1  0.799409  0.068154  0.554251  1
  F  F58  1  0.299409  0.568154  0.945749  1
  F  F59  1  0.700591  0.068154  0.054251  1
  F  F60  1  0.435479  0.856985  0.280446  1
  F  F61  1  0.564521  0.356985  0.719554  1
  F  F62  1  0.064521  0.856985  0.780446  1
  F  F63  1  0.935479  0.356985  0.219554  1
  F  F64  1  0.745481  0.756011  0.241190  1
  F  F65  1  0.254519  0.256011  0.758810  1
  F  F66  1  0.754519  0.756011  0.741190  1
  F  F67  1  0.245481  0.256011  0.258810  1
  F  F68  1  0.561243  0.732999  0.517891  1
  F  F69  1  0.438757  0.232999  0.482109  1
  F  F70  1  0.938757  0.732999  0.017891  1
  F  F71  1  0.061243  0.232999  0.982109  1
  F  F72  1  0.651689  0.559770  0.895421  1
  F  F73  1  0.348311  0.059770  0.104579  1
  F  F74  1  0.848311  0.559770  0.395421  1
  F  F75  1  0.151689  0.059770  0.604579  1
  F  F76  1  0.497532  0.091102  0.332045  1
  F  F77  1  0.502468  0.591102  0.667955  1
  F  F78  1  0.002468  0.091102  0.832045  1
  F  F79  1  0.997532  0.591102  0.167955  1
  F  F80  1  0.001675  0.899819  0.153036  1
  F  F81  1  0.998325  0.399819  0.846964  1
  F  F82  1  0.498325  0.899819  0.653036  1
  F  F83  1  0.501675  0.399819  0.346964  1
  F  F84  1  0.920105  0.639725  0.593013  1
  F  F85  1  0.079895  0.139725  0.406987  1
  F  F86  1  0.579895  0.639725  0.093013  1
  F  F87  1  0.420105  0.139725  0.906987  1
