# generated using pymatgen
data_Rb2CuH12(SeO7)2
_symmetry_space_group_name_H-M   'P 1'
_cell_length_a   6.41074126
_cell_length_b   9.48938840
_cell_length_c   12.76890339
_cell_angle_alpha   90.00000000
_cell_angle_beta   90.00000000
_cell_angle_gamma   104.21562213
_symmetry_Int_Tables_number   1
_chemical_formula_structural   Rb2CuH12(SeO7)2
_chemical_formula_sum   'Rb4 Cu2 H24 Se4 O28'
_cell_volume   752.99730894
_cell_formula_units_Z   2
loop_
 _symmetry_equiv_pos_site_id
 _symmetry_equiv_pos_as_xyz
  1  'x, y, z'
loop_
 _atom_site_type_symbol
 _atom_site_label
 _atom_site_symmetry_multiplicity
 _atom_site_fract_x
 _atom_site_fract_y
 _atom_site_fract_z
 _atom_site_occupancy
  Rb  Rb0  1  0.346473  0.123939  0.349252  1
  Rb  Rb1  1  0.653527  0.376061  0.849252  1
  Rb  Rb2  1  0.653527  0.876061  0.650748  1
  Rb  Rb3  1  0.346473  0.623939  0.150748  1
  Cu  Cu4  1  0.000000  0.000000  0.000000  1
  Cu  Cu5  1  0.000000  0.500000  0.500000  1
  Se  Se6  1  0.729980  0.891447  0.358642  1
  Se  Se7  1  0.270020  0.608553  0.858642  1
  Se  Se8  1  0.270020  0.108553  0.641358  1
  Se  Se9  1  0.729980  0.391447  0.141358  1
  O  O10  1  0.280514  -0.003204  0.938949  1
  O  O11  1  0.719486  0.503204  0.438949  1
  O  O12  1  0.719486  1.003204  0.061051  1
  O  O13  1  0.280514  0.496796  0.561051  1
  H  H14  1  0.308611  0.031899  0.864935  1
  H  H15  1  0.691389  0.468101  0.364935  1
  H  H16  1  0.691389  0.968101  0.135065  1
  H  H17  1  0.308611  0.531899  0.635065  1
  H  H18  1  0.320360  0.900982  0.942064  1
  H  H19  1  0.679640  0.599018  0.442064  1
  H  H20  1  0.679640  0.099018  0.057936  1
  H  H21  1  0.320360  0.400982  0.557936  1
  O  O22  1  0.842320  0.853053  0.889812  1
  O  O23  1  0.157680  0.646947  0.389812  1
  O  O24  1  0.157680  0.146947  0.110188  1
  O  O25  1  0.842320  0.353053  0.610188  1
  H  H26  1  0.913846  0.772684  0.875542  1
  H  H27  1  0.086154  0.727316  0.375542  1
  H  H28  1  0.086154  0.227316  0.124458  1
  H  H29  1  0.913846  0.272684  0.624458  1
  H  H30  1  0.689892  0.808818  0.910515  1
  H  H31  1  0.310108  0.691182  0.410515  1
  H  H32  1  0.310108  0.191182  0.089485  1
  H  H33  1  0.689892  0.308818  0.589485  1
  O  O34  1  0.967076  0.193457  0.884582  1
  O  O35  1  0.032924  0.306543  0.384582  1
  O  O36  1  0.032924  0.806543  0.115418  1
  O  O37  1  0.967076  0.693457  0.615418  1
  H  H38  1  0.996173  0.167501  0.811771  1
  H  H39  1  0.003827  0.332499  0.311771  1
  H  H40  1  0.003827  0.832499  0.188229  1
  H  H41  1  0.996173  0.667501  0.688229  1
  H  H42  1  0.073611  0.286603  0.899202  1
  H  H43  1  0.926389  0.213397  0.399202  1
  H  H44  1  0.926389  0.713397  0.100798  1
  H  H45  1  0.073611  0.786603  0.600798  1
  O  O46  1  0.759846  0.042271  0.430090  1
  O  O47  1  0.240154  0.457729  0.930090  1
  O  O48  1  0.240154  0.957729  0.569910  1
  O  O49  1  0.759846  0.542271  0.069910  1
  O  O50  1  0.586135  0.903394  0.250654  1
  O  O51  1  0.413865  0.596606  0.750654  1
  O  O52  1  0.413865  0.096606  0.749346  1
  O  O53  1  0.586135  0.403394  0.249346  1
  O  O54  1  0.590370  0.750878  0.431017  1
  O  O55  1  0.409630  0.749122  0.931017  1
  O  O56  1  0.409630  0.249122  0.568983  1
  O  O57  1  0.590370  0.250878  0.068983  1
  O  O58  1  0.970210  0.862832  0.324850  1
  O  O59  1  0.029790  0.637168  0.824850  1
  O  O60  1  0.029790  0.137168  0.675150  1
  O  O61  1  0.970210  0.362832  0.175150  1
