# generated using pymatgen
data_Na2Ti3Cl8
_symmetry_space_group_name_H-M   'P 1'
_cell_length_a   7.93656816
_cell_length_b   7.93656757
_cell_length_c   7.93656777
_cell_angle_alpha   52.03641527
_cell_angle_beta   52.03641846
_cell_angle_gamma   52.03641455
_symmetry_Int_Tables_number   1
_chemical_formula_structural   Na2Ti3Cl8
_chemical_formula_sum   'Na2 Ti3 Cl8'
_cell_volume   287.31713046
_cell_formula_units_Z   1
loop_
 _symmetry_equiv_pos_site_id
 _symmetry_equiv_pos_as_xyz
  1  'x, y, z'
loop_
 _atom_site_type_symbol
 _atom_site_label
 _atom_site_symmetry_multiplicity
 _atom_site_fract_x
 _atom_site_fract_y
 _atom_site_fract_z
 _atom_site_occupancy
  Na  Na0  1  0.828945  0.828945  0.828945  1
  Na  Na1  1  0.158131  0.158131  0.158131  1
  Ti  Ti2  1  0.061001  0.470593  0.470593  1
  Ti  Ti3  1  0.470593  0.470593  0.061001  1
  Ti  Ti4  1  0.470593  0.061001  0.470593  1
  Cl  Cl5  1  0.898985  0.898985  0.405273  1
  Cl  Cl6  1  0.898985  0.405273  0.898985  1
  Cl  Cl7  1  0.586021  0.093454  0.093454  1
  Cl  Cl8  1  0.405273  0.898985  0.898985  1
  Cl  Cl9  1  0.418649  0.418649  0.418649  1
  Cl  Cl10  1  0.093454  0.586021  0.093454  1
  Cl  Cl11  1  0.605351  0.605351  0.605351  1
  Cl  Cl12  1  0.093454  0.093454  0.586021  1
