# generated using pymatgen
data_MoOF4
_symmetry_space_group_name_H-M   'P 1'
_cell_length_a   5.65044789
_cell_length_b   8.19136311
_cell_length_c   17.86693946
_cell_angle_alpha   90.00000000
_cell_angle_beta   90.00000000
_cell_angle_gamma   91.38549337
_symmetry_Int_Tables_number   1
_chemical_formula_structural   MoOF4
_chemical_formula_sum   'Mo8 O8 F32'
_cell_volume   826.72720847
_cell_formula_units_Z   8
loop_
 _symmetry_equiv_pos_site_id
 _symmetry_equiv_pos_as_xyz
  1  'x, y, z'
loop_
 _atom_site_type_symbol
 _atom_site_label
 _atom_site_symmetry_multiplicity
 _atom_site_fract_x
 _atom_site_fract_y
 _atom_site_fract_z
 _atom_site_occupancy
  O  O0  1  0.436613  0.651287  0.637324  1
  O  O1  1  0.563387  0.848713  0.137324  1
  O  O2  1  0.563387  0.348713  0.362676  1
  O  O3  1  0.436613  0.151287  0.862676  1
  O  O4  1  0.903470  0.945936  0.579694  1
  O  O5  1  0.096530  0.554064  0.079694  1
  O  O6  1  0.096530  0.054064  0.420306  1
  O  O7  1  0.903470  0.445936  0.920306  1
  F  F8  1  0.694451  0.541804  0.787909  1
  F  F9  1  0.305549  0.958196  0.287909  1
  F  F10  1  0.305549  0.458196  0.212091  1
  F  F11  1  0.694451  0.041804  0.712091  1
  F  F12  1  0.738583  0.741533  0.971272  1
  F  F13  1  0.261417  0.758467  0.471272  1
  F  F14  1  0.261417  0.258467  0.028728  1
  F  F15  1  0.738583  0.241533  0.528728  1
  F  F16  1  0.436594  0.522816  0.913405  1
  F  F17  1  0.563406  0.977184  0.413405  1
  F  F18  1  0.563406  0.477184  0.086595  1
  F  F19  1  0.436594  0.022816  0.586595  1
  F  F20  1  0.994582  0.745383  0.850846  1
  F  F21  1  0.005418  0.754617  0.350846  1
  F  F22  1  0.005418  0.254617  0.149154  1
  F  F23  1  0.994582  0.245383  0.649154  1
  F  F24  1  0.201456  0.962812  0.755353  1
  F  F25  1  0.798544  0.537188  0.255353  1
  F  F26  1  0.798544  0.037188  0.244647  1
  F  F27  1  0.201456  0.462812  0.744647  1
  F  F28  1  0.254632  0.910602  0.957914  1
  F  F29  1  0.745368  0.589398  0.457914  1
  F  F30  1  0.745368  0.089398  0.042086  1
  F  F31  1  0.254632  0.410602  0.542086  1
  F  F32  1  0.963711  0.078892  0.871672  1
  F  F33  1  0.036289  0.421108  0.371672  1
  F  F34  1  0.036289  0.921108  0.128328  1
  F  F35  1  0.963711  0.578892  0.628328  1
  F  F36  1  0.497713  0.817599  0.843055  1
  F  F37  1  0.502287  0.682401  0.343055  1
  F  F38  1  0.502287  0.182401  0.156945  1
  F  F39  1  0.497713  0.317599  0.656945  1
  Mo  Mo40  1  0.258215  0.484277  0.641498  1
  Mo  Mo41  1  0.741785  0.015723  0.141498  1
  Mo  Mo42  1  0.741785  0.515723  0.358502  1
  Mo  Mo43  1  0.258215  0.984277  0.858502  1
  Mo  Mo44  1  0.740785  0.100476  0.611580  1
  Mo  Mo45  1  0.259215  0.399524  0.111580  1
  Mo  Mo46  1  0.259215  0.899524  0.388420  1
  Mo  Mo47  1  0.740785  0.600476  0.888420  1
