# generated using pymatgen
data_Bi8SbAuBr9
_symmetry_space_group_name_H-M   'P 1'
_cell_length_a   10.93721019
_cell_length_b   15.24017718
_cell_length_c   15.58662358
_cell_angle_alpha   90.00000000
_cell_angle_beta   90.00000000
_cell_angle_gamma   91.94362189
_symmetry_Int_Tables_number   1
_chemical_formula_structural   Bi8SbAuBr9
_chemical_formula_sum   'Bi32 Sb4 Au4 Br36'
_cell_volume   2596.56197594
_cell_formula_units_Z   4
loop_
 _symmetry_equiv_pos_site_id
 _symmetry_equiv_pos_as_xyz
  1  'x, y, z'
loop_
 _atom_site_type_symbol
 _atom_site_label
 _atom_site_symmetry_multiplicity
 _atom_site_fract_x
 _atom_site_fract_y
 _atom_site_fract_z
 _atom_site_occupancy
  Bi  Bi0  1  0.952034  0.800274  0.140989  1
  Bi  Bi1  1  0.061135  0.694819  0.357805  1
  Bi  Bi2  1  0.692746  0.022146  0.644894  1
  Bi  Bi3  1  0.450014  0.643064  0.863834  1
  Bi  Bi4  1  0.047966  0.699726  0.640989  1
  Bi  Bi5  1  0.549986  0.856936  0.363834  1
  Bi  Bi6  1  0.047966  0.199726  0.859011  1
  Bi  Bi7  1  0.421334  0.935195  0.683331  1
  Bi  Bi8  1  0.450014  0.143064  0.636166  1
  Bi  Bi9  1  0.938865  0.805181  0.857805  1
  Bi  Bi10  1  0.769317  0.473212  0.051747  1
  Bi  Bi11  1  0.230683  0.526788  0.948253  1
  Bi  Bi12  1  0.938865  0.305181  0.642195  1
  Bi  Bi13  1  0.230683  0.026788  0.551747  1
  Bi  Bi14  1  0.952034  0.300274  0.359011  1
  Bi  Bi15  1  0.307254  0.477854  0.144894  1
  Bi  Bi16  1  0.769317  0.973212  0.448253  1
  Bi  Bi17  1  0.421334  0.435195  0.816669  1
  Bi  Bi18  1  0.620143  0.330148  0.931405  1
  Bi  Bi19  1  0.379857  0.669852  0.068595  1
  Bi  Bi20  1  0.662040  0.944832  0.008981  1
  Bi  Bi21  1  0.549986  0.356936  0.136166  1
  Bi  Bi22  1  0.337960  0.055168  0.991019  1
  Bi  Bi23  1  0.620143  0.830148  0.568595  1
  Bi  Bi24  1  0.307254  0.977854  0.355106  1
  Bi  Bi25  1  0.379857  0.169852  0.431405  1
  Bi  Bi26  1  0.578666  0.564805  0.183331  1
  Bi  Bi27  1  0.692746  0.522146  0.855106  1
  Bi  Bi28  1  0.578666  0.064805  0.316669  1
  Bi  Bi29  1  0.662040  0.444832  0.491019  1
  Bi  Bi30  1  0.061135  0.194819  0.142195  1
  Bi  Bi31  1  0.337960  0.555168  0.508981  1
  Sb  Sb32  1  0.771487  0.271111  0.496645  1
  Sb  Sb33  1  0.771487  0.771111  0.003355  1
  Sb  Sb34  1  0.228513  0.228889  0.996645  1
  Sb  Sb35  1  0.228513  0.728889  0.503355  1
  Au  Au36  1  0.623062  0.623987  0.006407  1
  Au  Au37  1  0.376938  0.376013  0.993593  1
  Au  Au38  1  0.376938  0.876013  0.506407  1
  Au  Au39  1  0.623062  0.123987  0.493593  1
  Br  Br40  1  0.825859  0.478835  0.645197  1
  Br  Br41  1  0.491147  0.372653  0.370813  1
  Br  Br42  1  0.515145  0.629484  0.387402  1
  Br  Br43  1  0.508853  0.127347  0.870813  1
  Br  Br44  1  0.484855  0.370516  0.612598  1
  Br  Br45  1  0.128854  0.322481  0.502788  1
  Br  Br46  1  0.979373  0.119193  0.636582  1
  Br  Br47  1  0.001698  0.619331  0.130123  1
  Br  Br48  1  0.020627  0.880807  0.363418  1
  Br  Br49  1  0.174786  0.023969  0.843686  1
  Br  Br50  1  0.871146  0.677519  0.497212  1
  Br  Br51  1  0.825859  0.978835  0.854803  1
  Br  Br52  1  0.258503  0.257182  0.249094  1
  Br  Br53  1  0.001698  0.119331  0.369877  1
  Br  Br54  1  0.508853  0.627347  0.629187  1
  Br  Br55  1  0.825214  0.476031  0.343686  1
  Br  Br56  1  0.825214  0.976031  0.156314  1
  Br  Br57  1  0.237538  0.264029  0.744350  1
  Br  Br58  1  0.515145  0.129484  0.112598  1
  Br  Br59  1  0.128854  0.822481  0.997212  1
  Br  Br60  1  0.762462  0.735971  0.255650  1
  Br  Br61  1  0.762462  0.235971  0.244350  1
  Br  Br62  1  0.020627  0.380807  0.136582  1
  Br  Br63  1  0.237538  0.764029  0.755650  1
  Br  Br64  1  0.174786  0.523969  0.656314  1
  Br  Br65  1  0.998302  0.380669  0.869877  1
  Br  Br66  1  0.979373  0.619193  0.863418  1
  Br  Br67  1  0.741497  0.742818  0.750906  1
  Br  Br68  1  0.998302  0.880669  0.630123  1
  Br  Br69  1  0.871146  0.177519  0.002788  1
  Br  Br70  1  0.741497  0.242818  0.749094  1
  Br  Br71  1  0.491147  0.872653  0.129187  1
  Br  Br72  1  0.174141  0.521165  0.354803  1
  Br  Br73  1  0.174141  0.021165  0.145197  1
  Br  Br74  1  0.484855  0.870516  0.887402  1
  Br  Br75  1  0.258503  0.757182  0.250906  1
