# generated using pymatgen
data_Na3W3Cl13
_symmetry_space_group_name_H-M   'P 1'
_cell_length_a   9.22313165
_cell_length_b   9.22070015
_cell_length_c   25.27450236
_cell_angle_alpha   90.00000000
_cell_angle_beta   90.00000000
_cell_angle_gamma   119.12554739
_symmetry_Int_Tables_number   1
_chemical_formula_structural   Na3W3Cl13
_chemical_formula_sum   'Na12 W12 Cl52'
_cell_volume   1877.65291863
_cell_formula_units_Z   4
loop_
 _symmetry_equiv_pos_site_id
 _symmetry_equiv_pos_as_xyz
  1  'x, y, z'
loop_
 _atom_site_type_symbol
 _atom_site_label
 _atom_site_symmetry_multiplicity
 _atom_site_fract_x
 _atom_site_fract_y
 _atom_site_fract_z
 _atom_site_occupancy
  Na  Na0  1  0.652123  0.428974  0.250219  1
  Na  Na1  1  0.012252  0.406354  0.897892  1
  Na  Na2  1  0.987748  0.593646  0.102108  1
  Na  Na3  1  0.512252  0.906354  0.602108  1
  Na  Na4  1  0.683263  0.732234  0.898432  1
  Na  Na5  1  0.847877  0.071026  0.750219  1
  Na  Na6  1  0.316737  0.267766  0.101568  1
  Na  Na7  1  0.152123  0.928974  0.249781  1
  Na  Na8  1  0.487748  0.093646  0.397892  1
  Na  Na9  1  0.816737  0.767766  0.398432  1
  Na  Na10  1  0.347877  0.571026  0.749781  1
  Na  Na11  1  0.183263  0.232234  0.601568  1
  W  W12  1  0.351737  0.245390  0.872300  1
  W  W13  1  0.148263  0.254610  0.372300  1
  W  W14  1  0.975364  0.424967  0.370719  1
  W  W15  1  0.817066  0.096202  0.126531  1
  W  W16  1  0.475364  0.924967  0.129281  1
  W  W17  1  0.524636  0.075033  0.870719  1
  W  W18  1  0.648263  0.754610  0.127700  1
  W  W19  1  0.317066  0.596202  0.373469  1
  W  W20  1  0.682934  0.403798  0.626531  1
  W  W21  1  0.851737  0.745390  0.627700  1
  W  W22  1  0.182934  0.903798  0.873469  1
  W  W23  1  0.024636  0.575033  0.629281  1
  Cl  Cl24  1  0.048784  0.974523  0.679982  1
  Cl  Cl25  1  0.951216  0.025477  0.320018  1
  Cl  Cl26  1  0.861173  0.374676  0.562489  1
  Cl  Cl27  1  0.940660  0.220868  0.436785  1
  Cl  Cl28  1  0.149797  0.030947  0.427758  1
  Cl  Cl29  1  0.854889  0.725242  0.179681  1
  Cl  Cl30  1  0.649797  0.530947  0.072242  1
  Cl  Cl31  1  0.138827  0.625324  0.437511  1
  Cl  Cl32  1  0.749337  0.224041  0.318465  1
  Cl  Cl33  1  0.533855  0.815733  0.431721  1
  Cl  Cl34  1  0.653206  0.169912  0.676319  1
  Cl  Cl35  1  0.440660  0.720868  0.063215  1
  Cl  Cl36  1  0.847193  0.572021  0.700465  1
  Cl  Cl37  1  0.553198  0.625681  0.324940  1
  Cl  Cl38  1  0.946710  0.629522  0.317205  1
  Cl  Cl39  1  0.053198  0.125681  0.175060  1
  Cl  Cl40  1  0.251821  0.572805  0.576621  1
  Cl  Cl41  1  0.750663  0.275959  0.818465  1
  Cl  Cl42  1  0.553290  0.870478  0.817205  1
  Cl  Cl43  1  0.249337  0.724041  0.181535  1
  Cl  Cl44  1  0.846794  0.330088  0.176319  1
  Cl  Cl45  1  0.966145  0.684267  0.931721  1
  Cl  Cl46  1  0.850203  0.969053  0.572242  1
  Cl  Cl47  1  0.946802  0.874319  0.824940  1
  Cl  Cl48  1  0.451216  0.525477  0.179982  1
  Cl  Cl49  1  0.446710  0.129522  0.182795  1
  Cl  Cl50  1  0.354889  0.225242  0.320319  1
  Cl  Cl51  1  0.361173  0.874676  0.937511  1
  Cl  Cl52  1  0.638827  0.125324  0.062489  1
  Cl  Cl53  1  0.250663  0.775959  0.681535  1
  Cl  Cl54  1  0.346794  0.830088  0.323681  1
  Cl  Cl55  1  0.033855  0.315733  0.068279  1
  Cl  Cl56  1  0.548784  0.474523  0.820018  1
  Cl  Cl57  1  0.654773  0.578167  0.560473  1
  Cl  Cl58  1  0.248179  0.927195  0.076621  1
  Cl  Cl59  1  0.154773  0.078167  0.939527  1
  Cl  Cl60  1  0.559340  0.279132  0.936785  1
  Cl  Cl61  1  0.053290  0.370478  0.682795  1
  Cl  Cl62  1  0.652807  0.927979  0.200465  1
  Cl  Cl63  1  0.350203  0.469053  0.927758  1
  Cl  Cl64  1  0.152807  0.427979  0.299535  1
  Cl  Cl65  1  0.751821  0.072805  0.923379  1
  Cl  Cl66  1  0.345227  0.421833  0.439527  1
  Cl  Cl67  1  0.059340  0.779132  0.563215  1
  Cl  Cl68  1  0.153206  0.669912  0.823681  1
  Cl  Cl69  1  0.645111  0.774758  0.679681  1
  Cl  Cl70  1  0.466145  0.184267  0.568279  1
  Cl  Cl71  1  0.748179  0.427195  0.423379  1
  Cl  Cl72  1  0.347193  0.072021  0.799535  1
  Cl  Cl73  1  0.145111  0.274758  0.820319  1
  Cl  Cl74  1  0.845227  0.921833  0.060473  1
  Cl  Cl75  1  0.446802  0.374319  0.675060  1
