# generated using pymatgen
data_SiO2
_symmetry_space_group_name_H-M   'P 1'
_cell_length_a   10.33618140
_cell_length_b   11.35359512
_cell_length_c   11.35359586
_cell_angle_alpha   78.04158433
_cell_angle_beta   62.92257029
_cell_angle_gamma   62.92257359
_symmetry_Int_Tables_number   1
_chemical_formula_structural   SiO2
_chemical_formula_sum   'Si16 O32'
_cell_volume   1056.30576435
_cell_formula_units_Z   16
loop_
 _symmetry_equiv_pos_site_id
 _symmetry_equiv_pos_as_xyz
  1  'x, y, z'
loop_
 _atom_site_type_symbol
 _atom_site_label
 _atom_site_symmetry_multiplicity
 _atom_site_fract_x
 _atom_site_fract_y
 _atom_site_fract_z
 _atom_site_occupancy
  Si  Si0  1  0.359208  0.281584  0.500000  1
  Si  Si1  1  0.859208  0.281584  0.500000  1
  Si  Si2  1  0.889430  0.845040  0.376100  1
  Si  Si3  1  0.734470  0.376100  0.154960  1
  Si  Si4  1  0.140792  0.500000  0.718416  1
  Si  Si5  1  0.640792  0.718416  0.500000  1
  Si  Si6  1  0.265530  0.845040  0.623900  1
  Si  Si7  1  0.110570  0.154960  0.623900  1
  Si  Si8  1  0.889430  0.376100  0.845040  1
  Si  Si9  1  0.140792  0.718416  0.500000  1
  Si  Si10  1  0.640792  0.500000  0.718416  1
  Si  Si11  1  0.265530  0.623900  0.845040  1
  Si  Si12  1  0.734470  0.154960  0.376100  1
  Si  Si13  1  0.359208  0.500000  0.281584  1
  Si  Si14  1  0.859208  0.500000  0.281584  1
  Si  Si15  1  0.110570  0.623900  0.154960  1
  O  O16  1  0.239735  0.760265  0.760265  1
  O  O17  1  0.734410  0.811894  0.463583  1
  O  O18  1  0.289427  0.374123  0.625877  1
  O  O19  1  0.710573  0.625877  0.374123  1
  O  O20  1  0.546304  0.188106  0.463583  1
  O  O21  1  0.831721  0.000000  0.336557  1
  O  O22  1  0.802007  0.463583  0.188106  1
  O  O23  1  0.009887  0.188106  0.536417  1
  O  O24  1  0.710573  0.374123  0.625877  1
  O  O25  1  0.197993  0.811894  0.536417  1
  O  O26  1  0.453696  0.536417  0.811894  1
  O  O27  1  0.990113  0.811894  0.463583  1
  O  O28  1  1.000000  0.760265  0.239735  1
  O  O29  1  0.760265  0.239735  0.239735  1
  O  O30  1  0.084696  0.625877  0.625877  1
  O  O31  1  0.802007  0.188106  0.463583  1
  O  O32  1  0.663551  0.625877  0.625877  1
  O  O33  1  0.168279  1.000000  0.663443  1
  O  O34  1  0.265590  0.536417  0.188106  1
  O  O35  1  0.734410  0.463583  0.811894  1
  O  O36  1  0.000000  0.239735  0.760265  1
  O  O37  1  0.831721  0.336557  0.000000  1
  O  O38  1  0.265590  0.188106  0.536417  1
  O  O39  1  0.915304  0.374123  0.374123  1
  O  O40  1  0.197993  0.536417  0.811894  1
  O  O41  1  0.990113  0.463583  0.811894  1
  O  O42  1  0.546304  0.463583  0.188106  1
  O  O43  1  0.453696  0.811894  0.536417  1
  O  O44  1  0.009887  0.536417  0.188106  1
  O  O45  1  0.168279  0.663443  1.000000  1
  O  O46  1  0.289427  0.625877  0.374123  1
  O  O47  1  0.336449  0.374123  0.374123  1
