# generated using pymatgen
data_CaCrF6
_symmetry_space_group_name_H-M   'P 1'
_cell_length_a   5.75029281
_cell_length_b   5.75029227
_cell_length_c   5.75029258
_cell_angle_alpha   56.50514384
_cell_angle_beta   56.50513178
_cell_angle_gamma   56.50513582
_symmetry_Int_Tables_number   1
_chemical_formula_structural   CaCrF6
_chemical_formula_sum   'Ca1 Cr1 F6'
_cell_volume   123.58785904
_cell_formula_units_Z   1
loop_
 _symmetry_equiv_pos_site_id
 _symmetry_equiv_pos_as_xyz
  1  'x, y, z'
loop_
 _atom_site_type_symbol
 _atom_site_label
 _atom_site_symmetry_multiplicity
 _atom_site_fract_x
 _atom_site_fract_y
 _atom_site_fract_z
 _atom_site_occupancy
  Ca  Ca0  1  0.000000  0.000000  0.000000  1
  Cr  Cr1  1  0.500000  0.500000  0.500000  1
  F  F2  1  0.167385  0.389448  0.719368  1
  F  F3  1  0.389448  0.719368  0.167385  1
  F  F4  1  0.719368  0.167385  0.389448  1
  F  F5  1  0.280632  0.832615  0.610552  1
  F  F6  1  0.610552  0.280632  0.832615  1
  F  F7  1  0.832615  0.610552  0.280632  1
