# generated using pymatgen
data_AgSbC2N2(ClF3)2
_symmetry_space_group_name_H-M   'P 1'
_cell_length_a   7.81102045
_cell_length_b   9.54945312
_cell_length_c   8.88576023
_cell_angle_alpha   90.00000000
_cell_angle_beta   90.00000000
_cell_angle_gamma   104.55681999
_symmetry_Int_Tables_number   1
_chemical_formula_structural   AgSbC2N2(ClF3)2
_chemical_formula_sum   'Ag2 Sb2 C4 N4 Cl4 F12'
_cell_volume   641.52095324
_cell_formula_units_Z   2
loop_
 _symmetry_equiv_pos_site_id
 _symmetry_equiv_pos_as_xyz
  1  'x, y, z'
loop_
 _atom_site_type_symbol
 _atom_site_label
 _atom_site_symmetry_multiplicity
 _atom_site_fract_x
 _atom_site_fract_y
 _atom_site_fract_z
 _atom_site_occupancy
  Ag  Ag0  1  0.000000  0.000000  0.000000  1
  Ag  Ag1  1  0.500000  0.500000  0.000000  1
  Sb  Sb2  1  0.500000  0.500000  0.500000  1
  Sb  Sb3  1  0.000000  0.000000  0.500000  1
  C  C4  1  0.149101  0.539950  0.830426  1
  C  C5  1  0.850899  0.460050  0.169574  1
  C  C6  1  0.350899  0.960050  0.830426  1
  C  C7  1  0.649101  0.039950  0.169574  1
  N  N8  1  0.229941  0.961480  0.907137  1
  N  N9  1  0.729941  0.461480  0.092863  1
  N  N10  1  0.270059  0.538520  0.907137  1
  N  N11  1  0.770059  0.038520  0.092863  1
  Cl  Cl12  1  0.519748  0.956798  0.730685  1
  Cl  Cl13  1  0.980252  0.543202  0.730685  1
  Cl  Cl14  1  0.480252  0.043202  0.269315  1
  Cl  Cl15  1  0.019748  0.456798  0.269315  1
  F  F16  1  0.264174  0.405725  0.561234  1
  F  F17  1  0.764174  0.905725  0.438766  1
  F  F18  1  0.912837  0.013761  0.702702  1
  F  F19  1  0.735826  0.594275  0.438766  1
  F  F20  1  0.949920  0.180577  0.450108  1
  F  F21  1  0.550080  0.319423  0.450108  1
  F  F22  1  0.235826  0.094275  0.561234  1
  F  F23  1  0.587163  0.486239  0.702702  1
  F  F24  1  0.087163  0.986239  0.297298  1
  F  F25  1  0.050080  0.819423  0.549892  1
  F  F26  1  0.449920  0.680577  0.549892  1
  F  F27  1  0.412837  0.513761  0.297298  1
