# generated using pymatgen
data_H9C4Se2N
_symmetry_space_group_name_H-M   'P 1'
_cell_length_a   7.34552725
_cell_length_b   9.46004564
_cell_length_c   11.68343757
_cell_angle_alpha   93.13148560
_cell_angle_beta   89.99977107
_cell_angle_gamma   90.00037369
_symmetry_Int_Tables_number   1
_chemical_formula_structural   H9C4Se2N
_chemical_formula_sum   'H36 C16 Se8 N4'
_cell_volume   810.65837848
_cell_formula_units_Z   4
loop_
 _symmetry_equiv_pos_site_id
 _symmetry_equiv_pos_as_xyz
  1  'x, y, z'
loop_
 _atom_site_type_symbol
 _atom_site_label
 _atom_site_symmetry_multiplicity
 _atom_site_fract_x
 _atom_site_fract_y
 _atom_site_fract_z
 _atom_site_occupancy
  H  H0  1  0.499032  0.140063  0.343706  1
  H  H1  1  0.321904  0.511392  0.832195  1
  H  H2  1  1.000972  0.140062  0.843705  1
  H  H3  1  0.499552  0.777579  0.280203  1
  H  H4  1  0.375181  0.161935  0.592934  1
  H  H5  1  0.046341  0.343262  0.108448  1
  H  H6  1  0.624827  0.838066  0.407067  1
  H  H7  1  0.256558  0.103326  0.347914  1
  H  H8  1  0.756558  0.896672  0.152087  1
  H  H9  1  0.500454  0.222422  0.719797  1
  H  H10  1  0.999551  0.222420  0.219798  1
  H  H11  1  0.353635  0.433458  0.416171  1
  H  H12  1  0.178100  0.511388  0.332198  1
  H  H13  1  0.124826  0.161934  0.092934  1
  H  H14  1  0.500971  0.859937  0.656295  1
  H  H15  1  0.132294  0.348219  0.402817  1
  H  H16  1  0.953661  0.656739  0.891553  1
  H  H17  1  0.889035  0.951534  0.277705  1
  H  H18  1  0.821903  0.488610  0.667804  1
  H  H19  1  -0.000968  0.859935  0.156295  1
  H  H20  1  0.678099  0.488610  0.167803  1
  H  H21  1  0.875180  0.838066  0.907068  1
  H  H22  1  0.743446  0.896675  0.652088  1
  H  H23  1  0.646366  0.566542  0.583829  1
  H  H24  1  0.110968  0.048463  0.722294  1
  H  H25  1  0.367704  0.348224  0.902815  1
  H  H26  1  0.853636  0.566541  0.083829  1
  H  H27  1  0.546341  0.656737  0.391553  1
  H  H28  1  0.453665  0.343265  0.608447  1
  H  H29  1  0.632297  0.651778  0.097184  1
  H  H30  1  0.867706  0.651779  0.597185  1
  H  H31  1  0.146366  0.433458  0.916171  1
  H  H32  1  0.000452  0.777579  0.780204  1
  H  H33  1  0.610968  0.951536  0.777707  1
  H  H34  1  0.243445  0.103324  0.847913  1
  H  H35  1  0.389035  0.048465  0.222296  1
  C  C36  1  0.234609  0.412677  0.361493  1
  C  C37  1  0.905200  0.748090  0.846939  1
  C  C38  1  0.265398  0.412673  0.861491  1
  C  C39  1  0.765396  0.587325  0.638510  1
  C  C40  1  0.235192  0.698530  0.579923  1
  C  C41  1  0.373138  0.127766  0.293822  1
  C  C42  1  0.094805  0.251908  0.153063  1
  Se  Se43  1  0.673412  0.692035  0.775092  1
  C  C44  1  0.735195  0.301482  0.920066  1
  Se  Se45  1  0.173413  0.307965  0.724908  1
  C  C46  1  0.734607  0.587325  0.138507  1
  C  C47  1  0.764785  0.301506  0.420052  1
  Se  Se48  1  0.326590  0.307965  0.224909  1
  Se  Se49  1  0.640827  0.149063  0.985686  1
  C  C50  1  0.626864  0.872236  0.706179  1
  C  C51  1  0.594805  0.748090  0.346938  1
  C  C52  1  0.873138  0.872233  0.206178  1
  Se  Se53  1  0.826590  0.692033  0.275092  1
  Se  Se54  1  0.859156  0.149083  0.485666  1
  Se  Se55  1  0.140831  0.850938  0.514313  1
  Se  Se56  1  0.359154  0.850915  0.014331  1
  C  C57  1  0.264790  0.698498  0.079945  1
  C  C58  1  0.405201  0.251910  0.653064  1
  C  C59  1  0.126866  0.127764  0.793823  1
  N  N60  1  0.701164  0.400477  0.376339  1
  N  N61  1  0.298824  0.599542  0.623654  1
  N  N62  1  0.201167  0.599523  0.123662  1
  N  N63  1  0.798820  0.400454  0.876344  1
