# generated using pymatgen
data_K4MoS3O14
_symmetry_space_group_name_H-M   'P 1'
_cell_length_a   7.84507188
_cell_length_b   10.77557952
_cell_length_c   17.37618292
_cell_angle_alpha   90.00000000
_cell_angle_beta   90.00000000
_cell_angle_gamma   90.00000000
_symmetry_Int_Tables_number   1
_chemical_formula_structural   K4MoS3O14
_chemical_formula_sum   'K16 Mo4 S12 O56'
_cell_volume   1468.89902684
_cell_formula_units_Z   4
loop_
 _symmetry_equiv_pos_site_id
 _symmetry_equiv_pos_as_xyz
  1  'x, y, z'
loop_
 _atom_site_type_symbol
 _atom_site_label
 _atom_site_symmetry_multiplicity
 _atom_site_fract_x
 _atom_site_fract_y
 _atom_site_fract_z
 _atom_site_occupancy
  K  K0  1  0.061511  0.256988  0.909936  1
  K  K1  1  0.239559  0.890408  0.889122  1
  K  K2  1  0.260441  0.390408  0.110878  1
  K  K3  1  0.739559  0.609592  0.889122  1
  K  K4  1  0.438489  0.756988  0.409936  1
  K  K5  1  0.561511  0.243012  0.909936  1
  K  K6  1  0.061511  0.256988  0.590064  1
  K  K7  1  0.938489  0.743012  0.090064  1
  K  K8  1  0.561511  0.243012  0.590064  1
  K  K9  1  0.260441  0.390408  0.389122  1
  K  K10  1  0.739559  0.609592  0.610878  1
  K  K11  1  0.239559  0.890408  0.610878  1
  K  K12  1  0.760441  0.109592  0.110878  1
  K  K13  1  0.938489  0.743012  0.409936  1
  K  K14  1  0.438489  0.756988  0.090064  1
  K  K15  1  0.760441  0.109592  0.389122  1
  Mo  Mo16  1  0.675171  0.933424  0.750000  1
  Mo  Mo17  1  0.824829  0.433424  0.250000  1
  Mo  Mo18  1  0.324829  0.066576  0.250000  1
  Mo  Mo19  1  0.175171  0.566576  0.750000  1
  S  S20  1  0.265117  0.560382  0.934508  1
  S  S21  1  0.734883  0.439618  0.434508  1
  S  S22  1  0.380079  0.097822  0.750000  1
  S  S23  1  0.880079  0.402178  0.750000  1
  S  S24  1  0.265117  0.560382  0.565492  1
  S  S25  1  0.765117  0.939618  0.565492  1
  S  S26  1  0.234883  0.060382  0.434508  1
  S  S27  1  0.734883  0.439618  0.065492  1
  S  S28  1  0.619921  0.902178  0.250000  1
  S  S29  1  0.234883  0.060382  0.065492  1
  S  S30  1  0.765117  0.939618  0.934508  1
  S  S31  1  0.119921  0.597822  0.250000  1
  O  O32  1  0.933953  0.636152  0.250000  1
  O  O33  1  0.666487  0.899188  0.002019  1
  O  O34  1  0.794471  0.363351  0.679206  1
  O  O35  1  0.131938  0.552510  0.633570  1
  O  O36  1  0.294471  0.136649  0.820794  1
  O  O37  1  0.368062  0.052510  0.366430  1
  O  O38  1  0.104339  0.152225  0.412967  1
  O  O39  1  0.566047  0.136152  0.750000  1
  O  O40  1  0.166487  0.600812  0.002019  1
  O  O41  1  0.895661  0.847775  0.912967  1
  O  O42  1  0.895661  0.847775  0.587033  1
  O  O43  1  0.868062  0.447490  0.133570  1
  O  O44  1  0.368062  0.052510  0.133570  1
  O  O45  1  0.705529  0.863351  0.179206  1
  O  O46  1  0.294471  0.136649  0.679206  1
  O  O47  1  0.691871  0.773277  0.750000  1
  O  O48  1  0.631938  0.947490  0.866430  1
  O  O49  1  0.794471  0.363351  0.820794  1
  O  O50  1  0.604339  0.347775  0.087033  1
  O  O51  1  0.705529  0.863351  0.320794  1
  O  O52  1  0.131938  0.552510  0.866430  1
  O  O53  1  0.395993  0.954556  0.750000  1
  O  O54  1  0.833513  0.399188  0.997981  1
  O  O55  1  0.631938  0.947490  0.633570  1
  O  O56  1  0.333206  0.433645  0.944311  1
  O  O57  1  0.604339  0.347775  0.412967  1
  O  O58  1  0.166794  0.933645  0.055689  1
  O  O59  1  0.833206  0.066355  0.944311  1
  O  O60  1  0.380954  0.510672  0.750000  1
  O  O61  1  0.666487  0.899188  0.497981  1
  O  O62  1  0.395661  0.652225  0.912967  1
  O  O63  1  0.166487  0.600812  0.497981  1
  O  O64  1  0.205529  0.636649  0.320794  1
  O  O65  1  0.619046  0.489328  0.250000  1
  O  O66  1  0.333513  0.100812  0.997981  1
  O  O67  1  0.119046  0.010672  0.250000  1
  O  O68  1  0.308129  0.226723  0.250000  1
  O  O69  1  0.808129  0.273277  0.250000  1
  O  O70  1  0.205529  0.636649  0.179206  1
  O  O71  1  0.333513  0.100812  0.502019  1
  O  O72  1  0.895993  0.545444  0.750000  1
  O  O73  1  0.166794  0.933645  0.444311  1
  O  O74  1  0.666794  0.566355  0.055689  1
  O  O75  1  0.191871  0.726723  0.750000  1
  O  O76  1  0.666794  0.566355  0.444311  1
  O  O77  1  0.104007  0.454556  0.250000  1
  O  O78  1  0.066047  0.363848  0.750000  1
  O  O79  1  0.395661  0.652225  0.587033  1
  O  O80  1  0.868062  0.447490  0.366430  1
  O  O81  1  0.104339  0.152225  0.087033  1
  O  O82  1  0.433953  0.863848  0.250000  1
  O  O83  1  0.880954  0.989328  0.750000  1
  O  O84  1  0.604007  0.045444  0.250000  1
  O  O85  1  0.833206  0.066355  0.555689  1
  O  O86  1  0.333206  0.433645  0.555689  1
  O  O87  1  0.833513  0.399188  0.502019  1
