# generated using pymatgen
data_Co3Ag2(P2O7)2
_symmetry_space_group_name_H-M   'P 1'
_cell_length_a   5.40577608
_cell_length_b   6.43835119
_cell_length_c   16.80908575
_cell_angle_alpha   80.66756985
_cell_angle_beta   80.37411021
_cell_angle_gamma   73.01421406
_symmetry_Int_Tables_number   1
_chemical_formula_structural   Co3Ag2(P2O7)2
_chemical_formula_sum   'Co6 Ag4 P8 O28'
_cell_volume   547.63239510
_cell_formula_units_Z   2
loop_
 _symmetry_equiv_pos_site_id
 _symmetry_equiv_pos_as_xyz
  1  'x, y, z'
loop_
 _atom_site_type_symbol
 _atom_site_label
 _atom_site_symmetry_multiplicity
 _atom_site_fract_x
 _atom_site_fract_y
 _atom_site_fract_z
 _atom_site_occupancy
  Ag  Ag0  1  0.888095  0.733659  0.020480  1
  Ag  Ag1  1  0.111979  0.266384  0.979362  1
  Ag  Ag2  1  0.391670  0.743023  0.128745  1
  Ag  Ag3  1  0.607809  0.257244  0.871066  1
  Co  Co4  1  0.236696  0.958741  0.346370  1
  Co  Co5  1  0.765151  0.040861  0.654745  1
  Co  Co6  1  0.806282  0.718188  0.408112  1
  Co  Co7  1  0.204113  0.279789  0.590008  1
  Co  Co8  1  0.966772  0.361468  0.200839  1
  Co  Co9  1  0.033682  0.638456  0.798635  1
  P  P10  1  0.573580  0.242761  0.089703  1
  P  P11  1  0.426274  0.757406  0.910261  1
  O  O12  1  0.722727  0.399135  0.106552  1
  O  O13  1  0.277013  0.601118  0.893376  1
  O  O14  1  0.697181  0.137715  0.011666  1
  O  O15  1  0.302759  0.862012  0.988425  1
  O  O16  1  0.276747  0.340166  0.096123  1
  O  O17  1  0.723141  0.660154  0.903804  1
  O  O18  1  0.600862  0.043446  0.164049  1
  O  O19  1  0.398228  0.957052  0.836086  1
  P  P20  1  0.816488  0.899541  0.221629  1
  P  P21  1  0.182125  0.101076  0.778549  1
  O  O22  1  0.955902  0.693368  0.179686  1
  O  O23  1  0.043042  0.306871  0.820700  1
  O  O24  1  0.012461  0.028499  0.226046  1
  O  O25  1  0.986593  0.971625  0.774145  1
  O  O26  1  0.645882  0.860565  0.302069  1
  O  O27  1  0.352157  0.139521  0.698078  1
  P  P28  1  0.699321  0.220680  0.457326  1
  P  P29  1  0.298994  0.779941  0.542478  1
  O  O30  1  0.827403  0.404781  0.446732  1
  O  O31  1  0.167376  0.597792  0.552940  1
  O  O32  1  0.878018  0.015336  0.420105  1
  O  O33  1  0.121376  0.985276  0.580362  1
  O  O34  1  0.587419  0.160630  0.545997  1
  O  O35  1  0.413550  0.839253  0.454167  1
  O  O36  1  0.436915  0.296889  0.413657  1
  O  O37  1  0.560688  0.702430  0.586717  1
  P  P38  1  0.364351  0.423911  0.325830  1
  P  P39  1  0.636467  0.575045  0.674088  1
  O  O40  1  0.608400  0.443363  0.270899  1
  O  O41  1  0.392606  0.554912  0.729330  1
  O  O42  1  0.213499  0.283988  0.297721  1
  O  O43  1  0.785910  0.716087  0.702473  1
  O  O44  1  0.180261  0.650692  0.343731  1
  O  O45  1  0.822036  0.349148  0.656136  1
