# generated using pymatgen
data_Na6U(Mo2O9)2
_symmetry_space_group_name_H-M   'P 1'
_cell_length_a   7.18867714
_cell_length_b   9.75490702
_cell_length_c   13.59822337
_cell_angle_alpha   74.21140729
_cell_angle_beta   86.72866293
_cell_angle_gamma   82.99681234
_symmetry_Int_Tables_number   1
_chemical_formula_structural   Na6U(Mo2O9)2
_chemical_formula_sum   'Na12 U2 Mo8 O36'
_cell_volume   910.46666765
_cell_formula_units_Z   2
loop_
 _symmetry_equiv_pos_site_id
 _symmetry_equiv_pos_as_xyz
  1  'x, y, z'
loop_
 _atom_site_type_symbol
 _atom_site_label
 _atom_site_symmetry_multiplicity
 _atom_site_fract_x
 _atom_site_fract_y
 _atom_site_fract_z
 _atom_site_occupancy
  Na  Na0  1  0.184596  0.036690  0.072759  1
  Na  Na1  1  0.815404  0.963310  0.927241  1
  Na  Na2  1  0.789675  0.322281  0.162066  1
  Na  Na3  1  0.724908  0.796413  0.718608  1
  Na  Na4  1  0.430227  0.338374  0.965790  1
  Na  Na5  1  0.569773  0.661626  0.034210  1
  Na  Na6  1  0.275092  0.203587  0.281392  1
  Na  Na7  1  0.976752  0.414137  0.388989  1
  Na  Na8  1  0.390541  0.249816  0.563100  1
  Na  Na9  1  0.210325  0.677719  0.837934  1
  Na  Na10  1  0.609459  0.750184  0.436900  1
  Na  Na11  1  0.023248  0.585863  0.611011  1
  U  U12  1  0.073643  0.817593  0.326098  1
  U  U13  1  0.926357  0.182407  0.673902  1
  Mo  Mo14  1  0.343373  0.011719  0.850448  1
  Mo  Mo15  1  0.656627  0.988281  0.149552  1
  Mo  Mo16  1  0.238626  0.907702  0.567536  1
  Mo  Mo17  1  0.927172  0.371217  0.904806  1
  Mo  Mo18  1  0.470689  0.509823  0.326005  1
  Mo  Mo19  1  0.072828  0.628783  0.095194  1
  Mo  Mo20  1  0.761374  0.092298  0.432464  1
  Mo  Mo21  1  0.529311  0.490177  0.673995  1
  O  O22  1  0.117459  0.089577  0.545938  1
  O  O23  1  0.506257  0.860381  0.841668  1
  O  O24  1  0.843430  0.059667  0.067160  1
  O  O25  1  0.364660  0.694082  0.315591  1
  O  O26  1  0.309230  0.379715  0.379518  1
  O  O27  1  0.534230  0.094282  0.389941  1
  O  O28  1  0.089087  0.755065  0.173300  1
  O  O29  1  0.115362  0.786207  0.664111  1
  O  O30  1  0.635340  0.305918  0.684409  1
  O  O31  1  0.998910  0.647009  0.405821  1
  O  O32  1  0.118716  0.304155  0.988594  1
  O  O33  1  0.882541  0.910423  0.454062  1
  O  O34  1  0.881284  0.695845  0.011406  1
  O  O35  1  0.884638  0.213793  0.335889  1
  O  O36  1  0.138706  0.994627  0.251434  1
  O  O37  1  0.465770  0.905718  0.610059  1
  O  O38  1  0.723758  0.396613  0.983334  1
  O  O39  1  0.444387  0.510045  0.795795  1
  O  O40  1  0.156570  0.940333  0.932840  1
  O  O41  1  0.861294  0.005373  0.748566  1
  O  O42  1  0.660230  0.482692  0.409592  1
  O  O43  1  0.001090  0.352991  0.594179  1
  O  O44  1  0.239328  0.117079  0.727058  1
  O  O45  1  0.546047  0.877852  0.091642  1
  O  O46  1  0.967363  0.540149  0.819467  1
  O  O47  1  0.731405  0.154024  0.548224  1
  O  O48  1  0.339770  0.517308  0.590408  1
  O  O49  1  0.268595  0.845976  0.451776  1
  O  O50  1  0.555613  0.489955  0.204205  1
  O  O51  1  0.032637  0.459851  0.180533  1
  O  O52  1  0.910913  0.244935  0.826700  1
  O  O53  1  0.493743  0.139619  0.158332  1
  O  O54  1  0.760672  0.882921  0.272942  1
  O  O55  1  0.453953  0.122148  0.908358  1
  O  O56  1  0.276242  0.603387  0.016666  1
  O  O57  1  0.690770  0.620285  0.620482  1
