# generated using pymatgen
data_Pr2Ni7P4
_symmetry_space_group_name_H-M   'P 1'
_cell_length_a   3.77270867
_cell_length_b   9.26319628
_cell_length_c   10.47778153
_cell_angle_alpha   90.00000000
_cell_angle_beta   90.00000000
_cell_angle_gamma   90.00000000
_symmetry_Int_Tables_number   1
_chemical_formula_structural   Pr2Ni7P4
_chemical_formula_sum   'Pr4 Ni14 P8'
_cell_volume   366.17060319
_cell_formula_units_Z   2
loop_
 _symmetry_equiv_pos_site_id
 _symmetry_equiv_pos_as_xyz
  1  'x, y, z'
loop_
 _atom_site_type_symbol
 _atom_site_label
 _atom_site_symmetry_multiplicity
 _atom_site_fract_x
 _atom_site_fract_y
 _atom_site_fract_z
 _atom_site_occupancy
  Pr  Pr0  1  0.000000  0.563087  0.000385  1
  Pr  Pr1  1  0.500000  0.436913  0.500385  1
  Pr  Pr2  1  0.000000  0.939429  0.783410  1
  Pr  Pr3  1  0.500000  0.060571  0.283410  1
  Ni  Ni4  1  0.000000  0.582809  0.303894  1
  Ni  Ni5  1  0.500000  0.417191  0.803894  1
  Ni  Ni6  1  0.000000  0.318205  0.260264  1
  Ni  Ni7  1  0.500000  0.681795  0.760264  1
  Ni  Ni8  1  0.000000  0.252981  0.902587  1
  Ni  Ni9  1  0.500000  0.747019  0.402587  1
  Ni  Ni10  1  0.000000  0.903597  0.085901  1
  Ni  Ni11  1  0.500000  0.096403  0.585901  1
  Ni  Ni12  1  0.000000  0.938886  0.479760  1
  Ni  Ni13  1  0.500000  0.061114  0.979760  1
  Ni  Ni14  1  0.000000  0.274740  0.672354  1
  Ni  Ni15  1  0.500000  0.725260  0.172354  1
  Ni  Ni16  1  0.000000  0.695146  0.574645  1
  Ni  Ni17  1  0.500000  0.304854  0.074645  1
  P  P18  1  0.000000  0.524031  0.717840  1
  P  P19  1  0.500000  0.475969  0.217840  1
  P  P20  1  0.000000  0.815664  0.288398  1
  P  P21  1  0.500000  0.184336  0.788398  1
  P  P22  1  0.000000  0.157363  0.089259  1
  P  P23  1  0.500000  0.842637  0.589259  1
  P  P24  1  0.000000  0.184964  0.472503  1
  P  P25  1  0.500000  0.815036  0.972503  1
