# generated using pymatgen
data_Ba3Zn6Si4TeO20
_symmetry_space_group_name_H-M   'P 1'
_cell_length_a   5.20947666
_cell_length_b   9.98039269
_cell_length_c   9.98039338
_cell_angle_alpha   71.62812934
_cell_angle_beta   76.01378632
_cell_angle_gamma   76.01378397
_symmetry_Int_Tables_number   1
_chemical_formula_structural   Ba3Zn6Si4TeO20
_chemical_formula_sum   'Ba3 Zn6 Si4 Te1 O20'
_cell_volume   470.07768011
_cell_formula_units_Z   1
loop_
 _symmetry_equiv_pos_site_id
 _symmetry_equiv_pos_as_xyz
  1  'x, y, z'
loop_
 _atom_site_type_symbol
 _atom_site_label
 _atom_site_symmetry_multiplicity
 _atom_site_fract_x
 _atom_site_fract_y
 _atom_site_fract_z
 _atom_site_occupancy
  Ba  Ba0  1  0.747551  0.787017  0.787017  1
  Ba  Ba1  1  0.252449  0.212983  0.212983  1
  Ba  Ba2  1  0.000000  0.500000  0.500000  1
  Zn  Zn3  1  0.500000  0.843876  0.156124  1
  Zn  Zn4  1  0.500000  0.156124  0.843876  1
  Zn  Zn5  1  0.827592  0.923289  0.364192  1
  Zn  Zn6  1  0.172408  0.635808  0.076711  1
  Zn  Zn7  1  0.172408  0.076711  0.635808  1
  Zn  Zn8  1  0.827592  0.364192  0.923289  1
  Si  Si9  1  0.341659  0.780587  0.519397  1
  Si  Si10  1  0.658341  0.480603  0.219413  1
  Si  Si11  1  0.658341  0.219413  0.480603  1
  Si  Si12  1  0.341659  0.519397  0.780587  1
  Te  Te13  1  0.000000  0.000000  0.000000  1
  O  O14  1  0.341377  0.884065  0.616811  1
  O  O15  1  0.658623  0.383189  0.115935  1
  O  O16  1  0.658623  0.115935  0.383189  1
  O  O17  1  0.341377  0.616811  0.884065  1
  O  O18  1  0.550672  0.815046  0.365535  1
  O  O19  1  0.449328  0.634465  0.184954  1
  O  O20  1  0.449328  0.184954  0.634465  1
  O  O21  1  0.550672  0.365535  0.815046  1
  O  O22  1  0.036119  0.777254  0.505446  1
  O  O23  1  0.963881  0.494554  0.222746  1
  O  O24  1  0.963881  0.222746  0.494554  1
  O  O25  1  0.036119  0.505446  0.777254  1
  O  O26  1  0.366940  0.929923  0.929923  1
  O  O27  1  0.633060  0.070077  0.070077  1
  O  O28  1  0.107102  0.952964  0.189010  1
  O  O29  1  0.892899  0.810990  0.047036  1
  O  O30  1  0.892899  0.047036  0.810990  1
  O  O31  1  0.107102  0.189010  0.952964  1
  O  O32  1  0.463592  0.610031  0.610031  1
  O  O33  1  0.536408  0.389969  0.389969  1
