# generated using pymatgen
data_Rh7(PbO5)3
_symmetry_space_group_name_H-M   'P 1'
_cell_length_a   10.56000112
_cell_length_b   10.56000091
_cell_length_c   13.49465217
_cell_angle_alpha   90.00000000
_cell_angle_beta   90.00000000
_cell_angle_gamma   120.00000066
_symmetry_Int_Tables_number   1
_chemical_formula_structural   Rh7(PbO5)3
_chemical_formula_sum   'Rh28 Pb12 O60'
_cell_volume   1303.22752374
_cell_formula_units_Z   4
loop_
 _symmetry_equiv_pos_site_id
 _symmetry_equiv_pos_as_xyz
  1  'x, y, z'
loop_
 _atom_site_type_symbol
 _atom_site_label
 _atom_site_symmetry_multiplicity
 _atom_site_fract_x
 _atom_site_fract_y
 _atom_site_fract_z
 _atom_site_occupancy
  Rh  Rh0  1  0.666667  0.333333  0.647583  1
  Rh  Rh1  1  0.831236  0.662471  0.500000  1
  Rh  Rh2  1  0.666667  0.333333  0.852417  1
  Rh  Rh3  1  0.666667  0.333333  0.147583  1
  Rh  Rh4  1  0.337529  0.168764  0.500000  1
  Rh  Rh5  1  0.000000  0.000000  0.000000  1
  Rh  Rh6  1  0.337529  0.168764  0.000000  1
  Rh  Rh7  1  0.000000  0.000000  0.500000  1
  Rh  Rh8  1  0.500000  0.500000  0.000000  1
  Rh  Rh9  1  0.168764  0.831236  0.500000  1
  Rh  Rh10  1  0.333333  0.666667  0.852417  1
  Rh  Rh11  1  0.662471  0.831236  0.500000  1
  Rh  Rh12  1  0.831236  0.168764  0.500000  1
  Rh  Rh13  1  0.168764  0.831236  0.000000  1
  Rh  Rh14  1  0.000000  0.500000  0.000000  1
  Rh  Rh15  1  0.333333  0.666667  0.352417  1
  Rh  Rh16  1  0.000000  0.500000  0.500000  1
  Rh  Rh17  1  0.500000  0.500000  0.500000  1
  Rh  Rh18  1  0.662471  0.831236  0.000000  1
  Rh  Rh19  1  0.168764  0.337529  0.500000  1
  Rh  Rh20  1  0.500000  0.000000  0.000000  1
  Rh  Rh21  1  0.333333  0.666667  0.647583  1
  Rh  Rh22  1  0.500000  0.000000  0.500000  1
  Rh  Rh23  1  0.333333  0.666667  0.147583  1
  Rh  Rh24  1  0.666667  0.333333  0.352417  1
  Rh  Rh25  1  0.168764  0.337529  0.000000  1
  Rh  Rh26  1  0.831236  0.662471  0.000000  1
  Rh  Rh27  1  0.831236  0.168764  0.000000  1
  Pb  Pb28  1  0.731737  0.000000  0.250000  1
  Pb  Pb29  1  0.602636  0.602636  0.250000  1
  Pb  Pb30  1  1.000000  0.731737  0.250000  1
  Pb  Pb31  1  0.397364  0.397364  0.750000  1
  Pb  Pb32  1  0.397364  0.000000  0.250000  1
  Pb  Pb33  1  0.000000  0.397364  0.250000  1
  Pb  Pb34  1  0.268263  0.000000  0.750000  1
  Pb  Pb35  1  0.602636  0.000000  0.750000  1
  Pb  Pb36  1  1.000000  0.602636  0.750000  1
  Pb  Pb37  1  0.000000  0.268263  0.750000  1
  Pb  Pb38  1  0.731737  0.731737  0.750000  1
  Pb  Pb39  1  0.268263  0.268263  0.250000  1
  O  O40  1  1.000000  0.333831  0.922942  1
  O  O41  1  0.506751  0.665703  0.081223  1
  O  O42  1  0.821806  0.343457  0.750000  1
  O  O43  1  0.334297  0.493249  0.918777  1
  O  O44  1  0.841049  0.506751  0.918777  1
  O  O45  1  0.158951  0.665703  0.581223  1
  O  O46  1  0.506751  0.841049  0.581223  1
  O  O47  1  1.000000  0.830877  0.574661  1
  O  O48  1  0.666169  0.666169  0.577058  1
  O  O49  1  0.493249  0.334297  0.581223  1
  O  O50  1  0.666169  0.000000  0.077058  1
  O  O51  1  0.169123  0.000000  0.074661  1
  O  O52  1  0.493249  0.334297  0.918777  1
  O  O53  1  0.665703  0.506751  0.081223  1
  O  O54  1  0.830877  0.830877  0.074661  1
  O  O55  1  0.656543  0.178194  0.250000  1
  O  O56  1  0.000000  0.666169  0.422942  1
  O  O57  1  0.666169  0.666169  0.922942  1
  O  O58  1  1.000000  0.830877  0.925339  1
  O  O59  1  0.506751  0.841049  0.918777  1
  O  O60  1  0.158951  0.665703  0.918777  1
  O  O61  1  0.000000  0.169123  0.425339  1
  O  O62  1  0.000000  0.666169  0.077058  1
  O  O63  1  0.841049  0.506751  0.581223  1
  O  O64  1  0.334297  0.493249  0.581223  1
  O  O65  1  0.841049  0.334297  0.081223  1
  O  O66  1  0.665703  0.506751  0.418777  1
  O  O67  1  1.000000  0.333831  0.577058  1
  O  O68  1  0.169123  0.169123  0.574661  1
  O  O69  1  0.478349  0.656543  0.750000  1
  O  O70  1  0.333831  0.333831  0.077058  1
  O  O71  1  0.665703  0.158951  0.581223  1
  O  O72  1  0.830877  0.000000  0.925339  1
  O  O73  1  0.656543  0.478349  0.750000  1
  O  O74  1  0.158951  0.493249  0.418777  1
  O  O75  1  0.521651  0.343457  0.250000  1
  O  O76  1  0.343457  0.821806  0.750000  1
  O  O77  1  0.821806  0.478349  0.250000  1
  O  O78  1  0.665703  0.158951  0.918777  1
  O  O79  1  0.478349  0.821806  0.250000  1
  O  O80  1  0.493249  0.158951  0.081223  1
  O  O81  1  0.521651  0.178194  0.750000  1
  O  O82  1  0.493249  0.158951  0.418777  1
  O  O83  1  0.343457  0.521651  0.250000  1
  O  O84  1  0.333831  0.000000  0.922942  1
  O  O85  1  0.333831  0.000000  0.577058  1
  O  O86  1  0.334297  0.841049  0.418777  1
  O  O87  1  0.178194  0.656543  0.250000  1
  O  O88  1  0.333831  0.333831  0.422942  1
  O  O89  1  0.178194  0.521651  0.750000  1
  O  O90  1  0.334297  0.841049  0.081223  1
  O  O91  1  0.158951  0.493249  0.081223  1
  O  O92  1  0.841049  0.334297  0.418777  1
  O  O93  1  0.830877  0.000000  0.574661  1
  O  O94  1  0.506751  0.665703  0.418777  1
  O  O95  1  0.000000  0.169123  0.074661  1
  O  O96  1  0.666169  0.000000  0.422942  1
  O  O97  1  0.169123  0.000000  0.425339  1
  O  O98  1  0.830877  0.830877  0.425339  1
  O  O99  1  0.169123  0.169123  0.925339  1
