# generated using pymatgen
data_CuHg3As2Br3
_symmetry_space_group_name_H-M   'P 1'
_cell_length_a   9.52823925
_cell_length_b   13.56855385
_cell_length_c   14.15100517
_cell_angle_alpha   67.39114370
_cell_angle_beta   70.32630590
_cell_angle_gamma   69.44448664
_symmetry_Int_Tables_number   1
_chemical_formula_structural   CuHg3As2Br3
_chemical_formula_sum   'Cu6 Hg18 As12 Br18'
_cell_volume   1537.73172571
_cell_formula_units_Z   6
loop_
 _symmetry_equiv_pos_site_id
 _symmetry_equiv_pos_as_xyz
  1  'x, y, z'
loop_
 _atom_site_type_symbol
 _atom_site_label
 _atom_site_symmetry_multiplicity
 _atom_site_fract_x
 _atom_site_fract_y
 _atom_site_fract_z
 _atom_site_occupancy
  Cu  Cu0  1  0.386564  0.250000  0.750000  1
  Cu  Cu1  1  0.613436  0.750000  0.250000  1
  Cu  Cu2  1  0.596286  0.549632  0.789915  1
  Cu  Cu3  1  0.403714  0.450369  0.210085  1
  Cu  Cu4  1  0.064168  0.049632  0.289915  1
  Cu  Cu5  1  0.935832  0.950368  0.710085  1
  Hg  Hg6  1  0.465444  0.912378  0.750792  1
  Hg  Hg7  1  0.821201  0.250000  0.750000  1
  Hg  Hg8  1  0.331410  0.328776  0.001219  1
  Hg  Hg9  1  0.172951  0.164738  0.497711  1
  Hg  Hg10  1  0.668590  0.671224  0.998781  1
  Hg  Hg11  1  0.128614  0.587622  0.749208  1
  Hg  Hg12  1  0.534556  0.087622  0.249208  1
  Hg  Hg13  1  0.164600  0.664738  0.997711  1
  Hg  Hg14  1  0.338595  0.828776  0.501219  1
  Hg  Hg15  1  0.871386  0.412378  0.250792  1
  Hg  Hg16  1  0.500000  0.500000  0.500000  1
  Hg  Hg17  1  0.661405  0.171224  0.498781  1
  Hg  Hg18  1  0.835400  0.335262  0.002289  1
  Hg  Hg19  1  0.178799  0.750000  0.250000  1
  Hg  Hg20  1  0.827049  0.835262  0.502289  1
  Hg  Hg21  1  0.000000  0.000000  0.000000  1
  Hg  Hg22  1  0.000000  0.500000  0.500000  1
  Hg  Hg23  1  0.500000  0.000000  0.000000  1
  As  As24  1  0.200440  0.815964  0.048782  1
  As  As25  1  0.065186  0.684036  0.451218  1
  As  As26  1  0.411755  0.013362  0.448116  1
  As  As27  1  0.588245  0.986638  0.551884  1
  As  As28  1  0.454927  0.850441  0.949892  1
  As  As29  1  0.873233  0.486638  0.051884  1
  As  As30  1  0.545073  0.149559  0.050108  1
  As  As31  1  0.255260  0.649559  0.550108  1
  As  As32  1  0.744740  0.350441  0.449892  1
  As  As33  1  0.799560  0.184036  0.951218  1
  As  As34  1  0.126767  0.513362  0.948116  1
  As  As35  1  0.934814  0.315964  0.548782  1
  Br  Br36  1  0.593603  0.285943  0.261390  1
  Br  Br37  1  0.680332  0.693017  0.415195  1
  Br  Br38  1  0.109190  0.012970  0.745926  1
  Br  Br39  1  0.500000  0.500000  0.000000  1
  Br  Br40  1  0.788544  0.806983  0.084805  1
  Br  Br41  1  0.859064  0.785943  0.761390  1
  Br  Br42  1  0.345226  0.903431  0.251016  1
  Br  Br43  1  0.654774  0.096569  0.748984  1
  Br  Br44  1  0.406397  0.714057  0.738610  1
  Br  Br45  1  0.140936  0.214057  0.238610  1
  Br  Br46  1  0.499672  0.596569  0.248984  1
  Br  Br47  1  0.868086  0.487030  0.754074  1
  Br  Br48  1  0.890810  0.987030  0.254074  1
  Br  Br49  1  0.319668  0.306983  0.584805  1
  Br  Br50  1  0.000000  0.000000  0.500000  1
  Br  Br51  1  0.131914  0.512970  0.245926  1
  Br  Br52  1  0.500328  0.403431  0.751016  1
  Br  Br53  1  0.211456  0.193017  0.915195  1
