# generated using pymatgen
data_CuSb2ClO3
_symmetry_space_group_name_H-M   'P 1'
_cell_length_a   7.85329833
_cell_length_b   7.85329831
_cell_length_c   18.85966080
_cell_angle_alpha   89.97718023
_cell_angle_beta   89.97718024
_cell_angle_gamma   120.08547417
_symmetry_Int_Tables_number   1
_chemical_formula_structural   CuSb2ClO3
_chemical_formula_sum   'Cu8 Sb16 Cl8 O24'
_cell_volume   1006.45383946
_cell_formula_units_Z   8
loop_
 _symmetry_equiv_pos_site_id
 _symmetry_equiv_pos_as_xyz
  1  'x, y, z'
loop_
 _atom_site_type_symbol
 _atom_site_label
 _atom_site_symmetry_multiplicity
 _atom_site_fract_x
 _atom_site_fract_y
 _atom_site_fract_z
 _atom_site_occupancy
  Cu  Cu0  1  0.979728  0.986078  0.731653  1
  Cu  Cu1  1  0.508893  0.501926  0.231673  1
  Cu  Cu2  1  0.997589  0.488395  0.776560  1
  Cu  Cu3  1  0.990025  0.496622  0.221992  1
  Cu  Cu4  1  0.986078  0.979728  0.231653  1
  Cu  Cu5  1  0.496622  0.990025  0.721992  1
  Cu  Cu6  1  0.501926  0.508893  0.731673  1
  Cu  Cu7  1  0.488395  0.997589  0.276560  1
  Sb  Sb8  1  0.822248  0.141403  0.582247  1
  Sb  Sb9  1  0.668620  0.348493  0.082430  1
  Sb  Sb10  1  0.141403  0.822248  0.082247  1
  Sb  Sb11  1  0.328326  0.160841  0.580211  1
  Sb  Sb12  1  0.642572  0.319948  0.419026  1
  Sb  Sb13  1  0.824346  0.665474  0.921785  1
  Sb  Sb14  1  0.160841  0.328326  0.080211  1
  Sb  Sb15  1  0.819662  0.669050  0.583576  1
  Sb  Sb16  1  0.665474  0.824346  0.421785  1
  Sb  Sb17  1  0.669050  0.819662  0.083576  1
  Sb  Sb18  1  0.172279  0.848290  0.419002  1
  Sb  Sb19  1  0.848290  0.172279  0.919002  1
  Sb  Sb20  1  0.316071  0.173945  0.919294  1
  Sb  Sb21  1  0.319948  0.642572  0.919026  1
  Sb  Sb22  1  0.173945  0.316071  0.419294  1
  Sb  Sb23  1  0.348493  0.668620  0.582430  1
  Cl  Cl24  1  0.657445  0.831438  0.772137  1
  Cl  Cl25  1  0.158746  0.329307  0.728344  1
  Cl  Cl26  1  0.825200  0.158836  0.247296  1
  Cl  Cl27  1  0.328505  0.661745  0.247889  1
  Cl  Cl28  1  0.329307  0.158746  0.228344  1
  Cl  Cl29  1  0.158836  0.825200  0.747296  1
  Cl  Cl30  1  0.661745  0.328505  0.747889  1
  Cl  Cl31  1  0.831438  0.657445  0.272137  1
  O  O32  1  0.701629  0.411446  0.978699  1
  O  O33  1  0.078177  0.788697  0.978658  1
  O  O34  1  0.289866  0.199830  0.025158  1
  O  O35  1  0.411446  0.701629  0.478699  1
  O  O36  1  0.697197  0.791434  0.979007  1
  O  O37  1  0.204667  0.906300  0.523890  1
  O  O38  1  0.913631  0.951252  0.611881  1
  O  O39  1  0.078853  0.034993  0.394319  1
  O  O40  1  0.412555  0.455369  0.894048  1
  O  O41  1  0.788697  0.078177  0.478658  1
  O  O42  1  0.199830  0.289866  0.525158  1
  O  O43  1  0.906300  0.204667  0.023890  1
  O  O44  1  0.538119  0.576640  0.612225  1
  O  O45  1  0.791434  0.697197  0.479007  1
  O  O46  1  0.455369  0.412555  0.394048  1
  O  O47  1  0.582875  0.285623  0.523764  1
  O  O48  1  0.539399  0.951146  0.612445  1
  O  O49  1  0.951252  0.913631  0.111881  1
  O  O50  1  0.285623  0.582875  0.023764  1
  O  O51  1  0.036411  0.455447  0.888052  1
  O  O52  1  0.576640  0.538119  0.112225  1
  O  O53  1  0.455447  0.036411  0.388052  1
  O  O54  1  0.951146  0.539399  0.112445  1
  O  O55  1  0.034993  0.078853  0.894319  1
