# generated using pymatgen
data_K2Be(Si2O5)2
_symmetry_space_group_name_H-M   'P 1'
_cell_length_a   7.04252709
_cell_length_b   9.87156209
_cell_length_c   13.96788131
_cell_angle_alpha   90.00000000
_cell_angle_beta   93.82101700
_cell_angle_gamma   90.00000000
_symmetry_Int_Tables_number   1
_chemical_formula_structural   K2Be(Si2O5)2
_chemical_formula_sum   'K8 Be4 Si16 O40'
_cell_volume   968.89892031
_cell_formula_units_Z   4
loop_
 _symmetry_equiv_pos_site_id
 _symmetry_equiv_pos_as_xyz
  1  'x, y, z'
loop_
 _atom_site_type_symbol
 _atom_site_label
 _atom_site_symmetry_multiplicity
 _atom_site_fract_x
 _atom_site_fract_y
 _atom_site_fract_z
 _atom_site_occupancy
  K  K0  1  0.759397  0.078155  0.866947  1
  K  K1  1  0.740603  0.578155  0.633053  1
  K  K2  1  0.458062  0.124517  0.592103  1
  K  K3  1  0.259397  0.421845  0.366947  1
  K  K4  1  0.541938  0.875483  0.407897  1
  K  K5  1  0.958062  0.375483  0.092103  1
  K  K6  1  0.240603  0.921845  0.133053  1
  K  K7  1  0.041938  0.624517  0.907897  1
  Be  Be8  1  0.044453  0.635570  0.195230  1
  Be  Be9  1  0.955547  0.364430  0.804770  1
  Be  Be10  1  0.455547  0.135570  0.304770  1
  Be  Be11  1  0.544453  0.864430  0.695230  1
  Si  Si12  1  0.017799  0.783605  0.369926  1
  Si  Si13  1  0.732932  0.765381  0.066694  1
  Si  Si14  1  0.982201  0.216394  0.630074  1
  Si  Si15  1  0.270945  0.951538  0.829419  1
  Si  Si16  1  0.482201  0.283606  0.130074  1
  Si  Si17  1  0.462889  0.574033  0.166224  1
  Si  Si18  1  0.537111  0.425967  0.833776  1
  Si  Si19  1  0.962889  0.925967  0.666224  1
  Si  Si20  1  0.037111  0.074033  0.333776  1
  Si  Si21  1  0.767068  0.265381  0.433306  1
  Si  Si22  1  0.517799  0.716395  0.869926  1
  Si  Si23  1  0.232932  0.734619  0.566694  1
  Si  Si24  1  0.729055  0.048462  0.170581  1
  Si  Si25  1  0.229055  0.451538  0.670581  1
  Si  Si26  1  0.267068  0.234619  0.933306  1
  Si  Si27  1  0.770945  0.548462  0.329419  1
  O  O28  1  0.754890  0.929494  0.089489  1
  O  O29  1  0.444456  0.422690  0.720838  1
  O  O30  1  0.762590  0.433840  0.837474  1
  O  O31  1  0.262590  0.066160  0.337474  1
  O  O32  1  0.084285  0.765509  0.263779  1
  O  O33  1  0.537661  0.713223  0.114557  1
  O  O34  1  0.745110  0.429494  0.410511  1
  O  O35  1  0.254890  0.570506  0.589489  1
  O  O36  1  0.555544  0.577310  0.279162  1
  O  O37  1  0.551557  0.441014  0.111266  1
  O  O38  1  0.055544  0.922690  0.779162  1
  O  O39  1  0.079679  0.320422  0.904439  1
  O  O40  1  0.806669  0.259181  0.551400  1
  O  O41  1  0.193331  0.740819  0.448600  1
  O  O42  1  0.306669  0.240819  0.051400  1
  O  O43  1  0.920321  0.679578  0.095561  1
  O  O44  1  0.245110  0.070506  0.910511  1
  O  O45  1  0.330057  0.812163  0.892535  1
  O  O46  1  0.420321  0.820422  0.595561  1
  O  O47  1  0.931024  0.516676  0.256453  1
  O  O48  1  0.915715  0.234491  0.736221  1
  O  O49  1  0.068976  0.483324  0.743547  1
  O  O50  1  0.693331  0.759181  0.948600  1
  O  O51  1  0.830057  0.687837  0.392535  1
  O  O52  1  0.169943  0.312163  0.607465  1
  O  O53  1  0.737410  0.933840  0.662526  1
  O  O54  1  0.037661  0.786777  0.614557  1
  O  O55  1  0.948443  0.941014  0.388734  1
  O  O56  1  0.462339  0.286777  0.885443  1
  O  O57  1  0.584285  0.734491  0.763779  1
  O  O58  1  0.448443  0.558986  0.888734  1
  O  O59  1  0.944456  0.077310  0.220838  1
  O  O60  1  0.415715  0.265509  0.236221  1
  O  O61  1  0.431024  0.983324  0.756453  1
  O  O62  1  0.962339  0.213223  0.385443  1
  O  O63  1  0.579679  0.179578  0.404439  1
  O  O64  1  0.051557  0.058986  0.611266  1
  O  O65  1  0.568976  0.016676  0.243547  1
  O  O66  1  0.669943  0.187837  0.107465  1
  O  O67  1  0.237410  0.566160  0.162526  1
