# generated using pymatgen
data_CdSeO3
_symmetry_space_group_name_H-M   'P 1'
_cell_length_a   5.84040242
_cell_length_b   8.83237728
_cell_length_c   13.15029924
_cell_angle_alpha   90.00000000
_cell_angle_beta   90.00000000
_cell_angle_gamma   101.09061512
_symmetry_Int_Tables_number   1
_chemical_formula_structural   CdSeO3
_chemical_formula_sum   'Cd8 Se8 O24'
_cell_volume   665.68461859
_cell_formula_units_Z   8
loop_
 _symmetry_equiv_pos_site_id
 _symmetry_equiv_pos_as_xyz
  1  'x, y, z'
loop_
 _atom_site_type_symbol
 _atom_site_label
 _atom_site_symmetry_multiplicity
 _atom_site_fract_x
 _atom_site_fract_y
 _atom_site_fract_z
 _atom_site_occupancy
  Cd  Cd0  1  0.378170  0.851225  0.755577  1
  Cd  Cd1  1  0.818453  0.113295  0.577127  1
  Cd  Cd2  1  0.621830  0.648775  0.255577  1
  Cd  Cd3  1  0.181547  0.386705  0.077127  1
  Cd  Cd4  1  0.621830  0.148775  0.244423  1
  Cd  Cd5  1  0.818453  0.613295  0.922873  1
  Cd  Cd6  1  0.378170  0.351225  0.744423  1
  Cd  Cd7  1  0.181547  0.886705  0.422873  1
  Se  Se8  1  0.586513  0.235542  0.974936  1
  Se  Se9  1  0.029063  0.481155  0.330401  1
  Se  Se10  1  0.586513  0.735542  0.525064  1
  Se  Se11  1  0.970937  0.018845  0.830401  1
  Se  Se12  1  0.029063  0.981155  0.169599  1
  Se  Se13  1  0.413487  0.264458  0.474936  1
  Se  Se14  1  0.413487  0.764458  0.025064  1
  Se  Se15  1  0.970937  0.518845  0.669599  1
  O  O16  1  0.965916  0.662779  0.349747  1
  O  O17  1  0.243790  0.503458  0.236741  1
  O  O18  1  0.842608  0.369833  0.980345  1
  O  O19  1  0.034084  0.837221  0.849747  1
  O  O20  1  0.842608  0.869833  0.519655  1
  O  O21  1  0.461906  0.727661  0.405005  1
  O  O22  1  0.157392  0.630167  0.019655  1
  O  O23  1  0.402517  0.846014  0.579258  1
  O  O24  1  0.157392  0.130167  0.480345  1
  O  O25  1  0.224123  0.085699  0.762287  1
  O  O26  1  0.224123  0.585699  0.737713  1
  O  O27  1  0.756210  0.996542  0.736741  1
  O  O28  1  0.756210  0.496542  0.763259  1
  O  O29  1  0.402517  0.346014  0.920742  1
  O  O30  1  0.538094  0.272339  0.594995  1
  O  O31  1  0.461906  0.227661  0.094995  1
  O  O32  1  0.538094  0.772339  0.905005  1
  O  O33  1  0.597483  0.153986  0.420742  1
  O  O34  1  0.775877  0.914301  0.237713  1
  O  O35  1  0.243790  0.003458  0.263259  1
  O  O36  1  0.965916  0.162779  0.150253  1
  O  O37  1  0.034084  0.337221  0.650253  1
  O  O38  1  0.775877  0.414301  0.262287  1
  O  O39  1  0.597483  0.653986  0.079258  1
