# generated using pymatgen
data_Cr4Cu3(PO4)6
_symmetry_space_group_name_H-M   'P 1'
_cell_length_a   6.31007092
_cell_length_b   7.94996191
_cell_length_c   9.44986172
_cell_angle_alpha   107.04186828
_cell_angle_beta   107.37912550
_cell_angle_gamma   100.21710838
_symmetry_Int_Tables_number   1
_chemical_formula_structural   Cr4Cu3(PO4)6
_chemical_formula_sum   'Cr4 Cu3 P6 O24'
_cell_volume   413.91277857
_cell_formula_units_Z   1
loop_
 _symmetry_equiv_pos_site_id
 _symmetry_equiv_pos_as_xyz
  1  'x, y, z'
loop_
 _atom_site_type_symbol
 _atom_site_label
 _atom_site_symmetry_multiplicity
 _atom_site_fract_x
 _atom_site_fract_y
 _atom_site_fract_z
 _atom_site_occupancy
  O  O0  1  0.795256  0.055315  0.301189  1
  O  O1  1  0.204746  0.944705  0.698822  1
  O  O2  1  0.777482  0.796042  0.065019  1
  O  O3  1  0.222533  0.203979  0.934992  1
  O  O4  1  0.638760  0.259263  0.497254  1
  O  O5  1  0.361227  0.740750  0.502742  1
  O  O6  1  0.008154  0.186459  0.654027  1
  O  O7  1  0.991835  0.813543  0.345967  1
  O  O8  1  0.885868  0.478559  0.843197  1
  O  O9  1  0.114148  0.521454  0.156823  1
  O  O10  1  0.872387  0.192786  0.081443  1
  O  O11  1  0.127679  0.807172  0.918551  1
  O  O12  1  0.921391  0.446569  0.341077  1
  O  O13  1  0.287232  0.032269  0.245595  1
  O  O14  1  0.712755  0.967752  0.754398  1
  O  O15  1  0.317010  0.550735  0.922856  1
  O  O16  1  0.683030  0.449281  0.077159  1
  O  O17  1  0.251926  0.294273  0.464574  1
  O  O18  1  0.078623  0.553438  0.658925  1
  O  O19  1  0.442237  0.355058  0.273409  1
  O  O20  1  0.557793  0.644973  0.726610  1
  O  O21  1  0.451902  0.261108  0.759466  1
  O  O22  1  0.548097  0.738917  0.240525  1
  O  O23  1  0.748077  0.705732  0.535433  1
  P  P24  1  0.776777  0.853943  0.237774  1
  P  P25  1  0.223201  0.146083  0.762255  1
  P  P26  1  0.601757  0.764120  0.632301  1
  P  P27  1  0.398234  0.235903  0.367691  1
  P  P28  1  0.097538  0.605862  0.837403  1
  P  P29  1  0.902490  0.394064  0.162573  1
  Cr  Cr30  1  0.620691  0.542690  0.891592  1
  Cr  Cr31  1  0.047503  0.710618  0.521691  1
  Cr  Cr32  1  0.379318  0.457333  0.108414  1
  Cr  Cr33  1  0.952515  0.289406  0.478304  1
  Cu  Cu34  1  0.295411  0.823905  0.310191  1
  Cu  Cu35  1  0.704569  0.176132  0.689785  1
  Cu  Cu36  1  -0.000150  -0.000191  -0.000032  1
