# generated using pymatgen
data_SrCu2(BO3)2
_symmetry_space_group_name_H-M   'P 1'
_cell_length_a   6.85584075
_cell_length_b   7.29114872
_cell_length_c   7.29114814
_cell_angle_alpha   77.22991872
_cell_angle_beta   61.95608160
_cell_angle_gamma   61.95608592
_symmetry_Int_Tables_number   1
_chemical_formula_structural   SrCu2(BO3)2
_chemical_formula_sum   'Sr2 Cu4 B4 O12'
_cell_volume   283.90179369
_cell_formula_units_Z   2
loop_
 _symmetry_equiv_pos_site_id
 _symmetry_equiv_pos_as_xyz
  1  'x, y, z'
loop_
 _atom_site_type_symbol
 _atom_site_label
 _atom_site_symmetry_multiplicity
 _atom_site_fract_x
 _atom_site_fract_y
 _atom_site_fract_z
 _atom_site_occupancy
  Sr  Sr0  1  0.250000  0.000000  0.000000  1
  Sr  Sr1  1  0.750000  0.000000  0.000000  1
  Cu  Cu2  1  0.617114  0.500000  0.265773  1
  Cu  Cu3  1  0.382886  0.500000  0.734227  1
  Cu  Cu4  1  0.882886  0.734227  0.500000  1
  Cu  Cu5  1  0.117114  0.265773  0.500000  1
  B  B6  1  0.798334  0.500000  0.903332  1
  B  B7  1  0.701666  0.096668  0.500000  1
  B  B8  1  0.298334  0.903332  0.500000  1
  B  B9  1  0.201666  0.500000  0.096668  1
  O  O10  1  0.350874  0.318194  0.980058  1
  O  O11  1  0.850874  0.980058  0.318194  1
  O  O12  1  0.595147  0.309707  0.500000  1
  O  O13  1  0.669068  0.980058  0.681806  1
  O  O14  1  0.095147  0.500000  0.309707  1
  O  O15  1  0.830932  0.318194  0.019942  1
  O  O16  1  0.149126  0.019942  0.681806  1
  O  O17  1  0.330932  0.019942  0.318194  1
  O  O18  1  0.649126  0.681806  0.019942  1
  O  O19  1  0.169068  0.681806  0.980058  1
  O  O20  1  0.904853  0.500000  0.690293  1
  O  O21  1  0.404853  0.690293  0.500000  1
