# generated using pymatgen
data_V2Te2O7F2
_symmetry_space_group_name_H-M   'P 1'
_cell_length_a   4.95651301
_cell_length_b   5.34233816
_cell_length_c   7.31968969
_cell_angle_alpha   108.79438448
_cell_angle_beta   91.41794420
_cell_angle_gamma   89.96230743
_symmetry_Int_Tables_number   1
_chemical_formula_structural   V2Te2O7F2
_chemical_formula_sum   'V2 Te2 O7 F2'
_cell_volume   183.42473719
_cell_formula_units_Z   1
loop_
 _symmetry_equiv_pos_site_id
 _symmetry_equiv_pos_as_xyz
  1  'x, y, z'
loop_
 _atom_site_type_symbol
 _atom_site_label
 _atom_site_symmetry_multiplicity
 _atom_site_fract_x
 _atom_site_fract_y
 _atom_site_fract_z
 _atom_site_occupancy
  V  V0  1  0.761143  0.345353  0.363416  1
  V  V1  1  0.238857  0.654647  0.636584  1
  Te  Te2  1  0.721805  0.314793  0.825045  1
  Te  Te3  1  0.278195  0.685207  0.174955  1
  O  O4  1  0.132560  0.949638  0.765429  1
  O  O5  1  0.075600  0.591305  0.372446  1
  O  O6  1  0.867440  0.050362  0.234571  1
  O  O7  1  0.477356  0.605700  0.859031  1
  O  O8  1  0.522644  0.394300  0.140969  1
  O  O9  1  0.924400  0.408695  0.627554  1
  O  O10  1  0.000000  0.500000  0.000000  1
  F  F11  1  0.438785  0.262302  0.490047  1
  F  F12  1  0.561215  0.737698  0.509953  1
