# generated using pymatgen
data_K2CaP2O7
_symmetry_space_group_name_H-M   'P 1'
_cell_length_a   5.74548201
_cell_length_b   9.93211643
_cell_length_c   13.19135253
_cell_angle_alpha   104.21509048
_cell_angle_beta   90.00000000
_cell_angle_gamma   90.00000000
_symmetry_Int_Tables_number   1
_chemical_formula_structural   K2CaP2O7
_chemical_formula_sum   'K8 Ca4 P8 O28'
_cell_volume   729.71280984
_cell_formula_units_Z   4
loop_
 _symmetry_equiv_pos_site_id
 _symmetry_equiv_pos_as_xyz
  1  'x, y, z'
loop_
 _atom_site_type_symbol
 _atom_site_label
 _atom_site_symmetry_multiplicity
 _atom_site_fract_x
 _atom_site_fract_y
 _atom_site_fract_z
 _atom_site_occupancy
  K  K0  1  0.268917  0.356465  0.822118  1
  K  K1  1  0.761999  0.872939  0.859944  1
  K  K2  1  0.231083  0.856465  0.322118  1
  K  K3  1  0.731083  0.643535  0.177882  1
  K  K4  1  0.738001  0.372939  0.359944  1
  K  K5  1  0.238001  0.127061  0.140056  1
  K  K6  1  0.261999  0.627061  0.640056  1
  K  K7  1  0.768917  0.143535  0.677882  1
  Ca  Ca8  1  0.761577  0.748799  0.481682  1
  Ca  Ca9  1  0.738423  0.248799  0.981682  1
  Ca  Ca10  1  0.238423  0.251201  0.518318  1
  Ca  Ca11  1  0.261577  0.751201  0.018318  1
  P  P12  1  0.244839  0.530389  0.358552  1
  P  P13  1  0.744839  0.969611  0.141448  1
  P  P14  1  0.219923  0.447183  0.125864  1
  P  P15  1  0.280077  0.947183  0.625864  1
  P  P16  1  0.719923  0.052817  0.374136  1
  P  P17  1  0.780077  0.552817  0.874136  1
  P  P18  1  0.255161  0.030389  0.858552  1
  P  P19  1  0.755161  0.469611  0.641448  1
  O  O20  1  0.396988  0.356767  0.053668  1
  O  O21  1  0.295992  0.424931  0.242317  1
  O  O22  1  0.738058  0.897186  0.367594  1
  O  O23  1  0.896988  0.143233  0.446332  1
  O  O24  1  0.204008  0.924931  0.742317  1
  O  O25  1  0.029076  0.609701  0.890721  1
  O  O26  1  0.795992  0.075069  0.257683  1
  O  O27  1  0.763238  0.570295  0.570369  1
  O  O28  1  0.261942  0.102814  0.632406  1
  O  O29  1  0.544921  0.371916  0.621225  1
  O  O30  1  0.263238  0.929705  0.929631  1
  O  O31  1  0.970924  0.390299  0.109279  1
  O  O32  1  0.103012  0.856767  0.553668  1
  O  O33  1  0.455079  0.628084  0.378775  1
  O  O34  1  0.987562  0.396180  0.647562  1
  O  O35  1  0.512438  0.896180  0.147562  1
  O  O36  1  0.955079  0.871916  0.121225  1
  O  O37  1  0.012438  0.603820  0.352438  1
  O  O38  1  0.704008  0.575069  0.757683  1
  O  O39  1  0.487562  0.103820  0.852438  1
  O  O40  1  0.470924  0.109701  0.390721  1
  O  O41  1  0.603012  0.643233  0.946332  1
  O  O42  1  0.529076  0.890299  0.609279  1
  O  O43  1  0.238058  0.602814  0.132406  1
  O  O44  1  0.736762  0.070295  0.070369  1
  O  O45  1  0.236762  0.429705  0.429631  1
  O  O46  1  0.761942  0.397186  0.867594  1
  O  O47  1  0.044921  0.128084  0.878775  1
