# generated using pymatgen
data_Ag2PS3
_symmetry_space_group_name_H-M   'P 1'
_cell_length_a   6.33797491
_cell_length_b   11.23478064
_cell_length_c   14.38294675
_cell_angle_alpha   90.00000000
_cell_angle_beta   90.00000000
_cell_angle_gamma   90.00000000
_symmetry_Int_Tables_number   1
_chemical_formula_structural   Ag2PS3
_chemical_formula_sum   'Ag16 P8 S24'
_cell_volume   1024.14862296
_cell_formula_units_Z   8
loop_
 _symmetry_equiv_pos_site_id
 _symmetry_equiv_pos_as_xyz
  1  'x, y, z'
loop_
 _atom_site_type_symbol
 _atom_site_label
 _atom_site_symmetry_multiplicity
 _atom_site_fract_x
 _atom_site_fract_y
 _atom_site_fract_z
 _atom_site_occupancy
  Ag  Ag0  1  0.340915  0.123767  0.378114  1
  Ag  Ag1  1  0.658106  0.110164  0.862693  1
  Ag  Ag2  1  0.438449  0.045750  0.124436  1
  Ag  Ag3  1  0.061551  0.545750  0.875564  1
  Ag  Ag4  1  0.159085  0.623767  0.621886  1
  Ag  Ag5  1  0.262611  0.938181  0.869125  1
  Ag  Ag6  1  0.762611  0.061819  0.630875  1
  Ag  Ag7  1  0.341894  0.389836  0.362693  1
  Ag  Ag8  1  0.158106  0.889836  0.637307  1
  Ag  Ag9  1  0.561551  0.454250  0.624436  1
  Ag  Ag10  1  0.659085  0.376233  0.878114  1
  Ag  Ag11  1  0.938449  0.954250  0.375564  1
  Ag  Ag12  1  0.737389  0.561819  0.369125  1
  Ag  Ag13  1  0.841894  0.610164  0.137307  1
  Ag  Ag14  1  0.840915  0.876233  0.121886  1
  Ag  Ag15  1  0.237389  0.438181  0.130875  1
  P  P16  1  0.628282  0.775818  0.549111  1
  P  P17  1  0.821658  0.249284  0.292174  1
  P  P18  1  0.128282  0.224182  0.950889  1
  P  P19  1  0.321658  0.750716  0.207826  1
  P  P20  1  0.371718  0.724182  0.049111  1
  P  P21  1  0.178342  0.250716  0.792174  1
  P  P22  1  0.871718  0.275818  0.450889  1
  P  P23  1  0.678342  0.749284  0.707826  1
  S  S24  1  0.165200  0.913135  0.219384  1
  S  S25  1  0.456648  0.629798  0.505142  1
  S  S26  1  0.956648  0.370202  0.994858  1
  S  S27  1  0.665200  0.086865  0.280616  1
  S  S28  1  0.525178  0.564882  0.036085  1
  S  S29  1  0.646078  0.391129  0.247325  1
  S  S30  1  0.916972  0.775308  0.487066  1
  S  S31  1  0.834800  0.586865  0.719384  1
  S  S32  1  0.889890  0.258624  0.732683  1
  S  S33  1  0.025178  0.435118  0.463915  1
  S  S34  1  0.334800  0.413135  0.780616  1
  S  S35  1  0.474822  0.935118  0.536085  1
  S  S36  1  0.146078  0.608871  0.252675  1
  S  S37  1  0.416972  0.224692  0.012934  1
  S  S38  1  0.389890  0.741376  0.767317  1
  S  S39  1  0.110110  0.241376  0.232683  1
  S  S40  1  0.543352  0.870202  0.005142  1
  S  S41  1  0.043352  0.129798  0.494858  1
  S  S42  1  0.083028  0.724692  0.987066  1
  S  S43  1  0.610110  0.758624  0.267317  1
  S  S44  1  0.853922  0.891129  0.752675  1
  S  S45  1  0.974822  0.064882  0.963915  1
  S  S46  1  0.583028  0.275308  0.512934  1
  S  S47  1  0.353922  0.108871  0.747325  1
