# generated using pymatgen
data_SnH20C6(NCl3)2
_symmetry_space_group_name_H-M   'P 1'
_cell_length_a   12.38980794
_cell_length_b   12.38980794
_cell_length_c   12.38980794
_cell_angle_alpha   90.00000000
_cell_angle_beta   90.00000000
_cell_angle_gamma   90.00000000
_symmetry_Int_Tables_number   1
_chemical_formula_structural   SnH20C6(NCl3)2
_chemical_formula_sum   'Sn4 H80 C24 N8 Cl24'
_cell_volume   1901.92646977
_cell_formula_units_Z   4
loop_
 _symmetry_equiv_pos_site_id
 _symmetry_equiv_pos_as_xyz
  1  'x, y, z'
loop_
 _atom_site_type_symbol
 _atom_site_label
 _atom_site_symmetry_multiplicity
 _atom_site_fract_x
 _atom_site_fract_y
 _atom_site_fract_z
 _atom_site_occupancy
  Sn  Sn0  1  0.000000  0.000000  0.000000  1
  Sn  Sn1  1  0.500000  0.500000  0.000000  1
  Sn  Sn2  1  0.500000  0.000000  0.500000  1
  Sn  Sn3  1  0.000000  0.500000  0.500000  1
  H  H4  1  0.632214  0.344624  0.361350  1
  H  H5  1  0.428308  0.753493  0.300707  1
  H  H6  1  0.155376  0.638650  0.132214  1
  H  H7  1  0.300707  0.428308  0.753493  1
  H  H8  1  0.071692  0.246507  0.800707  1
  H  H9  1  0.844624  0.361350  0.867786  1
  H  H10  1  0.863511  0.201045  0.237738  1
  H  H11  1  0.344892  0.655108  0.155108  1
  H  H12  1  0.071692  0.253493  0.300707  1
  H  H13  1  0.132214  0.344624  0.138650  1
  H  H14  1  0.155376  0.861350  0.632214  1
  H  H15  1  0.361350  0.632214  0.344624  1
  H  H16  1  0.928308  0.753493  0.199293  1
  H  H17  1  0.753493  0.300707  0.428308  1
  H  H18  1  0.844892  0.655108  0.344892  1
  H  H19  1  0.863511  0.298955  0.737738  1
  H  H20  1  0.361350  0.867786  0.844624  1
  H  H21  1  0.655108  0.155108  0.344892  1
  H  H22  1  0.701045  0.262262  0.136489  1
  H  H23  1  0.638650  0.132214  0.155376  1
  H  H24  1  0.636489  0.798955  0.737738  1
  H  H25  1  0.199293  0.928308  0.753493  1
  H  H26  1  0.753493  0.199293  0.928308  1
  H  H27  1  0.237738  0.636489  0.701045  1
  H  H28  1  0.155108  0.155108  0.155108  1
  H  H29  1  0.762262  0.136489  0.798955  1
  H  H30  1  0.344624  0.138650  0.132214  1
  H  H31  1  0.737738  0.636489  0.798955  1
  H  H32  1  0.136489  0.798955  0.762262  1
  H  H33  1  0.367786  0.844624  0.138650  1
  H  H34  1  0.363511  0.201045  0.262262  1
  H  H35  1  0.262262  0.363511  0.201045  1
  H  H36  1  0.737738  0.863511  0.298955  1
  H  H37  1  0.363511  0.298955  0.762262  1
  H  H38  1  0.428308  0.746507  0.800707  1
  H  H39  1  0.253493  0.199293  0.571692  1
  H  H40  1  0.136489  0.701045  0.262262  1
  H  H41  1  0.201045  0.237738  0.863511  1
  H  H42  1  0.699293  0.571692  0.246507  1
  H  H43  1  0.655108  0.344892  0.844892  1
  H  H44  1  0.867786  0.655376  0.861350  1
  H  H45  1  0.201045  0.262262  0.363511  1
  H  H46  1  0.132214  0.155376  0.638650  1
  H  H47  1  0.746507  0.699293  0.928308  1
  H  H48  1  0.844892  0.844892  0.844892  1
  H  H49  1  0.861350  0.867786  0.655376  1
  H  H50  1  0.199293  0.571692  0.253493  1
  H  H51  1  0.262262  0.136489  0.701045  1
  H  H52  1  0.138650  0.132214  0.344624  1
  H  H53  1  0.636489  0.701045  0.237738  1
  H  H54  1  0.253493  0.300707  0.071692  1
  H  H55  1  0.138650  0.367786  0.844624  1
  H  H56  1  0.638650  0.367786  0.655376  1
  H  H57  1  0.246507  0.699293  0.571692  1
  H  H58  1  0.298955  0.762262  0.363511  1
  H  H59  1  0.155108  0.344892  0.655108  1
  H  H60  1  0.655376  0.861350  0.867786  1
  H  H61  1  0.701045  0.237738  0.636489  1
  H  H62  1  0.928308  0.746507  0.699293  1
  H  H63  1  0.571692  0.253493  0.199293  1
  H  H64  1  0.746507  0.800707  0.428308  1
  H  H65  1  0.300707  0.071692  0.253493  1
  H  H66  1  0.344892  0.844892  0.655108  1
  H  H67  1  0.367786  0.655376  0.638650  1
  H  H68  1  0.632214  0.155376  0.861350  1
  H  H69  1  0.798955  0.762262  0.136489  1
  H  H70  1  0.571692  0.246507  0.699293  1
  H  H71  1  0.655376  0.638650  0.367786  1
  H  H72  1  0.699293  0.928308  0.746507  1
  H  H73  1  0.246507  0.800707  0.071692  1
  H  H74  1  0.800707  0.071692  0.246507  1
  H  H75  1  0.844624  0.138650  0.367786  1
  H  H76  1  0.237738  0.863511  0.201045  1
  H  H77  1  0.298955  0.737738  0.863511  1
  H  H78  1  0.798955  0.737738  0.636489  1
  H  H79  1  0.344624  0.361350  0.632214  1
  H  H80  1  0.800707  0.428308  0.746507  1
  H  H81  1  0.867786  0.844624  0.361350  1
  H  H82  1  0.762262  0.363511  0.298955  1
  H  H83  1  0.861350  0.632214  0.155376  1
  C  C84  1  0.350422  0.786844  0.811030  1
  C  C85  1  0.213156  0.188970  0.649578  1
  C  C86  1  0.188970  0.850422  0.713156  1
  C  C87  1  0.649578  0.286844  0.688970  1
  C  C88  1  0.688970  0.850422  0.786844  1
  C  C89  1  0.811030  0.350422  0.786844  1
  C  C90  1  0.311030  0.149578  0.213156  1
  C  C91  1  0.649578  0.213156  0.188970  1
  C  C92  1  0.213156  0.311030  0.149578  1
  C  C93  1  0.811030  0.149578  0.286844  1
  C  C94  1  0.286844  0.811030  0.149578  1
  C  C95  1  0.149578  0.286844  0.811030  1
  C  C96  1  0.713156  0.311030  0.350422  1
  C  C97  1  0.350422  0.713156  0.311030  1
  C  C98  1  0.850422  0.786844  0.688970  1
  C  C99  1  0.850422  0.713156  0.188970  1
  C  C100  1  0.713156  0.188970  0.850422  1
  C  C101  1  0.188970  0.649578  0.213156  1
  C  C102  1  0.311030  0.350422  0.713156  1
  C  C103  1  0.786844  0.688970  0.850422  1
  C  C104  1  0.149578  0.213156  0.311030  1
  C  C105  1  0.688970  0.649578  0.286844  1
  C  C106  1  0.286844  0.688970  0.649578  1
  C  C107  1  0.786844  0.811030  0.350422  1
  N  N108  1  0.203449  0.296551  0.703449  1
  N  N109  1  0.796551  0.796551  0.796551  1
  N  N110  1  0.296551  0.703449  0.203449  1
  N  N111  1  0.703449  0.203449  0.296551  1
  N  N112  1  0.703449  0.296551  0.796551  1
  N  N113  1  0.203449  0.203449  0.203449  1
  N  N114  1  0.796551  0.703449  0.296551  1
  N  N115  1  0.296551  0.796551  0.703449  1
  Cl  Cl116  1  0.525901  0.804084  0.533170  1
  Cl  Cl117  1  0.695916  0.033170  0.525901  1
  Cl  Cl118  1  0.804084  0.533170  0.525901  1
  Cl  Cl119  1  0.974099  0.195916  0.033170  1
  Cl  Cl120  1  0.033170  0.525901  0.695916  1
  Cl  Cl121  1  0.195916  0.033170  0.974099  1
  Cl  Cl122  1  0.304084  0.533170  0.974099  1
  Cl  Cl123  1  0.533170  0.974099  0.304084  1
  Cl  Cl124  1  0.804084  0.966830  0.025901  1
  Cl  Cl125  1  0.966830  0.025901  0.804084  1
  Cl  Cl126  1  0.304084  0.966830  0.474099  1
  Cl  Cl127  1  0.195916  0.466830  0.474099  1
  Cl  Cl128  1  0.525901  0.695916  0.033170  1
  Cl  Cl129  1  0.466830  0.474099  0.195916  1
  Cl  Cl130  1  0.695916  0.466830  0.025901  1
  Cl  Cl131  1  0.033170  0.974099  0.195916  1
  Cl  Cl132  1  0.025901  0.804084  0.966830  1
  Cl  Cl133  1  0.025901  0.695916  0.466830  1
  Cl  Cl134  1  0.474099  0.195916  0.466830  1
  Cl  Cl135  1  0.466830  0.025901  0.695916  1
  Cl  Cl136  1  0.966830  0.474099  0.304084  1
  Cl  Cl137  1  0.974099  0.304084  0.533170  1
  Cl  Cl138  1  0.533170  0.525901  0.804084  1
  Cl  Cl139  1  0.474099  0.304084  0.966830  1
