# generated using pymatgen
data_Cs3O
_symmetry_space_group_name_H-M   'P 1'
_cell_length_a   8.79805061
_cell_length_b   8.79805056
_cell_length_c   7.52999368
_cell_angle_alpha   90.00000000
_cell_angle_beta   90.00000000
_cell_angle_gamma   120.00000014
_symmetry_Int_Tables_number   1
_chemical_formula_structural   Cs3O
_chemical_formula_sum   'Cs6 O2'
_cell_volume   504.77536582
_cell_formula_units_Z   2
loop_
 _symmetry_equiv_pos_site_id
 _symmetry_equiv_pos_as_xyz
  1  'x, y, z'
loop_
 _atom_site_type_symbol
 _atom_site_label
 _atom_site_symmetry_multiplicity
 _atom_site_fract_x
 _atom_site_fract_y
 _atom_site_fract_z
 _atom_site_occupancy
  O  O0  1  0.000000  0.000000  0.500000  1
  Cs  Cs1  1  0.000000  0.250092  0.250000  1
  Cs  Cs2  1  0.749908  0.000000  0.750000  1
  Cs  Cs3  1  0.250092  0.250092  0.750000  1
  Cs  Cs4  1  0.749908  0.749908  0.250000  1
  Cs  Cs5  1  0.000000  0.749908  0.750000  1
  Cs  Cs6  1  0.250092  0.000000  0.250000  1
  O  O7  1  0.000000  0.000000  0.000000  1
