# generated using pymatgen
data_CsAsSe2
_symmetry_space_group_name_H-M   'P 1'
_cell_length_a   7.27578852
_cell_length_b   10.80630292
_cell_length_c   15.56320635
_cell_angle_alpha   90.00000000
_cell_angle_beta   90.00000000
_cell_angle_gamma   104.08984554
_symmetry_Int_Tables_number   1
_chemical_formula_structural   CsAsSe2
_chemical_formula_sum   'Cs8 As8 Se16'
_cell_volume   1186.83415079
_cell_formula_units_Z   8
loop_
 _symmetry_equiv_pos_site_id
 _symmetry_equiv_pos_as_xyz
  1  'x, y, z'
loop_
 _atom_site_type_symbol
 _atom_site_label
 _atom_site_symmetry_multiplicity
 _atom_site_fract_x
 _atom_site_fract_y
 _atom_site_fract_z
 _atom_site_occupancy
  Cs  Cs0  1  0.772346  0.563683  0.897863  1
  Cs  Cs1  1  0.145356  0.458118  0.704368  1
  Cs  Cs2  1  0.645356  0.958118  0.795632  1
  Cs  Cs3  1  0.272346  0.063683  0.602137  1
  Cs  Cs4  1  0.727654  0.936317  0.397863  1
  Cs  Cs5  1  0.227654  0.436317  0.102137  1
  Cs  Cs6  1  0.354644  0.041882  0.204368  1
  Cs  Cs7  1  0.854644  0.541882  0.295632  1
  As  As8  1  0.210096  0.669184  0.489349  1
  As  As9  1  0.756011  0.843374  0.063859  1
  As  As10  1  0.789904  0.330816  0.510651  1
  As  As11  1  0.243989  0.156626  0.936141  1
  As  As12  1  0.289904  0.830816  0.989349  1
  As  As13  1  0.710096  0.169184  0.010651  1
  As  As14  1  0.256011  0.343374  0.436141  1
  As  As15  1  0.743989  0.656626  0.563859  1
  Se  Se16  1  0.692598  0.349841  0.089838  1
  Se  Se17  1  0.192598  0.849841  0.410162  1
  Se  Se18  1  0.030592  0.754883  0.098121  1
  Se  Se19  1  0.566382  0.745074  0.178513  1
  Se  Se20  1  0.433618  0.254926  0.821487  1
  Se  Se21  1  0.066382  0.245074  0.321487  1
  Se  Se22  1  0.807402  0.150159  0.589838  1
  Se  Se23  1  0.130964  0.934954  0.880360  1
  Se  Se24  1  0.933618  0.754926  0.678513  1
  Se  Se25  1  0.630964  0.434954  0.619640  1
  Se  Se26  1  0.869036  0.065046  0.119640  1
  Se  Se27  1  0.369036  0.565046  0.380360  1
  Se  Se28  1  0.969408  0.245117  0.901879  1
  Se  Se29  1  0.469408  0.745117  0.598121  1
  Se  Se30  1  0.307402  0.650159  0.910162  1
  Se  Se31  1  0.530592  0.254883  0.401879  1
