# generated using pymatgen
data_SiO2
_symmetry_space_group_name_H-M   'P 1'
_cell_length_a   17.29464778
_cell_length_b   17.29464810
_cell_length_c   12.89612652
_cell_angle_alpha   90.00000000
_cell_angle_beta   90.00000000
_cell_angle_gamma   119.99999938
_symmetry_Int_Tables_number   1
_chemical_formula_structural   SiO2
_chemical_formula_sum   'Si54 O108'
_cell_volume   3340.51457577
_cell_formula_units_Z   54
loop_
 _symmetry_equiv_pos_site_id
 _symmetry_equiv_pos_as_xyz
  1  'x, y, z'
loop_
 _atom_site_type_symbol
 _atom_site_label
 _atom_site_symmetry_multiplicity
 _atom_site_fract_x
 _atom_site_fract_y
 _atom_site_fract_z
 _atom_site_occupancy
  O  O0  1  0.087714  0.912286  0.000000  1
  O  O1  1  0.174912  0.087456  0.647207  1
  O  O2  1  0.087456  0.912544  0.352793  1
  O  O3  1  0.912544  0.825088  0.352793  1
  O  O4  1  0.912286  0.824572  0.000000  1
  O  O5  1  0.570392  0.140784  0.156903  1
  O  O6  1  0.429608  0.859216  0.843098  1
  O  O7  1  0.087456  0.174912  0.647207  1
  O  O8  1  0.663542  0.126575  0.000000  1
  O  O9  1  0.536967  0.873425  0.000000  1
  O  O10  1  0.742400  0.257600  0.860482  1
  O  O11  1  0.742400  0.257600  0.139518  1
  O  O12  1  0.484800  0.742400  0.139518  1
  O  O13  1  0.484800  0.742400  0.860482  1
  O  O14  1  0.175428  0.087714  0.000000  1
  O  O15  1  0.087456  0.912544  0.647207  1
  O  O16  1  0.174912  0.087456  0.352793  1
  O  O17  1  0.688637  0.089225  0.190927  1
  O  O18  1  0.688637  0.089225  0.809073  1
  O  O19  1  0.599413  0.910775  0.190927  1
  O  O20  1  0.599413  0.910775  0.809073  1
  O  O21  1  0.859216  0.429608  0.843098  1
  O  O22  1  0.429608  0.570392  0.156903  1
  O  O23  1  0.873425  0.336458  0.000000  1
  O  O24  1  0.536967  0.663542  0.000000  1
  O  O25  1  0.739748  0.000000  0.308449  1
  O  O26  1  0.739748  0.000000  0.691551  1
  O  O27  1  0.910775  0.311363  0.190927  1
  O  O28  1  0.910775  0.311363  0.809073  1
  O  O29  1  0.599413  0.688637  0.190927  1
  O  O30  1  0.599413  0.688637  0.809073  1
  O  O31  1  0.760525  0.000000  0.103501  1
  O  O32  1  0.760525  0.000000  0.896499  1
  O  O33  1  0.790516  0.000000  0.500000  1
  O  O34  1  0.140784  0.570392  0.156903  1
  O  O35  1  0.570392  0.429608  0.843098  1
  O  O36  1  0.000000  0.260252  0.308449  1
  O  O37  1  0.739748  0.739748  0.308449  1
  O  O38  1  0.000000  0.260252  0.691551  1
  O  O39  1  0.739748  0.739748  0.691551  1
  O  O40  1  0.000000  0.239475  0.103501  1
  O  O41  1  0.000000  0.239475  0.896499  1
  O  O42  1  0.760525  0.760525  0.103501  1
  O  O43  1  0.760525  0.760525  0.896499  1
  O  O44  1  0.089225  0.400587  0.190927  1
  O  O45  1  0.089225  0.400587  0.809073  1
  O  O46  1  0.688637  0.599413  0.190927  1
  O  O47  1  0.688637  0.599413  0.809073  1
  O  O48  1  0.126575  0.463033  0.000000  1
  O  O49  1  0.663542  0.536967  0.000000  1
  O  O50  1  1.000000  0.209484  0.500000  1
  O  O51  1  0.790516  0.790516  0.500000  1
  O  O52  1  0.257600  0.515200  0.860482  1
  O  O53  1  0.257600  0.515200  0.139518  1
  O  O54  1  0.742400  0.484800  0.860482  1
  O  O55  1  0.742400  0.484800  0.139518  1
  O  O56  1  0.209484  0.209484  0.500000  1
  O  O57  1  0.000000  0.790516  0.500000  1
  O  O58  1  0.336458  0.463033  0.000000  1
  O  O59  1  0.873425  0.536967  0.000000  1
  O  O60  1  0.311363  0.400587  0.190927  1
  O  O61  1  0.311363  0.400587  0.809073  1
  O  O62  1  0.910775  0.599413  0.190927  1
  O  O63  1  0.910775  0.599413  0.809073  1
  O  O64  1  0.239475  0.239475  0.103501  1
  O  O65  1  0.239475  0.239475  0.896499  1
  O  O66  1  1.000000  0.760525  0.103501  1
  O  O67  1  1.000000  0.760525  0.896499  1
  O  O68  1  0.260252  0.260252  0.308449  1
  O  O69  1  1.000000  0.739748  0.308449  1
  O  O70  1  0.260252  0.260252  0.691551  1
  O  O71  1  1.000000  0.739748  0.691551  1
  O  O72  1  0.429608  0.570392  0.843098  1
  O  O73  1  0.859216  0.429608  0.156903  1
  O  O74  1  0.209484  0.000000  0.500000  1
  O  O75  1  0.239475  0.000000  0.103501  1
  O  O76  1  0.239475  0.000000  0.896499  1
  O  O77  1  0.400587  0.311363  0.190927  1
  O  O78  1  0.400587  0.311363  0.809073  1
  O  O79  1  0.089225  0.688637  0.190927  1
  O  O80  1  0.089225  0.688637  0.809073  1
  O  O81  1  0.260252  0.000000  0.308449  1
  O  O82  1  0.260252  0.000000  0.691551  1
  O  O83  1  0.463033  0.336458  0.000000  1
  O  O84  1  0.126575  0.663542  0.000000  1
  O  O85  1  0.570392  0.429608  0.156903  1
  O  O86  1  0.140784  0.570392  0.843098  1
  O  O87  1  0.400587  0.089225  0.190927  1
  O  O88  1  0.400587  0.089225  0.809073  1
  O  O89  1  0.311363  0.910775  0.190927  1
  O  O90  1  0.311363  0.910775  0.809073  1
  O  O91  1  0.825088  0.912544  0.352793  1
  O  O92  1  0.912544  0.087456  0.647207  1
  O  O93  1  0.824572  0.912286  0.000000  1
  O  O94  1  0.515200  0.257600  0.139518  1
  O  O95  1  0.515200  0.257600  0.860482  1
  O  O96  1  0.257600  0.742400  0.860482  1
  O  O97  1  0.257600  0.742400  0.139518  1
  O  O98  1  0.463033  0.126575  0.000000  1
  O  O99  1  0.336458  0.873425  0.000000  1
  O  O100  1  0.912544  0.825088  0.647207  1
  O  O101  1  0.570392  0.140784  0.843098  1
  O  O102  1  0.429608  0.859216  0.156903  1
  O  O103  1  0.087714  0.175428  0.000000  1
  O  O104  1  0.087456  0.174912  0.352793  1
  O  O105  1  0.825088  0.912544  0.647207  1
  O  O106  1  0.912544  0.087456  0.352793  1
  O  O107  1  0.912286  0.087714  0.000000  1
  Si  Si108  1  1.000000  0.816888  0.379039  1
  Si  Si109  1  1.000000  0.816888  0.620961  1
  Si  Si110  1  1.000000  0.813769  0.000000  1
  Si  Si111  1  0.000000  0.697356  0.196566  1
  Si  Si112  1  0.000000  0.697356  0.803434  1
  Si  Si113  1  0.153749  0.666354  0.121738  1
  Si  Si114  1  0.153749  0.666354  0.878262  1
  Si  Si115  1  1.000000  0.302644  0.196566  1
  Si  Si116  1  1.000000  0.302644  0.803434  1
  Si  Si117  1  0.000000  0.186231  0.000000  1
  Si  Si118  1  0.000000  0.183112  0.620961  1
  Si  Si119  1  0.000000  0.183112  0.379039  1
  Si  Si120  1  0.153749  0.487395  0.121738  1
  Si  Si121  1  0.153749  0.487395  0.878262  1
  Si  Si122  1  0.333646  0.846251  0.121738  1
  Si  Si123  1  0.333646  0.846251  0.878262  1
  Si  Si124  1  0.512605  0.846251  0.121738  1
  Si  Si125  1  0.512605  0.846251  0.878262  1
  Si  Si126  1  0.333646  0.487395  0.121738  1
  Si  Si127  1  0.333646  0.487395  0.878262  1
  Si  Si128  1  0.183112  0.183112  0.620961  1
  Si  Si129  1  0.183112  0.183112  0.379039  1
  Si  Si130  1  0.186231  0.186231  0.000000  1
  Si  Si131  1  0.302644  0.302644  0.196566  1
  Si  Si132  1  0.302644  0.302644  0.803434  1
  Si  Si133  1  0.512605  0.666354  0.121738  1
  Si  Si134  1  0.512605  0.666354  0.878262  1
  Si  Si135  1  0.183112  0.000000  0.620961  1
  Si  Si136  1  0.183112  0.000000  0.379039  1
  Si  Si137  1  0.186231  0.000000  0.000000  1
  Si  Si138  1  0.302644  0.000000  0.196566  1
  Si  Si139  1  0.302644  0.000000  0.803434  1
  Si  Si140  1  0.487395  0.333646  0.121738  1
  Si  Si141  1  0.487395  0.333646  0.878262  1
  Si  Si142  1  0.697356  0.697356  0.196566  1
  Si  Si143  1  0.697356  0.697356  0.803434  1
  Si  Si144  1  0.813769  0.813769  0.000000  1
  Si  Si145  1  0.816888  0.816888  0.379039  1
  Si  Si146  1  0.816888  0.816888  0.620961  1
  Si  Si147  1  0.666354  0.512605  0.121738  1
  Si  Si148  1  0.666354  0.512605  0.878262  1
  Si  Si149  1  0.487395  0.153749  0.121738  1
  Si  Si150  1  0.487395  0.153749  0.878262  1
  Si  Si151  1  0.666354  0.153749  0.121738  1
  Si  Si152  1  0.666354  0.153749  0.878262  1
  Si  Si153  1  0.846251  0.512605  0.121738  1
  Si  Si154  1  0.846251  0.512605  0.878262  1
  Si  Si155  1  0.846251  0.333646  0.121738  1
  Si  Si156  1  0.846251  0.333646  0.878262  1
  Si  Si157  1  0.697356  0.000000  0.803434  1
  Si  Si158  1  0.697356  0.000000  0.196566  1
  Si  Si159  1  0.813769  0.000000  0.000000  1
  Si  Si160  1  0.816888  0.000000  0.620961  1
  Si  Si161  1  0.816888  0.000000  0.379039  1
