# generated using pymatgen
data_Sn(SeO3)2
_symmetry_space_group_name_H-M   'P 1'
_cell_length_a   4.89503436
_cell_length_b   7.03524957
_cell_length_c   8.70923026
_cell_angle_alpha   90.00000000
_cell_angle_beta   90.00000000
_cell_angle_gamma   109.03948099
_symmetry_Int_Tables_number   1
_chemical_formula_structural   Sn(SeO3)2
_chemical_formula_sum   'Sn2 Se4 O12'
_cell_volume   283.51884562
_cell_formula_units_Z   2
loop_
 _symmetry_equiv_pos_site_id
 _symmetry_equiv_pos_as_xyz
  1  'x, y, z'
loop_
 _atom_site_type_symbol
 _atom_site_label
 _atom_site_symmetry_multiplicity
 _atom_site_fract_x
 _atom_site_fract_y
 _atom_site_fract_z
 _atom_site_occupancy
  Sn  Sn0  1  0.000000  0.500000  0.500000  1
  Sn  Sn1  1  0.500000  0.000000  0.000000  1
  Se  Se2  1  0.825596  0.685371  0.851603  1
  Se  Se3  1  0.325596  0.185371  0.648397  1
  Se  Se4  1  0.174404  0.314629  0.148397  1
  Se  Se5  1  0.674404  0.814629  0.351603  1
  O  O6  1  0.155760  0.741140  0.942337  1
  O  O7  1  0.077919  0.302583  0.341210  1
  O  O8  1  0.236243  0.084149  0.154369  1
  O  O9  1  0.263757  0.415851  0.654369  1
  O  O10  1  0.844240  0.258860  0.057663  1
  O  O11  1  0.655760  0.241140  0.557663  1
  O  O12  1  0.763757  0.915851  0.845631  1
  O  O13  1  0.422081  0.197417  0.841210  1
  O  O14  1  0.577919  0.802583  0.158790  1
  O  O15  1  0.344240  0.758860  0.442337  1
  O  O16  1  0.922081  0.697417  0.658790  1
  O  O17  1  0.736243  0.584149  0.345631  1
