# generated using pymatgen
data_Sr2Cu2Ni(SO)2
_symmetry_space_group_name_H-M   'P 1'
_cell_length_a   3.87836557
_cell_length_b   3.87836573
_cell_length_c   9.73630424
_cell_angle_alpha   101.48844039
_cell_angle_beta   101.48844085
_cell_angle_gamma   90.00000290
_symmetry_Int_Tables_number   1
_chemical_formula_structural   Sr2Cu2Ni(SO)2
_chemical_formula_sum   'Sr2 Cu2 Ni1 S2 O2'
_cell_volume   140.52120037
_cell_formula_units_Z   1
loop_
 _symmetry_equiv_pos_site_id
 _symmetry_equiv_pos_as_xyz
  1  'x, y, z'
loop_
 _atom_site_type_symbol
 _atom_site_label
 _atom_site_symmetry_multiplicity
 _atom_site_fract_x
 _atom_site_fract_y
 _atom_site_fract_z
 _atom_site_occupancy
  O  O0  1  0.500000  0.000000  0.000000  1
  O  O1  1  0.999999  0.500001  0.000000  1
  S  S2  1  0.826148  0.826147  0.652293  1
  S  S3  1  0.173854  0.173854  0.347708  1
  Ni  Ni4  1  0.000000  0.000000  0.000000  1
  Cu  Cu5  1  0.250001  0.750001  0.500000  1
  Cu  Cu6  1  0.750001  0.250000  0.500000  1
  Sr  Sr7  1  0.591549  0.591548  0.183097  1
  Sr  Sr8  1  0.408450  0.408450  0.816903  1
