# generated using pymatgen
data_SbTe7SXeCl(OF4)9
_symmetry_space_group_name_H-M   'P 1'
_cell_length_a   10.57369495
_cell_length_b   10.85859128
_cell_length_c   18.31994395
_cell_angle_alpha   98.10085662
_cell_angle_beta   97.73085400
_cell_angle_gamma   105.92284125
_symmetry_Int_Tables_number   1
_chemical_formula_structural   SbTe7SXeCl(OF4)9
_chemical_formula_sum   'Sb2 Te14 S2 Xe2 Cl2 O18 F72'
_cell_volume   1969.11561308
_cell_formula_units_Z   2
loop_
 _symmetry_equiv_pos_site_id
 _symmetry_equiv_pos_as_xyz
  1  'x, y, z'
loop_
 _atom_site_type_symbol
 _atom_site_label
 _atom_site_symmetry_multiplicity
 _atom_site_fract_x
 _atom_site_fract_y
 _atom_site_fract_z
 _atom_site_occupancy
  Sb  Sb0  1  0.500000  0.000000  0.000000  1
  Sb  Sb1  1  0.000000  0.500000  0.500000  1
  Te  Te2  1  0.294747  0.985438  0.144100  1
  Te  Te3  1  0.705253  0.014562  0.855900  1
  Te  Te4  1  0.364420  0.129850  0.602512  1
  Te  Te5  1  0.767434  0.960415  0.138099  1
  Te  Te6  1  0.627072  0.353538  0.058441  1
  Te  Te7  1  0.662350  0.373172  0.391488  1
  Te  Te8  1  0.895566  0.261240  0.618045  1
  Te  Te9  1  0.104434  0.738760  0.381955  1
  Te  Te10  1  0.232566  0.039585  0.861901  1
  Te  Te11  1  0.372928  0.646462  0.941559  1
  Te  Te12  1  0.337650  0.626828  0.608512  1
  Te  Te13  1  0.635580  0.870150  0.397488  1
  Te  Te14  1  0.871336  0.710888  0.622970  1
  Te  Te15  1  0.128664  0.289112  0.377030  1
  S  S16  1  0.143367  0.456640  0.131352  1
  S  S17  1  0.856633  0.543360  0.868648  1
  Xe  Xe18  1  0.536895  0.373824  0.754137  1
  Xe  Xe19  1  0.463105  0.626176  0.245863  1
  Cl  Cl20  1  0.096558  0.320833  0.040810  1
  Cl  Cl21  1  0.903442  0.679167  0.959190  1
  O  O22  1  0.873591  0.423799  0.883456  1
  O  O23  1  0.360886  0.234851  0.699525  1
  O  O24  1  0.676256  0.990664  0.050023  1
  O  O25  1  0.903353  0.627437  0.532339  1
  O  O26  1  0.126409  0.576201  0.116544  1
  O  O27  1  0.828566  0.371007  0.443636  1
  O  O28  1  0.171434  0.628993  0.556364  1
  O  O29  1  0.730770  0.549268  0.827094  1
  O  O30  1  0.269230  0.450732  0.172906  1
  O  O31  1  0.020028  0.576829  0.407085  1
  O  O32  1  0.979972  0.423171  0.592915  1
  O  O33  1  0.587388  0.188152  -0.002103  1
  O  O34  1  0.555086  0.956210  0.902337  1
  O  O35  1  0.639114  0.765149  0.300475  1
  O  O36  1  0.096647  0.372563  0.467662  1
  O  O37  1  0.323744  0.009336  0.949977  1
  O  O38  1  0.444914  0.043790  0.097663  1
  O  O39  1  0.412612  0.811848  1.002103  1
  F  F40  1  0.942447  0.742813  0.328184  1
  F  F41  1  0.448326  0.333355  0.068710  1
  F  F42  1  0.319310  0.957693  0.796622  1
  F  F43  1  0.133182  0.070915  0.777946  1
  F  F44  1  0.057553  0.257187  0.671816  1
  F  F45  1  0.462808  0.280603  0.573288  1
  F  F46  1  0.602898  0.911682  0.765748  1
  F  F47  1  0.833115  0.794229  0.710524  1
  F  F48  1  0.139082  0.125866  0.921049  1
  F  F49  1  0.767066  0.553650  0.644544  1
  F  F50  1  0.387360  0.549342  0.523398  1
  F  F51  1  0.204481  0.156547  0.563061  1
  F  F52  1  0.230808  0.123646  0.122403  1
  F  F53  1  0.190718  0.609025  0.947839  1
  F  F54  1  0.022641  0.695286  0.683024  1
  F  F55  1  0.866818  0.929085  0.222054  1
  F  F56  1  0.420142  0.791840  0.589199  1
  F  F57  1  0.332281  0.476458  0.886402  1
  F  F58  1  0.864608  0.349672  0.707095  1
  F  F59  1  0.860918  0.874134  0.078951  1
  F  F60  1  0.902283  0.117609  0.145672  1
  F  F61  1  0.034695  0.393736  0.176276  1
  F  F62  1  0.360674  0.201247  0.865194  1
  F  F63  1  0.303203  0.705072  0.698302  1
  F  F64  1  0.274966  0.743211  0.429292  1
  F  F65  1  0.282674  0.267446  0.430077  1
  F  F66  1  0.366638  0.030873  0.511719  1
  F  F67  1  0.633362  0.969127  0.488281  1
  F  F68  1  0.496424  0.368604  0.336789  1
  F  F69  1  0.166885  0.205771  0.289476  1
  F  F70  1  0.696797  0.294928  0.301698  1
  F  F71  1  0.551674  0.666645  0.931290  1
  F  F72  1  0.639326  0.798753  0.134806  1
  F  F73  1  0.232934  0.446350  0.355456  1
  F  F74  1  0.717326  0.732554  0.569923  1
  F  F75  1  0.918890  0.160460  0.531913  1
  F  F76  1  0.397102  0.088318  0.234252  1
  F  F77  1  0.475993  0.897306  0.355239  1
  F  F78  1  0.097717  0.882391  0.854328  1
  F  F79  1  0.725034  0.256789  0.570708  1
  F  F80  1  0.398543  0.576197  0.028652  1
  F  F81  1  0.680690  0.042307  0.203378  1
  F  F82  1  0.818112  0.122941  0.942861  1
  F  F83  1  0.667719  0.523542  0.113598  1
  F  F84  1  0.266380  0.983578  0.634696  1
  F  F85  1  0.847632  0.066842  0.805624  1
  F  F86  1  0.349562  0.842782  0.168611  1
  F  F87  1  0.769192  0.876354  0.877597  1
  F  F88  1  0.965305  0.606264  0.823724  1
  F  F89  1  0.135392  0.650328  0.292905  1
  F  F90  1  0.612640  0.450658  0.476602  1
  F  F91  1  0.181888  0.877059  0.057139  1
  F  F92  1  0.537192  0.719397  0.426712  1
  F  F93  1  0.661960  0.299087  0.149528  1
  F  F94  1  0.579858  0.208160  0.410801  1
  F  F95  1  0.650438  0.157218  0.831389  1
  F  F96  1  0.029924  0.125082  0.390675  1
  F  F97  1  0.271949  0.461386  0.633508  1
  F  F98  1  0.977359  0.304714  0.316976  1
  F  F99  1  0.081110  0.839540  0.468087  1
  F  F100  1  0.809282  0.390975  0.052161  1
  F  F101  1  0.524007  0.102694  0.644761  1
  F  F102  1  0.733620  0.016422  0.365304  1
  F  F103  1  0.728051  0.538614  0.366492  1
  F  F104  1  0.186792  0.894740  0.352137  1
  F  F105  1  0.813208  0.105260  0.647863  1
  F  F106  1  0.601457  0.423803  0.971348  1
  F  F107  1  0.338040  0.700913  0.850472  1
  F  F108  1  0.152368  0.933158  0.194376  1
  F  F109  1  0.795519  0.843453  0.436939  1
  F  F110  1  0.970076  0.874918  0.609325  1
  F  F111  1  0.503576  0.631396  0.663211  1
