# generated using pymatgen
data_NaC2N3
_symmetry_space_group_name_H-M   'P 1'
_cell_length_a   3.64153519
_cell_length_b   11.23052798
_cell_length_c   23.43563805
_cell_angle_alpha   90.00000000
_cell_angle_beta   90.00000000
_cell_angle_gamma   99.11592668
_symmetry_Int_Tables_number   1
_chemical_formula_structural   NaC2N3
_chemical_formula_sum   'Na12 C24 N36'
_cell_volume   946.32716810
_cell_formula_units_Z   12
loop_
 _symmetry_equiv_pos_site_id
 _symmetry_equiv_pos_as_xyz
  1  'x, y, z'
loop_
 _atom_site_type_symbol
 _atom_site_label
 _atom_site_symmetry_multiplicity
 _atom_site_fract_x
 _atom_site_fract_y
 _atom_site_fract_z
 _atom_site_occupancy
  Na  Na0  1  0.693538  0.925193  0.386848  1
  Na  Na1  1  0.705767  0.509574  0.258943  1
  Na  Na2  1  0.763566  0.351100  0.490853  1
  Na  Na3  1  0.236434  0.648900  0.509147  1
  Na  Na4  1  0.205767  0.009574  0.241057  1
  Na  Na5  1  0.263566  0.851100  0.009147  1
  Na  Na6  1  0.306462  0.074807  0.613152  1
  Na  Na7  1  0.806462  0.574807  0.886848  1
  Na  Na8  1  0.794233  0.990426  0.758943  1
  Na  Na9  1  0.736434  0.148900  0.990853  1
  Na  Na10  1  0.193538  0.425193  0.113152  1
  Na  Na11  1  0.294233  0.490426  0.741057  1
  C  C12  1  0.178581  0.377696  0.971522  1
  C  C13  1  0.949753  0.225072  0.294998  1
  C  C14  1  0.652800  0.676386  0.117154  1
  C  C15  1  0.753522  0.626533  0.646677  1
  C  C16  1  0.569047  0.527127  0.406113  1
  C  C17  1  0.550247  0.274928  0.794998  1
  C  C18  1  0.781805  0.233511  0.707819  1
  C  C19  1  0.746478  0.873467  0.146677  1
  C  C20  1  0.930953  0.972873  0.906113  1
  C  C21  1  0.050247  0.774928  0.705002  1
  C  C22  1  0.321419  0.122304  0.471522  1
  C  C23  1  0.253522  0.126533  0.853323  1
  C  C24  1  0.069047  0.027127  0.093887  1
  C  C25  1  0.430953  0.472873  0.593887  1
  C  C26  1  0.246478  0.373467  0.353323  1
  C  C27  1  0.449753  0.725072  0.205002  1
  C  C28  1  0.347200  0.323614  0.882846  1
  C  C29  1  0.847200  0.823614  0.617154  1
  C  C30  1  0.678581  0.877696  0.528478  1
  C  C31  1  0.718195  0.266489  0.207819  1
  C  C32  1  0.152800  0.176386  0.382846  1
  C  C33  1  0.281805  0.733511  0.792181  1
  C  C34  1  0.821419  0.622304  0.028478  1
  C  C35  1  0.218195  0.766489  0.292181  1
  N  N36  1  0.993954  0.137175  0.332504  1
  N  N37  1  0.229016  0.205940  0.896232  1
  N  N38  1  0.846283  0.164721  0.672145  1
  N  N39  1  0.006046  0.862825  0.667496  1
  N  N40  1  0.222787  0.067455  0.051800  1
  N  N41  1  0.093421  0.008875  0.858728  1
  N  N42  1  0.729016  0.705940  0.603768  1
  N  N43  1  0.423552  0.155732  0.802512  1
  N  N44  1  0.692023  0.588383  0.078636  1
  N  N45  1  0.270984  0.294060  0.396232  1
  N  N46  1  0.722787  0.567455  0.448200  1
  N  N47  1  0.230729  0.814266  0.754595  1
  N  N48  1  0.439305  0.147766  0.517776  1
  N  N49  1  0.560695  0.852234  0.482224  1
  N  N50  1  0.506046  0.362825  0.832504  1
  N  N51  1  0.076448  0.344268  0.302512  1
  N  N52  1  0.346283  0.664721  0.827855  1
  N  N53  1  0.769271  0.185734  0.245405  1
  N  N54  1  0.770984  0.794060  0.103768  1
  N  N55  1  0.807977  0.911617  0.578636  1
  N  N56  1  0.777213  0.932545  0.948200  1
  N  N57  1  0.939305  0.647766  0.982224  1
  N  N58  1  0.593421  0.508875  0.641272  1
  N  N59  1  0.153717  0.835279  0.327855  1
  N  N60  1  0.406579  0.491125  0.358728  1
  N  N61  1  0.192023  0.088383  0.421364  1
  N  N62  1  0.653717  0.335279  0.172145  1
  N  N63  1  0.923552  0.655732  0.697488  1
  N  N64  1  0.060695  0.352234  0.017776  1
  N  N65  1  0.493954  0.637175  0.167496  1
  N  N66  1  0.269271  0.685734  0.254595  1
  N  N67  1  0.730729  0.314266  0.745405  1
  N  N68  1  0.576448  0.844268  0.197488  1
  N  N69  1  0.307977  0.411617  0.921364  1
  N  N70  1  0.906579  0.991125  0.141272  1
  N  N71  1  0.277213  0.432545  0.551800  1
