# generated using pymatgen
data_Li5P2N5
_symmetry_space_group_name_H-M   'P 1'
_cell_length_a   8.87928512
_cell_length_b   17.54825916
_cell_length_c   15.27810778
_cell_angle_alpha   29.46859166
_cell_angle_beta   54.46636050
_cell_angle_gamma   59.60239091
_symmetry_Int_Tables_number   1
_chemical_formula_structural   Li5P2N5
_chemical_formula_sum   'Li40 P16 N40'
_cell_volume   953.02308000
_cell_formula_units_Z   8
loop_
 _symmetry_equiv_pos_site_id
 _symmetry_equiv_pos_as_xyz
  1  'x, y, z'
loop_
 _atom_site_type_symbol
 _atom_site_label
 _atom_site_symmetry_multiplicity
 _atom_site_fract_x
 _atom_site_fract_y
 _atom_site_fract_z
 _atom_site_occupancy
  Li  Li0  1  0.039313  0.000006  0.033362  1
  Li  Li1  1  0.126419  0.000003  0.135073  1
  Li  Li2  1  0.073610  0.274521  0.075907  1
  Li  Li3  1  0.103442  0.499999  0.135077  1
  Li  Li4  1  0.393961  0.500004  0.033363  1
  Li  Li5  1  0.274473  0.274520  0.375047  1
  Li  Li6  1  0.061469  0.195326  0.677555  1
  Li  Li7  1  0.061463  0.804676  0.068197  1
  Li  Li8  1  0.510174  0.000004  0.497271  1
  Li  Li9  1  0.692774  0.304683  0.068179  1
  Li  Li10  1  0.500000  0.250000  0.500000  1
  Li  Li11  1  0.641165  0.499985  0.073489  1
  Li  Li12  1  0.075230  0.500020  0.682164  1
  Li  Li13  1  0.307227  0.195317  0.931821  1
  Li  Li14  1  0.073604  0.725478  0.624966  1
  Li  Li15  1  0.307227  0.804685  0.322443  1
  Li  Li16  1  0.489826  0.499996  0.502729  1
  Li  Li17  1  0.725528  0.774523  0.075903  1
  Li  Li18  1  0.938531  0.304674  0.322445  1
  Li  Li19  1  0.725527  0.225480  0.624953  1
  Li  Li20  1  0.500000  0.250000  0.000000  1
  Li  Li21  1  0.939591  0.499996  0.317821  1
  Li  Li22  1  0.896558  0.000001  0.864923  1
  Li  Li23  1  0.711873  -0.000003  0.073475  1
  Li  Li24  1  0.288127  0.500003  0.926525  1
  Li  Li25  1  0.060409  0.000004  0.682179  1
  Li  Li26  1  0.500000  0.750000  0.500000  1
  Li  Li27  1  0.274472  0.725477  0.924097  1
  Li  Li28  1  0.995283  0.500008  0.497277  1
  Li  Li29  1  0.692773  0.695315  0.677557  1
  Li  Li30  1  0.926390  0.225479  0.924093  1
  Li  Li31  1  0.926396  0.774522  0.375034  1
  Li  Li32  1  0.500000  0.750000  0.000000  1
  Li  Li33  1  0.924770  -0.000020  0.317836  1
  Li  Li34  1  0.873581  0.499997  0.864927  1
  Li  Li35  1  0.358835  0.000015  0.926511  1
  Li  Li36  1  0.960687  0.499994  0.966638  1
  Li  Li37  1  0.004717  -0.000008  0.502723  1
  Li  Li38  1  0.938536  0.695324  0.931803  1
  Li  Li39  1  0.606039  -0.000004  0.966637  1
  N  N40  1  0.225914  0.155822  0.222393  1
  N  N41  1  0.230981  0.000011  0.527970  1
  N  N42  1  0.230549  0.318594  0.212370  1
  N  N43  1  0.533923  0.154670  0.218076  1
  N  N44  1  0.233293  0.499997  0.211059  1
  N  N45  1  0.165869  -0.000005  0.772479  1
  N  N46  1  0.220579  0.654673  0.218072  1
  N  N47  1  0.482345  0.155810  0.465972  1
  N  N48  1  0.220578  0.345341  0.527411  1
  N  N49  1  0.213074  0.500021  0.527958  1
  N  N50  1  0.792461  0.318554  0.150482  1
  N  N51  1  0.472125  0.000002  0.776357  1
  N  N52  1  0.527875  0.499998  0.223643  1
  N  N53  1  0.207539  0.181446  0.849518  1
  N  N54  1  0.207543  0.818590  0.212365  1
  N  N55  1  0.517656  0.655830  0.222382  1
  N  N56  1  0.779422  0.154659  0.472589  1
  N  N57  1  0.517655  0.344190  0.534028  1
  N  N58  1  0.210819  -0.000008  0.227534  1
  N  N59  1  0.155384  0.500004  0.788949  1
  N  N60  1  0.834131  0.500005  0.227521  1
  N  N61  1  0.766707  0.000003  0.788941  1
  N  N62  1  0.466074  0.654667  0.472585  1
  N  N63  1  0.225915  0.844185  0.534037  1
  N  N64  1  0.466077  0.345330  0.781924  1
  N  N65  1  0.769019  0.499989  0.472030  1
  N  N66  1  0.769447  0.818574  0.150457  1
  N  N67  1  0.475160  0.500004  0.776357  1
  N  N68  1  0.524840  -0.000004  0.223643  1
  N  N69  1  0.230553  0.681426  0.849543  1
  N  N70  1  0.769451  0.181406  0.787630  1
  N  N71  1  0.774086  0.344178  0.777607  1
  N  N72  1  0.774085  0.655815  0.465963  1
  N  N73  1  0.533926  0.845333  0.527415  1
  N  N74  1  0.789181  0.500008  0.772466  1
  N  N75  1  0.844616  -0.000004  0.211051  1
  N  N76  1  0.482344  0.844170  0.777618  1
  N  N77  1  0.792457  0.681410  0.787635  1
  N  N78  1  0.786926  -0.000021  0.472042  1
  N  N79  1  0.779421  0.845327  0.781928  1
  P  P80  1  0.301055  0.166574  0.290167  1
  P  P81  1  0.387558  -0.000012  0.702847  1
  P  P82  1  0.296519  0.499998  0.290532  1
  P  P83  1  0.714556  0.166574  0.376655  1
  P  P84  1  0.285444  0.333426  0.623345  1
  P  P85  1  0.285463  0.666610  0.290147  1
  P  P86  1  0.703481  0.000002  0.709468  1
  P  P87  1  0.612442  0.500012  0.297153  1
  P  P88  1  0.377586  0.499999  0.709467  1
  P  P89  1  0.293238  0.000003  0.297170  1
  P  P90  1  0.698945  0.666555  0.376696  1
  P  P91  1  0.698945  0.333426  0.709833  1
  P  P92  1  0.301055  0.833445  0.623304  1
  P  P93  1  0.706762  0.499997  0.702830  1
  P  P94  1  0.622414  0.000001  0.290533  1
  P  P95  1  0.714537  0.833390  0.709853  1
