# generated using pymatgen
data_Tm2Mn3Si5
_symmetry_space_group_name_H-M   'P 1'
_cell_length_a   5.36936182
_cell_length_b   10.52898960
_cell_length_c   10.52898960
_cell_angle_alpha   90.00000000
_cell_angle_beta   90.00000000
_cell_angle_gamma   90.00000000
_symmetry_Int_Tables_number   1
_chemical_formula_structural   Tm2Mn3Si5
_chemical_formula_sum   'Tm8 Mn12 Si20'
_cell_volume   595.24542173
_cell_formula_units_Z   4
loop_
 _symmetry_equiv_pos_site_id
 _symmetry_equiv_pos_as_xyz
  1  'x, y, z'
loop_
 _atom_site_type_symbol
 _atom_site_label
 _atom_site_symmetry_multiplicity
 _atom_site_fract_x
 _atom_site_fract_y
 _atom_site_fract_z
 _atom_site_occupancy
  Tm  Tm0  1  0.000000  0.076065  0.236126  1
  Tm  Tm1  1  0.000000  0.763874  0.076065  1
  Tm  Tm2  1  0.000000  0.236126  0.923935  1
  Tm  Tm3  1  0.000000  0.923935  0.763874  1
  Tm  Tm4  1  0.500000  0.576065  0.263874  1
  Tm  Tm5  1  0.500000  0.423935  0.736126  1
  Tm  Tm6  1  0.500000  0.736126  0.576065  1
  Tm  Tm7  1  0.500000  0.263874  0.423935  1
  Mn  Mn8  1  0.250000  0.000000  0.500000  1
  Mn  Mn9  1  0.250000  0.500000  0.000000  1
  Mn  Mn10  1  0.750000  0.000000  0.500000  1
  Mn  Mn11  1  0.750000  0.500000  0.000000  1
  Mn  Mn12  1  0.000000  0.378574  0.354078  1
  Mn  Mn13  1  0.000000  0.645922  0.378574  1
  Mn  Mn14  1  0.000000  0.354078  0.621426  1
  Mn  Mn15  1  0.000000  0.621426  0.645922  1
  Mn  Mn16  1  0.500000  0.878574  0.145922  1
  Mn  Mn17  1  0.500000  0.121426  0.854078  1
  Mn  Mn18  1  0.500000  0.854078  0.878574  1
  Mn  Mn19  1  0.500000  0.145922  0.121426  1
  Si  Si20  1  0.255404  0.000000  0.000000  1
  Si  Si21  1  0.244596  0.500000  0.500000  1
  Si  Si22  1  0.744596  0.000000  0.000000  1
  Si  Si23  1  0.755404  0.500000  0.500000  1
  Si  Si24  1  0.250000  0.174496  0.674497  1
  Si  Si25  1  0.250000  0.325504  0.174496  1
  Si  Si26  1  0.250000  0.674497  0.825503  1
  Si  Si27  1  0.250000  0.825503  0.325504  1
  Si  Si28  1  0.750000  0.825503  0.325504  1
  Si  Si29  1  0.750000  0.674497  0.825503  1
  Si  Si30  1  0.750000  0.325504  0.174496  1
  Si  Si31  1  0.750000  0.174496  0.674497  1
  Si  Si32  1  0.000000  0.185569  0.474530  1
  Si  Si33  1  0.000000  0.525470  0.185569  1
  Si  Si34  1  0.000000  0.474530  0.814431  1
  Si  Si35  1  0.000000  0.814431  0.525470  1
  Si  Si36  1  0.500000  0.685569  0.025470  1
  Si  Si37  1  0.500000  0.314431  0.974530  1
  Si  Si38  1  0.500000  0.974530  0.685569  1
  Si  Si39  1  0.500000  0.025470  0.314431  1
