# generated using pymatgen
data_ReC2(IO)2
_symmetry_space_group_name_H-M   'P 1'
_cell_length_a   13.30969048
_cell_length_b   13.30969088
_cell_length_c   13.30969062
_cell_angle_alpha   31.85772495
_cell_angle_beta   31.85772205
_cell_angle_gamma   31.85772207
_symmetry_Int_Tables_number   1
_chemical_formula_structural   ReC2(IO)2
_chemical_formula_sum   'Re3 C6 I6 O6'
_cell_volume   583.47111259
_cell_formula_units_Z   3
loop_
 _symmetry_equiv_pos_site_id
 _symmetry_equiv_pos_as_xyz
  1  'x, y, z'
loop_
 _atom_site_type_symbol
 _atom_site_label
 _atom_site_symmetry_multiplicity
 _atom_site_fract_x
 _atom_site_fract_y
 _atom_site_fract_z
 _atom_site_occupancy
  Re  Re0  1  0.908101  0.908101  0.908101  1
  Re  Re1  1  0.000000  0.000000  0.000000  1
  Re  Re2  1  0.091899  0.091899  0.091899  1
  C  C3  1  0.341131  0.112839  0.906329  1
  C  C4  1  0.093671  0.658869  0.887161  1
  C  C5  1  0.112839  0.906329  0.341131  1
  C  C6  1  0.887161  0.093671  0.658869  1
  C  C7  1  0.658869  0.887161  0.093671  1
  C  C8  1  0.906329  0.341131  0.112839  1
  I  I9  1  0.258338  0.952516  0.658392  1
  I  I10  1  0.047484  0.341608  0.741662  1
  I  I11  1  0.658392  0.258338  0.952516  1
  I  I12  1  0.952516  0.658392  0.258338  1
  I  I13  1  0.341608  0.741662  0.047484  1
  I  I14  1  0.741662  0.047484  0.341608  1
  O  O15  1  0.209209  0.504464  0.876674  1
  O  O16  1  0.495536  0.123326  0.790791  1
  O  O17  1  0.504464  0.876674  0.209209  1
  O  O18  1  0.123326  0.790791  0.495536  1
  O  O19  1  0.876674  0.209209  0.504464  1
  O  O20  1  0.790791  0.495536  0.123326  1
