# generated using pymatgen
data_Ga(MoS2)4
_symmetry_space_group_name_H-M   'P 1'
_cell_length_a   6.91163489
_cell_length_b   6.91163473
_cell_length_c   6.91163484
_cell_angle_alpha   60.72409512
_cell_angle_beta   60.72409599
_cell_angle_gamma   60.72409878
_symmetry_Int_Tables_number   1
_chemical_formula_structural   Ga(MoS2)4
_chemical_formula_sum   'Ga1 Mo4 S8'
_cell_volume   237.28295010
_cell_formula_units_Z   1
loop_
 _symmetry_equiv_pos_site_id
 _symmetry_equiv_pos_as_xyz
  1  'x, y, z'
loop_
 _atom_site_type_symbol
 _atom_site_label
 _atom_site_symmetry_multiplicity
 _atom_site_fract_x
 _atom_site_fract_y
 _atom_site_fract_z
 _atom_site_occupancy
  Ga  Ga0  1  0.999294  0.999294  0.999294  1
  Mo  Mo1  1  0.810233  0.396523  0.396523  1
  Mo  Mo2  1  0.401937  0.401937  0.401937  1
  Mo  Mo3  1  0.396523  0.396523  0.810233  1
  Mo  Mo4  1  0.396523  0.810233  0.396523  1
  S  S5  1  0.632367  0.632367  0.632367  1
  S  S6  1  0.137996  0.592952  0.137996  1
  S  S7  1  0.136689  0.136689  0.136689  1
  S  S8  1  0.137996  0.137996  0.592952  1
  S  S9  1  0.637231  0.637231  0.098729  1
  S  S10  1  0.592952  0.137996  0.137996  1
  S  S11  1  0.098729  0.637231  0.637231  1
  S  S12  1  0.637231  0.098729  0.637231  1
