# generated using pymatgen
data_TlBr
_symmetry_space_group_name_H-M   'P 1'
_cell_length_a   4.47338143
_cell_length_b   5.06230668
_cell_length_c   6.71707445
_cell_angle_alpha   90.00000000
_cell_angle_beta   109.45010045
_cell_angle_gamma   90.00000000
_symmetry_Int_Tables_number   1
_chemical_formula_structural   TlBr
_chemical_formula_sum   'Tl2 Br2'
_cell_volume   143.43160226
_cell_formula_units_Z   2
loop_
 _symmetry_equiv_pos_site_id
 _symmetry_equiv_pos_as_xyz
  1  'x, y, z'
loop_
 _atom_site_type_symbol
 _atom_site_label
 _atom_site_symmetry_multiplicity
 _atom_site_fract_x
 _atom_site_fract_y
 _atom_site_fract_z
 _atom_site_occupancy
  Tl  Tl0  1  0.614296  0.250000  0.228592  1
  Tl  Tl1  1  0.385704  0.750000  0.771408  1
  Br  Br2  1  0.132398  0.750000  0.264796  1
  Br  Br3  1  0.867602  0.250000  0.735204  1
