# generated using pymatgen
data_SnPSe3
_symmetry_space_group_name_H-M   'P 1'
_cell_length_a   6.95954088
_cell_length_b   7.89508354
_cell_length_c   9.90515906
_cell_angle_alpha   90.00000000
_cell_angle_beta   91.11950411
_cell_angle_gamma   90.00000000
_symmetry_Int_Tables_number   1
_chemical_formula_structural   SnPSe3
_chemical_formula_sum   'Sn4 P4 Se12'
_cell_volume   544.14653443
_cell_formula_units_Z   4
loop_
 _symmetry_equiv_pos_site_id
 _symmetry_equiv_pos_as_xyz
  1  'x, y, z'
loop_
 _atom_site_type_symbol
 _atom_site_label
 _atom_site_symmetry_multiplicity
 _atom_site_fract_x
 _atom_site_fract_y
 _atom_site_fract_z
 _atom_site_occupancy
  P  P0  1  0.945226  0.897106  0.568490  1
  P  P1  1  0.554774  0.397106  0.931510  1
  P  P2  1  0.054774  0.102894  0.431510  1
  P  P3  1  0.445226  0.602894  0.068490  1
  Se  Se4  1  0.110024  0.989798  0.232027  1
  Se  Se5  1  0.389976  0.489798  0.267973  1
  Se  Se6  1  0.889976  0.010202  0.767973  1
  Se  Se7  1  0.610024  0.510202  0.732027  1
  Se  Se8  1  0.338334  0.193896  0.937798  1
  Se  Se9  1  0.161666  0.693896  0.562202  1
  Se  Se10  1  0.661666  0.806104  0.062202  1
  Se  Se11  1  0.838334  0.306104  0.437798  1
  Se  Se12  1  0.825188  0.305751  0.034249  1
  Se  Se13  1  0.674812  0.805751  0.465751  1
  Se  Se14  1  0.174812  0.694249  0.965751  1
  Se  Se15  1  0.325188  0.194249  0.534249  1
  Sn  Sn16  1  0.963916  0.626939  0.213135  1
  Sn  Sn17  1  0.536084  0.126939  0.286865  1
  Sn  Sn18  1  0.036084  0.373061  0.786865  1
  Sn  Sn19  1  0.463916  0.873061  0.713135  1
