# generated using pymatgen
data_Ca8H3N4
_symmetry_space_group_name_H-M   'P 1'
_cell_length_a   7.18303581
_cell_length_b   7.18130861
_cell_length_c   35.91387264
_cell_angle_alpha   60.05558806
_cell_angle_beta   60.06565573
_cell_angle_gamma   60.05664474
_symmetry_Int_Tables_number   1
_chemical_formula_structural   Ca8H3N4
_chemical_formula_sum   'Ca40 H15 N20'
_cell_volume   1311.72291757
_cell_formula_units_Z   5
loop_
 _symmetry_equiv_pos_site_id
 _symmetry_equiv_pos_as_xyz
  1  'x, y, z'
loop_
 _atom_site_type_symbol
 _atom_site_label
 _atom_site_symmetry_multiplicity
 _atom_site_fract_x
 _atom_site_fract_y
 _atom_site_fract_z
 _atom_site_occupancy
  Ca  Ca0  1  0.263414  0.259133  0.053116  1
  Ca  Ca1  1  0.263766  0.265084  0.142458  1
  Ca  Ca2  1  0.261920  0.715602  0.051974  1
  Ca  Ca3  1  0.712241  0.259421  0.052767  1
  Ca  Ca4  1  0.261709  0.261574  0.252325  1
  Ca  Ca5  1  0.287715  0.735353  0.147249  1
  Ca  Ca6  1  0.736186  0.741049  0.057553  1
  Ca  Ca7  1  0.736482  0.288195  0.146896  1
  Ca  Ca8  1  0.263737  0.263716  0.342464  1
  Ca  Ca9  1  0.263669  0.712319  0.252763  1
  Ca  Ca10  1  0.738198  0.737347  0.148036  1
  Ca  Ca11  1  0.712243  0.263641  0.252763  1
  Ca  Ca12  1  0.261619  0.261601  0.452326  1
  Ca  Ca13  1  0.287707  0.736264  0.347256  1
  Ca  Ca14  1  0.736214  0.736309  0.257550  1
  Ca  Ca15  1  0.736263  0.287685  0.347258  1
  Ca  Ca16  1  0.263727  0.712304  0.452749  1
  Ca  Ca17  1  0.263747  0.263724  0.542458  1
  Ca  Ca18  1  0.738364  0.738385  0.347683  1
  Ca  Ca19  1  0.712284  0.263721  0.452753  1
  Ca  Ca20  1  0.261636  0.261615  0.652317  1
  Ca  Ca21  1  0.287716  0.736279  0.547247  1
  Ca  Ca22  1  0.736273  0.287696  0.547251  1
  Ca  Ca23  1  0.736253  0.736276  0.457542  1
  Ca  Ca24  1  0.263786  0.263691  0.742450  1
  Ca  Ca25  1  0.263737  0.712315  0.652742  1
  Ca  Ca26  1  0.738381  0.738399  0.547674  1
  Ca  Ca27  1  0.712293  0.263736  0.652744  1
  Ca  Ca28  1  0.261802  0.262653  0.851964  1
  Ca  Ca29  1  0.287757  0.736359  0.747237  1
  Ca  Ca30  1  0.736263  0.736284  0.657536  1
  Ca  Ca31  1  0.736331  0.287681  0.747237  1
  Ca  Ca32  1  0.263814  0.258951  0.942447  1
  Ca  Ca33  1  0.263518  0.711805  0.853104  1
  Ca  Ca34  1  0.738291  0.738426  0.747675  1
  Ca  Ca35  1  0.712285  0.264647  0.852751  1
  Ca  Ca36  1  0.287759  0.740579  0.947233  1
  Ca  Ca37  1  0.736234  0.734916  0.857542  1
  Ca  Ca38  1  0.738080  0.284398  0.948026  1
  Ca  Ca39  1  0.736586  0.740867  0.946884  1
  H  H40  1  0.000000  0.000000  0.000000  1
  H  H41  1  0.500000  0.000000  0.000000  1
  H  H42  1  0.499980  0.999915  0.200000  1
  H  H43  1  0.500002  0.000009  0.399996  1
  H  H44  1  0.999952  0.500002  0.200001  1
  H  H45  1  0.000006  0.999155  0.099994  1
  H  H46  1  0.000009  0.000017  0.299991  1
  H  H47  1  0.499998  0.999991  0.600004  1
  H  H48  1  0.000009  0.500001  0.399996  1
  H  H49  1  0.999994  0.000845  0.900006  1
  H  H50  1  0.500020  0.000085  0.800000  1
  H  H51  1  0.999991  0.999983  0.700009  1
  H  H52  1  0.999991  0.499999  0.600004  1
  H  H53  1  0.000000  0.000000  0.500000  1
  H  H54  1  0.000048  0.499998  0.799999  1
  N  N55  1  0.500000  0.500000  0.000000  1
  N  N56  1  0.499948  -0.000274  0.100143  1
  N  N57  1  0.500084  0.500399  0.099842  1
  N  N58  1  0.000013  0.500019  0.299988  1
  N  N59  1  0.500005  0.500158  0.199993  1
  N  N60  1  0.500018  0.000028  0.299990  1
  N  N61  1  0.500020  0.500008  0.299991  1
  N  N62  1  1.000007  0.500325  0.099990  1
  N  N63  1  0.000000  0.500000  0.500000  1
  N  N64  1  0.500014  0.500013  0.399993  1
  N  N65  1  0.500000  0.000000  0.500000  1
  N  N66  1  0.500000  0.500000  0.500000  1
  N  N67  1  0.999987  0.499981  0.700012  1
  N  N68  1  0.499982  0.999972  0.700010  1
  N  N69  1  0.499986  0.499987  0.600007  1
  N  N70  1  0.499980  0.499992  0.700009  1
  N  N71  1  0.499995  0.499843  0.800007  1
  N  N72  1  0.500052  1.000274  0.899857  1
  N  N73  1  0.499916  0.499601  0.900158  1
  N  N74  1  -0.000007  0.499675  0.900010  1
