# generated using pymatgen
data_V2Cu3H24(OF)12
_symmetry_space_group_name_H-M   'P 1'
_cell_length_a   7.60513655
_cell_length_b   7.59866039
_cell_length_c   8.28654825
_cell_angle_alpha   88.22313514
_cell_angle_beta   90.06279564
_cell_angle_gamma   85.68928892
_symmetry_Int_Tables_number   1
_chemical_formula_structural   V2Cu3H24(OF)12
_chemical_formula_sum   'V2 Cu3 H24 O12 F12'
_cell_volume   477.28298821
_cell_formula_units_Z   1
loop_
 _symmetry_equiv_pos_site_id
 _symmetry_equiv_pos_as_xyz
  1  'x, y, z'
loop_
 _atom_site_type_symbol
 _atom_site_label
 _atom_site_symmetry_multiplicity
 _atom_site_fract_x
 _atom_site_fract_y
 _atom_site_fract_z
 _atom_site_occupancy
  V  V0  1  0.000000  0.500000  0.000000  1
  V  V1  1  0.500000  0.000000  0.500000  1
  Cu  Cu2  1  0.000000  0.000000  0.000000  1
  Cu  Cu3  1  0.000000  0.500000  0.500000  1
  Cu  Cu4  1  0.500000  0.500000  0.000000  1
  F  F5  1  0.898064  0.279312  0.030924  1
  F  F6  1  0.101936  0.720688  0.969076  1
  F  F7  1  0.893665  0.581860  0.213364  1
  F  F8  1  0.106335  0.418140  0.786636  1
  F  F9  1  0.783081  0.596843  0.885618  1
  F  F10  1  0.216919  0.403157  0.114382  1
  F  F11  1  0.592709  0.090848  0.293727  1
  F  F12  1  0.407291  0.909152  0.706273  1
  F  F13  1  0.751771  0.992212  0.587919  1
  F  F14  1  0.248229  0.007788  0.412081  1
  F  F15  1  0.550751  0.763138  0.419192  1
  F  F16  1  0.449249  0.236863  0.580808  1
  O  O17  1  0.902756  0.926464  0.211491  1
  O  O18  1  0.097244  0.073536  0.788509  1
  O  O19  1  0.760048  0.971126  0.897921  1
  O  O20  1  0.239952  0.028874  0.102079  1
  O  O21  1  0.968003  0.248240  0.452557  1
  O  O22  1  0.031997  0.751760  0.547443  1
  O  O23  1  0.758430  0.521488  0.581586  1
  O  O24  1  0.241570  0.478512  0.418414  1
  O  O25  1  0.506221  0.255227  0.906573  1
  O  O26  1  0.493779  0.744773  0.093427  1
  O  O27  1  0.596611  0.421910  0.212980  1
  O  O28  1  0.403389  0.578090  0.787020  1
  H  H29  1  0.786569  0.988526  0.237713  1
  H  H30  1  0.213431  0.011474  0.762287  1
  H  H31  1  0.889236  0.796028  0.215984  1
  H  H32  1  0.110764  0.203972  0.784016  1
  H  H33  1  0.765211  0.976516  0.776055  1
  H  H34  1  0.234789  0.023484  0.223945  1
  H  H35  1  0.719942  0.853671  0.926634  1
  H  H36  1  0.280058  0.146329  0.073366  1
  H  H37  1  0.880581  0.184997  0.514879  1
  H  H38  1  0.119419  0.815003  0.485121  1
  H  H39  1  0.074644  0.165206  0.444022  1
  H  H40  1  0.925356  0.834794  0.555978  1
  H  H41  1  0.757533  0.552671  0.698529  1
  H  H42  1  0.242467  0.447329  0.301471  1
  H  H43  1  0.674811  0.607922  0.521447  1
  H  H44  1  0.325189  0.392078  0.478553  1
  H  H45  1  0.490182  0.262423  0.787189  1
  H  H46  1  0.509818  0.737577  0.212811  1
  H  H47  1  0.607986  0.167897  0.926955  1
  H  H48  1  0.392014  0.832103  0.073045  1
  H  H49  1  0.717618  0.462750  0.221892  1
  H  H50  1  0.282382  0.537250  0.778108  1
  H  H51  1  0.603188  0.292271  0.239044  1
  H  H52  1  0.396812  0.707729  0.760956  1
