# generated using pymatgen
data_Na2ZnP4(H4O5)4
_symmetry_space_group_name_H-M   'P 1'
_cell_length_a   7.37077311
_cell_length_b   10.95830347
_cell_length_c   10.96146068
_cell_angle_alpha   90.00000000
_cell_angle_beta   102.07523444
_cell_angle_gamma   90.00000000
_symmetry_Int_Tables_number   1
_chemical_formula_structural   Na2ZnP4(H4O5)4
_chemical_formula_sum   'Na4 Zn2 P8 H32 O40'
_cell_volume   865.78007163
_cell_formula_units_Z   2
loop_
 _symmetry_equiv_pos_site_id
 _symmetry_equiv_pos_as_xyz
  1  'x, y, z'
loop_
 _atom_site_type_symbol
 _atom_site_label
 _atom_site_symmetry_multiplicity
 _atom_site_fract_x
 _atom_site_fract_y
 _atom_site_fract_z
 _atom_site_occupancy
  Na  Na0  1  0.733228  0.172237  0.454134  1
  Na  Na1  1  0.766772  0.672237  0.045866  1
  Na  Na2  1  0.266772  0.827763  0.545866  1
  Na  Na3  1  0.233228  0.327763  0.954134  1
  Zn  Zn4  1  0.500000  0.500000  0.500000  1
  Zn  Zn5  1  0.000000  0.000000  0.000000  1
  P  P6  1  0.249019  0.240802  0.415207  1
  P  P7  1  0.250981  0.740802  0.084793  1
  P  P8  1  0.750981  0.759198  0.584793  1
  P  P9  1  0.749019  0.259198  0.915207  1
  P  P10  1  0.729310  0.458547  0.276000  1
  P  P11  1  0.770690  0.958546  0.224000  1
  P  P12  1  0.270690  0.541454  0.724000  1
  P  P13  1  0.229310  0.041453  0.776000  1
  O  O14  1  0.409268  0.157960  0.406775  1
  O  O15  1  0.090732  0.657960  0.093225  1
  O  O16  1  0.590732  0.842040  0.593225  1
  O  O17  1  0.909268  0.342040  0.906775  1
  O  O18  1  0.127820  0.268553  0.276688  1
  O  O19  1  0.372180  0.768553  0.223312  1
  O  O20  1  0.872180  0.731447  0.723312  1
  O  O21  1  0.627820  0.231447  0.776688  1
  O  O22  1  0.098709  0.175141  0.476338  1
  O  O23  1  0.401291  0.675141  0.023662  1
  O  O24  1  0.901291  0.824859  0.523662  1
  O  O25  1  0.598709  0.324859  0.976338  1
  O  O26  1  0.298030  0.363929  0.481115  1
  O  O27  1  0.201970  0.863929  0.018885  1
  O  O28  1  0.701970  0.636071  0.518885  1
  O  O29  1  0.798030  0.136071  0.981115  1
  O  O30  1  0.880418  0.544639  0.360099  1
  O  O31  1  0.619582  0.044639  0.139901  1
  O  O32  1  0.119582  0.455361  0.639901  1
  O  O33  1  0.380418  0.955361  0.860099  1
  O  O34  1  0.725130  0.484467  0.139812  1
  O  O35  1  0.774870  0.984467  0.360188  1
  O  O36  1  0.274870  0.515533  0.860188  1
  O  O37  1  0.225130  0.015533  0.639812  1
  O  O38  1  0.792349  0.320827  0.307250  1
  O  O39  1  0.707651  0.820827  0.192750  1
  O  O40  1  0.207651  0.679173  0.692750  1
  O  O41  1  0.292349  0.179173  0.807250  1
  O  O42  1  0.545068  0.472508  0.318117  1
  O  O43  1  0.954932  0.972508  0.181883  1
  O  O44  1  0.454932  0.527492  0.681883  1
  O  O45  1  0.045068  0.027492  0.818117  1
  O  O46  1  0.723499  0.369806  0.583888  1
  O  O47  1  0.776501  0.869806  0.916112  1
  O  O48  1  0.276501  0.630194  0.416112  1
  O  O49  1  0.223499  0.130194  0.083888  1
  O  O50  1  0.735055  0.066622  0.654002  1
  O  O51  1  0.764945  0.566622  0.845998  1
  O  O52  1  0.264945  0.933378  0.345998  1
  O  O53  1  0.235055  0.433378  0.154002  1
  H  H54  1  0.334556  0.012166  0.368136  1
  H  H55  1  0.165443  0.512166  0.131864  1
  H  H56  1  0.665443  0.987834  0.631864  1
  H  H57  1  0.834557  0.487834  0.868136  1
  H  H58  1  0.153261  0.109886  0.543609  1
  H  H59  1  0.346739  0.609886  0.956391  1
  H  H60  1  0.846739  0.890114  0.456391  1
  H  H61  1  0.653261  0.390114  0.043609  1
  H  H62  1  0.823920  0.587400  0.426544  1
  H  H63  1  0.676080  0.087400  0.073456  1
  H  H64  1  0.176080  0.412600  0.573456  1
  H  H65  1  0.323920  0.912600  0.926544  1
  H  H66  1  0.915417  0.299180  0.286437  1
  H  H67  1  0.584583  0.799180  0.213563  1
  H  H68  1  0.084583  0.700820  0.713563  1
  H  H69  1  0.415417  0.200820  0.786437  1
  H  H70  1  0.689695  0.335186  0.659656  1
  H  H71  1  0.810305  0.835186  0.840344  1
  H  H72  1  0.310305  0.664814  0.340344  1
  H  H73  1  0.189695  0.164814  0.159656  1
  H  H74  1  0.847606  0.406284  0.611027  1
  H  H75  1  0.652394  0.906284  0.888973  1
  H  H76  1  0.152394  0.593716  0.388973  1
  H  H77  1  0.347606  0.093716  0.111027  1
  H  H78  1  0.670438  0.154003  0.727539  1
  H  H79  1  0.829562  0.654003  0.772461  1
  H  H80  1  0.329562  0.845997  0.272461  1
  H  H81  1  0.170438  0.345997  0.227539  1
  H  H82  1  0.858017  0.044132  0.709075  1
  H  H83  1  0.641983  0.544132  0.790925  1
  H  H84  1  0.141983  0.955868  0.290925  1
  H  H85  1  0.358017  0.455868  0.209075  1
