# generated using pymatgen
data_Pr(GeRu)2
_symmetry_space_group_name_H-M   'P 1'
_cell_length_a   4.31291286
_cell_length_b   4.31291273
_cell_length_c   5.91745516
_cell_angle_alpha   111.37207593
_cell_angle_beta   111.37207519
_cell_angle_gamma   89.99999789
_symmetry_Int_Tables_number   1
_chemical_formula_structural   Pr(GeRu)2
_chemical_formula_sum   'Pr1 Ge2 Ru2'
_cell_volume   94.32791643
_cell_formula_units_Z   1
loop_
 _symmetry_equiv_pos_site_id
 _symmetry_equiv_pos_as_xyz
  1  'x, y, z'
loop_
 _atom_site_type_symbol
 _atom_site_label
 _atom_site_symmetry_multiplicity
 _atom_site_fract_x
 _atom_site_fract_y
 _atom_site_fract_z
 _atom_site_occupancy
  Pr  Pr0  1  0.000000  0.000000  0.000000  1
  Ge  Ge1  1  0.366301  0.366301  0.732602  1
  Ge  Ge2  1  0.633699  0.633699  0.267398  1
  Ru  Ru3  1  0.750000  0.250000  0.500000  1
  Ru  Ru4  1  0.250000  0.750000  0.500000  1
