# generated using pymatgen
data_Rb6U(Mo2O9)2
_symmetry_space_group_name_H-M   'P 1'
_cell_length_a   10.61691253
_cell_length_b   10.61609999
_cell_length_c   12.81276475
_cell_angle_alpha   104.72110963
_cell_angle_beta   104.84072690
_cell_angle_gamma   112.59837621
_symmetry_Int_Tables_number   1
_chemical_formula_structural   Rb6U(Mo2O9)2
_chemical_formula_sum   'Rb12 U2 Mo8 O36'
_cell_volume   1183.95460232
_cell_formula_units_Z   2
loop_
 _symmetry_equiv_pos_site_id
 _symmetry_equiv_pos_as_xyz
  1  'x, y, z'
loop_
 _atom_site_type_symbol
 _atom_site_label
 _atom_site_symmetry_multiplicity
 _atom_site_fract_x
 _atom_site_fract_y
 _atom_site_fract_z
 _atom_site_occupancy
  Rb  Rb0  1  0.069685  0.319685  0.749988  1
  Rb  Rb1  1  0.681057  0.921225  0.333846  1
  Rb  Rb2  1  0.519624  0.466844  0.334901  1
  Rb  Rb3  1  0.087385  0.347219  0.166154  1
  Rb  Rb4  1  0.631947  0.184724  0.165089  1
  Rb  Rb5  1  0.368053  0.815276  0.834911  1
  Rb  Rb6  1  0.930315  0.680315  0.250012  1
  Rb  Rb7  1  0.480376  0.533156  0.665099  1
  Rb  Rb8  1  0.912615  0.652781  0.833846  1
  Rb  Rb9  1  0.318943  0.078775  0.666154  1
  Rb  Rb10  1  0.741729  0.991736  0.750003  1
  Rb  Rb11  1  0.258271  0.008264  0.249997  1
  U  U12  1  0.500000  0.500000  0.000000  1
  U  U13  1  0.000000  0.500000  0.500000  1
  Mo  Mo14  1  0.275205  0.679520  0.070272  1
  Mo  Mo15  1  0.792084  0.874162  0.042897  1
  Mo  Mo16  1  0.724795  0.320480  0.929728  1
  Mo  Mo17  1  0.109272  0.204904  0.429718  1
  Mo  Mo18  1  0.668748  0.250814  0.542921  1
  Mo  Mo19  1  0.890728  0.795096  0.570282  1
  Mo  Mo20  1  0.207916  0.125838  0.957103  1
  Mo  Mo21  1  0.331252  0.749186  0.457079  1
  O  O22  1  0.578938  0.133648  0.875138  1
  O  O23  1  0.688823  0.815796  0.889926  1
  O  O24  1  0.421062  0.866352  0.124862  1
  O  O25  1  0.311177  0.184204  0.110074  1
  O  O26  1  0.040616  0.135450  0.938770  1
  O  O27  1  0.835770  0.461231  0.376093  1
  O  O28  1  0.414842  0.540324  0.876096  1
  O  O29  1  0.647119  0.449516  0.913970  1
  O  O30  1  0.434482  0.704975  0.378298  1
  O  O31  1  0.241492  0.296193  0.375129  1
  O  O32  1  0.143693  0.583156  0.403411  1
  O  O33  1  0.170652  0.625744  0.919074  1
  O  O34  1  0.173343  0.943824  0.878313  1
  O  O35  1  0.320257  0.259720  0.903425  1
  O  O36  1  0.959384  0.864550  0.061230  1
  O  O37  1  0.696701  0.101839  0.561233  1
  O  O38  1  0.974873  0.989978  0.647380  1
  O  O39  1  0.352881  0.550484  0.086030  1
  O  O40  1  0.842563  0.327533  0.852626  1
  O  O41  1  0.964484  0.266826  0.413973  1
  O  O42  1  0.679743  0.740280  0.096575  1
  O  O43  1  0.206699  0.251588  0.580923  1
  O  O44  1  0.856307  0.416844  0.596589  1
  O  O45  1  0.829348  0.374256  0.080926  1
  O  O46  1  0.425869  0.798875  0.610043  1
  O  O47  1  0.826657  0.056176  0.121687  1
  O  O48  1  0.793301  0.748412  0.419077  1
  O  O49  1  0.157437  0.672467  0.147374  1
  O  O50  1  0.565518  0.295025  0.621702  1
  O  O51  1  0.025127  0.010022  0.352620  1
  O  O52  1  0.303299  0.898161  0.438767  1
  O  O53  1  0.758508  0.703807  0.624871  1
  O  O54  1  0.164230  0.538769  0.623907  1
  O  O55  1  0.585158  0.459676  0.123904  1
  O  O56  1  0.035516  0.733174  0.586027  1
  O  O57  1  0.574131  0.201125  0.389957  1
