# generated using pymatgen
data_CdFeC5N6O
_symmetry_space_group_name_H-M   'P 1'
_cell_length_a   7.59733010
_cell_length_b   11.24654164
_cell_length_c   14.14039553
_cell_angle_alpha   90.00000000
_cell_angle_beta   90.00000000
_cell_angle_gamma   90.00000000
_symmetry_Int_Tables_number   1
_chemical_formula_structural   CdFeC5N6O
_chemical_formula_sum   'Cd4 Fe4 C20 N24 O4'
_cell_volume   1208.20756256
_cell_formula_units_Z   4
loop_
 _symmetry_equiv_pos_site_id
 _symmetry_equiv_pos_as_xyz
  1  'x, y, z'
loop_
 _atom_site_type_symbol
 _atom_site_label
 _atom_site_symmetry_multiplicity
 _atom_site_fract_x
 _atom_site_fract_y
 _atom_site_fract_z
 _atom_site_occupancy
  Cd  Cd0  1  0.250000  0.364874  0.321557  1
  Cd  Cd1  1  0.750000  0.635126  0.678443  1
  Cd  Cd2  1  0.750000  0.864874  0.178443  1
  Cd  Cd3  1  0.250000  0.135126  0.821557  1
  Fe  Fe4  1  0.250000  0.811488  0.446304  1
  Fe  Fe5  1  0.750000  0.188512  0.553696  1
  Fe  Fe6  1  0.750000  0.311487  0.053696  1
  Fe  Fe7  1  0.250000  0.688512  0.946304  1
  C  C8  1  0.250000  0.650775  0.398584  1
  C  C9  1  0.750000  0.349225  0.601416  1
  C  C10  1  0.750000  0.150775  0.101416  1
  C  C11  1  0.250000  0.849225  0.898584  1
  C  C12  1  0.429853  0.754117  0.531830  1
  C  C13  1  0.929853  0.245883  0.468170  1
  C  C14  1  0.570147  0.254117  0.968170  1
  C  C15  1  0.070147  0.745883  0.031830  1
  C  C16  1  0.570147  0.245883  0.468170  1
  C  C17  1  0.070147  0.754117  0.531830  1
  C  C18  1  0.429853  0.745883  0.031830  1
  C  C19  1  0.929853  0.254117  0.968170  1
  C  C20  1  0.429956  0.837802  0.351691  1
  C  C21  1  0.929956  0.162198  0.648309  1
  C  C22  1  0.570044  0.337802  0.148309  1
  C  C23  1  0.070044  0.662198  0.851691  1
  C  C24  1  0.570044  0.162198  0.648309  1
  C  C25  1  0.070044  0.837802  0.351691  1
  C  C26  1  0.429956  0.662198  0.851691  1
  C  C27  1  0.929956  0.337802  0.148309  1
  N  N28  1  0.250000  0.553891  0.369202  1
  N  N29  1  0.750000  0.446109  0.630798  1
  N  N30  1  0.750000  0.053891  0.130798  1
  N  N31  1  0.250000  0.946109  0.869202  1
  N  N32  1  0.540351  0.721035  0.582789  1
  N  N33  1  0.040351  0.278965  0.417211  1
  N  N34  1  0.459649  0.221035  0.917211  1
  N  N35  1  0.959649  0.778965  0.082789  1
  N  N36  1  0.459649  0.278965  0.417211  1
  N  N37  1  0.959649  0.721035  0.582789  1
  N  N38  1  0.540351  0.778965  0.082789  1
  N  N39  1  0.040351  0.221035  0.917211  1
  N  N40  1  0.540324  0.853792  0.295673  1
  N  N41  1  0.040324  0.146208  0.704327  1
  N  N42  1  0.459676  0.353792  0.204327  1
  N  N43  1  0.959676  0.646208  0.795673  1
  N  N44  1  0.459676  0.146208  0.704327  1
  N  N45  1  0.959676  0.853792  0.295673  1
  N  N46  1  0.540324  0.646208  0.795673  1
  N  N47  1  0.040324  0.353792  0.204327  1
  N  N48  1  0.250000  0.950114  0.486934  1
  N  N49  1  0.750000  0.049886  0.513066  1
  N  N50  1  0.750000  0.450114  0.013066  1
  N  N51  1  0.250000  0.549886  0.986934  1
  O  O52  1  0.250000  0.046198  0.514706  1
  O  O53  1  0.750000  0.953802  0.485294  1
  O  O54  1  0.750000  0.546198  0.985294  1
  O  O55  1  0.250000  0.453802  0.014706  1
