# generated using pymatgen
data_In3SnI5
_symmetry_space_group_name_H-M   'P 1'
_cell_length_a   9.13032105
_cell_length_b   9.04269524
_cell_length_c   17.58453127
_cell_angle_alpha   95.00753137
_cell_angle_beta   90.00000000
_cell_angle_gamma   90.00000000
_symmetry_Int_Tables_number   1
_chemical_formula_structural   In3SnI5
_chemical_formula_sum   'In12 Sn4 I20'
_cell_volume   1446.28528448
_cell_formula_units_Z   4
loop_
 _symmetry_equiv_pos_site_id
 _symmetry_equiv_pos_as_xyz
  1  'x, y, z'
loop_
 _atom_site_type_symbol
 _atom_site_label
 _atom_site_symmetry_multiplicity
 _atom_site_fract_x
 _atom_site_fract_y
 _atom_site_fract_z
 _atom_site_occupancy
  In  In0  1  0.786315  0.958320  0.027865  1
  In  In1  1  0.213685  0.041680  0.972135  1
  In  In2  1  0.689027  0.359225  0.250802  1
  In  In3  1  0.189027  0.140775  0.249198  1
  In  In4  1  0.286315  0.541680  0.472135  1
  In  In5  1  0.532929  0.139556  0.750592  1
  In  In6  1  0.310973  0.640775  0.749198  1
  In  In7  1  0.967071  0.639556  0.250592  1
  In  In8  1  0.810973  0.859225  0.750802  1
  In  In9  1  0.467071  0.860444  0.249408  1
  In  In10  1  0.032929  0.360444  0.749408  1
  In  In11  1  0.713685  0.458320  0.527865  1
  Sn  Sn12  1  0.322425  0.476985  0.085797  1
  Sn  Sn13  1  0.677575  0.523015  0.914203  1
  Sn  Sn14  1  0.177575  0.976985  0.585797  1
  Sn  Sn15  1  0.822425  0.023015  0.414203  1
  I  I16  1  0.332828  0.501081  0.261255  1
  I  I17  1  0.969767  0.693934  0.894498  1
  I  I18  1  0.331718  0.295321  0.613201  1
  I  I19  1  0.351204  0.361693  0.895464  1
  I  I20  1  0.148796  0.861693  0.395464  1
  I  I21  1  0.013801  0.664056  0.603100  1
  I  I22  1  0.667172  0.498919  0.738745  1
  I  I23  1  0.831718  0.204679  0.886799  1
  I  I24  1  0.648796  0.638307  0.104536  1
  I  I25  1  0.832828  -0.001081  0.238745  1
  I  I26  1  0.486199  0.164056  0.103100  1
  I  I27  1  0.851204  0.138307  0.604536  1
  I  I28  1  0.513801  0.835944  0.896900  1
  I  I29  1  0.167172  1.001081  0.761255  1
  I  I30  1  0.530233  0.193934  0.394498  1
  I  I31  1  0.030233  0.306066  0.105502  1
  I  I32  1  0.668282  0.704679  0.386799  1
  I  I33  1  0.986199  0.335944  0.396900  1
  I  I34  1  0.469767  0.806066  0.605502  1
  I  I35  1  0.168282  0.795321  0.113201  1
