# generated using pymatgen
data_Na8Hf(MoO4)6
_symmetry_space_group_name_H-M   'P 1'
_cell_length_a   9.91196928
_cell_length_b   11.35783378
_cell_length_c   11.70560378
_cell_angle_alpha   90.00000000
_cell_angle_beta   90.00000000
_cell_angle_gamma   111.55715560
_symmetry_Int_Tables_number   1
_chemical_formula_structural   Na8Hf(MoO4)6
_chemical_formula_sum   'Na16 Hf2 Mo12 O48'
_cell_volume   1225.62122544
_cell_formula_units_Z   2
loop_
 _symmetry_equiv_pos_site_id
 _symmetry_equiv_pos_as_xyz
  1  'x, y, z'
loop_
 _atom_site_type_symbol
 _atom_site_label
 _atom_site_symmetry_multiplicity
 _atom_site_fract_x
 _atom_site_fract_y
 _atom_site_fract_z
 _atom_site_occupancy
  Na  Na0  1  0.876691  0.710711  0.567282  1
  Na  Na1  1  0.686772  0.100880  0.218090  1
  Na  Na2  1  0.313228  0.899120  0.781910  1
  Na  Na3  1  0.623309  0.789289  0.067282  1
  Na  Na4  1  0.295378  0.627470  0.962805  1
  Na  Na5  1  0.186772  0.600880  0.281910  1
  Na  Na6  1  0.795378  0.127470  0.537195  1
  Na  Na7  1  0.414608  0.189490  0.315550  1
  Na  Na8  1  0.704622  0.372530  0.037195  1
  Na  Na9  1  0.813228  0.399120  0.718090  1
  Na  Na10  1  0.585392  0.810510  0.684450  1
  Na  Na11  1  0.123309  0.289289  0.432718  1
  Na  Na12  1  0.204622  0.872530  0.462805  1
  Na  Na13  1  0.376691  0.210711  0.932718  1
  Na  Na14  1  0.914608  0.689490  0.184450  1
  Na  Na15  1  0.085392  0.310510  0.815550  1
  Hf  Hf16  1  0.500000  0.500000  0.500000  1
  Hf  Hf17  1  0.000000  0.000000  0.000000  1
  Mo  Mo18  1  0.452736  0.179797  0.609253  1
  Mo  Mo19  1  0.516641  0.506615  0.813930  1
  Mo  Mo20  1  0.983359  0.993385  0.313930  1
  Mo  Mo21  1  0.016641  0.006615  0.686070  1
  Mo  Mo22  1  0.952736  0.679797  0.890747  1
  Mo  Mo23  1  0.805498  0.411614  0.396475  1
  Mo  Mo24  1  0.194502  0.588386  0.603525  1
  Mo  Mo25  1  0.483359  0.493385  0.186070  1
  Mo  Mo26  1  0.694502  0.088386  0.896475  1
  Mo  Mo27  1  0.305498  0.911614  0.103525  1
  Mo  Mo28  1  0.547264  0.820203  0.390747  1
  Mo  Mo29  1  0.047264  0.320203  0.109253  1
  O  O30  1  0.410712  0.318251  0.560207  1
  O  O31  1  0.355606  0.773018  0.382026  1
  O  O32  1  0.382611  0.589913  0.150959  1
  O  O33  1  0.915458  0.349616  0.478725  1
  O  O34  1  0.117389  0.910087  0.650959  1
  O  O35  1  0.918645  0.522181  0.297046  1
  O  O36  1  0.084542  0.650384  0.521275  1
  O  O37  1  0.144394  0.726982  0.882026  1
  O  O38  1  0.630086  0.877206  0.256093  1
  O  O39  1  0.332412  0.406608  0.828557  1
  O  O40  1  0.832412  0.906608  0.671443  1
  O  O41  1  0.791118  0.008641  0.988743  1
  O  O42  1  0.448733  0.428716  0.335062  1
  O  O43  1  0.882611  0.089913  0.349041  1
  O  O44  1  0.369914  0.122794  0.743907  1
  O  O45  1  0.130086  0.377206  0.243907  1
  O  O46  1  0.948733  0.928716  0.164938  1
  O  O47  1  0.451943  0.363091  0.090988  1
  O  O48  1  0.855606  0.273018  0.117974  1
  O  O49  1  0.208882  0.991359  0.011257  1
  O  O50  1  0.888835  0.563977  0.998977  1
  O  O51  1  0.611165  0.936023  0.498977  1
  O  O52  1  0.111165  0.436023  0.001023  1
  O  O53  1  0.089288  0.181749  0.060207  1
  O  O54  1  0.589288  0.681749  0.439793  1
  O  O55  1  0.048057  0.136909  0.590988  1
  O  O56  1  0.644394  0.226982  0.617974  1
  O  O57  1  0.951943  0.863091  0.409012  1
  O  O58  1  0.869914  0.622794  0.756093  1
  O  O59  1  0.388835  0.063977  0.501023  1
  O  O60  1  0.291118  0.508641  0.511257  1
  O  O61  1  0.051267  0.071284  0.835062  1
  O  O62  1  0.617389  0.410087  0.849041  1
  O  O63  1  0.584542  0.150384  0.978725  1
  O  O64  1  0.415458  0.849616  0.021275  1
  O  O65  1  0.827757  0.215595  0.822312  1
  O  O66  1  0.081355  0.477819  0.702954  1
  O  O67  1  0.672243  0.284405  0.322312  1
  O  O68  1  0.548057  0.636909  0.909012  1
  O  O69  1  0.910712  0.818251  0.939793  1
  O  O70  1  0.667588  0.593392  0.171443  1
  O  O71  1  0.551267  0.571284  0.664938  1
  O  O72  1  0.418645  0.022181  0.202954  1
  O  O73  1  0.327757  0.715595  0.677688  1
  O  O74  1  0.708882  0.491359  0.488743  1
  O  O75  1  0.581355  0.977819  0.797046  1
  O  O76  1  0.167588  0.093392  0.328557  1
  O  O77  1  0.172243  0.784405  0.177688  1
