# generated using pymatgen
data_La2Si4CN6
_symmetry_space_group_name_H-M   'P 1'
_cell_length_a   5.24970365
_cell_length_b   11.60697283
_cell_length_c   13.53468479
_cell_angle_alpha   90.00000000
_cell_angle_beta   90.00000000
_cell_angle_gamma   90.00000000
_symmetry_Int_Tables_number   1
_chemical_formula_structural   La2Si4CN6
_chemical_formula_sum   'La8 Si16 C4 N24'
_cell_volume   824.71121714
_cell_formula_units_Z   4
loop_
 _symmetry_equiv_pos_site_id
 _symmetry_equiv_pos_as_xyz
  1  'x, y, z'
loop_
 _atom_site_type_symbol
 _atom_site_label
 _atom_site_symmetry_multiplicity
 _atom_site_fract_x
 _atom_site_fract_y
 _atom_site_fract_z
 _atom_site_occupancy
  La  La0  1  0.250000  0.414840  0.361489  1
  La  La1  1  0.750000  0.576306  0.087011  1
  La  La2  1  0.250000  0.923694  0.587011  1
  La  La3  1  0.750000  0.076306  0.412989  1
  La  La4  1  0.250000  0.914840  0.138511  1
  La  La5  1  0.250000  0.423694  0.912989  1
  La  La6  1  0.750000  0.085160  0.861489  1
  La  La7  1  0.750000  0.585160  0.638511  1
  Si  Si8  1  0.250000  0.664644  0.499726  1
  Si  Si9  1  0.250000  0.164644  1.000274  1
  Si  Si10  1  0.493584  0.800139  0.816763  1
  Si  Si11  1  0.750000  0.973830  0.200581  1
  Si  Si12  1  0.506416  0.699861  0.316763  1
  Si  Si13  1  0.250000  0.026170  0.799419  1
  Si  Si14  1  0.506416  0.199861  0.183237  1
  Si  Si15  1  0.750000  0.335356  0.500274  1
  Si  Si16  1  0.006416  0.300139  0.683237  1
  Si  Si17  1  0.750000  0.473830  0.299419  1
  Si  Si18  1  0.993584  0.699861  0.316763  1
  Si  Si19  1  0.750000  0.835356  -0.000274  1
  Si  Si20  1  0.250000  0.526170  0.700581  1
  Si  Si21  1  0.493584  0.300139  0.683237  1
  Si  Si22  1  0.006416  0.800139  0.816763  1
  Si  Si23  1  0.993584  0.199861  0.183237  1
  C  C24  1  0.250000  0.696305  0.029194  1
  C  C25  1  0.750000  0.803695  0.529194  1
  C  C26  1  0.250000  0.196305  0.470806  1
  C  C27  1  0.750000  0.303695  0.970806  1
  N  N28  1  0.750000  0.713519  0.785036  1
  N  N29  1  0.999487  0.562913  0.269895  1
  N  N30  1  0.500513  0.062913  0.230105  1
  N  N31  1  0.000513  0.937087  0.769895  1
  N  N32  1  0.750000  0.213519  0.714964  1
  N  N33  1  0.518708  0.744121  0.541396  1
  N  N34  1  0.000513  0.437087  0.730105  1
  N  N35  1  0.500513  0.562913  0.269895  1
  N  N36  1  0.499487  0.937087  0.769895  1
  N  N37  1  0.981292  0.244121  0.958604  1
  N  N38  1  0.481292  0.755879  0.041396  1
  N  N39  1  0.981292  0.744121  0.541396  1
  N  N40  1  0.250000  0.286481  0.214964  1
  N  N41  1  0.250000  0.786481  0.285036  1
  N  N42  1  0.250000  0.583044  0.019448  1
  N  N43  1  0.481292  0.255879  0.458604  1
  N  N44  1  0.518708  0.244121  0.958604  1
  N  N45  1  0.750000  0.416956  0.980552  1
  N  N46  1  0.999487  0.062913  0.230105  1
  N  N47  1  0.018708  0.755879  0.041396  1
  N  N48  1  0.018708  0.255879  0.458604  1
  N  N49  1  0.250000  0.083044  0.480552  1
  N  N50  1  0.750000  0.916956  0.519448  1
  N  N51  1  0.499487  0.437087  0.730105  1
