# generated using pymatgen
data_SnS2(O3F)2
_symmetry_space_group_name_H-M   'P 1'
_cell_length_a   5.40238100
_cell_length_b   9.86739905
_cell_length_c   13.29053140
_cell_angle_alpha   90.00000000
_cell_angle_beta   92.13980045
_cell_angle_gamma   90.00000000
_symmetry_Int_Tables_number   1
_chemical_formula_structural   SnS2(O3F)2
_chemical_formula_sum   'Sn4 S8 O24 F8'
_cell_volume   707.99029882
_cell_formula_units_Z   4
loop_
 _symmetry_equiv_pos_site_id
 _symmetry_equiv_pos_as_xyz
  1  'x, y, z'
loop_
 _atom_site_type_symbol
 _atom_site_label
 _atom_site_symmetry_multiplicity
 _atom_site_fract_x
 _atom_site_fract_y
 _atom_site_fract_z
 _atom_site_occupancy
  Sn  Sn0  1  0.349532  0.693719  0.321172  1
  Sn  Sn1  1  0.650468  0.306281  0.678828  1
  Sn  Sn2  1  0.849532  0.806281  0.821172  1
  Sn  Sn3  1  0.150468  0.193719  0.178828  1
  S  S4  1  0.267447  0.316538  0.438502  1
  S  S5  1  0.275111  0.523020  0.808966  1
  S  S6  1  0.775111  0.976980  0.308966  1
  S  S7  1  0.224889  0.023020  0.691034  1
  S  S8  1  0.732553  0.683462  0.561498  1
  S  S9  1  0.232553  0.816538  0.061498  1
  S  S10  1  0.767447  0.183462  0.938502  1
  S  S11  1  0.724889  0.476980  0.191034  1
  O  O12  1  0.626122  0.734090  0.466133  1
  O  O13  1  0.362609  0.444615  0.404651  1
  O  O14  1  0.260118  0.710599  0.137657  1
  O  O15  1  0.239882  0.210599  0.362343  1
  O  O16  1  0.446953  0.102100  0.718226  1
  O  O17  1  0.373878  0.265910  0.533867  1
  O  O18  1  0.710279  0.597468  0.256172  1
  O  O19  1  0.137391  0.944615  0.095349  1
  O  O20  1  0.210279  0.902532  0.756172  1
  O  O21  1  0.289721  0.402532  0.743828  1
  O  O22  1  0.873878  0.234090  0.033867  1
  O  O23  1  0.637391  0.555385  0.595349  1
  O  O24  1  0.053047  0.602100  0.781774  1
  O  O25  1  0.497453  0.403340  0.174343  1
  O  O26  1  0.739882  0.289401  0.862343  1
  O  O27  1  0.502547  0.596660  0.825657  1
  O  O28  1  0.997453  0.096660  0.674343  1
  O  O29  1  0.126122  0.765910  0.966133  1
  O  O30  1  0.789721  0.097468  0.243828  1
  O  O31  1  0.002547  0.903340  0.325657  1
  O  O32  1  0.946953  0.397900  0.218226  1
  O  O33  1  0.553047  0.897900  0.281774  1
  O  O34  1  0.760118  0.789401  0.637657  1
  O  O35  1  0.862609  0.055385  0.904651  1
  F  F36  1  0.515404  0.848886  0.033936  1
  F  F37  1  0.284607  0.960053  0.584477  1
  F  F38  1  0.984596  0.348886  0.466064  1
  F  F39  1  0.784607  0.539947  0.084477  1
  F  F40  1  0.484596  0.151114  0.966064  1
  F  F41  1  0.015404  0.651114  0.533936  1
  F  F42  1  0.215393  0.460053  0.915523  1
  F  F43  1  0.715393  0.039947  0.415523  1
