# generated using pymatgen
data_Rb5Mo27Se31
_symmetry_space_group_name_H-M   'P 1'
_cell_length_a   9.73074762
_cell_length_b   9.73074793
_cell_length_c   37.79311316
_cell_angle_alpha   90.00000000
_cell_angle_beta   90.00000000
_cell_angle_gamma   119.99999891
_symmetry_Int_Tables_number   1
_chemical_formula_structural   Rb5Mo27Se31
_chemical_formula_sum   'Rb10 Mo54 Se62'
_cell_volume   3099.10103913
_cell_formula_units_Z   2
loop_
 _symmetry_equiv_pos_site_id
 _symmetry_equiv_pos_as_xyz
  1  'x, y, z'
loop_
 _atom_site_type_symbol
 _atom_site_label
 _atom_site_symmetry_multiplicity
 _atom_site_fract_x
 _atom_site_fract_y
 _atom_site_fract_z
 _atom_site_occupancy
  Rb  Rb0  1  0.666667  0.333333  0.522913  1
  Rb  Rb1  1  0.333333  0.666667  0.313292  1
  Rb  Rb2  1  0.666667  0.333333  0.813292  1
  Rb  Rb3  1  0.666667  0.333333  0.686708  1
  Rb  Rb4  1  0.666667  0.333333  0.977087  1
  Rb  Rb5  1  0.000000  0.000000  0.250000  1
  Rb  Rb6  1  0.333333  0.666667  0.022913  1
  Rb  Rb7  1  0.000000  0.000000  0.750000  1
  Rb  Rb8  1  0.333333  0.666667  0.186708  1
  Rb  Rb9  1  0.333333  0.666667  0.477087  1
  Mo  Mo10  1  0.984043  0.150916  0.529363  1
  Mo  Mo11  1  0.684844  0.184845  0.250000  1
  Mo  Mo12  1  0.501735  0.687963  0.870470  1
  Mo  Mo13  1  0.166345  0.650067  0.690157  1
  Mo  Mo14  1  0.150916  0.166873  0.029363  1
  Mo  Mo15  1  0.167558  0.022446  0.408986  1
  Mo  Mo16  1  0.315156  0.815155  0.750000  1
  Mo  Mo17  1  0.849084  0.833127  0.970637  1
  Mo  Mo18  1  0.833127  0.984043  0.029363  1
  Mo  Mo19  1  0.349933  0.516278  0.809843  1
  Mo  Mo20  1  0.977554  0.145112  0.408986  1
  Mo  Mo21  1  0.516278  0.166345  0.190157  1
  Mo  Mo22  1  0.483722  0.833655  0.809843  1
  Mo  Mo23  1  0.166873  0.015957  0.529363  1
  Mo  Mo24  1  0.022446  0.854888  0.591014  1
  Mo  Mo25  1  0.833127  0.984043  0.470637  1
  Mo  Mo26  1  0.145112  0.167558  0.908986  1
  Mo  Mo27  1  0.145112  0.167558  0.591014  1
  Mo  Mo28  1  0.833655  0.349933  0.190157  1
  Mo  Mo29  1  0.022446  0.854888  0.908986  1
  Mo  Mo30  1  0.166873  0.015957  0.970637  1
  Mo  Mo31  1  0.483722  0.833655  0.690157  1
  Mo  Mo32  1  0.854888  0.832442  0.091014  1
  Mo  Mo33  1  0.015957  0.849084  0.029363  1
  Mo  Mo34  1  0.349933  0.516278  0.690157  1
  Mo  Mo35  1  0.833655  0.349933  0.309843  1
  Mo  Mo36  1  0.166345  0.650067  0.809843  1
  Mo  Mo37  1  0.650067  0.483722  0.190157  1
  Mo  Mo38  1  0.501735  0.687963  0.629530  1
  Mo  Mo39  1  0.815155  0.499998  0.250000  1
  Mo  Mo40  1  0.813772  0.501735  0.129530  1
  Mo  Mo41  1  0.984043  0.150916  0.970637  1
  Mo  Mo42  1  0.312037  0.813772  0.870470  1
  Mo  Mo43  1  0.186228  0.498265  0.629530  1
  Mo  Mo44  1  0.167558  0.022446  0.091014  1
  Mo  Mo45  1  0.498265  0.312037  0.129530  1
  Mo  Mo46  1  0.977554  0.145112  0.091014  1
  Mo  Mo47  1  0.015957  0.849084  0.470637  1
  Mo  Mo48  1  0.650067  0.483722  0.309843  1
  Mo  Mo49  1  0.184845  0.500002  0.750000  1
  Mo  Mo50  1  0.832442  0.977554  0.908986  1
  Mo  Mo51  1  0.687963  0.186228  0.129530  1
  Mo  Mo52  1  0.150916  0.166873  0.470637  1
  Mo  Mo53  1  0.499998  0.684844  0.750000  1
  Mo  Mo54  1  0.832442  0.977554  0.591014  1
  Mo  Mo55  1  0.854888  0.832442  0.408986  1
  Mo  Mo56  1  0.849084  0.833127  0.529363  1
  Mo  Mo57  1  0.516278  0.166345  0.309843  1
  Mo  Mo58  1  0.687963  0.186228  0.370470  1
  Mo  Mo59  1  0.500002  0.315156  0.250000  1
  Mo  Mo60  1  0.813772  0.501735  0.370470  1
  Mo  Mo61  1  0.186228  0.498265  0.870470  1
  Mo  Mo62  1  0.498265  0.312037  0.370470  1
  Mo  Mo63  1  0.312037  0.813772  0.629530  1
  Se  Se64  1  0.299064  0.958241  0.810353  1
  Se  Se65  1  0.000000  0.000000  0.144627  1
  Se  Se66  1  0.038838  0.709773  0.414224  1
  Se  Se67  1  0.004544  0.627432  0.633892  1
  Se  Se68  1  0.675411  0.967984  0.968772  1
  Se  Se69  1  0.707427  0.675411  0.031228  1
  Se  Se70  1  0.622888  0.995456  0.633892  1
  Se  Se71  1  0.958241  0.659176  0.310353  1
  Se  Se72  1  0.629234  0.626601  0.250000  1
  Se  Se73  1  0.627432  0.622888  0.133892  1
  Se  Se74  1  0.377112  0.004544  0.366108  1
  Se  Se75  1  0.372568  0.377112  0.633892  1
  Se  Se76  1  0.333333  0.666667  0.924007  1
  Se  Se77  1  0.329065  0.038838  0.914224  1
  Se  Se78  1  0.032016  0.707427  0.968772  1
  Se  Se79  1  0.995456  0.372568  0.366108  1
  Se  Se80  1  0.995456  0.372568  0.133892  1
  Se  Se81  1  0.032016  0.707427  0.531228  1
  Se  Se82  1  0.000000  0.000000  0.355373  1
  Se  Se83  1  1.002632  0.629234  0.750000  1
  Se  Se84  1  0.333333  0.666667  0.575993  1
  Se  Se85  1  0.340824  0.299064  0.189647  1
  Se  Se86  1  0.372568  0.377112  0.866108  1
  Se  Se87  1  0.958241  0.659176  0.189647  1
  Se  Se88  1  0.373399  1.002632  0.250000  1
  Se  Se89  1  0.290227  0.329065  0.085776  1
  Se  Se90  1  0.622888  0.995456  0.866108  1
  Se  Se91  1  0.666667  0.333333  0.424007  1
  Se  Se92  1  -0.002632  0.370766  0.250000  1
  Se  Se93  1  0.675411  0.967984  0.531228  1
  Se  Se94  1  0.004544  0.627432  0.866108  1
  Se  Se95  1  0.700936  0.041759  0.189647  1
  Se  Se96  1  0.340824  0.299064  0.310353  1
  Se  Se97  1  0.299064  0.958241  0.689647  1
  Se  Se98  1  0.041759  0.340824  0.810353  1
  Se  Se99  1  0.700936  0.041759  0.310353  1
  Se  Se100  1  0.292573  0.324589  0.531228  1
  Se  Se101  1  0.707427  0.675411  0.468772  1
  Se  Se102  1  0.659176  0.700936  0.689647  1
  Se  Se103  1  0.324589  0.032016  0.468772  1
  Se  Se104  1  0.329065  0.038838  0.585776  1
  Se  Se105  1  0.967984  0.292573  0.468772  1
  Se  Se106  1  0.709773  0.670935  0.914224  1
  Se  Se107  1  0.961162  0.290227  0.585776  1
  Se  Se108  1  0.670935  0.961162  0.414224  1
  Se  Se109  1  0.038838  0.709773  0.085776  1
  Se  Se110  1  0.370766  0.373399  0.750000  1
  Se  Se111  1  0.967984  0.292573  0.031228  1
  Se  Se112  1  0.961162  0.290227  0.914224  1
  Se  Se113  1  0.709773  0.670935  0.585776  1
  Se  Se114  1  0.000000  0.000000  0.644627  1
  Se  Se115  1  0.290227  0.329065  0.414224  1
  Se  Se116  1  0.377112  0.004544  0.133892  1
  Se  Se117  1  0.000000  0.000000  0.855373  1
  Se  Se118  1  0.627432  0.622888  0.366108  1
  Se  Se119  1  0.659176  0.700936  0.810353  1
  Se  Se120  1  0.324589  0.032016  0.031228  1
  Se  Se121  1  0.292573  0.324589  0.968772  1
  Se  Se122  1  0.626601  -0.002632  0.750000  1
  Se  Se123  1  0.666667  0.333333  0.075993  1
  Se  Se124  1  0.670935  0.961162  0.085776  1
  Se  Se125  1  0.041759  0.340824  0.689647  1
