# generated using pymatgen
data_HgSb4C2(OF11)2
_symmetry_space_group_name_H-M   'P 1'
_cell_length_a   7.77514438
_cell_length_b   9.99828839
_cell_length_c   14.31770245
_cell_angle_alpha   90.00000000
_cell_angle_beta   90.00000000
_cell_angle_gamma   111.09155404
_symmetry_Int_Tables_number   1
_chemical_formula_structural   HgSb4C2(OF11)2
_chemical_formula_sum   'Hg2 Sb8 C4 O4 F44'
_cell_volume   1038.46572321
_cell_formula_units_Z   2
loop_
 _symmetry_equiv_pos_site_id
 _symmetry_equiv_pos_as_xyz
  1  'x, y, z'
loop_
 _atom_site_type_symbol
 _atom_site_label
 _atom_site_symmetry_multiplicity
 _atom_site_fract_x
 _atom_site_fract_y
 _atom_site_fract_z
 _atom_site_occupancy
  Hg  Hg0  1  0.500000  0.000000  0.000000  1
  Hg  Hg1  1  0.000000  0.500000  0.500000  1
  Sb  Sb2  1  0.469182  0.251369  0.417305  1
  Sb  Sb3  1  0.173513  0.867073  0.726553  1
  Sb  Sb4  1  0.969182  0.751369  0.082695  1
  Sb  Sb5  1  0.673513  0.367073  0.773447  1
  Sb  Sb6  1  0.826487  0.132927  0.273447  1
  Sb  Sb7  1  0.030818  0.248631  0.917305  1
  Sb  Sb8  1  0.530818  0.748631  0.582695  1
  Sb  Sb9  1  0.326487  0.632927  0.226553  1
  C  C10  1  0.504070  0.808724  0.939240  1
  C  C11  1  0.004070  0.308724  0.560760  1
  C  C12  1  0.495930  0.191276  0.060760  1
  C  C13  1  0.995930  0.691276  0.439240  1
  O  O14  1  0.503109  0.708893  0.902093  1
  O  O15  1  0.996891  0.791107  0.402093  1
  O  O16  1  0.496891  0.291107  0.097907  1
  O  O17  1  0.003109  0.208893  0.597907  1
  F  F18  1  0.269740  0.076149  0.434174  1
  F  F19  1  0.223272  0.043689  0.664937  1
  F  F20  1  0.304769  0.585742  0.602395  1
  F  F21  1  0.769740  0.576149  0.065826  1
  F  F22  1  0.695231  0.414258  0.397605  1
  F  F23  1  0.908217  0.369575  0.845063  1
  F  F24  1  0.195231  0.914258  0.102395  1
  F  F25  1  0.592788  0.217220  0.524543  1
  F  F26  1  0.170514  0.690550  0.776037  1
  F  F27  1  0.091783  0.630425  0.154937  1
  F  F28  1  0.033940  0.128037  0.207644  1
  F  F29  1  0.613954  0.716515  0.701463  1
  F  F30  1  0.466060  0.371963  0.707644  1
  F  F31  1  0.723272  0.543689  0.835063  1
  F  F32  1  0.458892  0.733259  0.118872  1
  F  F33  1  0.907212  0.282780  0.024543  1
  F  F34  1  0.958892  0.233259  0.381128  1
  F  F35  1  0.407212  0.782780  0.475457  1
  F  F36  1  0.730260  0.923851  0.565826  1
  F  F37  1  0.276728  0.456311  0.164937  1
  F  F38  1  0.329486  0.809450  0.276037  1
  F  F39  1  0.408217  0.869575  0.654937  1
  F  F40  1  0.842689  0.460917  0.674204  1
  F  F41  1  0.113954  0.216515  0.798537  1
  F  F42  1  0.041108  0.766741  0.618872  1
  F  F43  1  0.804769  0.085742  0.897605  1
  F  F44  1  0.849553  0.860437  0.018742  1
  F  F45  1  0.829486  0.309450  0.223963  1
  F  F46  1  0.650447  0.639563  0.518742  1
  F  F47  1  0.541108  0.266741  0.881128  1
  F  F48  1  0.157311  0.539083  0.325796  1
  F  F49  1  0.386046  0.283485  0.298537  1
  F  F50  1  0.776728  0.956311  0.335063  1
  F  F51  1  0.966060  0.871963  0.792356  1
  F  F52  1  0.657311  0.039083  0.174204  1
  F  F53  1  0.886046  0.783485  0.201463  1
  F  F54  1  0.230260  0.423851  0.934174  1
  F  F55  1  0.591783  0.130425  0.345063  1
  F  F56  1  0.092788  0.717220  0.975457  1
  F  F57  1  0.150447  0.139563  0.981258  1
  F  F58  1  0.533940  0.628037  0.292356  1
  F  F59  1  0.670514  0.190550  0.723963  1
  F  F60  1  0.349553  0.360437  0.481258  1
  F  F61  1  0.342689  0.960917  0.825796  1
