# generated using pymatgen
data_Cs2MgH12(SO7)2
_symmetry_space_group_name_H-M   'P 1'
_cell_length_a   6.42130360
_cell_length_b   9.39430520
_cell_length_c   12.97004324
_cell_angle_alpha   90.00000000
_cell_angle_beta   90.00000000
_cell_angle_gamma   106.66366042
_symmetry_Int_Tables_number   1
_chemical_formula_structural   Cs2MgH12(SO7)2
_chemical_formula_sum   'Cs4 Mg2 H24 S4 O28'
_cell_volume   749.54354601
_cell_formula_units_Z   2
loop_
 _symmetry_equiv_pos_site_id
 _symmetry_equiv_pos_as_xyz
  1  'x, y, z'
loop_
 _atom_site_type_symbol
 _atom_site_label
 _atom_site_symmetry_multiplicity
 _atom_site_fract_x
 _atom_site_fract_y
 _atom_site_fract_z
 _atom_site_occupancy
  Mg  Mg0  1  0.000000  0.000000  0.000000  1
  Mg  Mg1  1  0.000000  0.500000  0.500000  1
  S  S2  1  0.741217  0.395585  0.148519  1
  S  S3  1  0.258783  0.104415  0.648519  1
  S  S4  1  0.258783  0.604415  0.851481  1
  S  S5  1  0.741217  0.895585  0.351481  1
  O  O6  1  0.610628  0.417873  0.239128  1
  O  O7  1  0.389372  0.082127  0.739128  1
  O  O8  1  0.389372  0.582127  0.760872  1
  O  O9  1  0.610628  0.917873  0.260872  1
  O  O10  1  0.802796  0.532524  0.084122  1
  O  O11  1  0.197204  0.967476  0.584122  1
  O  O12  1  0.197204  0.467476  0.915878  1
  O  O13  1  0.802796  0.032524  0.415878  1
  O  O14  1  0.602790  0.270389  0.084815  1
  O  O15  1  0.397210  0.229611  0.584815  1
  O  O16  1  0.397210  0.729611  0.915185  1
  O  O17  1  0.602790  0.770389  0.415185  1
  O  O18  1  0.940666  0.357373  0.184795  1
  O  O19  1  0.059334  0.142627  0.684795  1
  O  O20  1  0.059334  0.642627  0.815205  1
  O  O21  1  0.940666  0.857373  0.315205  1
  O  O22  1  0.159980  0.162027  0.108612  1
  O  O23  1  0.840020  0.337973  0.608612  1
  O  O24  1  0.840020  0.837973  0.891388  1
  O  O25  1  0.159980  0.662027  0.391388  1
  O  O26  1  0.006944  0.831056  0.108971  1
  O  O27  1  0.993056  0.668944  0.608971  1
  O  O28  1  0.993056  0.168944  0.891029  1
  O  O29  1  0.006944  0.331056  0.391029  1
  O  O30  1  0.291672  0.992657  0.934925  1
  O  O31  1  0.708328  0.507343  0.434925  1
  O  O32  1  0.708328  0.007343  0.065075  1
  O  O33  1  0.291672  0.492657  0.565075  1
  Cs  Cs34  1  0.351762  0.127066  0.356861  1
  Cs  Cs35  1  0.648238  0.372934  0.856861  1
  Cs  Cs36  1  0.648238  0.872934  0.643139  1
  Cs  Cs37  1  0.351762  0.627066  0.143139  1
  H  H38  1  0.317670  0.212894  0.099962  1
  H  H39  1  0.682330  0.287106  0.599962  1
  H  H40  1  0.682330  0.787106  0.900038  1
  H  H41  1  0.317670  0.712894  0.400038  1
  H  H42  1  0.084256  0.235119  0.130902  1
  H  H43  1  0.915744  0.264881  0.630902  1
  H  H44  1  0.915744  0.764881  0.869098  1
  H  H45  1  0.084256  0.735119  0.369098  1
  H  H46  1  0.927769  0.724949  0.097219  1
  H  H47  1  0.072231  0.775051  0.597219  1
  H  H48  1  0.072231  0.275051  0.902781  1
  H  H49  1  0.927769  0.224949  0.402781  1
  H  H50  1  0.983642  0.848633  0.183358  1
  H  H51  1  0.016358  0.651367  0.683358  1
  H  H52  1  0.016358  0.151367  0.816642  1
  H  H53  1  0.983642  0.348633  0.316642  1
  H  H54  1  0.337475  0.900693  0.939057  1
  H  H55  1  0.662525  0.599307  0.439057  1
  H  H56  1  0.662525  0.099307  0.060943  1
  H  H57  1  0.337475  0.400693  0.560943  1
  H  H58  1  0.313991  0.022686  0.861204  1
  H  H59  1  0.686009  0.477314  0.361204  1
  H  H60  1  0.686009  0.977314  0.138796  1
  H  H61  1  0.313991  0.522686  0.638796  1
