# generated using pymatgen
data_Mn2BiO5
_symmetry_space_group_name_H-M   'P 1'
_cell_length_a   5.87861915
_cell_length_b   7.65162902
_cell_length_c   8.66511602
_cell_angle_alpha   90.00000000
_cell_angle_beta   90.00000000
_cell_angle_gamma   90.00000000
_symmetry_Int_Tables_number   1
_chemical_formula_structural   Mn2BiO5
_chemical_formula_sum   'Mn8 Bi4 O20'
_cell_volume   389.76569535
_cell_formula_units_Z   4
loop_
 _symmetry_equiv_pos_site_id
 _symmetry_equiv_pos_as_xyz
  1  'x, y, z'
loop_
 _atom_site_type_symbol
 _atom_site_label
 _atom_site_symmetry_multiplicity
 _atom_site_fract_x
 _atom_site_fract_y
 _atom_site_fract_z
 _atom_site_occupancy
  Bi  Bi0  1  0.000000  0.155050  0.164899  1
  Bi  Bi1  1  0.000000  0.844950  0.835101  1
  Bi  Bi2  1  0.000000  0.655050  0.335101  1
  Bi  Bi3  1  0.000000  0.344950  0.664899  1
  Mn  Mn4  1  0.257987  0.500000  0.000000  1
  Mn  Mn5  1  0.742013  0.000000  0.500000  1
  Mn  Mn6  1  0.742013  0.500000  0.000000  1
  Mn  Mn7  1  0.257987  0.000000  0.500000  1
  Mn  Mn8  1  0.500000  0.405309  0.349376  1
  Mn  Mn9  1  0.500000  0.594691  0.650624  1
  Mn  Mn10  1  0.500000  0.905309  0.150624  1
  Mn  Mn11  1  0.500000  0.094691  0.849376  1
  O  O12  1  0.283253  0.000000  0.000000  1
  O  O13  1  0.716747  0.500000  0.500000  1
  O  O14  1  0.716747  0.000000  0.000000  1
  O  O15  1  0.283253  0.500000  0.500000  1
  O  O16  1  0.250230  0.387714  0.201502  1
  O  O17  1  0.250230  0.612286  0.798498  1
  O  O18  1  0.749770  0.887714  0.298498  1
  O  O19  1  0.749770  0.112286  0.701502  1
  O  O20  1  0.749770  0.612286  0.798498  1
  O  O21  1  0.749770  0.387714  0.201502  1
  O  O22  1  0.250230  0.112286  0.701502  1
  O  O23  1  0.250230  0.887714  0.298498  1
  O  O24  1  0.500000  0.145867  0.427668  1
  O  O25  1  0.500000  0.854133  0.572332  1
  O  O26  1  0.500000  0.645867  0.072332  1
  O  O27  1  0.500000  0.354133  0.927668  1
  O  O28  1  0.000000  0.155340  0.443298  1
  O  O29  1  0.000000  0.844660  0.556702  1
  O  O30  1  0.000000  0.655340  0.056702  1
  O  O31  1  0.000000  0.344660  0.943298  1
