# generated using pymatgen
data_Ba4Eu4Zn3PtO15
_symmetry_space_group_name_H-M   'P 1'
_cell_length_a   11.82206685
_cell_length_b   11.82206661
_cell_length_c   6.85262538
_cell_angle_alpha   90.00000000
_cell_angle_beta   90.00000000
_cell_angle_gamma   120.00000065
_symmetry_Int_Tables_number   1
_chemical_formula_structural   Ba4Eu4Zn3PtO15
_chemical_formula_sum   'Ba8 Eu8 Zn6 Pt2 O30'
_cell_volume   829.41986359
_cell_formula_units_Z   2
loop_
 _symmetry_equiv_pos_site_id
 _symmetry_equiv_pos_as_xyz
  1  'x, y, z'
loop_
 _atom_site_type_symbol
 _atom_site_label
 _atom_site_symmetry_multiplicity
 _atom_site_fract_x
 _atom_site_fract_y
 _atom_site_fract_z
 _atom_site_occupancy
  Eu  Eu0  1  0.480202  0.519798  0.005869  1
  Eu  Eu1  1  0.000000  0.000000  0.841419  1
  Eu  Eu2  1  0.519798  0.480202  0.505869  1
  Eu  Eu3  1  0.480202  0.960403  0.005869  1
  Eu  Eu4  1  0.039597  0.519798  0.005869  1
  Eu  Eu5  1  0.000000  0.000000  0.341419  1
  Eu  Eu6  1  0.960403  0.480202  0.505869  1
  Eu  Eu7  1  0.519798  0.039597  0.505869  1
  Ba  Ba8  1  0.333333  0.666667  0.332139  1
  Ba  Ba9  1  0.340399  0.170200  0.161444  1
  Ba  Ba10  1  0.829800  0.170200  0.161444  1
  Ba  Ba11  1  0.170200  0.829800  0.661444  1
  Ba  Ba12  1  0.659601  0.829800  0.661444  1
  Ba  Ba13  1  0.666667  0.333333  0.832139  1
  Ba  Ba14  1  0.170200  0.340399  0.661444  1
  Ba  Ba15  1  0.829800  0.659601  0.161444  1
  Zn  Zn16  1  0.172053  0.344107  0.174546  1
  Zn  Zn17  1  0.172053  0.827947  0.174546  1
  Zn  Zn18  1  0.827947  0.655893  0.674546  1
  Zn  Zn19  1  0.827947  0.172053  0.674546  1
  Zn  Zn20  1  0.655893  0.827947  0.174546  1
  Zn  Zn21  1  0.344107  0.172053  0.674546  1
  Pt  Pt22  1  0.666667  0.333333  0.316626  1
  Pt  Pt23  1  0.333333  0.666667  0.816626  1
  O  O24  1  0.942284  0.337672  0.802890  1
  O  O25  1  0.168114  0.084057  0.572823  1
  O  O26  1  0.415130  0.830261  0.655785  1
  O  O27  1  0.251673  0.748327  0.987509  1
  O  O28  1  0.604612  0.662328  0.302890  1
  O  O29  1  0.337672  0.942284  0.302890  1
  O  O30  1  0.337672  0.395388  0.302890  1
  O  O31  1  0.584870  0.169739  0.155785  1
  O  O32  1  0.915943  0.084057  0.572823  1
  O  O33  1  0.748327  0.496654  0.487509  1
  O  O34  1  0.084057  0.915943  0.072822  1
  O  O35  1  0.503346  0.251673  0.487509  1
  O  O36  1  0.415130  0.584870  0.655785  1
  O  O37  1  0.395388  0.057716  0.802890  1
  O  O38  1  0.584870  0.415130  0.155785  1
  O  O39  1  0.604612  0.942284  0.302890  1
  O  O40  1  0.057716  0.662328  0.302890  1
  O  O41  1  0.662328  0.057716  0.802890  1
  O  O42  1  0.395388  0.337672  0.802890  1
  O  O43  1  0.496654  0.748327  0.987509  1
  O  O44  1  0.084057  0.168114  0.072822  1
  O  O45  1  0.169739  0.584870  0.655785  1
  O  O46  1  0.915943  0.831886  0.572823  1
  O  O47  1  0.831886  0.915943  0.072822  1
  O  O48  1  0.830261  0.415130  0.155785  1
  O  O49  1  0.251673  0.503346  0.987509  1
  O  O50  1  0.942284  0.604612  0.802890  1
  O  O51  1  0.748327  0.251673  0.487509  1
  O  O52  1  0.057716  0.395388  0.302890  1
  O  O53  1  0.662328  0.604612  0.802890  1
