# generated using pymatgen
data_Ce2Ti2SiO9
_symmetry_space_group_name_H-M   'P 1'
_cell_length_a   5.79253966
_cell_length_b   7.69977719
_cell_length_c   8.98276457
_cell_angle_alpha   110.02101427
_cell_angle_beta   108.80965763
_cell_angle_gamma   90.00000188
_symmetry_Int_Tables_number   1
_chemical_formula_structural   Ce2Ti2SiO9
_chemical_formula_sum   'Ce4 Ti4 Si2 O18'
_cell_volume   353.57215647
_cell_formula_units_Z   2
loop_
 _symmetry_equiv_pos_site_id
 _symmetry_equiv_pos_as_xyz
  1  'x, y, z'
loop_
 _atom_site_type_symbol
 _atom_site_label
 _atom_site_symmetry_multiplicity
 _atom_site_fract_x
 _atom_site_fract_y
 _atom_site_fract_z
 _atom_site_occupancy
  Ce  Ce0  1  0.104485  0.694570  0.208971  1
  Ce  Ce1  1  0.895515  0.305430  0.791029  1
  Ce  Ce2  1  0.211865  0.314825  0.423731  1
  Ce  Ce3  1  0.788135  0.685175  0.576269  1
  Ti  Ti4  1  0.418562  0.551842  0.837123  1
  Ti  Ti5  1  0.239835  1.000000  1.000000  1
  Ti  Ti6  1  0.760165  0.000000  0.000000  1
  Ti  Ti7  1  0.581438  0.448158  0.162877  1
  Si  Si8  1  0.335686  0.017350  0.671372  1
  Si  Si9  1  0.664314  0.982650  0.328628  1
  O  O10  1  0.528174  0.190607  0.056348  1
  O  O11  1  0.093443  0.516001  0.673404  1
  O  O12  1  0.656878  0.764908  0.313755  1
  O  O13  1  0.977053  0.815930  0.954105  1
  O  O14  1  0.420039  0.483999  0.326596  1
  O  O15  1  0.624953  0.984228  0.760565  1
  O  O16  1  0.271962  0.500000  1.000000  1
  O  O17  1  0.022947  0.184070  0.045895  1
  O  O18  1  0.579961  0.516001  0.673404  1
  O  O19  1  0.728038  0.500000  0.000000  1
  O  O20  1  0.343122  0.235092  0.686245  1
  O  O21  1  0.375047  0.015772  0.239435  1
  O  O22  1  0.241097  0.863462  0.482193  1
  O  O23  1  0.906557  0.483999  0.326596  1
  O  O24  1  0.135613  0.984228  0.760565  1
  O  O25  1  0.758903  0.136538  0.517807  1
  O  O26  1  0.471826  0.809393  0.943652  1
  O  O27  1  0.864387  0.015772  0.239435  1
