# generated using pymatgen
data_BaCu2Ge2O7
_symmetry_space_group_name_H-M   'P 1'
_cell_length_a   7.16232644
_cell_length_b   7.20812405
_cell_length_c   13.36557486
_cell_angle_alpha   90.00000000
_cell_angle_beta   90.00000000
_cell_angle_gamma   90.00000000
_symmetry_Int_Tables_number   1
_chemical_formula_structural   BaCu2Ge2O7
_chemical_formula_sum   'Ba4 Cu8 Ge8 O28'
_cell_volume   690.02369750
_cell_formula_units_Z   4
loop_
 _symmetry_equiv_pos_site_id
 _symmetry_equiv_pos_as_xyz
  1  'x, y, z'
loop_
 _atom_site_type_symbol
 _atom_site_label
 _atom_site_symmetry_multiplicity
 _atom_site_fract_x
 _atom_site_fract_y
 _atom_site_fract_z
 _atom_site_occupancy
  Ba  Ba0  1  0.024006  0.049728  0.750000  1
  Ba  Ba1  1  0.524006  0.450272  0.750000  1
  Ba  Ba2  1  0.475994  0.549728  0.250000  1
  Ba  Ba3  1  0.975994  0.950272  0.250000  1
  Cu  Cu4  1  0.785530  0.201771  0.994222  1
  Cu  Cu5  1  0.285530  0.298229  0.505778  1
  Cu  Cu6  1  0.714470  0.701771  0.005778  1
  Cu  Cu7  1  0.214470  0.798229  0.494222  1
  Cu  Cu8  1  0.214470  0.798229  0.005778  1
  Cu  Cu9  1  0.714470  0.701771  0.494222  1
  Cu  Cu10  1  0.285530  0.298229  0.994222  1
  Cu  Cu11  1  0.785530  0.201771  0.505778  1
  Ge  Ge12  1  0.011762  0.527473  0.871599  1
  Ge  Ge13  1  0.511762  0.972527  0.628401  1
  Ge  Ge14  1  0.488238  0.027473  0.128401  1
  Ge  Ge15  1  0.988238  0.472527  0.371599  1
  Ge  Ge16  1  0.988238  0.472527  0.128401  1
  Ge  Ge17  1  0.488238  0.027473  0.371599  1
  Ge  Ge18  1  0.511762  0.972527  0.871599  1
  Ge  Ge19  1  0.011762  0.527473  0.628401  1
  O  O20  1  0.898969  0.506186  0.750000  1
  O  O21  1  0.398969  0.993814  0.750000  1
  O  O22  1  0.601031  0.006186  0.250000  1
  O  O23  1  0.101031  0.493814  0.250000  1
  O  O24  1  0.189065  0.355498  0.864148  1
  O  O25  1  0.689065  0.144502  0.635852  1
  O  O26  1  0.310935  0.855498  0.135852  1
  O  O27  1  0.810935  0.644502  0.364148  1
  O  O28  1  0.810935  0.644502  0.135852  1
  O  O29  1  0.310935  0.855498  0.364148  1
  O  O30  1  0.689065  0.144502  0.864148  1
  O  O31  1  0.189065  0.355498  0.635852  1
  O  O32  1  0.077882  0.761591  0.884557  1
  O  O33  1  0.577882  0.738409  0.615443  1
  O  O34  1  0.422118  0.261591  0.115443  1
  O  O35  1  0.922118  0.238409  0.384557  1
  O  O36  1  0.922118  0.238409  0.115443  1
  O  O37  1  0.422118  0.261591  0.384557  1
  O  O38  1  0.577882  0.738409  0.884557  1
  O  O39  1  0.077882  0.761591  0.615443  1
  O  O40  1  0.821844  0.465023  0.954792  1
  O  O41  1  0.321844  0.034977  0.545208  1
  O  O42  1  0.678156  0.965023  0.045208  1
  O  O43  1  0.178156  0.534977  0.454792  1
  O  O44  1  0.178156  0.534977  0.045208  1
  O  O45  1  0.678156  0.965023  0.454792  1
  O  O46  1  0.321844  0.034977  0.954792  1
  O  O47  1  0.821844  0.465023  0.545208  1
