# generated using pymatgen
data_U2BiN2
_symmetry_space_group_name_H-M   'P 1'
_cell_length_a   4.58021466
_cell_length_b   4.58000119
_cell_length_c   6.11941932
_cell_angle_alpha   112.01687322
_cell_angle_beta   112.01787555
_cell_angle_gamma   89.90957341
_symmetry_Int_Tables_number   1
_chemical_formula_structural   U2BiN2
_chemical_formula_sum   'U2 Bi1 N2'
_cell_volume   108.87661911
_cell_formula_units_Z   1
loop_
 _symmetry_equiv_pos_site_id
 _symmetry_equiv_pos_as_xyz
  1  'x, y, z'
loop_
 _atom_site_type_symbol
 _atom_site_label
 _atom_site_symmetry_multiplicity
 _atom_site_fract_x
 _atom_site_fract_y
 _atom_site_fract_z
 _atom_site_occupancy
  U  U0  1  0.250018  0.749993  0.500011  1
  U  U1  1  0.749982  0.250007  0.499989  1
  Bi  Bi2  1  0.000000  0.000000  0.000000  1
  N  N3  1  0.275996  0.276000  0.552054  1
  N  N4  1  0.724004  0.724000  0.447946  1
