# generated using pymatgen
data_SrGa2(GeO4)2
_symmetry_space_group_name_H-M   'P 1'
_cell_length_a   8.69832536
_cell_length_b   9.32548490
_cell_length_c   9.79240463
_cell_angle_alpha   90.00000000
_cell_angle_beta   90.00000000
_cell_angle_gamma   90.47378199
_symmetry_Int_Tables_number   1
_chemical_formula_structural   SrGa2(GeO4)2
_chemical_formula_sum   'Sr4 Ga8 Ge8 O32'
_cell_volume   794.29453496
_cell_formula_units_Z   4
loop_
 _symmetry_equiv_pos_site_id
 _symmetry_equiv_pos_as_xyz
  1  'x, y, z'
loop_
 _atom_site_type_symbol
 _atom_site_label
 _atom_site_symmetry_multiplicity
 _atom_site_fract_x
 _atom_site_fract_y
 _atom_site_fract_z
 _atom_site_occupancy
  Sr  Sr0  1  0.250490  0.885412  0.412853  1
  Sr  Sr1  1  0.749510  0.614588  0.912853  1
  Sr  Sr2  1  0.749510  0.114588  0.587147  1
  Sr  Sr3  1  0.250490  0.385412  0.087147  1
  Ga  Ga4  1  0.932650  0.235065  0.924162  1
  Ga  Ga5  1  0.067350  0.264935  0.424162  1
  Ga  Ga6  1  0.067350  0.764935  0.075838  1
  Ga  Ga7  1  0.932650  0.735065  0.575838  1
  Ge  Ge8  1  0.561872  0.241966  0.920264  1
  Ge  Ge9  1  0.438128  0.258034  0.420264  1
  Ge  Ge10  1  0.438128  0.758034  0.079736  1
  Ge  Ge11  1  0.561872  0.741966  0.579736  1
  Ge  Ge12  1  0.939993  0.056931  0.199357  1
  Ge  Ge13  1  0.060007  0.443069  0.699357  1
  Ge  Ge14  1  0.060007  0.943069  0.800643  1
  Ge  Ge15  1  0.939993  0.556931  0.300643  1
  Ga  Ga16  1  0.568891  0.053564  0.193928  1
  Ga  Ga17  1  0.431109  0.446436  0.693928  1
  Ga  Ga18  1  0.431109  0.946436  0.806072  1
  Ga  Ga19  1  0.568891  0.553564  0.306072  1
  O  O20  1  0.019338  0.193593  0.091971  1
  O  O21  1  0.980662  0.306407  0.591971  1
  O  O22  1  0.980662  0.806407  0.908029  1
  O  O23  1  0.019338  0.693593  0.408029  1
  O  O24  1  0.482664  0.191049  0.079004  1
  O  O25  1  0.517336  0.308951  0.579004  1
  O  O26  1  0.517336  0.808951  0.920996  1
  O  O27  1  0.482664  0.691049  0.420996  1
  O  O28  1  0.933735  0.116296  0.371805  1
  O  O29  1  0.066265  0.383704  0.871805  1
  O  O30  1  0.066265  0.883704  0.628195  1
  O  O31  1  0.933735  0.616296  0.128195  1
  O  O32  1  0.566322  0.118445  0.373889  1
  O  O33  1  0.433678  0.381555  0.873889  1
  O  O34  1  0.433678  0.881555  0.626111  1
  O  O35  1  0.566322  0.618445  0.126110  1
  O  O36  1  0.074567  0.914737  0.199048  1
  O  O37  1  0.925433  0.585263  0.699048  1
  O  O38  1  0.925433  0.085263  0.800952  1
  O  O39  1  0.074567  0.414737  0.300952  1
  O  O40  1  0.429866  0.900246  0.198149  1
  O  O41  1  0.570134  0.599754  0.698149  1
  O  O42  1  0.570134  0.099754  0.801851  1
  O  O43  1  0.429866  0.400246  0.301851  1
  O  O44  1  0.760872  0.001413  0.135959  1
  O  O45  1  0.239128  0.498587  0.635959  1
  O  O46  1  0.239128  0.998587  0.864041  1
  O  O47  1  0.760872  0.501413  0.364041  1
  O  O48  1  0.744535  0.329407  0.925010  1
  O  O49  1  0.255465  0.170593  0.425010  1
  O  O50  1  0.255465  0.670593  0.074990  1
  O  O51  1  0.744535  0.829407  0.574990  1
