# generated using pymatgen
data_ZrI3
_symmetry_space_group_name_H-M   'P 1'
_cell_length_a   6.66040929
_cell_length_b   8.12532351
_cell_length_c   14.08771140
_cell_angle_alpha   90.00000000
_cell_angle_beta   90.00000000
_cell_angle_gamma   90.00000000
_symmetry_Int_Tables_number   1
_chemical_formula_structural   ZrI3
_chemical_formula_sum   'Zr4 I12'
_cell_volume   762.39848647
_cell_formula_units_Z   4
loop_
 _symmetry_equiv_pos_site_id
 _symmetry_equiv_pos_as_xyz
  1  'x, y, z'
loop_
 _atom_site_type_symbol
 _atom_site_label
 _atom_site_symmetry_multiplicity
 _atom_site_fract_x
 _atom_site_fract_y
 _atom_site_fract_z
 _atom_site_occupancy
  Zr  Zr0  1  0.486745  0.247705  0.750000  1
  Zr  Zr1  1  0.013255  0.247705  0.750000  1
  Zr  Zr2  1  0.513255  0.752295  0.250000  1
  Zr  Zr3  1  0.986745  0.752295  0.250000  1
  I  I4  1  0.250000  0.397784  0.899712  1
  I  I5  1  0.250000  0.947746  0.750000  1
  I  I6  1  0.250000  0.898295  0.103560  1
  I  I7  1  0.250000  0.898295  0.396440  1
  I  I8  1  0.750000  0.101705  0.603560  1
  I  I9  1  0.750000  0.602216  0.399712  1
  I  I10  1  0.750000  0.541094  0.750000  1
  I  I11  1  0.750000  0.101705  0.896440  1
  I  I12  1  0.750000  0.602216  0.100288  1
  I  I13  1  0.750000  0.052254  0.250000  1
  I  I14  1  0.250000  0.458906  0.250000  1
  I  I15  1  0.250000  0.397784  0.600288  1
