# generated using pymatgen
data_Rb3U2Ge2O11
_symmetry_space_group_name_H-M   'P 1'
_cell_length_a   7.06285522
_cell_length_b   12.40711780
_cell_length_c   15.60387376
_cell_angle_alpha   90.00000000
_cell_angle_beta   100.50213189
_cell_angle_gamma   90.00000000
_symmetry_Int_Tables_number   1
_chemical_formula_structural   Rb3U2Ge2O11
_chemical_formula_sum   'Rb12 U8 Ge8 O44'
_cell_volume   1344.45652931
_cell_formula_units_Z   4
loop_
 _symmetry_equiv_pos_site_id
 _symmetry_equiv_pos_as_xyz
  1  'x, y, z'
loop_
 _atom_site_type_symbol
 _atom_site_label
 _atom_site_symmetry_multiplicity
 _atom_site_fract_x
 _atom_site_fract_y
 _atom_site_fract_z
 _atom_site_occupancy
  Rb  Rb0  1  0.578818  0.649981  0.088227  1
  Rb  Rb1  1  0.884840  0.840394  0.338081  1
  Rb  Rb2  1  0.078818  0.850019  0.588227  1
  Rb  Rb3  1  0.085545  0.827264  0.074589  1
  Rb  Rb4  1  0.585545  0.672736  0.574589  1
  Rb  Rb5  1  0.384840  0.659606  0.838081  1
  Rb  Rb6  1  0.914455  0.172736  0.925411  1
  Rb  Rb7  1  0.421182  0.350019  0.911773  1
  Rb  Rb8  1  0.615160  0.340394  0.161919  1
  Rb  Rb9  1  0.921182  0.149981  0.411773  1
  Rb  Rb10  1  0.115160  0.159606  0.661919  1
  Rb  Rb11  1  0.414455  0.327264  0.425411  1
  U  U12  1  0.102782  0.556846  0.256243  1
  U  U13  1  0.897218  0.443154  0.743757  1
  U  U14  1  0.397218  0.056846  0.243757  1
  U  U15  1  0.000000  0.500000  0.000000  1
  U  U16  1  0.500000  0.000000  0.000000  1
  U  U17  1  0.602782  0.943154  0.756243  1
  U  U18  1  0.500000  0.000000  0.500000  1
  U  U19  1  0.000000  0.500000  0.500000  1
  Ge  Ge20  1  0.376295  0.426986  0.675199  1
  Ge  Ge21  1  0.384256  0.792345  0.340858  1
  Ge  Ge22  1  0.884256  0.707655  0.840858  1
  Ge  Ge23  1  0.623705  0.573014  0.324801  1
  Ge  Ge24  1  0.615744  0.207655  0.659142  1
  Ge  Ge25  1  0.115744  0.292345  0.159142  1
  Ge  Ge26  1  0.123705  0.926986  0.824801  1
  Ge  Ge27  1  0.876295  0.073014  0.175199  1
  O  O28  1  0.216192  0.020673  0.906291  1
  O  O29  1  0.084876  0.024996  0.245668  1
  O  O30  1  0.818041  0.272050  0.721152  1
  O  O31  1  0.298137  0.895067  0.759909  1
  O  O32  1  0.475284  0.886289  0.273178  1
  O  O33  1  0.783808  0.979327  0.093709  1
  O  O34  1  0.584876  0.475004  0.745668  1
  O  O35  1  0.850410  0.477293  0.614439  1
  O  O36  1  0.318041  0.227950  0.221152  1
  O  O37  1  0.649590  0.977293  0.885561  1
  O  O38  1  0.415124  0.524996  0.254332  1
  O  O39  1  0.024716  0.386289  0.226822  1
  O  O40  1  0.975284  0.613711  0.773178  1
  O  O41  1  0.201863  0.395067  0.740091  1
  O  O42  1  0.737250  0.948271  0.475982  1
  O  O43  1  0.430540  0.305012  0.621294  1
  O  O44  1  0.283808  0.520673  0.593709  1
  O  O45  1  0.046818  0.592226  0.124963  1
  O  O46  1  0.149590  0.522707  0.385561  1
  O  O47  1  0.831321  0.644271  0.934916  1
  O  O48  1  0.457809  0.851061  0.004393  1
  O  O49  1  0.668679  0.144271  0.565084  1
  O  O50  1  0.069460  0.805012  0.878706  1
  O  O51  1  0.524716  0.113711  0.726822  1
  O  O52  1  0.569460  0.694988  0.378706  1
  O  O53  1  0.042191  0.351061  0.495607  1
  O  O54  1  0.915124  0.975004  0.754332  1
  O  O55  1  0.350410  0.022707  0.114439  1
  O  O56  1  0.546818  0.907774  0.624963  1
  O  O57  1  0.762750  0.448271  0.024018  1
  O  O58  1  0.181959  0.727950  0.278848  1
  O  O59  1  0.957809  0.648939  0.504393  1
  O  O60  1  0.262750  0.051729  0.524018  1
  O  O61  1  0.542191  0.148939  0.995607  1
  O  O62  1  0.681959  0.772050  0.778848  1
  O  O63  1  0.453182  0.092226  0.375037  1
  O  O64  1  0.953182  0.407774  0.875037  1
  O  O65  1  0.331321  0.855729  0.434916  1
  O  O66  1  0.237250  0.551729  0.975982  1
  O  O67  1  0.701863  0.104933  0.240091  1
  O  O68  1  0.930540  0.194988  0.121294  1
  O  O69  1  0.798137  0.604933  0.259909  1
  O  O70  1  0.716192  0.479327  0.406291  1
  O  O71  1  0.168679  0.355729  0.065084  1
