# generated using pymatgen
data_K2Mo2P2O11
_symmetry_space_group_name_H-M   'P 1'
_cell_length_a   9.10446929
_cell_length_b   9.44774998
_cell_length_c   11.12085228
_cell_angle_alpha   90.00000000
_cell_angle_beta   90.00000000
_cell_angle_gamma   90.00000000
_symmetry_Int_Tables_number   1
_chemical_formula_structural   K2Mo2P2O11
_chemical_formula_sum   'K8 Mo8 P8 O44'
_cell_volume   956.57956538
_cell_formula_units_Z   4
loop_
 _symmetry_equiv_pos_site_id
 _symmetry_equiv_pos_as_xyz
  1  'x, y, z'
loop_
 _atom_site_type_symbol
 _atom_site_label
 _atom_site_symmetry_multiplicity
 _atom_site_fract_x
 _atom_site_fract_y
 _atom_site_fract_z
 _atom_site_occupancy
  K  K0  1  0.010509  0.702478  0.585410  1
  K  K1  1  0.989491  0.297522  0.414590  1
  K  K2  1  0.489491  0.202478  0.414590  1
  K  K3  1  0.489491  0.797522  0.085410  1
  K  K4  1  0.010509  0.297522  0.914590  1
  K  K5  1  0.510509  0.797522  0.585410  1
  K  K6  1  0.510509  0.202478  0.914590  1
  K  K7  1  0.989491  0.702478  0.085410  1
  Mo  Mo8  1  0.228433  0.077897  0.154035  1
  Mo  Mo9  1  0.771567  0.077897  0.654035  1
  Mo  Mo10  1  0.728433  0.422103  0.154035  1
  Mo  Mo11  1  0.228433  0.922103  0.345965  1
  Mo  Mo12  1  0.271567  0.422103  0.654035  1
  Mo  Mo13  1  0.271567  0.577897  0.845965  1
  Mo  Mo14  1  0.771567  0.922103  0.845965  1
  Mo  Mo15  1  0.728433  0.577897  0.345965  1
  P  P16  1  0.174067  0.070398  0.627523  1
  P  P17  1  0.325933  0.570398  0.372477  1
  P  P18  1  0.325933  0.429602  0.127522  1
  P  P19  1  0.174067  0.929602  0.872477  1
  P  P20  1  0.674067  0.570398  0.872477  1
  P  P21  1  0.825933  0.070398  0.127522  1
  P  P22  1  0.674067  0.429602  0.627523  1
  P  P23  1  0.825933  0.929602  0.372477  1
  O  O24  1  0.801954  0.128015  0.824463  1
  O  O25  1  0.513016  0.391755  0.644197  1
  O  O26  1  0.986984  0.891755  0.355803  1
  O  O27  1  0.301954  0.628015  0.675537  1
  O  O28  1  0.262680  0.500000  0.250000  1
  O  O29  1  0.737320  0.500000  0.750000  1
  O  O30  1  0.801954  0.871985  0.675537  1
  O  O31  1  0.271947  0.199401  0.603414  1
  O  O32  1  0.771947  0.300599  0.603414  1
  O  O33  1  0.698312  0.451749  0.965290  1
  O  O34  1  0.198046  0.128015  0.324463  1
  O  O35  1  0.301688  0.451749  0.465290  1
  O  O36  1  0.271947  0.800599  0.896586  1
  O  O37  1  0.228053  0.699401  0.396586  1
  O  O38  1  0.728053  0.800599  0.396586  1
  O  O39  1  0.728053  0.199401  0.103414  1
  O  O40  1  0.237320  0.000000  0.750000  1
  O  O41  1  0.417608  0.078669  0.137266  1
  O  O42  1  0.917608  0.578669  0.362734  1
  O  O43  1  0.228053  0.300599  0.103414  1
  O  O44  1  0.198312  0.048251  0.965290  1
  O  O45  1  0.698046  0.371985  0.324463  1
  O  O46  1  0.486984  0.391755  0.144197  1
  O  O47  1  0.986984  0.108245  0.144197  1
  O  O48  1  0.198312  0.951749  0.534710  1
  O  O49  1  0.082392  0.421331  0.637266  1
  O  O50  1  0.582392  0.921331  0.862734  1
  O  O51  1  0.771947  0.699401  0.896586  1
  O  O52  1  0.698312  0.548251  0.534710  1
  O  O53  1  0.417608  0.921331  0.362734  1
  O  O54  1  0.513016  0.608245  0.855803  1
  O  O55  1  0.801688  0.048251  0.465290  1
  O  O56  1  0.801688  0.951749  0.034710  1
  O  O57  1  0.698046  0.628015  0.175537  1
  O  O58  1  0.198046  0.871985  0.175537  1
  O  O59  1  0.486984  0.608245  0.355803  1
  O  O60  1  0.013016  0.891755  0.855803  1
  O  O61  1  0.582392  0.078669  0.637266  1
  O  O62  1  0.301954  0.371985  0.824463  1
  O  O63  1  0.082392  0.578669  0.862734  1
  O  O64  1  0.917608  0.421331  0.137266  1
  O  O65  1  0.013016  0.108245  0.644197  1
  O  O66  1  0.762680  0.000000  0.250000  1
  O  O67  1  0.301688  0.548251  0.034710  1
