# generated using pymatgen
data_Na5LiN2
_symmetry_space_group_name_H-M   'P 1'
_cell_length_a   4.32900149
_cell_length_b   4.32900131
_cell_length_c   6.14606312
_cell_angle_alpha   88.97220048
_cell_angle_beta   88.97220043
_cell_angle_gamma   91.45126464
_symmetry_Int_Tables_number   1
_chemical_formula_structural   Na5LiN2
_chemical_formula_sum   'Na5 Li1 N2'
_cell_volume   115.10381616
_cell_formula_units_Z   1
loop_
 _symmetry_equiv_pos_site_id
 _symmetry_equiv_pos_as_xyz
  1  'x, y, z'
loop_
 _atom_site_type_symbol
 _atom_site_label
 _atom_site_symmetry_multiplicity
 _atom_site_fract_x
 _atom_site_fract_y
 _atom_site_fract_z
 _atom_site_occupancy
  Na  Na0  1  0.374331  0.625669  0.000000  1
  Na  Na1  1  0.431864  0.146362  0.785677  1
  Na  Na2  1  0.917003  0.082997  0.500000  1
  Na  Na3  1  0.383262  0.616738  0.500000  1
  Na  Na4  1  0.853638  0.568136  0.214323  1
  Li  Li5  1  0.900709  0.099291  1.000000  1
  N  N6  1  0.890957  0.572764  0.777592  1
  N  N7  1  0.427236  0.109043  0.222408  1
