# generated using pymatgen
data_CsB(CF4)2
_symmetry_space_group_name_H-M   'P 1'
_cell_length_a   6.08203867
_cell_length_b   7.71397577
_cell_length_c   8.36858297
_cell_angle_alpha   90.00000000
_cell_angle_beta   100.80612465
_cell_angle_gamma   90.00000000
_symmetry_Int_Tables_number   1
_chemical_formula_structural   CsB(CF4)2
_chemical_formula_sum   'Cs2 B2 C4 F16'
_cell_volume   385.66393023
_cell_formula_units_Z   2
loop_
 _symmetry_equiv_pos_site_id
 _symmetry_equiv_pos_as_xyz
  1  'x, y, z'
loop_
 _atom_site_type_symbol
 _atom_site_label
 _atom_site_symmetry_multiplicity
 _atom_site_fract_x
 _atom_site_fract_y
 _atom_site_fract_z
 _atom_site_occupancy
  Cs  Cs0  1  0.018932  0.250000  0.221060  1
  Cs  Cs1  1  0.981068  0.750000  0.778940  1
  B  B2  1  0.315764  0.750000  0.205437  1
  B  B3  1  0.684236  0.250000  0.794563  1
  C  C4  1  0.427534  0.250000  0.832113  1
  C  C5  1  0.693523  0.250000  0.596307  1
  C  C6  1  0.572466  0.750000  0.167887  1
  C  C7  1  0.306477  0.750000  0.403693  1
  F  F8  1  0.487771  0.250000  0.492484  1
  F  F9  1  0.301824  0.392688  0.771956  1
  F  F10  1  0.204012  0.900431  0.131970  1
  F  F11  1  0.795988  0.400431  0.868030  1
  F  F12  1  0.698176  0.892688  0.228044  1
  F  F13  1  0.194671  0.607924  0.450839  1
  F  F14  1  0.301824  0.107312  0.771956  1
  F  F15  1  0.795988  0.099569  0.868030  1
  F  F16  1  0.698176  0.607312  0.228044  1
  F  F17  1  0.194671  0.892076  0.450839  1
  F  F18  1  0.805329  0.107924  0.549161  1
  F  F19  1  0.571148  0.750000  0.001616  1
  F  F20  1  0.204012  0.599569  0.131970  1
  F  F21  1  0.428852  0.250000  0.998384  1
  F  F22  1  0.512229  0.750000  0.507516  1
  F  F23  1  0.805329  0.392076  0.549161  1
