# generated using pymatgen
data_KNa2NiO2
_symmetry_space_group_name_H-M   'P 1'
_cell_length_a   6.09132464
_cell_length_b   6.09132473
_cell_length_c   12.57065658
_cell_angle_alpha   90.00000000
_cell_angle_beta   90.00000000
_cell_angle_gamma   117.57192612
_symmetry_Int_Tables_number   1
_chemical_formula_structural   KNa2NiO2
_chemical_formula_sum   'K4 Na8 Ni4 O8'
_cell_volume   413.45299405
_cell_formula_units_Z   4
loop_
 _symmetry_equiv_pos_site_id
 _symmetry_equiv_pos_as_xyz
  1  'x, y, z'
loop_
 _atom_site_type_symbol
 _atom_site_label
 _atom_site_symmetry_multiplicity
 _atom_site_fract_x
 _atom_site_fract_y
 _atom_site_fract_z
 _atom_site_occupancy
  K  K0  1  0.809018  0.190982  0.629131  1
  K  K1  1  0.690982  0.309018  0.129131  1
  K  K2  1  0.309018  0.690982  0.870869  1
  K  K3  1  0.190982  0.809018  0.370869  1
  Na  Na4  1  0.229538  0.229538  0.000000  1
  Na  Na5  1  0.270462  0.270462  0.500000  1
  Na  Na6  1  0.277362  0.222638  0.750000  1
  Na  Na7  1  0.722638  0.777362  0.250000  1
  Na  Na8  1  0.777362  0.722638  0.750000  1
  Na  Na9  1  0.729538  0.729538  0.500000  1
  Na  Na10  1  0.222638  0.277362  0.250000  1
  Na  Na11  1  0.770462  0.770462  0.000000  1
  Ni  Ni12  1  0.749175  0.250825  0.876045  1
  Ni  Ni13  1  0.249175  0.750825  0.623955  1
  Ni  Ni14  1  0.750825  0.249175  0.376045  1
  Ni  Ni15  1  0.250825  0.749175  0.123955  1
  O  O16  1  0.921101  0.078899  0.863776  1
  O  O17  1  0.577452  0.422548  0.885089  1
  O  O18  1  0.422548  0.577452  0.114911  1
  O  O19  1  0.421101  0.578899  0.636224  1
  O  O20  1  0.578899  0.421101  0.363776  1
  O  O21  1  0.922548  0.077452  0.385089  1
  O  O22  1  0.078899  0.921101  0.136224  1
  O  O23  1  0.077452  0.922548  0.614911  1
