# generated using pymatgen
data_C3S2ClO2F3
_symmetry_space_group_name_H-M   'P 1'
_cell_length_a   5.77263227
_cell_length_b   8.81924592
_cell_length_c   17.02532633
_cell_angle_alpha   90.00000000
_cell_angle_beta   90.00000000
_cell_angle_gamma   106.19895327
_symmetry_Int_Tables_number   1
_chemical_formula_structural   C3S2ClO2F3
_chemical_formula_sum   'C12 S8 Cl4 O8 F12'
_cell_volume   832.35227016
_cell_formula_units_Z   4
loop_
 _symmetry_equiv_pos_site_id
 _symmetry_equiv_pos_as_xyz
  1  'x, y, z'
loop_
 _atom_site_type_symbol
 _atom_site_label
 _atom_site_symmetry_multiplicity
 _atom_site_fract_x
 _atom_site_fract_y
 _atom_site_fract_z
 _atom_site_occupancy
  C  C0  1  0.455157  0.207002  0.407972  1
  C  C1  1  0.044843  0.292998  0.907972  1
  C  C2  1  0.884142  0.703723  0.003398  1
  C  C3  1  0.453215  0.003355  0.765525  1
  C  C4  1  0.544843  0.792998  0.592028  1
  C  C5  1  0.046785  0.496645  0.265525  1
  C  C6  1  0.546785  0.996645  0.234475  1
  C  C7  1  0.115858  0.296277  0.996602  1
  C  C8  1  0.384142  0.203723  0.496602  1
  C  C9  1  0.955157  0.707002  0.092028  1
  C  C10  1  0.953215  0.503355  0.734475  1
  C  C11  1  0.615858  0.796277  0.503398  1
  S  S12  1  0.131157  0.369393  0.740175  1
  S  S13  1  0.221609  0.079288  0.349071  1
  S  S14  1  0.778391  0.920712  0.650929  1
  S  S15  1  0.868843  0.630607  0.259825  1
  S  S16  1  0.631157  0.869393  0.759825  1
  S  S17  1  0.368843  0.130607  0.240175  1
  S  S18  1  0.721609  0.579288  0.150929  1
  S  S19  1  0.278391  0.420712  0.849071  1
  Cl  Cl20  1  0.308583  0.175744  0.012723  1
  Cl  Cl21  1  0.191417  0.324256  0.512723  1
  Cl  Cl22  1  0.808583  0.675744  0.487277  1
  Cl  Cl23  1  0.691417  0.824256  0.987277  1
  O  O24  1  0.921017  0.598763  0.779990  1
  O  O25  1  0.078983  0.401237  0.220010  1
  O  O26  1  0.852229  0.211787  0.884738  1
  O  O27  1  0.352229  0.711787  0.615262  1
  O  O28  1  0.421017  0.098763  0.720010  1
  O  O29  1  0.147771  0.788213  0.115262  1
  O  O30  1  0.578983  0.901237  0.279990  1
  O  O31  1  0.647771  0.288213  0.384738  1
  F  F32  1  0.658097  0.021323  0.162377  1
  F  F33  1  0.841903  0.478677  0.662377  1
  F  F34  1  0.231066  0.448467  0.018761  1
  F  F35  1  0.268934  0.051533  0.518761  1
  F  F36  1  0.085322  0.753849  0.959037  1
  F  F37  1  0.158097  0.521323  0.337623  1
  F  F38  1  0.731066  0.948467  0.481239  1
  F  F39  1  0.914678  0.246151  0.040963  1
  F  F40  1  0.414678  0.746151  0.459037  1
  F  F41  1  0.341903  0.978677  0.837623  1
  F  F42  1  0.585322  0.253849  0.540963  1
  F  F43  1  0.768934  0.551533  0.981239  1
