# generated using pymatgen
data_K2(ReSe2)3
_symmetry_space_group_name_H-M   'P 1'
_cell_length_a   10.14793196
_cell_length_b   10.14793206
_cell_length_c   12.52955593
_cell_angle_alpha   88.65268235
_cell_angle_beta   88.65268234
_cell_angle_gamma   60.64482849
_symmetry_Int_Tables_number   1
_chemical_formula_structural   K2(ReSe2)3
_chemical_formula_sum   'K8 Re12 Se24'
_cell_volume   1124.20532503
_cell_formula_units_Z   4
loop_
 _symmetry_equiv_pos_site_id
 _symmetry_equiv_pos_as_xyz
  1  'x, y, z'
loop_
 _atom_site_type_symbol
 _atom_site_label
 _atom_site_symmetry_multiplicity
 _atom_site_fract_x
 _atom_site_fract_y
 _atom_site_fract_z
 _atom_site_occupancy
  Re  Re0  1  0.315650  0.003478  0.525831  1
  Re  Re1  1  0.996522  0.684350  0.974169  1
  Re  Re2  1  0.684350  0.996522  0.474169  1
  Re  Re3  1  0.003478  0.315650  0.025831  1
  Re  Re4  1  0.469991  0.112627  0.625584  1
  Re  Re5  1  0.887373  0.530009  0.874416  1
  Re  Re6  1  0.530009  0.887373  0.374416  1
  Re  Re7  1  0.112627  0.469991  0.125584  1
  Re  Re8  1  0.600951  0.818397  0.581276  1
  Re  Re9  1  0.181603  0.399049  0.918724  1
  Re  Re10  1  0.399049  0.181603  0.418724  1
  Re  Re11  1  0.818397  0.600951  0.081276  1
  K  K12  1  0.397389  0.602611  0.750000  1
  K  K13  1  0.602611  0.397389  0.250000  1
  K  K14  1  0.783594  0.216406  0.750000  1
  K  K15  1  0.216406  0.783594  0.250000  1
  K  K16  1  0.648811  0.122124  0.016864  1
  K  K17  1  0.877876  0.351189  0.483136  1
  K  K18  1  0.351189  0.877876  0.983136  1
  K  K19  1  0.122124  0.648811  0.516864  1
  Se  Se20  1  0.253814  0.071927  0.330518  1
  Se  Se21  1  0.928073  0.746186  0.169482  1
  Se  Se22  1  0.746186  0.928073  0.669482  1
  Se  Se23  1  0.071927  0.253814  0.830518  1
  Se  Se24  1  0.715135  0.799169  0.930819  1
  Se  Se25  1  0.200831  0.284865  0.569181  1
  Se  Se26  1  0.284865  0.200831  0.069181  1
  Se  Se27  1  0.799169  0.715135  0.430819  1
  Se  Se28  1  0.610717  0.059917  0.279108  1
  Se  Se29  1  0.940083  0.389283  0.220892  1
  Se  Se30  1  0.389283  0.940083  0.720892  1
  Se  Se31  1  0.059917  0.610717  0.779108  1
  Se  Se32  1  0.551386  0.280240  0.518534  1
  Se  Se33  1  0.719760  0.448614  0.981466  1
  Se  Se34  1  0.448614  0.719760  0.481466  1
  Se  Se35  1  0.280240  0.551386  0.018534  1
  Se  Se36  1  0.995923  0.068536  0.081109  1
  Se  Se37  1  0.931464  0.004077  0.418891  1
  Se  Se38  1  0.004077  0.931464  0.918891  1
  Se  Se39  1  0.068536  0.995923  0.581109  1
  Se  Se40  1  0.438533  0.264875  0.804040  1
  Se  Se41  1  0.735125  0.561467  0.695960  1
  Se  Se42  1  0.561467  0.735125  0.195960  1
  Se  Se43  1  0.264875  0.438533  0.304040  1
