# generated using pymatgen
data_Ba5(FeS2)9
_symmetry_space_group_name_H-M   'P 1'
_cell_length_a   7.77417640
_cell_length_b   7.77417640
_cell_length_c   48.05693716
_cell_angle_alpha   90.00000000
_cell_angle_beta   90.00000000
_cell_angle_gamma   90.00000000
_symmetry_Int_Tables_number   1
_chemical_formula_structural   Ba5(FeS2)9
_chemical_formula_sum   'Ba20 Fe36 S72'
_cell_volume   2904.45645527
_cell_formula_units_Z   4
loop_
 _symmetry_equiv_pos_site_id
 _symmetry_equiv_pos_as_xyz
  1  'x, y, z'
loop_
 _atom_site_type_symbol
 _atom_site_label
 _atom_site_symmetry_multiplicity
 _atom_site_fract_x
 _atom_site_fract_y
 _atom_site_fract_z
 _atom_site_occupancy
  Ba  Ba0  1  0.750000  0.750000  0.774055  1
  Ba  Ba1  1  0.750000  0.750000  0.873571  1
  Ba  Ba2  1  0.250000  0.250000  0.126429  1
  Ba  Ba3  1  0.750000  0.750000  0.467376  1
  Ba  Ba4  1  0.250000  0.250000  0.431753  1
  Ba  Ba5  1  0.750000  0.750000  0.274055  1
  Ba  Ba6  1  0.250000  0.250000  0.626429  1
  Ba  Ba7  1  0.750000  0.750000  0.373571  1
  Ba  Ba8  1  0.250000  0.250000  0.032624  1
  Ba  Ba9  1  0.250000  0.250000  0.725945  1
  Ba  Ba10  1  0.250000  0.250000  0.532624  1
  Ba  Ba11  1  0.250000  0.250000  0.225945  1
  Ba  Ba12  1  0.750000  0.750000  0.671588  1
  Ba  Ba13  1  0.250000  0.250000  0.931753  1
  Ba  Ba14  1  0.750000  0.750000  0.068247  1
  Ba  Ba15  1  0.250000  0.250000  0.328412  1
  Ba  Ba16  1  0.750000  0.750000  0.171588  1
  Ba  Ba17  1  0.750000  0.750000  0.967376  1
  Ba  Ba18  1  0.750000  0.750000  0.568247  1
  Ba  Ba19  1  0.250000  0.250000  0.828412  1
  Fe  Fe20  1  0.250000  0.750000  0.391015  1
  Fe  Fe21  1  0.250000  0.750000  0.445324  1
  Fe  Fe22  1  0.750000  0.250000  0.554676  1
  Fe  Fe23  1  0.750000  0.250000  0.779336  1
  Fe  Fe24  1  0.750000  0.250000  0.108985  1
  Fe  Fe25  1  0.750000  0.250000  0.608985  1
  Fe  Fe26  1  0.250000  0.750000  0.335869  1
  Fe  Fe27  1  0.750000  0.250000  0.220664  1
  Fe  Fe28  1  0.750000  0.250000  0.445324  1
  Fe  Fe29  1  0.250000  0.750000  0.554676  1
  Fe  Fe30  1  0.750000  0.250000  0.891015  1
  Fe  Fe31  1  0.250000  0.750000  0.891015  1
  Fe  Fe32  1  0.250000  0.750000  0.945324  1
  Fe  Fe33  1  0.750000  0.250000  0.164131  1
  Fe  Fe34  1  0.250000  0.750000  0.835869  1
  Fe  Fe35  1  0.250000  0.750000  0.500000  1
  Fe  Fe36  1  0.750000  0.250000  0.391015  1
  Fe  Fe37  1  0.250000  0.750000  0.108985  1
  Fe  Fe38  1  0.750000  0.250000  0.664131  1
  Fe  Fe39  1  0.250000  0.750000  0.608985  1
  Fe  Fe40  1  0.750000  0.250000  0.945324  1
  Fe  Fe41  1  0.250000  0.750000  0.164131  1
  Fe  Fe42  1  0.750000  0.250000  0.279336  1
  Fe  Fe43  1  0.750000  0.250000  0.720664  1
  Fe  Fe44  1  0.750000  0.250000  0.335869  1
  Fe  Fe45  1  0.750000  0.250000  0.500000  1
  Fe  Fe46  1  0.250000  0.750000  0.279336  1
  Fe  Fe47  1  0.250000  0.750000  0.000000  1
  Fe  Fe48  1  0.750000  0.250000  0.054676  1
  Fe  Fe49  1  0.250000  0.750000  0.664131  1
  Fe  Fe50  1  0.250000  0.750000  0.054676  1
  Fe  Fe51  1  0.250000  0.750000  0.779336  1
  Fe  Fe52  1  0.250000  0.750000  0.720664  1
  Fe  Fe53  1  0.250000  0.750000  0.220664  1
  Fe  Fe54  1  0.750000  0.250000  0.000000  1
  Fe  Fe55  1  0.750000  0.250000  0.835869  1
  S  S56  1  0.444410  0.865998  0.918610  1
  S  S57  1  0.600991  0.399009  0.250000  1
  S  S58  1  0.609403  0.084414  0.307092  1
  S  S59  1  0.865998  0.055590  0.918610  1
  S  S60  1  0.584414  0.109403  0.192908  1
  S  S61  1  0.555590  0.134002  0.081390  1
  S  S62  1  0.619286  0.066516  0.636300  1
  S  S63  1  0.567086  0.379128  0.473036  1
  S  S64  1  0.879128  0.432914  0.526964  1
  S  S65  1  0.119286  0.566516  0.363700  1
  S  S66  1  0.432914  0.879128  0.026964  1
  S  S67  1  0.380714  0.566516  0.863700  1
  S  S68  1  0.880714  0.066516  0.136300  1
  S  S69  1  0.619286  0.433484  0.136300  1
  S  S70  1  0.100991  0.600991  0.250000  1
  S  S71  1  0.915586  0.109403  0.692908  1
  S  S72  1  0.380714  0.933484  0.363700  1
  S  S73  1  0.390597  0.584414  0.192908  1
  S  S74  1  0.566516  0.119286  0.863700  1
  S  S75  1  0.634002  0.055590  0.418610  1
  S  S76  1  0.120872  0.567086  0.473036  1
  S  S77  1  0.067086  0.879128  0.526964  1
  S  S78  1  0.609403  0.415586  0.807092  1
  S  S79  1  0.390597  0.915586  0.692908  1
  S  S80  1  0.634002  0.444410  0.918610  1
  S  S81  1  0.134002  0.944410  0.081390  1
  S  S82  1  0.084414  0.609403  0.807092  1
  S  S83  1  0.555590  0.365998  0.581390  1
  S  S84  1  0.055590  0.865998  0.418610  1
  S  S85  1  0.600991  0.100991  0.750000  1
  S  S86  1  0.365998  0.944410  0.581390  1
  S  S87  1  0.119286  0.933484  0.863700  1
  S  S88  1  0.084414  0.890597  0.307092  1
  S  S89  1  0.415586  0.609403  0.307092  1
  S  S90  1  0.100991  0.899009  0.750000  1
  S  S91  1  0.915586  0.390597  0.192908  1
  S  S92  1  0.933484  0.380714  0.863700  1
  S  S93  1  0.066516  0.880714  0.636300  1
  S  S94  1  0.944410  0.134002  0.581390  1
  S  S95  1  0.566516  0.380714  0.363700  1
  S  S96  1  0.567086  0.120872  0.973036  1
  S  S97  1  0.134002  0.555590  0.581390  1
  S  S98  1  0.584414  0.390597  0.692908  1
  S  S99  1  0.879128  0.067086  0.026964  1
  S  S100  1  0.944410  0.365998  0.081390  1
  S  S101  1  0.433484  0.619286  0.636300  1
  S  S102  1  0.399009  0.899009  0.250000  1
  S  S103  1  0.890597  0.084414  0.807092  1
  S  S104  1  0.433484  0.880714  0.136300  1
  S  S105  1  0.120872  0.932914  0.973036  1
  S  S106  1  0.865998  0.444410  0.418610  1
  S  S107  1  0.379128  0.932914  0.473036  1
  S  S108  1  0.890597  0.415586  0.307092  1
  S  S109  1  0.379128  0.567086  0.973036  1
  S  S110  1  0.899009  0.100991  0.250000  1
  S  S111  1  0.933484  0.119286  0.363700  1
  S  S112  1  0.055590  0.634002  0.918610  1
  S  S113  1  0.432914  0.620872  0.526964  1
  S  S114  1  0.932914  0.120872  0.473036  1
  S  S115  1  0.620872  0.067086  0.526964  1
  S  S116  1  0.620872  0.432914  0.026964  1
  S  S117  1  0.365998  0.555590  0.081390  1
  S  S118  1  0.415586  0.890597  0.807092  1
  S  S119  1  0.932914  0.379128  0.973036  1
  S  S120  1  0.066516  0.619286  0.136300  1
  S  S121  1  0.899009  0.399009  0.750000  1
  S  S122  1  0.399009  0.600991  0.750000  1
  S  S123  1  0.067086  0.620872  0.026964  1
  S  S124  1  0.444410  0.634002  0.418610  1
  S  S125  1  0.880714  0.433484  0.636300  1
  S  S126  1  0.109403  0.915586  0.192908  1
  S  S127  1  0.109403  0.584414  0.692908  1
