# generated using pymatgen
data_MnAl2P2(HO)18
_symmetry_space_group_name_H-M   'P 1'
_cell_length_a   5.25402896
_cell_length_b   7.17834183
_cell_length_c   10.73477439
_cell_angle_alpha   92.10123919
_cell_angle_beta   107.17381869
_cell_angle_gamma   113.44145741
_symmetry_Int_Tables_number   1
_chemical_formula_structural   MnAl2P2(HO)18
_chemical_formula_sum   'Mn1 Al2 P2 H18 O18'
_cell_volume   349.35886859
_cell_formula_units_Z   1
loop_
 _symmetry_equiv_pos_site_id
 _symmetry_equiv_pos_as_xyz
  1  'x, y, z'
loop_
 _atom_site_type_symbol
 _atom_site_label
 _atom_site_symmetry_multiplicity
 _atom_site_fract_x
 _atom_site_fract_y
 _atom_site_fract_z
 _atom_site_occupancy
  Mn  Mn0  1  0.000000  0.000000  0.000000  1
  Al  Al1  1  0.000000  0.000000  0.500000  1
  Al  Al2  1  0.500000  0.500000  0.500000  1
  P  P3  1  0.567703  0.913205  0.663639  1
  P  P4  1  0.432297  0.086795  0.336361  1
  O  O5  1  0.874909  0.031698  0.649077  1
  O  O6  1  0.125091  0.968302  0.350923  1
  O  O7  1  0.399737  0.695889  0.575746  1
  O  O8  1  0.600263  0.304111  0.424254  1
  O  O9  1  0.610671  0.894362  0.811640  1
  O  O10  1  0.389329  0.105638  0.188360  1
  O  O11  1  0.619263  0.962070  0.378338  1
  O  O12  1  0.380737  0.037930  0.621662  1
  O  O13  1  0.149352  0.289375  0.502813  1
  O  O14  1  0.850648  0.710625  0.497187  1
  O  O15  1  0.318554  0.555260  0.320668  1
  O  O16  1  0.681446  0.444740  0.679332  1
  O  O17  1  0.071015  0.323536  0.010871  1
  O  O18  1  0.928985  0.676464  0.989129  1
  O  O19  1  0.718676  0.930886  0.119957  1
  O  O20  1  0.281324  0.069113  0.880043  1
  O  O21  1  0.232687  0.506752  0.811263  1
  O  O22  1  0.767313  0.493248  0.188737  1
  H  H23  1  0.982595  0.326530  0.488205  1
  H  H24  1  0.017405  0.673470  0.511795  1
  H  H25  1  0.421369  0.711076  0.332464  1
  H  H26  1  0.578631  0.288924  0.667536  1
  H  H27  1  0.102093  0.520604  0.281764  1
  H  H28  1  0.897907  0.479396  0.718236  1
  H  H29  1  0.173095  0.411888  0.097809  1
  H  H30  1  0.826905  0.588112  0.902191  1
  H  H31  1  0.157876  0.403486  0.948172  1
  H  H32  1  0.842124  0.596514  0.051828  1
  H  H33  1  0.852268  0.945023  0.211565  1
  H  H34  1  0.147732  0.054977  0.788435  1
  H  H35  1  0.588460  0.993999  0.132240  1
  H  H36  1  0.411540  0.006001  0.867760  1
  H  H37  1  0.380970  0.652102  0.818407  1
  H  H38  1  0.619030  0.347898  0.181593  1
  H  H39  1  0.280661  0.420848  0.757791  1
  H  H40  1  0.719339  0.579152  0.242209  1
