# generated using pymatgen
data_K3LiSiO4
_symmetry_space_group_name_H-M   'P 1'
_cell_length_a   9.87634414
_cell_length_b   11.46497782
_cell_length_c   11.46836285
_cell_angle_alpha   117.29785212
_cell_angle_beta   90.00000000
_cell_angle_gamma   90.00000000
_symmetry_Int_Tables_number   1
_chemical_formula_structural   K3LiSiO4
_chemical_formula_sum   'K24 Li8 Si8 O32'
_cell_volume   1153.96860177
_cell_formula_units_Z   8
loop_
 _symmetry_equiv_pos_site_id
 _symmetry_equiv_pos_as_xyz
  1  'x, y, z'
loop_
 _atom_site_type_symbol
 _atom_site_label
 _atom_site_symmetry_multiplicity
 _atom_site_fract_x
 _atom_site_fract_y
 _atom_site_fract_z
 _atom_site_occupancy
  K  K0  1  0.082322  0.963646  0.109092  1
  K  K1  1  0.918621  0.411156  0.060025  1
  K  K2  1  0.418621  0.088844  0.439975  1
  K  K3  1  0.229362  0.973433  0.659118  1
  K  K4  1  0.729362  0.526567  0.840882  1
  K  K5  1  0.911396  0.889066  0.543068  1
  K  K6  1  0.741587  0.342118  0.526186  1
  K  K7  1  0.241587  0.157882  0.973814  1
  K  K8  1  0.088604  0.110934  0.456932  1
  K  K9  1  0.912365  0.570203  0.405867  1
  K  K10  1  0.588604  0.389066  0.043068  1
  K  K11  1  0.411396  0.610934  0.956932  1
  K  K12  1  0.587635  0.070203  0.905867  1
  K  K13  1  0.582322  0.536354  0.390908  1
  K  K14  1  0.417678  0.463646  0.609092  1
  K  K15  1  0.081379  0.588844  0.939975  1
  K  K16  1  0.270638  0.473433  0.159118  1
  K  K17  1  0.258413  0.657882  0.473814  1
  K  K18  1  0.758413  0.842118  0.026186  1
  K  K19  1  0.917678  0.036354  0.890908  1
  K  K20  1  0.412365  0.929797  0.094133  1
  K  K21  1  0.581379  0.911156  0.560025  1
  K  K22  1  0.770638  0.026567  0.340882  1
  K  K23  1  0.087635  0.429797  0.594133  1
  Li  Li24  1  0.136543  0.270068  0.282572  1
  Li  Li25  1  0.879332  0.719816  0.235226  1
  Li  Li26  1  0.620668  0.219816  0.735226  1
  Li  Li27  1  0.363457  0.770068  0.782572  1
  Li  Li28  1  0.636543  0.229932  0.217428  1
  Li  Li29  1  0.863457  0.729932  0.717428  1
  Li  Li30  1  0.379332  0.780184  0.264774  1
  Li  Li31  1  0.120668  0.280184  0.764774  1
  Si  Si32  1  0.126694  0.784140  0.266308  1
  Si  Si33  1  0.610660  0.740710  0.718295  1
  Si  Si34  1  0.389340  0.259290  0.281705  1
  Si  Si35  1  0.626694  0.715860  0.233692  1
  Si  Si36  1  0.889340  0.240710  0.218295  1
  Si  Si37  1  0.373306  0.284140  0.766308  1
  Si  Si38  1  0.110660  0.759290  0.781705  1
  Si  Si39  1  0.873306  0.215860  0.733692  1
  O  O40  1  0.941740  0.358629  0.756730  1
  O  O41  1  0.719203  0.859505  0.738328  1
  O  O42  1  0.478268  0.734734  0.626084  1
  O  O43  1  0.042684  0.731830  0.637500  1
  O  O44  1  0.219203  0.640495  0.761672  1
  O  O45  1  0.957316  0.268170  0.362500  1
  O  O46  1  0.725539  0.648579  0.101282  1
  O  O47  1  0.542684  0.768170  0.862500  1
  O  O48  1  0.058260  0.641371  0.243270  1
  O  O49  1  0.493465  0.622164  0.221420  1
  O  O50  1  0.228750  0.762147  0.142316  1
  O  O51  1  0.558260  0.858629  0.256730  1
  O  O52  1  0.201779  0.896950  0.849675  1
  O  O53  1  0.771250  0.237853  0.857684  1
  O  O54  1  0.728750  0.737853  0.357684  1
  O  O55  1  0.457316  0.231830  0.137500  1
  O  O56  1  0.701779  0.603050  0.650325  1
  O  O57  1  0.978268  0.765266  0.873916  1
  O  O58  1  0.225539  0.851421  0.398718  1
  O  O59  1  0.274461  0.351421  0.898718  1
  O  O60  1  0.798221  0.103050  0.150325  1
  O  O61  1  0.780797  0.359505  0.238328  1
  O  O62  1  0.280797  0.140495  0.261672  1
  O  O63  1  0.021732  0.234734  0.126084  1
  O  O64  1  0.506535  0.377836  0.778580  1
  O  O65  1  0.006535  0.122164  0.721420  1
  O  O66  1  0.521732  0.265266  0.373916  1
  O  O67  1  0.774461  0.148579  0.601282  1
  O  O68  1  0.441740  0.141371  0.743270  1
  O  O69  1  0.993465  0.877836  0.278580  1
  O  O70  1  0.271250  0.262147  0.642316  1
  O  O71  1  0.298221  0.396950  0.349675  1
