# generated using pymatgen
data_LiPO3
_symmetry_space_group_name_H-M   'P 1'
_cell_length_a   5.50840466
_cell_length_b   13.28197282
_cell_length_c   16.77348333
_cell_angle_alpha   99.24857288
_cell_angle_beta   90.00000000
_cell_angle_gamma   90.00000000
_symmetry_Int_Tables_number   1
_chemical_formula_structural   LiPO3
_chemical_formula_sum   'Li20 P20 O60'
_cell_volume   1211.23664361
_cell_formula_units_Z   20
loop_
 _symmetry_equiv_pos_site_id
 _symmetry_equiv_pos_as_xyz
  1  'x, y, z'
loop_
 _atom_site_type_symbol
 _atom_site_label
 _atom_site_symmetry_multiplicity
 _atom_site_fract_x
 _atom_site_fract_y
 _atom_site_fract_z
 _atom_site_occupancy
  Li  Li0  1  0.025375  0.559182  0.441915  1
  Li  Li1  1  0.992873  0.060330  0.442337  1
  Li  Li2  1  0.006441  0.818997  0.672987  1
  Li  Li3  1  0.462466  0.750000  0.250000  1
  Li  Li4  1  0.006441  0.681003  0.827013  1
  Li  Li5  1  0.974625  0.059182  0.941915  1
  Li  Li6  1  0.505373  0.250000  0.250000  1
  Li  Li7  1  0.020243  0.178864  0.825944  1
  Li  Li8  1  0.007127  0.560330  0.942337  1
  Li  Li9  1  0.537534  0.250000  0.750000  1
  Li  Li10  1  0.020243  0.321136  0.674056  1
  Li  Li11  1  0.494627  0.750000  0.750000  1
  Li  Li12  1  0.025375  0.940818  0.058085  1
  Li  Li13  1  0.974625  0.440818  0.558085  1
  Li  Li14  1  0.992873  0.439670  0.057663  1
  Li  Li15  1  0.979757  0.678864  0.325944  1
  Li  Li16  1  0.007127  0.939670  0.557663  1
  Li  Li17  1  0.979757  0.821136  0.174056  1
  Li  Li18  1  0.993559  0.318997  0.172987  1
  Li  Li19  1  0.993559  0.181003  0.327013  1
  P  P20  1  0.688403  0.466949  0.794234  1
  P  P21  1  0.310451  0.761113  0.491102  1
  P  P22  1  0.652185  0.625536  0.101637  1
  P  P23  1  0.688403  0.033051  0.705766  1
  P  P24  1  0.652185  0.874464  0.398363  1
  P  P25  1  0.342080  0.146978  0.083144  1
  P  P26  1  0.689549  0.238887  0.508898  1
  P  P27  1  0.311597  0.966949  0.294234  1
  P  P28  1  0.657920  0.646978  0.583144  1
  P  P29  1  0.310451  0.738887  0.008898  1
  P  P30  1  0.347815  0.125536  0.601637  1
  P  P31  1  0.657920  0.853022  0.916856  1
  P  P32  1  0.327368  0.953553  0.816802  1
  P  P33  1  0.327368  0.546447  0.683198  1
  P  P34  1  0.347815  0.374464  0.898363  1
  P  P35  1  0.672632  0.453553  0.316802  1
  P  P36  1  0.342080  0.353022  0.416856  1
  P  P37  1  0.672632  0.046447  0.183198  1
  P  P38  1  0.311597  0.533051  0.205766  1
  P  P39  1  0.689549  0.261113  0.991102  1
  O  O40  1  0.247857  0.859163  0.761100  1
  O  O41  1  0.449520  0.462474  0.850456  1
  O  O42  1  0.818983  0.188880  0.926990  1
  O  O43  1  0.580888  0.356435  0.953217  1
  O  O44  1  0.419627  0.006934  0.215861  1
  O  O45  1  0.580373  0.506934  0.715861  1
  O  O46  1  0.419627  0.493066  0.284139  1
  O  O47  1  0.181017  0.688880  0.426990  1
  O  O48  1  0.558321  0.706059  0.513119  1
  O  O49  1  0.577161  0.421054  0.400615  1
  O  O50  1  0.716445  0.778701  0.841716  1
  O  O51  1  0.156096  0.040914  0.839205  1
  O  O52  1  0.419112  0.643565  0.046783  1
  O  O53  1  0.156096  0.459086  0.660795  1
  O  O54  1  0.147515  0.076436  0.045179  1
  O  O55  1  0.558321  0.793941  0.986881  1
  O  O56  1  0.580888  0.143565  0.546783  1
  O  O57  1  0.283555  0.278701  0.341716  1
  O  O58  1  0.175207  0.807606  0.565638  1
  O  O59  1  0.150711  0.424805  0.951960  1
  O  O60  1  0.422839  0.578946  0.599385  1
  O  O61  1  0.550480  0.962474  0.350456  1
  O  O62  1  0.283555  0.221299  0.158284  1
  O  O63  1  0.296207  0.220843  0.660817  1
  O  O64  1  0.843904  0.959086  0.160795  1
  O  O65  1  0.818983  0.311120  0.573010  1
  O  O66  1  0.219932  0.639849  0.233121  1
  O  O67  1  0.577161  0.078946  0.099385  1
  O  O68  1  0.422839  0.921054  0.900615  1
  O  O69  1  0.441679  0.293941  0.486881  1
  O  O70  1  0.752143  0.140837  0.238900  1
  O  O71  1  0.716445  0.721299  0.658284  1
  O  O72  1  0.824793  0.307606  0.065638  1
  O  O73  1  0.849289  0.575195  0.048040  1
  O  O74  1  0.703793  0.720843  0.160817  1
  O  O75  1  0.147515  0.423564  0.454821  1
  O  O76  1  0.449520  0.037526  0.649544  1
  O  O77  1  0.752143  0.359163  0.261100  1
  O  O78  1  0.580373  0.993066  0.784139  1
  O  O79  1  0.175207  0.692394  0.934362  1
  O  O80  1  0.419112  0.856435  0.453217  1
  O  O81  1  0.780068  0.139849  0.733121  1
  O  O82  1  0.853979  0.547078  0.837024  1
  O  O83  1  0.852485  0.576436  0.545179  1
  O  O84  1  0.296207  0.279157  0.839183  1
  O  O85  1  0.780068  0.360151  0.766879  1
  O  O86  1  0.146021  0.047078  0.337024  1
  O  O87  1  0.849289  0.924805  0.451960  1
  O  O88  1  0.550480  0.537526  0.149544  1
  O  O89  1  0.146021  0.452922  0.162976  1
  O  O90  1  0.853979  0.952922  0.662976  1
  O  O91  1  0.843904  0.540914  0.339205  1
  O  O92  1  0.247857  0.640837  0.738900  1
  O  O93  1  0.150711  0.075195  0.548040  1
  O  O94  1  0.703793  0.779157  0.339183  1
  O  O95  1  0.824793  0.192394  0.434362  1
  O  O96  1  0.852485  0.923564  0.954821  1
  O  O97  1  0.219932  0.860151  0.266879  1
  O  O98  1  0.181017  0.811120  0.073010  1
  O  O99  1  0.441679  0.206059  0.013119  1
