# generated using pymatgen
data_Ce3(AgSn)4
_symmetry_space_group_name_H-M   'P 1'
_cell_length_a   4.73578174
_cell_length_b   7.42279581
_cell_length_c   8.95305330
_cell_angle_alpha   114.48634501
_cell_angle_beta   105.36549720
_cell_angle_gamma   89.98794431
_symmetry_Int_Tables_number   1
_chemical_formula_structural   Ce3(AgSn)4
_chemical_formula_sum   'Ce3 Ag4 Sn4'
_cell_volume   274.01694931
_cell_formula_units_Z   1
loop_
 _symmetry_equiv_pos_site_id
 _symmetry_equiv_pos_as_xyz
  1  'x, y, z'
loop_
 _atom_site_type_symbol
 _atom_site_label
 _atom_site_symmetry_multiplicity
 _atom_site_fract_x
 _atom_site_fract_y
 _atom_site_fract_z
 _atom_site_occupancy
  Ce  Ce0  1  0.000000  0.500000  0.000000  1
  Ce  Ce1  1  0.129657  0.129738  0.259362  1
  Ce  Ce2  1  0.870343  0.870262  0.740638  1
  Ag  Ag3  1  0.330719  0.524747  0.661688  1
  Ag  Ag4  1  0.669281  0.475253  0.338312  1
  Ag  Ag5  1  0.669298  0.863231  0.338552  1
  Ag  Ag6  1  0.330702  0.136769  0.661448  1
  Sn  Sn7  1  0.215588  0.715274  0.430713  1
  Sn  Sn8  1  0.784412  0.284726  0.569287  1
  Sn  Sn9  1  0.499913  0.194509  0.999875  1
  Sn  Sn10  1  0.500087  0.805491  0.000125  1
