# generated using pymatgen
data_Te2MoCl4O
_symmetry_space_group_name_H-M   'P 1'
_cell_length_a   7.18284745
_cell_length_b   10.97577491
_cell_length_c   12.22049295
_cell_angle_alpha   89.14898450
_cell_angle_beta   90.00000000
_cell_angle_gamma   90.00000000
_symmetry_Int_Tables_number   1
_chemical_formula_structural   Te2MoCl4O
_chemical_formula_sum   'Te8 Mo4 Cl16 O4'
_cell_volume   963.32460381
_cell_formula_units_Z   4
loop_
 _symmetry_equiv_pos_site_id
 _symmetry_equiv_pos_as_xyz
  1  'x, y, z'
loop_
 _atom_site_type_symbol
 _atom_site_label
 _atom_site_symmetry_multiplicity
 _atom_site_fract_x
 _atom_site_fract_y
 _atom_site_fract_z
 _atom_site_occupancy
  Te  Te0  1  0.713444  0.427217  0.072962  1
  Te  Te1  1  0.786556  0.927217  0.572962  1
  Te  Te2  1  0.426550  0.571745  0.135684  1
  Te  Te3  1  0.926550  0.928255  0.364316  1
  Te  Te4  1  0.073450  0.071745  0.635684  1
  Te  Te5  1  0.213444  0.072783  0.427038  1
  Te  Te6  1  0.573450  0.428255  0.864316  1
  Te  Te7  1  0.286556  0.572783  0.927038  1
  Mo  Mo8  1  0.186817  0.134384  0.045402  1
  Mo  Mo9  1  0.813183  0.865616  0.954598  1
  Mo  Mo10  1  0.313183  0.634384  0.545402  1
  Mo  Mo11  1  0.686817  0.365616  0.454598  1
  Cl  Cl12  1  0.721056  0.014754  0.816980  1
  Cl  Cl13  1  0.008993  0.264377  0.921436  1
  Cl  Cl14  1  0.101373  0.266132  0.188200  1
  Cl  Cl15  1  0.831582  0.031284  0.086923  1
  Cl  Cl16  1  0.508993  0.235623  0.578564  1
  Cl  Cl17  1  0.778944  0.514754  0.316980  1
  Cl  Cl18  1  0.668418  0.531284  0.586923  1
  Cl  Cl19  1  0.601373  0.233868  0.311800  1
  Cl  Cl20  1  0.221056  0.485246  0.683020  1
  Cl  Cl21  1  0.398627  0.766132  0.688200  1
  Cl  Cl22  1  0.278944  0.985246  0.183020  1
  Cl  Cl23  1  0.168418  0.968716  0.913077  1
  Cl  Cl24  1  0.991007  0.735623  0.078564  1
  Cl  Cl25  1  0.331582  0.468716  0.413077  1
  Cl  Cl26  1  0.491007  0.764377  0.421436  1
  Cl  Cl27  1  0.898627  0.733868  0.811800  1
  O  O28  1  0.402595  0.184210  0.010378  1
  O  O29  1  0.902595  0.315790  0.489622  1
  O  O30  1  0.097405  0.684210  0.510378  1
  O  O31  1  0.597405  0.815790  0.989622  1
