# generated using pymatgen
data_Ce5Co19
_symmetry_space_group_name_H-M   'P 1'
_cell_length_a   16.58898341
_cell_length_b   16.58898339
_cell_length_c   16.58898324
_cell_angle_alpha   16.95809526
_cell_angle_beta   16.95809542
_cell_angle_gamma   16.95809504
_symmetry_Int_Tables_number   1
_chemical_formula_structural   Ce5Co19
_chemical_formula_sum   'Ce5 Co19'
_cell_volume   338.79615027
_cell_formula_units_Z   1
loop_
 _symmetry_equiv_pos_site_id
 _symmetry_equiv_pos_as_xyz
  1  'x, y, z'
loop_
 _atom_site_type_symbol
 _atom_site_label
 _atom_site_symmetry_multiplicity
 _atom_site_fract_x
 _atom_site_fract_y
 _atom_site_fract_z
 _atom_site_occupancy
  Ce  Ce0  1  0.000000  0.000000  0.000000  1
  Ce  Ce1  1  0.079541  0.079541  0.079541  1
  Ce  Ce2  1  0.920459  0.920459  0.920459  1
  Ce  Ce3  1  0.152188  0.152188  0.152188  1
  Ce  Ce4  1  0.847812  0.847812  0.847812  1
  Co  Co5  1  0.500000  0.500000  0.500000  1
  Co  Co6  1  0.250393  0.250393  0.250393  1
  Co  Co7  1  0.749607  0.749607  0.749607  1
  Co  Co8  1  0.333339  0.333339  0.333339  1
  Co  Co9  1  0.666661  0.666661  0.666661  1
  Co  Co10  1  0.415838  0.415838  0.415838  1
  Co  Co11  1  0.584162  0.584162  0.584162  1
  Co  Co12  1  0.622584  0.124551  0.622584  1
  Co  Co13  1  0.622584  0.622584  0.124551  1
  Co  Co14  1  0.124551  0.622584  0.622584  1
  Co  Co15  1  0.875449  0.377416  0.377416  1
  Co  Co16  1  0.377416  0.875449  0.377416  1
  Co  Co17  1  0.377416  0.377416  0.875449  1
  Co  Co18  1  0.541313  0.040780  0.541313  1
  Co  Co19  1  0.541313  0.541313  0.040780  1
  Co  Co20  1  0.040780  0.541313  0.541313  1
  Co  Co21  1  0.959220  0.458687  0.458687  1
  Co  Co22  1  0.458687  0.959220  0.458687  1
  Co  Co23  1  0.458687  0.458687  0.959220  1
