# generated using pymatgen
data_Rb4CO4
_symmetry_space_group_name_H-M   'P 1'
_cell_length_a   5.54902022
_cell_length_b   6.44795027
_cell_length_c   6.74292735
_cell_angle_alpha   118.57099048
_cell_angle_beta   114.29707505
_cell_angle_gamma   90.00215943
_symmetry_Int_Tables_number   1
_chemical_formula_structural   Rb4CO4
_chemical_formula_sum   'Rb4 C1 O4'
_cell_volume   187.18450827
_cell_formula_units_Z   1
loop_
 _symmetry_equiv_pos_site_id
 _symmetry_equiv_pos_as_xyz
  1  'x, y, z'
loop_
 _atom_site_type_symbol
 _atom_site_label
 _atom_site_symmetry_multiplicity
 _atom_site_fract_x
 _atom_site_fract_y
 _atom_site_fract_z
 _atom_site_occupancy
  O  O0  1  0.770395  0.546854  0.836537  1
  O  O1  1  0.933776  0.453131  0.163431  1
  Rb  Rb2  1  0.466018  0.380842  0.287357  1
  Rb  Rb3  1  0.821286  0.906484  0.287372  1
  Rb  Rb4  1  0.178684  0.619165  0.712661  1
  C  C5  1  1.000018  0.499995  0.999994  1
  O  O6  1  0.229705  0.710333  0.163545  1
  Rb  Rb7  1  0.533906  0.093505  0.712594  1
  O  O8  1  0.066213  0.289690  0.836510  1
