# generated using pymatgen
data_HgSeO3
_symmetry_space_group_name_H-M   'P 1'
_cell_length_a   4.63223320
_cell_length_b   7.49879041
_cell_length_c   10.37650182
_cell_angle_alpha   90.00000000
_cell_angle_beta   90.00000000
_cell_angle_gamma   103.01697666
_symmetry_Int_Tables_number   1
_chemical_formula_structural   HgSeO3
_chemical_formula_sum   'Hg4 Se4 O12'
_cell_volume   351.17759541
_cell_formula_units_Z   4
loop_
 _symmetry_equiv_pos_site_id
 _symmetry_equiv_pos_as_xyz
  1  'x, y, z'
loop_
 _atom_site_type_symbol
 _atom_site_label
 _atom_site_symmetry_multiplicity
 _atom_site_fract_x
 _atom_site_fract_y
 _atom_site_fract_z
 _atom_site_occupancy
  Hg  Hg0  1  0.106632  0.402491  0.831713  1
  Hg  Hg1  1  0.893368  0.597509  0.168287  1
  Hg  Hg2  1  0.893368  0.097509  0.331713  1
  Hg  Hg3  1  0.106632  0.902491  0.668287  1
  Se  Se4  1  0.327401  0.677406  0.417647  1
  Se  Se5  1  0.327401  0.177406  0.082353  1
  Se  Se6  1  0.672599  0.822594  0.917647  1
  Se  Se7  1  0.672599  0.322594  0.582353  1
  O  O8  1  0.825580  0.138772  0.528288  1
  O  O9  1  0.506309  0.226492  0.718428  1
  O  O10  1  0.493691  0.773508  0.281572  1
  O  O11  1  0.009464  0.528403  0.355055  1
  O  O12  1  0.174420  0.361228  0.028288  1
  O  O13  1  0.009464  0.028403  0.144945  1
  O  O14  1  0.990536  0.471597  0.644945  1
  O  O15  1  0.825580  0.638772  0.971712  1
  O  O16  1  0.174420  0.861228  0.471712  1
  O  O17  1  0.493691  0.273508  0.218428  1
  O  O18  1  0.990536  0.971597  0.855055  1
  O  O19  1  0.506309  0.726492  0.781572  1
