# generated using pymatgen
data_SiO2
_symmetry_space_group_name_H-M   'P 1'
_cell_length_a   7.48264744
_cell_length_b   9.80114686
_cell_length_c   19.72797130
_cell_angle_alpha   90.00000000
_cell_angle_beta   90.00000000
_cell_angle_gamma   98.66103346
_symmetry_Int_Tables_number   1
_chemical_formula_structural   SiO2
_chemical_formula_sum   'Si24 O48'
_cell_volume   1430.32157254
_cell_formula_units_Z   24
loop_
 _symmetry_equiv_pos_site_id
 _symmetry_equiv_pos_as_xyz
  1  'x, y, z'
loop_
 _atom_site_type_symbol
 _atom_site_label
 _atom_site_symmetry_multiplicity
 _atom_site_fract_x
 _atom_site_fract_y
 _atom_site_fract_z
 _atom_site_occupancy
  Si  Si0  1  0.535252  0.884446  0.670832  1
  Si  Si1  1  0.308322  0.345544  0.557653  1
  Si  Si2  1  0.077855  0.024925  0.107336  1
  Si  Si3  1  0.592643  0.330316  0.055079  1
  Si  Si4  1  0.691678  0.654456  0.057653  1
  Si  Si5  1  0.291155  0.120149  0.828916  1
  Si  Si6  1  0.592643  0.330316  0.444921  1
  Si  Si7  1  0.061213  0.784486  0.001888  1
  Si  Si8  1  0.407357  0.669684  0.555079  1
  Si  Si9  1  0.464748  0.115554  0.170832  1
  Si  Si10  1  0.077855  0.024925  0.392664  1
  Si  Si11  1  0.922145  0.975074  0.892664  1
  Si  Si12  1  0.708845  0.879851  0.171084  1
  Si  Si13  1  0.061213  0.784486  0.498112  1
  Si  Si14  1  0.922145  0.975074  0.607336  1
  Si  Si15  1  0.407357  0.669684  0.944921  1
  Si  Si16  1  0.691678  0.654456  0.442347  1
  Si  Si17  1  0.938787  0.215514  0.998112  1
  Si  Si18  1  0.291155  0.120149  0.671084  1
  Si  Si19  1  0.464748  0.115554  0.329168  1
  Si  Si20  1  0.938787  0.215514  0.501888  1
  Si  Si21  1  0.308322  0.345544  0.942347  1
  Si  Si22  1  0.535252  0.884446  0.829168  1
  Si  Si23  1  0.708845  0.879851  0.328916  1
  O  O24  1  0.419191  0.289958  0.005241  1
  O  O25  1  0.304160  0.166508  0.750000  1
  O  O26  1  0.442548  0.755281  0.874799  1
  O  O27  1  0.868589  0.089054  0.553724  1
  O  O28  1  0.507584  0.840486  0.750000  1
  O  O29  1  0.250190  0.078742  0.154863  1
  O  O30  1  0.661536  0.741816  0.374613  1
  O  O31  1  0.912434  0.957391  0.344342  1
  O  O32  1  0.580809  0.710042  0.994759  1
  O  O33  1  0.228035  0.704643  0.516856  1
  O  O34  1  0.338464  0.258184  0.874613  1
  O  O35  1  0.018681  0.155566  0.066824  1
  O  O36  1  0.981319  0.844434  0.933176  1
  O  O37  1  0.094429  0.325612  0.961953  1
  O  O38  1  0.618661  0.493597  0.073171  1
  O  O39  1  0.131411  0.910946  0.446276  1
  O  O40  1  0.381339  0.506403  0.926829  1
  O  O41  1  0.749811  0.921258  0.845137  1
  O  O42  1  0.981319  0.844434  0.566824  1
  O  O43  1  0.419191  0.289958  0.494759  1
  O  O44  1  0.561741  0.981484  0.154231  1
  O  O45  1  0.618661  0.493597  0.426829  1
  O  O46  1  0.557452  0.244719  0.374799  1
  O  O47  1  0.442548  0.755281  0.625201  1
  O  O48  1  0.438259  0.018516  0.654231  1
  O  O49  1  0.905571  0.674388  0.038047  1
  O  O50  1  0.018681  0.155566  0.433176  1
  O  O51  1  0.749811  0.921258  0.654863  1
  O  O52  1  0.381339  0.506403  0.573171  1
  O  O53  1  0.561741  0.981484  0.345769  1
  O  O54  1  0.557452  0.244719  0.125201  1
  O  O55  1  0.094429  0.325612  0.538047  1
  O  O56  1  0.771965  0.295357  0.483144  1
  O  O57  1  0.228035  0.704643  0.983144  1
  O  O58  1  0.338464  0.258184  0.625387  1
  O  O59  1  0.438259  0.018516  0.845769  1
  O  O60  1  0.580809  0.710042  0.505241  1
  O  O61  1  0.250190  0.078742  0.345137  1
  O  O62  1  0.661536  0.741816  0.125387  1
  O  O63  1  0.131411  0.910946  0.053724  1
  O  O64  1  0.905571  0.674388  0.461953  1
  O  O65  1  0.492416  0.159514  0.250000  1
  O  O66  1  0.912434  0.957391  0.155658  1
  O  O67  1  0.087566  0.042609  0.655658  1
  O  O68  1  0.868589  0.089054  0.946276  1
  O  O69  1  0.695840  0.833492  0.250000  1
  O  O70  1  0.771965  0.295357  0.016856  1
  O  O71  1  0.087566  0.042609  0.844342  1
