# generated using pymatgen
data_Ba17Tm16Zn8Pt4O57
_symmetry_space_group_name_H-M   'P 1'
_cell_length_a   5.72361249
_cell_length_b   16.49256386
_cell_length_c   16.49256390
_cell_angle_alpha   88.27458935
_cell_angle_beta   80.00739674
_cell_angle_gamma   80.00739881
_symmetry_Int_Tables_number   1
_chemical_formula_structural   Ba17Tm16Zn8Pt4O57
_chemical_formula_sum   'Ba17 Tm16 Zn8 Pt4 O57'
_cell_volume   1509.97326386
_cell_formula_units_Z   1
loop_
 _symmetry_equiv_pos_site_id
 _symmetry_equiv_pos_as_xyz
  1  'x, y, z'
loop_
 _atom_site_type_symbol
 _atom_site_label
 _atom_site_symmetry_multiplicity
 _atom_site_fract_x
 _atom_site_fract_y
 _atom_site_fract_z
 _atom_site_occupancy
  Ba  Ba0  1  0.189003  0.078860  0.543135  1
  Ba  Ba1  1  0.350515  0.306337  0.992634  1
  Ba  Ba2  1  0.267862  0.543135  0.921140  1
  Ba  Ba3  1  0.649485  0.693663  0.007366  1
  Ba  Ba4  1  0.557725  0.374392  0.510157  1
  Ba  Ba5  1  0.888325  0.387610  0.835739  1
  Ba  Ba6  1  0.656851  0.992634  0.693663  1
  Ba  Ba7  1  0.067882  0.489843  0.374392  1
  Ba  Ba8  1  0.275935  0.835739  0.612390  1
  Ba  Ba9  1  0.810997  0.921140  0.456865  1
  Ba  Ba10  1  0.343149  0.007366  0.306337  1
  Ba  Ba11  1  0.932118  0.510157  0.625608  1
  Ba  Ba12  1  0.111675  0.612390  0.164261  1
  Ba  Ba13  1  0.442275  0.625608  0.489843  1
  Ba  Ba14  1  0.732138  0.456865  0.078860  1
  Ba  Ba15  1  0.724065  0.164261  0.387610  1
  Ba  Ba16  1  0.000000  0.000000  0.000000  1
  Tm  Tm17  1  0.674850  0.374649  0.275652  1
  Tm  Tm18  1  0.950501  0.724348  0.374649  1
  Tm  Tm19  1  0.325150  0.625351  0.724348  1
  Tm  Tm20  1  0.506294  0.745138  0.242273  1
  Tm  Tm21  1  0.171727  0.776413  0.880134  1
  Tm  Tm22  1  0.251433  0.242273  0.254862  1
  Tm  Tm23  1  0.493706  0.254862  0.757727  1
  Tm  Tm24  1  0.828273  0.223587  0.119866  1
  Tm  Tm25  1  0.948139  0.880134  0.223587  1
  Tm  Tm26  1  0.488628  0.110527  0.912217  1
  Tm  Tm27  1  0.051861  0.119866  0.776413  1
  Tm  Tm28  1  0.049499  0.275652  0.625351  1
  Tm  Tm29  1  0.599155  0.912217  0.889473  1
  Tm  Tm30  1  0.400845  0.087783  0.110527  1
  Tm  Tm31  1  0.748567  0.757727  0.745138  1
  Tm  Tm32  1  0.511372  0.889473  0.087783  1
  Zn  Zn33  1  0.787810  0.592219  0.832161  1
  Zn  Zn34  1  0.924722  0.207892  0.942664  1
  Zn  Zn35  1  0.212190  0.407781  0.167839  1
  Zn  Zn36  1  0.075278  0.792108  0.057336  1
  Zn  Zn37  1  0.132614  0.942664  0.792108  1
  Zn  Zn38  1  0.619971  0.167839  0.592219  1
  Zn  Zn39  1  0.867386  0.057336  0.207892  1
  Zn  Zn40  1  0.380029  0.832161  0.407781  1
  Pt  Pt41  1  0.144330  0.273202  0.438138  1
  Pt  Pt42  1  0.582468  0.561862  0.273202  1
  Pt  Pt43  1  0.417532  0.438138  0.726798  1
  Pt  Pt44  1  0.855670  0.726798  0.561862  1
  O  O45  1  0.000115  0.317505  0.176334  1
  O  O46  1  0.823551  0.176334  0.682495  1
  O  O47  1  0.762722  0.647364  0.310147  1
  O  O48  1  0.223795  0.202072  0.851969  1
  O  O49  1  0.493955  0.682495  0.823666  1
  O  O50  1  0.277836  0.797928  0.148031  1
  O  O51  1  0.760990  0.538085  0.939936  1
  O  O52  1  0.886844  0.477775  0.233066  1
  O  O53  1  0.683529  0.974826  0.154234  1
  O  O54  1  0.119910  0.766934  0.477775  1
  O  O55  1  0.768089  0.838818  0.625003  1
  O  O56  1  0.402316  0.477775  0.233066  1
  O  O57  1  0.682379  0.823666  0.317505  1
  O  O58  1  0.176449  0.823666  0.317505  1
  O  O59  1  0.075764  0.148031  0.202072  1
  O  O60  1  0.635381  0.766934  0.477775  1
  O  O61  1  0.506045  0.317505  0.176334  1
  O  O62  1  0.842086  0.000151  0.315678  1
  O  O63  1  0.700925  0.060064  0.538085  1
  O  O64  1  0.606908  0.625003  0.161182  1
  O  O65  1  0.589914  0.689853  0.647364  1
  O  O66  1  0.299075  0.939936  0.461915  1
  O  O67  1  0.500000  0.000000  0.000000  1
  O  O68  1  0.425867  0.851969  0.797928  1
  O  O69  1  0.187412  0.974826  0.154234  1
  O  O70  1  0.720232  0.352636  0.689853  1
  O  O71  1  0.364619  0.233066  0.522225  1
  O  O72  1  0.410086  0.310147  0.352636  1
  O  O73  1  0.924236  0.851969  0.797928  1
  O  O74  1  0.722164  0.202072  0.851969  1
  O  O75  1  0.157914  0.999849  0.684322  1
  O  O76  1  0.341646  0.845766  0.974826  1
  O  O77  1  0.999885  0.682495  0.823666  1
  O  O78  1  0.279768  0.647364  0.310147  1
  O  O79  1  0.393092  0.374997  0.838818  1
  O  O80  1  0.880090  0.233066  0.522225  1
  O  O81  1  0.927131  0.310147  0.352636  1
  O  O82  1  0.231911  0.161182  0.374997  1
  O  O83  1  0.237278  0.352636  0.689853  1
  O  O84  1  0.945647  0.619382  0.489323  1
  O  O85  1  0.054353  0.380618  0.510677  1
  O  O86  1  0.113156  0.522225  0.766934  1
  O  O87  1  0.434970  0.510677  0.619382  1
  O  O88  1  0.837762  0.845766  0.974826  1
  O  O89  1  0.812588  0.025174  0.845766  1
  O  O90  1  0.239010  0.461915  0.060064  1
  O  O91  1  0.157763  0.684322  0.000151  1
  O  O92  1  0.565030  0.489323  0.380618  1
  O  O93  1  0.316471  0.025174  0.845766  1
  O  O94  1  0.776205  0.797928  0.148031  1
  O  O95  1  0.842237  0.315678  0.999849  1
  O  O96  1  0.597684  0.522225  0.766934  1
  O  O97  1  0.574133  0.148031  0.202072  1
  O  O98  1  0.072869  0.689853  0.647364  1
  O  O99  1  0.162238  0.154234  0.025174  1
  O  O100  1  0.317621  0.176334  0.682495  1
  O  O101  1  0.658354  0.154234  0.025174  1
