# generated using pymatgen
data_Ag2INO3
_symmetry_space_group_name_H-M   'P 1'
_cell_length_a   7.34794746
_cell_length_b   7.93799575
_cell_length_c   17.57969274
_cell_angle_alpha   90.00000000
_cell_angle_beta   90.00000000
_cell_angle_gamma   90.00000000
_symmetry_Int_Tables_number   1
_chemical_formula_structural   Ag2INO3
_chemical_formula_sum   'Ag16 I8 N8 O24'
_cell_volume   1025.38789111
_cell_formula_units_Z   8
loop_
 _symmetry_equiv_pos_site_id
 _symmetry_equiv_pos_as_xyz
  1  'x, y, z'
loop_
 _atom_site_type_symbol
 _atom_site_label
 _atom_site_symmetry_multiplicity
 _atom_site_fract_x
 _atom_site_fract_y
 _atom_site_fract_z
 _atom_site_occupancy
  Ag  Ag0  1  0.833001  0.014211  0.693865  1
  Ag  Ag1  1  0.166999  0.514211  0.806135  1
  Ag  Ag2  1  0.747114  0.528176  0.058678  1
  Ag  Ag3  1  0.252886  0.028176  0.441322  1
  Ag  Ag4  1  0.247114  0.971824  0.941322  1
  Ag  Ag5  1  0.215238  0.969847  0.685260  1
  Ag  Ag6  1  0.784762  0.469847  0.814740  1
  Ag  Ag7  1  0.666999  0.985789  0.193865  1
  Ag  Ag8  1  0.832818  0.968849  0.941755  1
  Ag  Ag9  1  0.667182  0.031151  0.441755  1
  Ag  Ag10  1  0.752886  0.471824  0.558678  1
  Ag  Ag11  1  0.284762  0.030153  0.185260  1
  Ag  Ag12  1  0.167182  0.468849  0.558245  1
  Ag  Ag13  1  0.333001  0.485789  0.306135  1
  Ag  Ag14  1  0.715238  0.530153  0.314740  1
  Ag  Ag15  1  0.332818  0.531151  0.058245  1
  I  I16  1  0.546114  0.852329  0.048873  1
  I  I17  1  0.026586  0.157590  0.820920  1
  I  I18  1  0.046114  0.647671  0.951127  1
  I  I19  1  0.953886  0.147671  0.548873  1
  I  I20  1  0.473414  0.842410  0.320920  1
  I  I21  1  0.526586  0.342410  0.179080  1
  I  I22  1  0.973414  0.657590  0.679080  1
  I  I23  1  0.453886  0.352329  0.451127  1
  N  N24  1  0.000527  0.711081  0.429570  1
  N  N25  1  0.975629  0.146961  0.294823  1
  N  N26  1  0.024371  0.646961  0.205177  1
  N  N27  1  0.500527  0.788919  0.570430  1
  N  N28  1  0.499473  0.288919  0.929570  1
  N  N29  1  0.524371  0.853039  0.794823  1
  N  N30  1  0.475629  0.353039  0.705177  1
  N  N31  1  0.999473  0.211081  0.070430  1
  O  O32  1  0.916527  0.570362  0.428702  1
  O  O33  1  0.083473  0.070362  0.071298  1
  O  O34  1  0.953435  0.830445  0.386921  1
  O  O35  1  0.546565  0.169555  0.886921  1
  O  O36  1  0.364520  0.270238  0.974968  1
  O  O37  1  0.868577  0.685115  0.179768  1
  O  O38  1  0.416527  0.929638  0.571298  1
  O  O39  1  0.168649  0.695799  0.173496  1
  O  O40  1  0.331351  0.304201  0.673496  1
  O  O41  1  0.533040  0.945735  0.734509  1
  O  O42  1  0.635480  0.770238  0.525032  1
  O  O43  1  0.864520  0.229762  0.025032  1
  O  O44  1  0.831351  0.195799  0.326504  1
  O  O45  1  0.131423  0.185115  0.320232  1
  O  O46  1  0.631423  0.314885  0.679768  1
  O  O47  1  0.033040  0.554265  0.265491  1
  O  O48  1  0.135480  0.729762  0.474968  1
  O  O49  1  0.046565  0.330445  0.113079  1
  O  O50  1  0.368577  0.814885  0.820232  1
  O  O51  1  0.466960  0.445735  0.765491  1
  O  O52  1  0.668649  0.804201  0.826504  1
  O  O53  1  0.453435  0.669555  0.613079  1
  O  O54  1  0.583473  0.429638  0.928702  1
  O  O55  1  0.966960  0.054265  0.234509  1
