# generated using pymatgen
data_ThV4O12
_symmetry_space_group_name_H-M   'P 1'
_cell_length_a   8.75699716
_cell_length_b   8.75699738
_cell_length_c   16.05387709
_cell_angle_alpha   105.82724638
_cell_angle_beta   105.82724682
_cell_angle_gamma   89.99999799
_symmetry_Int_Tables_number   1
_chemical_formula_structural   ThV4O12
_chemical_formula_sum   'Th4 V16 O48'
_cell_volume   1135.83007344
_cell_formula_units_Z   4
loop_
 _symmetry_equiv_pos_site_id
 _symmetry_equiv_pos_as_xyz
  1  'x, y, z'
loop_
 _atom_site_type_symbol
 _atom_site_label
 _atom_site_symmetry_multiplicity
 _atom_site_fract_x
 _atom_site_fract_y
 _atom_site_fract_z
 _atom_site_occupancy
  Th  Th0  1  0.375335  0.125335  0.250671  1
  Th  Th1  1  0.125335  0.375335  0.750671  1
  Th  Th2  1  0.624665  0.874665  0.749329  1
  Th  Th3  1  0.874665  0.624665  0.249329  1
  V  V4  1  0.406267  0.159806  0.600884  1
  V  V5  1  0.943762  0.193200  0.101259  1
  V  V6  1  0.305383  0.558922  0.399116  1
  V  V7  1  0.806800  0.342503  0.398741  1
  V  V8  1  0.056238  0.806800  0.898741  1
  V  V9  1  0.657497  0.908060  0.101259  1
  V  V10  1  0.091940  0.056238  0.398741  1
  V  V11  1  0.342503  0.091940  0.898741  1
  V  V12  1  0.441078  0.406267  0.100884  1
  V  V13  1  0.694617  0.441078  0.600884  1
  V  V14  1  0.908060  0.943762  0.601259  1
  V  V15  1  0.193200  0.657497  0.601259  1
  V  V16  1  0.593733  0.840194  0.399116  1
  V  V17  1  0.159806  0.694617  0.100884  1
  V  V18  1  0.558922  0.593733  0.899116  1
  V  V19  1  0.840194  0.305383  0.899116  1
  O  O20  1  0.149379  0.593455  0.320471  1
  O  O21  1  0.433889  0.247030  0.000828  1
  O  O22  1  0.247030  0.066939  0.500828  1
  O  O23  1  0.624422  0.505513  0.141353  1
  O  O24  1  0.990439  0.874074  0.358536  1
  O  O25  1  0.671092  0.727016  0.320471  1
  O  O26  1  0.009561  0.125926  0.641464  1
  O  O27  1  0.826115  0.912889  0.679106  1
  O  O28  1  0.462421  0.712421  0.424843  1
  O  O29  1  0.960620  0.210620  0.421240  1
  O  O30  1  0.874074  0.868097  0.858536  1
  O  O31  1  0.752970  0.933061  0.499172  1
  O  O32  1  0.328908  0.272984  0.679529  1
  O  O33  1  0.087111  0.647009  0.820894  1
  O  O34  1  0.352991  0.766217  0.679106  1
  O  O35  1  0.712421  0.462421  0.924843  1
  O  O36  1  0.933061  0.246202  0.999172  1
  O  O37  1  0.406545  0.328908  0.179529  1
  O  O38  1  0.868097  0.484463  0.358536  1
  O  O39  1  0.593455  0.671092  0.820471  1
  O  O40  1  0.850621  0.406545  0.679529  1
  O  O41  1  0.983069  0.364160  0.858647  1
  O  O42  1  0.537579  0.287579  0.575157  1
  O  O43  1  0.272984  0.850621  0.179529  1
  O  O44  1  0.364160  0.375578  0.358647  1
  O  O45  1  0.912889  0.352991  0.179106  1
  O  O46  1  0.375578  0.494487  0.858647  1
  O  O47  1  0.635840  0.624422  0.641353  1
  O  O48  1  0.484463  0.990439  0.858536  1
  O  O49  1  0.210620  0.960620  0.921240  1
  O  O50  1  0.727016  0.149379  0.820471  1
  O  O51  1  0.246202  0.566111  0.499172  1
  O  O52  1  0.173885  0.087111  0.320894  1
  O  O53  1  0.039380  0.789380  0.578760  1
  O  O54  1  0.494487  0.983069  0.358647  1
  O  O55  1  0.789380  0.039380  0.078760  1
  O  O56  1  0.566111  0.752970  0.999172  1
  O  O57  1  0.125926  0.131903  0.141464  1
  O  O58  1  0.131903  0.515537  0.641464  1
  O  O59  1  0.066939  0.753798  0.000828  1
  O  O60  1  0.647009  0.233783  0.320894  1
  O  O61  1  0.016931  0.635840  0.141353  1
  O  O62  1  0.515537  0.009561  0.141464  1
  O  O63  1  0.753798  0.433889  0.500828  1
  O  O64  1  0.287579  0.537579  0.075157  1
  O  O65  1  0.766217  0.826115  0.179106  1
  O  O66  1  0.505513  0.016931  0.641353  1
  O  O67  1  0.233783  0.173885  0.820894  1
