# generated using pymatgen
data_CsUN3O11
_symmetry_space_group_name_H-M   'P 1'
_cell_length_a   8.75884401
_cell_length_b   8.75884429
_cell_length_c   8.75884452
_cell_angle_alpha   68.59567934
_cell_angle_beta   68.59567860
_cell_angle_gamma   68.59567827
_symmetry_Int_Tables_number   1
_chemical_formula_structural   CsUN3O11
_chemical_formula_sum   'Cs2 U2 N6 O22'
_cell_volume   561.25488182
_cell_formula_units_Z   2
loop_
 _symmetry_equiv_pos_site_id
 _symmetry_equiv_pos_as_xyz
  1  'x, y, z'
loop_
 _atom_site_type_symbol
 _atom_site_label
 _atom_site_symmetry_multiplicity
 _atom_site_fract_x
 _atom_site_fract_y
 _atom_site_fract_z
 _atom_site_occupancy
  Cs  Cs0  1  0.000000  0.000000  0.000000  1
  Cs  Cs1  1  0.500000  0.500000  0.500000  1
  U  U2  1  0.250000  0.250000  0.250000  1
  U  U3  1  0.750000  0.750000  0.750000  1
  O  O4  1  0.159868  0.159868  0.159868  1
  O  O5  1  0.340132  0.340132  0.340132  1
  O  O6  1  0.840132  0.840132  0.840132  1
  O  O7  1  0.659868  0.659868  0.659868  1
  N  N8  1  0.548352  0.951648  0.250000  1
  N  N9  1  0.250000  0.548352  0.951648  1
  N  N10  1  0.951648  0.250000  0.548352  1
  N  N11  1  0.451648  0.048352  0.750000  1
  N  N12  1  0.750000  0.451648  0.048352  1
  N  N13  1  0.048352  0.750000  0.451648  1
  O  O14  1  0.672768  0.827232  0.250000  1
  O  O15  1  0.250000  0.672768  0.827232  1
  O  O16  1  0.827232  0.250000  0.672768  1
  O  O17  1  0.327232  0.172768  0.750000  1
  O  O18  1  0.750000  0.327232  0.172768  1
  O  O19  1  0.172768  0.750000  0.327232  1
  O  O20  1  0.546137  0.089633  0.127330  1
  O  O21  1  0.127330  0.546137  0.089633  1
  O  O22  1  0.089633  0.127330  0.546137  1
  O  O23  1  0.410367  0.953863  0.372670  1
  O  O24  1  0.372670  0.410367  0.953863  1
  O  O25  1  0.953863  0.372670  0.410367  1
  O  O26  1  0.453863  0.910367  0.872670  1
  O  O27  1  0.872670  0.453863  0.910367  1
  O  O28  1  0.910367  0.872670  0.453863  1
  O  O29  1  0.589633  0.046137  0.627330  1
  O  O30  1  0.627330  0.589633  0.046137  1
  O  O31  1  0.046137  0.627330  0.589633  1
