# generated using pymatgen
data_K3VH2(CO5)2
_symmetry_space_group_name_H-M   'P 1'
_cell_length_a   7.27015526
_cell_length_b   7.94824235
_cell_length_c   17.78189290
_cell_angle_alpha   90.00000000
_cell_angle_beta   98.76603312
_cell_angle_gamma   90.00000000
_symmetry_Int_Tables_number   1
_chemical_formula_structural   K3VH2(CO5)2
_chemical_formula_sum   'K12 V4 H8 C8 O40'
_cell_volume   1015.52326717
_cell_formula_units_Z   4
loop_
 _symmetry_equiv_pos_site_id
 _symmetry_equiv_pos_as_xyz
  1  'x, y, z'
loop_
 _atom_site_type_symbol
 _atom_site_label
 _atom_site_symmetry_multiplicity
 _atom_site_fract_x
 _atom_site_fract_y
 _atom_site_fract_z
 _atom_site_occupancy
  K  K0  1  0.335962  0.524232  0.344377  1
  K  K1  1  0.664038  0.475768  0.655623  1
  K  K2  1  0.792026  0.550475  0.077165  1
  K  K3  1  0.143621  0.320055  0.702539  1
  K  K4  1  0.856379  0.679945  0.297461  1
  K  K5  1  0.664038  0.024232  0.155623  1
  K  K6  1  0.792026  0.949525  0.577165  1
  K  K7  1  0.335962  0.975768  0.844377  1
  K  K8  1  0.856379  0.820055  0.797461  1
  K  K9  1  0.143621  0.179945  0.202539  1
  K  K10  1  0.207974  0.050475  0.422835  1
  K  K11  1  0.207974  0.449525  0.922835  1
  V  V12  1  0.248479  0.781581  0.664342  1
  V  V13  1  0.751521  0.281581  0.835658  1
  V  V14  1  0.751521  0.218419  0.335658  1
  V  V15  1  0.248479  0.718419  0.164342  1
  H  H16  1  0.392357  0.253334  0.052047  1
  H  H17  1  0.392357  0.246666  0.552047  1
  H  H18  1  0.408932  0.091669  0.609954  1
  H  H19  1  0.607643  0.746666  0.947953  1
  H  H20  1  0.408932  0.408331  0.109954  1
  H  H21  1  0.591068  0.908331  0.390046  1
  H  H22  1  0.591068  0.591669  0.890046  1
  H  H23  1  0.607643  0.753334  0.447953  1
  C  C24  1  0.751814  0.027737  0.964331  1
  C  C25  1  0.248186  0.972263  0.035669  1
  C  C26  1  0.159741  0.693502  0.500506  1
  C  C27  1  0.751814  0.472263  0.464331  1
  C  C28  1  0.159741  0.806498  0.000506  1
  C  C29  1  0.840259  0.306498  0.499494  1
  C  C30  1  0.248186  0.527737  0.535669  1
  C  C31  1  0.840259  0.193502  0.999494  1
  O  O32  1  0.291946  0.969449  0.107940  1
  O  O33  1  0.478581  0.160692  0.578376  1
  O  O34  1  0.154894  0.662736  0.743353  1
  O  O35  1  0.851931  0.313308  0.951107  1
  O  O36  1  0.499431  0.313857  0.856999  1
  O  O37  1  0.108347  0.706785  0.430657  1
  O  O38  1  0.521419  0.660692  0.921624  1
  O  O39  1  0.011428  0.827192  0.175724  1
  O  O40  1  0.891653  0.206785  0.069343  1
  O  O41  1  0.148069  0.813308  0.548893  1
  O  O42  1  0.509563  0.244384  0.279584  1
  O  O43  1  0.490437  0.744384  0.220416  1
  O  O44  1  0.011428  0.672808  0.675724  1
  O  O45  1  0.193906  0.519225  0.182010  1
  O  O46  1  0.806094  0.480775  0.817990  1
  O  O47  1  0.499431  0.186143  0.356999  1
  O  O48  1  0.490437  0.755616  0.720416  1
  O  O49  1  0.108347  0.793215  0.930657  1
  O  O50  1  0.500569  0.686143  0.143001  1
  O  O51  1  0.478581  0.339308  0.078376  1
  O  O52  1  0.500569  0.813857  0.643001  1
  O  O53  1  0.727356  0.906306  0.007171  1
  O  O54  1  0.509563  0.255616  0.779584  1
  O  O55  1  0.806094  0.019225  0.317990  1
  O  O56  1  0.708054  0.469449  0.392060  1
  O  O57  1  0.154894  0.837264  0.243353  1
  O  O58  1  0.845106  0.337264  0.256647  1
  O  O59  1  0.272644  0.406306  0.492829  1
  O  O60  1  0.148069  0.686692  0.048893  1
  O  O61  1  0.727356  0.593694  0.507171  1
  O  O62  1  0.988572  0.172808  0.824276  1
  O  O63  1  0.272644  0.093694  0.992829  1
  O  O64  1  0.845106  0.162736  0.756647  1
  O  O65  1  0.851931  0.186692  0.451107  1
  O  O66  1  0.988572  0.327192  0.324276  1
  O  O67  1  0.291946  0.530551  0.607940  1
  O  O68  1  0.708054  0.030551  0.892060  1
  O  O69  1  0.193906  0.980775  0.682010  1
  O  O70  1  0.521419  0.839308  0.421624  1
  O  O71  1  0.891653  0.293215  0.569343  1
