# generated using pymatgen
data_CaZr(PO4)2
_symmetry_space_group_name_H-M   'P 1'
_cell_length_a   6.31145026
_cell_length_b   6.80676292
_cell_length_c   14.80085066
_cell_angle_alpha   90.00000000
_cell_angle_beta   90.00000000
_cell_angle_gamma   90.00000000
_symmetry_Int_Tables_number   1
_chemical_formula_structural   CaZr(PO4)2
_chemical_formula_sum   'Ca4 Zr4 P8 O32'
_cell_volume   635.85261972
_cell_formula_units_Z   4
loop_
 _symmetry_equiv_pos_site_id
 _symmetry_equiv_pos_as_xyz
  1  'x, y, z'
loop_
 _atom_site_type_symbol
 _atom_site_label
 _atom_site_symmetry_multiplicity
 _atom_site_fract_x
 _atom_site_fract_y
 _atom_site_fract_z
 _atom_site_occupancy
  Ca  Ca0  1  0.802528  1.000571  0.150424  1
  Ca  Ca1  1  0.302528  -0.000571  0.349576  1
  Ca  Ca2  1  0.197472  0.499429  0.650424  1
  Ca  Ca3  1  0.697472  0.500571  0.849576  1
  Zr  Zr4  1  0.425588  0.000646  0.890887  1
  Zr  Zr5  1  0.074412  0.500646  0.109113  1
  Zr  Zr6  1  0.925588  0.999354  0.609113  1
  Zr  Zr7  1  0.574412  0.499354  0.390887  1
  P  P8  1  0.381218  -0.000549  0.648291  1
  P  P9  1  0.118782  0.499451  0.351709  1
  P  P10  1  0.291343  0.001128  0.115571  1
  P  P11  1  0.618782  0.500549  0.148291  1
  P  P12  1  0.791343  0.998872  0.384429  1
  P  P13  1  0.881218  1.000549  0.851709  1
  P  P14  1  0.208657  0.501128  0.884429  1
  P  P15  1  0.708657  0.498872  0.615571  1
  O  O16  1  0.639962  0.179454  0.386743  1
  O  O17  1  0.091548  1.000062  0.902254  1
  O  O18  1  0.591548  -0.000062  0.597746  1
  O  O19  1  0.138512  0.180544  0.112401  1
  O  O20  1  0.861488  0.319456  0.612401  1
  O  O21  1  0.638512  0.819456  0.387599  1
  O  O22  1  0.418743  0.999147  0.751015  1
  O  O23  1  0.360038  0.320546  0.886743  1
  O  O24  1  0.765923  0.327537  0.120122  1
  O  O25  1  0.139962  0.820546  0.113257  1
  O  O26  1  0.408452  0.500062  0.097746  1
  O  O27  1  0.445328  0.000975  0.032846  1
  O  O28  1  0.431052  0.002480  0.200832  1
  O  O29  1  0.908452  0.499938  0.402254  1
  O  O30  1  0.265923  0.672463  0.379878  1
  O  O31  1  0.918743  0.000853  0.748985  1
  O  O32  1  0.265614  0.326280  0.380079  1
  O  O33  1  0.081257  0.499147  0.248985  1
  O  O34  1  0.945328  0.999025  0.467154  1
  O  O35  1  0.054672  0.500975  0.967154  1
  O  O36  1  0.234386  0.826280  0.619921  1
  O  O37  1  0.734077  0.827537  0.879878  1
  O  O38  1  0.765614  0.673720  0.119921  1
  O  O39  1  0.568948  0.497520  0.700832  1
  O  O40  1  0.931052  0.997520  0.299168  1
  O  O41  1  0.234077  0.172463  0.620122  1
  O  O42  1  0.581257  0.500853  0.251015  1
  O  O43  1  0.860038  0.679454  0.613257  1
  O  O44  1  0.734386  0.173720  0.880079  1
  O  O45  1  0.068948  0.502480  0.799168  1
  O  O46  1  0.554672  0.499025  0.532846  1
  O  O47  1  0.361488  0.680544  0.887599  1
