# generated using pymatgen
data_Rb5CeNi2(NO2)12
_symmetry_space_group_name_H-M   'P 1'
_cell_length_a   10.96219540
_cell_length_b   10.96219540
_cell_length_c   10.96219540
_cell_angle_alpha   90.00000000
_cell_angle_beta   90.00000000
_cell_angle_gamma   90.00000000
_symmetry_Int_Tables_number   1
_chemical_formula_structural   Rb5CeNi2(NO2)12
_chemical_formula_sum   'Rb10 Ce2 Ni4 N24 O48'
_cell_volume   1317.32403937
_cell_formula_units_Z   2
loop_
 _symmetry_equiv_pos_site_id
 _symmetry_equiv_pos_as_xyz
  1  'x, y, z'
loop_
 _atom_site_type_symbol
 _atom_site_label
 _atom_site_symmetry_multiplicity
 _atom_site_fract_x
 _atom_site_fract_y
 _atom_site_fract_z
 _atom_site_occupancy
  Rb  Rb0  1  0.500000  0.500000  0.000000  1
  Rb  Rb1  1  0.500000  0.000000  0.500000  1
  Rb  Rb2  1  0.250000  0.750000  0.750000  1
  Rb  Rb3  1  0.750000  0.250000  0.250000  1
  Rb  Rb4  1  0.750000  0.250000  0.750000  1
  Rb  Rb5  1  0.000000  0.000000  0.000000  1
  Rb  Rb6  1  0.750000  0.750000  0.250000  1
  Rb  Rb7  1  0.250000  0.750000  0.250000  1
  Rb  Rb8  1  0.000000  0.500000  0.500000  1
  Rb  Rb9  1  0.250000  0.250000  0.750000  1
  Ce  Ce10  1  0.250000  0.250000  0.250000  1
  Ce  Ce11  1  0.750000  0.750000  0.750000  1
  Ni  Ni12  1  0.000000  0.000000  0.500000  1
  Ni  Ni13  1  0.500000  0.000000  0.000000  1
  Ni  Ni14  1  0.000000  0.500000  0.000000  1
  Ni  Ni15  1  0.500000  0.500000  0.500000  1
  N  N16  1  0.506697  0.507578  0.691525  1
  N  N17  1  0.808475  0.993303  0.507578  1
  N  N18  1  0.691525  0.993303  0.992422  1
  N  N19  1  0.507578  0.808475  0.993303  1
  N  N20  1  0.993303  0.992422  0.691525  1
  N  N21  1  0.007578  0.308475  0.006697  1
  N  N22  1  0.308475  0.006697  0.007578  1
  N  N23  1  0.808475  0.506697  0.992422  1
  N  N24  1  0.507578  0.691525  0.506697  1
  N  N25  1  0.006697  0.492422  0.191525  1
  N  N26  1  0.992422  0.808475  0.506697  1
  N  N27  1  0.493303  0.492422  0.308475  1
  N  N28  1  0.506697  0.992422  0.808475  1
  N  N29  1  0.007578  0.191525  0.493303  1
  N  N30  1  0.691525  0.506697  0.507578  1
  N  N31  1  0.492422  0.191525  0.006697  1
  N  N32  1  0.492422  0.308475  0.493303  1
  N  N33  1  0.191525  0.006697  0.492422  1
  N  N34  1  0.992422  0.691525  0.993303  1
  N  N35  1  0.993303  0.507578  0.808475  1
  N  N36  1  0.493303  0.007578  0.191525  1
  N  N37  1  0.006697  0.007578  0.308475  1
  N  N38  1  0.191525  0.493303  0.007578  1
  N  N39  1  0.308475  0.493303  0.492422  1
  O  O40  1  0.516267  0.250112  0.911493  1
  O  O41  1  0.016267  0.750112  0.088507  1
  O  O42  1  0.411493  0.016267  0.749888  1
  O  O43  1  0.249888  0.588507  0.516267  1
  O  O44  1  0.911493  0.516267  0.250112  1
  O  O45  1  0.247787  0.100707  0.039263  1
  O  O46  1  0.399293  0.039263  0.252213  1
  O  O47  1  0.539263  0.752213  0.600707  1
  O  O48  1  0.588507  0.983733  0.250112  1
  O  O49  1  0.460737  0.247787  0.399293  1
  O  O50  1  0.088507  0.016267  0.750112  1
  O  O51  1  0.399293  0.460737  0.247787  1
  O  O52  1  0.749888  0.411493  0.016267  1
  O  O53  1  0.899293  0.539263  0.747787  1
  O  O54  1  0.460737  0.252213  0.100707  1
  O  O55  1  0.911493  0.983733  0.249888  1
  O  O56  1  0.899293  0.960737  0.752213  1
  O  O57  1  0.250112  0.911493  0.516267  1
  O  O58  1  0.088507  0.483733  0.749888  1
  O  O59  1  0.100707  0.460737  0.252213  1
  O  O60  1  0.960737  0.752213  0.899293  1
  O  O61  1  0.250112  0.588507  0.983733  1
  O  O62  1  0.247787  0.399293  0.460737  1
  O  O63  1  0.749888  0.088507  0.483733  1
  O  O64  1  0.016267  0.749888  0.411493  1
  O  O65  1  0.252213  0.399293  0.039263  1
  O  O66  1  0.411493  0.483733  0.750112  1
  O  O67  1  0.983733  0.250112  0.588507  1
  O  O68  1  0.588507  0.516267  0.249888  1
  O  O69  1  0.960737  0.747787  0.600707  1
  O  O70  1  0.752213  0.600707  0.539263  1
  O  O71  1  0.600707  0.539263  0.752213  1
  O  O72  1  0.249888  0.911493  0.983733  1
  O  O73  1  0.747787  0.899293  0.539263  1
  O  O74  1  0.750112  0.088507  0.016267  1
  O  O75  1  0.516267  0.249888  0.588507  1
  O  O76  1  0.752213  0.899293  0.960737  1
  O  O77  1  0.750112  0.411493  0.483733  1
  O  O78  1  0.983733  0.249888  0.911493  1
  O  O79  1  0.483733  0.749888  0.088507  1
  O  O80  1  0.100707  0.039263  0.247787  1
  O  O81  1  0.252213  0.100707  0.460737  1
  O  O82  1  0.039263  0.252213  0.399293  1
  O  O83  1  0.600707  0.960737  0.747787  1
  O  O84  1  0.483733  0.750112  0.411493  1
  O  O85  1  0.539263  0.747787  0.899293  1
  O  O86  1  0.747787  0.600707  0.960737  1
  O  O87  1  0.039263  0.247787  0.100707  1
