# generated using pymatgen
data_K3MnO3
_symmetry_space_group_name_H-M   'P 1'
_cell_length_a   6.74221932
_cell_length_b   6.83100516
_cell_length_c   11.68965535
_cell_angle_alpha   90.00000000
_cell_angle_beta   90.00000000
_cell_angle_gamma   95.70475475
_symmetry_Int_Tables_number   1
_chemical_formula_structural   K3MnO3
_chemical_formula_sum   'K12 Mn4 O12'
_cell_volume   535.71392145
_cell_formula_units_Z   4
loop_
 _symmetry_equiv_pos_site_id
 _symmetry_equiv_pos_as_xyz
  1  'x, y, z'
loop_
 _atom_site_type_symbol
 _atom_site_label
 _atom_site_symmetry_multiplicity
 _atom_site_fract_x
 _atom_site_fract_y
 _atom_site_fract_z
 _atom_site_occupancy
  K  K0  1  0.653654  0.858273  0.990113  1
  K  K1  1  0.346346  0.641727  0.490113  1
  K  K2  1  0.346346  0.141727  0.009887  1
  K  K3  1  0.653654  0.358273  0.509887  1
  K  K4  1  0.527175  0.507383  0.211717  1
  K  K5  1  0.472825  0.992617  0.711717  1
  K  K6  1  0.472825  0.492617  0.788283  1
  K  K7  1  0.527175  0.007383  0.288283  1
  K  K8  1  0.019520  0.578769  0.726340  1
  K  K9  1  0.980480  0.921231  0.226340  1
  K  K10  1  0.980480  0.421231  0.273660  1
  K  K11  1  0.019520  0.078769  0.773660  1
  Mn  Mn12  1  0.840430  0.339589  0.996086  1
  Mn  Mn13  1  0.159570  0.160411  0.496086  1
  Mn  Mn14  1  0.159570  0.660411  0.003914  1
  Mn  Mn15  1  0.840430  0.839589  0.503914  1
  O  O16  1  0.107379  0.402380  0.925711  1
  O  O17  1  0.892621  0.097620  0.425711  1
  O  O18  1  0.892621  0.597620  0.074289  1
  O  O19  1  0.107379  0.902380  0.574289  1
  O  O20  1  0.699212  0.215391  0.871628  1
  O  O21  1  0.300788  0.284609  0.371628  1
  O  O22  1  0.300788  0.784609  0.128372  1
  O  O23  1  0.699212  0.715391  0.628372  1
  O  O24  1  0.278612  0.806088  0.880328  1
  O  O25  1  0.721388  0.693912  0.380328  1
  O  O26  1  0.721388  0.193912  0.119672  1
  O  O27  1  0.278612  0.306088  0.619672  1
