# generated using pymatgen
data_Sc2CrB2Rh5
_symmetry_space_group_name_H-M   'P 1'
_cell_length_a   3.07598626
_cell_length_b   9.38279050
_cell_length_c   9.38279050
_cell_angle_alpha   90.00000000
_cell_angle_beta   90.00000000
_cell_angle_gamma   90.00000000
_symmetry_Int_Tables_number   1
_chemical_formula_structural   Sc2CrB2Rh5
_chemical_formula_sum   'Sc4 Cr2 B4 Rh10'
_cell_volume   270.79985665
_cell_formula_units_Z   2
loop_
 _symmetry_equiv_pos_site_id
 _symmetry_equiv_pos_as_xyz
  1  'x, y, z'
loop_
 _atom_site_type_symbol
 _atom_site_label
 _atom_site_symmetry_multiplicity
 _atom_site_fract_x
 _atom_site_fract_y
 _atom_site_fract_z
 _atom_site_occupancy
  Rh  Rh0  1  0.500000  0.218593  0.070671  1
  Rh  Rh1  1  0.500000  0.929329  0.218593  1
  Rh  Rh2  1  0.500000  0.070671  0.781407  1
  Rh  Rh3  1  0.500000  0.781407  0.929329  1
  Rh  Rh4  1  0.500000  0.718593  0.429329  1
  Rh  Rh5  1  0.500000  0.281407  0.570671  1
  Rh  Rh6  1  0.500000  0.570671  0.718593  1
  Rh  Rh7  1  0.500000  0.429329  0.281407  1
  Rh  Rh8  1  0.500000  0.000000  0.500000  1
  Rh  Rh9  1  0.500000  0.500000  0.000000  1
  Sc  Sc10  1  0.000000  0.324120  0.824120  1
  Sc  Sc11  1  0.000000  0.175880  0.324120  1
  Sc  Sc12  1  0.000000  0.824120  0.675880  1
  Sc  Sc13  1  0.000000  0.675880  0.175880  1
  B  B14  1  0.000000  0.122659  0.622659  1
  B  B15  1  0.000000  0.377341  0.122659  1
  B  B16  1  0.000000  0.622659  0.877341  1
  B  B17  1  0.000000  0.877341  0.377341  1
  Cr  Cr18  1  0.000000  0.000000  0.000000  1
  Cr  Cr19  1  0.000000  0.500000  0.500000  1
