# generated using pymatgen
data_SiH17C11N
_symmetry_space_group_name_H-M   'P 1'
_cell_length_a   7.66739337
_cell_length_b   8.54634635
_cell_length_c   10.39911219
_cell_angle_alpha   105.04498476
_cell_angle_beta   92.69361678
_cell_angle_gamma   110.21162216
_symmetry_Int_Tables_number   1
_chemical_formula_structural   SiH17C11N
_chemical_formula_sum   'Si2 H34 C22 N2'
_cell_volume   610.49114348
_cell_formula_units_Z   2
loop_
 _symmetry_equiv_pos_site_id
 _symmetry_equiv_pos_as_xyz
  1  'x, y, z'
loop_
 _atom_site_type_symbol
 _atom_site_label
 _atom_site_symmetry_multiplicity
 _atom_site_fract_x
 _atom_site_fract_y
 _atom_site_fract_z
 _atom_site_occupancy
  Si  Si0  1  0.331557  0.425688  0.437499  1
  Si  Si1  1  0.668443  0.574312  0.562501  1
  H  H2  1  0.331122  0.347484  0.898244  1
  H  H3  1  0.294352  0.646538  0.330798  1
  H  H4  1  0.014528  0.851215  0.042790  1
  H  H5  1  0.720140  0.998841  0.136447  1
  H  H6  1  0.696443  0.149344  0.454626  1
  H  H7  1  0.755432  0.993558  0.889538  1
  H  H8  1  0.303557  0.850656  0.545374  1
  H  H9  1  0.923097  0.478355  0.627983  1
  H  H10  1  0.900666  0.875469  0.672033  1
  H  H11  1  0.838468  0.571152  0.770790  1
  H  H12  1  0.777678  0.866067  0.518403  1
  H  H13  1  0.099334  0.124531  0.327967  1
  H  H14  1  0.668878  0.652516  0.101756  1
  H  H15  1  0.076903  0.521645  0.372017  1
  H  H16  1  0.959751  0.781995  0.516003  1
  H  H17  1  0.424868  0.040990  0.681148  1
  H  H18  1  0.781437  0.730940  0.271423  1
  H  H19  1  0.161532  0.428848  0.229210  1
  H  H20  1  0.543624  0.905301  0.600935  1
  H  H21  1  0.165736  0.803696  0.148090  1
  H  H22  1  0.785001  0.444354  0.998212  1
  H  H23  1  0.705648  0.353462  0.669202  1
  H  H24  1  0.222322  0.133933  0.481597  1
  H  H25  1  0.575132  0.959010  0.318852  1
  H  H26  1  0.040249  0.218005  0.483997  1
  H  H27  1  0.533932  0.631543  0.234927  1
  H  H28  1  0.466068  0.368457  0.765073  1
  H  H29  1  0.985472  0.148785  0.957210  1
  H  H30  1  0.244568  0.006442  0.110462  1
  H  H31  1  0.834264  0.196304  0.851910  1
  H  H32  1  0.218563  0.269060  0.728577  1
  H  H33  1  0.279860  0.001159  0.863553  1
  H  H34  1  0.214999  0.555646  0.001788  1
  H  H35  1  0.456376  0.094699  0.399065  1
  C  C36  1  0.410893  0.905240  0.635715  1
  C  C37  1  0.677315  0.449832  0.185937  1
  C  C38  1  0.745419  0.374056  0.072994  1
  C  C39  1  0.206357  0.515530  0.333346  1
  C  C40  1  0.793643  0.484470  0.666654  1
  C  C41  1  0.322685  0.550168  0.814063  1
  C  C42  1  0.335820  0.375066  0.800760  1
  C  C43  1  0.236039  0.787083  0.947127  1
  C  C44  1  0.763961  0.212917  0.052873  1
  C  C45  1  0.161633  0.866064  0.068596  1
  C  C46  1  0.625001  0.361511  0.284424  1
  C  C47  1  0.254581  0.625944  0.927006  1
  C  C48  1  0.838367  0.133936  0.931404  1
  C  C49  1  0.357879  0.802948  0.735220  1
  C  C50  1  0.158919  0.204786  0.432544  1
  C  C51  1  0.664180  0.624934  0.199240  1
  C  C52  1  0.642121  0.197052  0.264780  1
  C  C53  1  0.289371  0.873199  0.849690  1
  C  C54  1  0.841081  0.795214  0.567456  1
  C  C55  1  0.589107  0.094760  0.364285  1
  C  C56  1  0.374999  0.638489  0.715576  1
  C  C57  1  0.710629  0.126801  0.150310  1
  N  N58  1  0.556500  0.435666  0.400648  1
  N  N59  1  0.443500  0.564334  0.599352  1
