# generated using pymatgen
data_VH9C3O4
_symmetry_space_group_name_H-M   'P 1'
_cell_length_a   8.61834226
_cell_length_b   8.80644513
_cell_length_c   9.89998822
_cell_angle_alpha   103.21716265
_cell_angle_beta   96.39926541
_cell_angle_gamma   112.47678143
_symmetry_Int_Tables_number   1
_chemical_formula_structural   VH9C3O4
_chemical_formula_sum   'V4 H36 C12 O16'
_cell_volume   659.18454357
_cell_formula_units_Z   4
loop_
 _symmetry_equiv_pos_site_id
 _symmetry_equiv_pos_as_xyz
  1  'x, y, z'
loop_
 _atom_site_type_symbol
 _atom_site_label
 _atom_site_symmetry_multiplicity
 _atom_site_fract_x
 _atom_site_fract_y
 _atom_site_fract_z
 _atom_site_occupancy
  V  V0  1  0.972200  0.315739  0.868439  1
  V  V1  1  0.027800  0.684261  0.131561  1
  V  V2  1  0.132539  0.681273  0.459506  1
  V  V3  1  0.867461  0.318727  0.540494  1
  H  H4  1  0.685612  0.820301  0.095267  1
  H  H5  1  0.276357  0.211761  0.080859  1
  H  H6  1  0.534497  0.761874  0.708765  1
  H  H7  1  0.788526  0.682428  0.646329  1
  H  H8  1  0.442963  0.797706  0.269074  1
  H  H9  1  0.694022  0.641995  0.237064  1
  H  H10  1  0.417590  0.612760  0.326151  1
  H  H11  1  0.631030  0.320482  0.055396  1
  H  H12  1  0.731761  0.606582  0.406133  1
  H  H13  1  0.960297  0.719560  0.785990  1
  H  H14  1  0.211474  0.317572  0.353671  1
  H  H15  1  0.723643  0.788239  0.919141  1
  H  H16  1  0.419642  0.164908  0.442539  1
  H  H17  1  0.685242  0.140985  0.004778  1
  H  H18  1  0.580358  0.835092  0.557461  1
  H  H19  1  0.268239  0.393418  0.593867  1
  H  H20  1  0.557037  0.202294  0.730926  1
  H  H21  1  0.368970  0.679518  0.944604  1
  H  H22  1  0.771718  0.289618  0.181573  1
  H  H23  1  0.314758  0.859015  0.995222  1
  H  H24  1  0.467416  0.920142  0.670887  1
  H  H25  1  0.164326  0.181107  0.612459  1
  H  H26  1  0.305978  0.358005  0.762936  1
  H  H27  1  0.835674  0.818893  0.387541  1
  H  H28  1  0.008109  0.138831  0.324149  1
  H  H29  1  0.582410  0.387240  0.673849  1
  H  H30  1  0.104956  0.062919  0.932657  1
  H  H31  1  0.314388  0.179699  0.904733  1
  H  H32  1  0.895044  0.937081  0.067343  1
  H  H33  1  0.352032  0.587254  0.141107  1
  H  H34  1  0.465503  0.238126  0.291235  1
  H  H35  1  0.228282  0.710382  0.818427  1
  H  H36  1  0.647968  0.412746  0.858893  1
  H  H37  1  0.532584  0.079858  0.329113  1
  H  H38  1  0.039703  0.280440  0.214010  1
  H  H39  1  0.991891  0.861169  0.675851  1
  C  C40  1  0.639671  0.339992  0.750250  1
  C  C41  1  0.929013  0.727340  0.677716  1
  C  C42  1  0.790525  0.680065  0.335212  1
  C  C43  1  0.734133  0.276638  0.068226  1
  C  C44  1  0.070987  0.272660  0.322284  1
  C  C45  1  0.360329  0.660008  0.249750  1
  C  C46  1  0.781097  0.812660  0.031539  1
  C  C47  1  0.209475  0.319935  0.664788  1
  C  C48  1  0.265867  0.723362  0.931774  1
  C  C49  1  0.515703  0.196890  0.376782  1
  C  C50  1  0.484297  0.803110  0.623218  1
  C  C51  1  0.218903  0.187340  0.968461  1
  O  O52  1  0.140984  0.890969  0.175639  1
  O  O53  1  0.016870  0.380612  0.417163  1
  O  O54  1  0.198641  0.888652  0.518057  1
  O  O55  1  0.859016  0.109031  0.824361  1
  O  O56  1  0.825133  0.676933  0.044740  1
  O  O57  1  0.674102  0.331815  0.458508  1
  O  O58  1  0.809133  0.365795  0.732550  1
  O  O59  1  0.120963  0.618979  0.976212  1
  O  O60  1  0.325898  0.668185  0.541492  1
  O  O61  1  0.174867  0.323067  0.955260  1
  O  O62  1  0.801359  0.111348  0.481943  1
  O  O63  1  0.070385  0.360254  0.699833  1
  O  O64  1  0.190867  0.634204  0.267450  1
  O  O65  1  0.983130  0.619388  0.582837  1
  O  O66  1  0.929615  0.639746  0.300167  1
  O  O67  1  0.879037  0.381021  0.023788  1
