# generated using pymatgen
data_SeS2(NCl)2
_symmetry_space_group_name_H-M   'P 1'
_cell_length_a   9.65667592
_cell_length_b   10.75755298
_cell_length_c   14.17699965
_cell_angle_alpha   104.52057690
_cell_angle_beta   90.00000000
_cell_angle_gamma   90.00000000
_symmetry_Int_Tables_number   1
_chemical_formula_structural   SeS2(NCl)2
_chemical_formula_sum   'Se8 S16 N16 Cl16'
_cell_volume   1425.69525322
_cell_formula_units_Z   8
loop_
 _symmetry_equiv_pos_site_id
 _symmetry_equiv_pos_as_xyz
  1  'x, y, z'
loop_
 _atom_site_type_symbol
 _atom_site_label
 _atom_site_symmetry_multiplicity
 _atom_site_fract_x
 _atom_site_fract_y
 _atom_site_fract_z
 _atom_site_occupancy
  Se  Se0  1  0.810781  0.644651  0.549457  1
  Se  Se1  1  0.689219  0.644651  0.049457  1
  Se  Se2  1  0.189220  0.355349  0.450543  1
  Se  Se3  1  0.780839  0.043626  0.499214  1
  Se  Se4  1  0.719161  0.043626  0.999214  1
  Se  Se5  1  0.280839  0.956374  0.000786  1
  Se  Se6  1  0.219161  0.956374  0.500786  1
  Se  Se7  1  0.310781  0.355349  0.950543  1
  S  S8  1  0.368467  0.814515  0.327720  1
  S  S9  1  0.868467  0.185485  0.172280  1
  S  S10  1  0.927599  0.555040  0.141172  1
  S  S11  1  0.718545  0.784799  0.689706  1
  S  S12  1  0.630754  0.243198  0.081727  1
  S  S13  1  0.281455  0.215201  0.310294  1
  S  S14  1  0.369246  0.756802  0.918273  1
  S  S15  1  0.572401  0.555040  0.641172  1
  S  S16  1  0.869246  0.243198  0.581727  1
  S  S17  1  0.781455  0.784799  0.189706  1
  S  S18  1  0.072401  0.444960  0.858828  1
  S  S19  1  0.631533  0.185485  0.672280  1
  S  S20  1  0.218545  0.215201  0.810294  1
  S  S21  1  0.427599  0.444960  0.358828  1
  S  S22  1  0.131533  0.814515  0.827720  1
  S  S23  1  0.130754  0.756802  0.418273  1
  N  N24  1  0.145847  0.942489  0.911173  1
  N  N25  1  0.247080  0.719597  0.334578  1
  N  N26  1  0.682734  0.524595  0.555673  1
  N  N27  1  0.854153  0.057511  0.088827  1
  N  N28  1  0.182734  0.475405  0.944327  1
  N  N29  1  0.252920  0.719597  0.834578  1
  N  N30  1  0.596432  0.692578  0.709101  1
  N  N31  1  0.354153  0.942489  0.411173  1
  N  N32  1  0.817266  0.524595  0.055673  1
  N  N33  1  0.645847  0.057511  0.588827  1
  N  N34  1  0.903568  0.692578  0.209101  1
  N  N35  1  0.317266  0.475405  0.444327  1
  N  N36  1  0.096432  0.307422  0.790899  1
  N  N37  1  0.403568  0.307422  0.290899  1
  N  N38  1  0.747080  0.280403  0.165422  1
  N  N39  1  0.752920  0.280403  0.665422  1
  Cl  Cl40  1  0.041344  0.091143  0.402285  1
  Cl  Cl41  1  0.541344  0.908857  0.097715  1
  Cl  Cl42  1  0.958656  0.908857  0.597715  1
  Cl  Cl43  1  0.839412  0.108089  0.877285  1
  Cl  Cl44  1  0.176430  0.268305  0.068322  1
  Cl  Cl45  1  0.458656  0.091143  0.902285  1
  Cl  Cl46  1  0.160588  0.891911  0.122715  1
  Cl  Cl47  1  0.676430  0.731695  0.431678  1
  Cl  Cl48  1  0.007311  0.445067  0.361092  1
  Cl  Cl49  1  0.339412  0.891911  0.622715  1
  Cl  Cl50  1  0.660588  0.108089  0.377285  1
  Cl  Cl51  1  0.492689  0.445067  0.861092  1
  Cl  Cl52  1  0.507311  0.554933  0.138908  1
  Cl  Cl53  1  0.992689  0.554933  0.638908  1
  Cl  Cl54  1  0.323570  0.268305  0.568322  1
  Cl  Cl55  1  0.823570  0.731695  0.931678  1
