# generated using pymatgen
data_RbP4N7
_symmetry_space_group_name_H-M   'P 1'
_cell_length_a   4.72653689
_cell_length_b   12.42463703
_cell_length_c   10.00554989
_cell_angle_alpha   90.00000000
_cell_angle_beta   90.00000000
_cell_angle_gamma   90.00000000
_symmetry_Int_Tables_number   1
_chemical_formula_structural   RbP4N7
_chemical_formula_sum   'Rb4 P16 N28'
_cell_volume   587.58097277
_cell_formula_units_Z   4
loop_
 _symmetry_equiv_pos_site_id
 _symmetry_equiv_pos_as_xyz
  1  'x, y, z'
loop_
 _atom_site_type_symbol
 _atom_site_label
 _atom_site_symmetry_multiplicity
 _atom_site_fract_x
 _atom_site_fract_y
 _atom_site_fract_z
 _atom_site_occupancy
  Rb  Rb0  1  0.232457  0.750000  0.646103  1
  Rb  Rb1  1  0.732457  0.250000  0.853897  1
  Rb  Rb2  1  0.767543  0.250000  0.353897  1
  Rb  Rb3  1  0.267543  0.750000  0.146103  1
  P  P4  1  0.712780  0.869976  0.911466  1
  P  P5  1  0.212780  0.130024  0.588534  1
  P  P6  1  0.287220  0.369976  0.088534  1
  P  P7  1  0.787220  0.630024  0.411466  1
  P  P8  1  0.287220  0.130024  0.088534  1
  P  P9  1  0.787220  0.869976  0.411466  1
  P  P10  1  0.712780  0.630024  0.911466  1
  P  P11  1  0.212780  0.369976  0.588534  1
  P  P12  1  0.722276  0.000316  0.657318  1
  P  P13  1  0.222276  0.999684  0.842682  1
  P  P14  1  0.277724  0.500316  0.342682  1
  P  P15  1  0.777724  0.499684  0.157318  1
  P  P16  1  0.277724  0.999684  0.342682  1
  P  P17  1  0.777724  0.000316  0.157318  1
  P  P18  1  0.722276  0.499684  0.657318  1
  P  P19  1  0.222276  0.500316  0.842682  1
  N  N20  1  0.797797  0.750000  0.873342  1
  N  N21  1  0.297797  0.250000  0.626658  1
  N  N22  1  0.202203  0.250000  0.126658  1
  N  N23  1  0.702203  0.750000  0.373342  1
  N  N24  1  0.383208  0.892747  0.883307  1
  N  N25  1  0.883208  0.107253  0.616693  1
  N  N26  1  0.616792  0.392747  0.116693  1
  N  N27  1  0.116792  0.607253  0.383307  1
  N  N28  1  0.616792  0.107253  0.116693  1
  N  N29  1  0.116792  0.892747  0.383307  1
  N  N30  1  0.383208  0.607253  0.883307  1
  N  N31  1  0.883208  0.392747  0.616693  1
  N  N32  1  0.686150  0.900271  0.560130  1
  N  N33  1  0.186150  0.099729  0.939870  1
  N  N34  1  0.313850  0.400271  0.439870  1
  N  N35  1  0.813850  0.599729  0.060130  1
  N  N36  1  0.313850  0.099729  0.439870  1
  N  N37  1  0.813850  0.900271  0.060130  1
  N  N38  1  0.686150  0.599729  0.560130  1
  N  N39  1  0.186150  0.400271  0.939870  1
  N  N40  1  0.885089  0.956458  0.800438  1
  N  N41  1  0.385089  0.043542  0.699562  1
  N  N42  1  0.114911  0.456458  0.199562  1
  N  N43  1  0.614911  0.543542  0.300438  1
  N  N44  1  0.114911  0.043542  0.199562  1
  N  N45  1  0.614911  0.956458  0.300438  1
  N  N46  1  0.885089  0.543542  0.800438  1
  N  N47  1  0.385089  0.456458  0.699562  1
