# generated using pymatgen
data_NiPbF6
_symmetry_space_group_name_H-M   'P 1'
_cell_length_a   5.65208498
_cell_length_b   5.65208498
_cell_length_c   5.65208499
_cell_angle_alpha   55.39229424
_cell_angle_beta   55.39229423
_cell_angle_gamma   55.39229429
_symmetry_Int_Tables_number   1
_chemical_formula_structural   NiPbF6
_chemical_formula_sum   'Ni1 Pb1 F6'
_cell_volume   114.01105199
_cell_formula_units_Z   1
loop_
 _symmetry_equiv_pos_site_id
 _symmetry_equiv_pos_as_xyz
  1  'x, y, z'
loop_
 _atom_site_type_symbol
 _atom_site_label
 _atom_site_symmetry_multiplicity
 _atom_site_fract_x
 _atom_site_fract_y
 _atom_site_fract_z
 _atom_site_occupancy
  F  F0  1  0.383298  0.103716  0.757970  1
  F  F1  1  0.103716  0.757970  0.383298  1
  F  F2  1  0.242030  0.616702  0.896285  1
  F  F3  1  0.896285  0.242030  0.616702  1
  F  F4  1  0.616702  0.896285  0.242030  1
  F  F5  1  0.757970  0.383298  0.103716  1
  Ni  Ni6  1  0.000000  0.000000  0.000000  1
  Pb  Pb7  1  0.500000  0.500000  0.500000  1
