# generated using pymatgen
data_SiO2
_symmetry_space_group_name_H-M   'P 1'
_cell_length_a   5.84366296
_cell_length_b   5.84368844
_cell_length_c   11.89457174
_cell_angle_alpha   96.44923728
_cell_angle_beta   96.48712285
_cell_angle_gamma   122.80859590
_symmetry_Int_Tables_number   1
_chemical_formula_structural   SiO2
_chemical_formula_sum   'Si8 O16'
_cell_volume   331.79967066
_cell_formula_units_Z   8
loop_
 _symmetry_equiv_pos_site_id
 _symmetry_equiv_pos_as_xyz
  1  'x, y, z'
loop_
 _atom_site_type_symbol
 _atom_site_label
 _atom_site_symmetry_multiplicity
 _atom_site_fract_x
 _atom_site_fract_y
 _atom_site_fract_z
 _atom_site_occupancy
  Si  Si0  1  0.244973  0.193759  0.618145  1
  Si  Si1  1  0.873316  0.424337  0.618100  1
  Si  Si2  1  0.755027  0.806241  0.381855  1
  Si  Si3  1  0.693863  0.744951  0.118102  1
  Si  Si4  1  0.126684  0.575663  0.381900  1
  Si  Si5  1  0.306137  0.255049  0.881898  1
  Si  Si6  1  0.924473  0.373326  0.118140  1
  Si  Si7  1  0.075527  0.626674  0.881860  1
  O  O8  1  0.343945  0.156608  0.750082  1
  O  O9  1  0.000000  0.000000  0.500000  1
  O  O10  1  0.172066  0.422182  0.845091  1
  O  O11  1  0.784675  0.034532  0.068885  1
  O  O12  1  0.656055  0.843392  0.249918  1
  O  O13  1  0.827934  0.577818  0.154909  1
  O  O14  1  0.077713  0.327555  0.654909  1
  O  O15  1  0.906562  0.593842  0.749919  1
  O  O16  1  0.093438  0.406158  0.250081  1
  O  O17  1  0.215325  0.965468  0.931115  1
  O  O18  1  0.922287  0.672445  0.345091  1
  O  O19  1  0.465553  0.715779  0.431111  1
  O  O20  1  0.000000  0.500000  0.500000  1
  O  O21  1  0.534447  0.284221  0.568889  1
  O  O22  1  0.500000  0.500000  0.000000  1
  O  O23  1  0.000000  0.500000  0.000000  1
