# generated using pymatgen
data_Rb2Na2SiO4
_symmetry_space_group_name_H-M   'P 1'
_cell_length_a   9.93228329
_cell_length_b   11.04929954
_cell_length_c   11.27316209
_cell_angle_alpha   90.00000000
_cell_angle_beta   90.00000000
_cell_angle_gamma   90.00000000
_symmetry_Int_Tables_number   1
_chemical_formula_structural   Rb2Na2SiO4
_chemical_formula_sum   'Rb16 Na16 Si8 O32'
_cell_volume   1237.17061667
_cell_formula_units_Z   8
loop_
 _symmetry_equiv_pos_site_id
 _symmetry_equiv_pos_as_xyz
  1  'x, y, z'
loop_
 _atom_site_type_symbol
 _atom_site_label
 _atom_site_symmetry_multiplicity
 _atom_site_fract_x
 _atom_site_fract_y
 _atom_site_fract_z
 _atom_site_occupancy
  Rb  Rb0  1  0.640182  0.150490  0.636496  1
  Rb  Rb1  1  0.140182  0.349510  0.363504  1
  Rb  Rb2  1  0.298381  0.937186  0.035539  1
  Rb  Rb3  1  0.701619  0.437186  0.464461  1
  Rb  Rb4  1  0.798381  0.562814  0.964461  1
  Rb  Rb5  1  0.359818  0.650490  0.863504  1
  Rb  Rb6  1  0.640182  0.349510  0.136496  1
  Rb  Rb7  1  0.140182  0.150490  0.863504  1
  Rb  Rb8  1  0.859818  0.849510  0.136496  1
  Rb  Rb9  1  0.298381  0.562814  0.535539  1
  Rb  Rb10  1  0.701619  0.062814  0.964461  1
  Rb  Rb11  1  0.359818  0.849510  0.363504  1
  Rb  Rb12  1  0.201619  0.062814  0.535539  1
  Rb  Rb13  1  0.201619  0.437186  0.035539  1
  Rb  Rb14  1  0.798381  0.937186  0.464461  1
  Rb  Rb15  1  0.859818  0.650490  0.636496  1
  Na  Na16  1  0.033137  0.749280  0.906410  1
  Na  Na17  1  0.966863  0.250720  0.093590  1
  Na  Na18  1  0.908156  0.951300  0.746508  1
  Na  Na19  1  0.033137  0.750720  0.406410  1
  Na  Na20  1  0.908156  0.548700  0.246508  1
  Na  Na21  1  0.591844  0.048700  0.246508  1
  Na  Na22  1  0.408156  0.548700  0.253492  1
  Na  Na23  1  0.091844  0.048700  0.253492  1
  Na  Na24  1  0.533137  0.749280  0.593590  1
  Na  Na25  1  0.091844  0.451300  0.753492  1
  Na  Na26  1  0.466863  0.249280  0.906410  1
  Na  Na27  1  0.466863  0.250720  0.406410  1
  Na  Na28  1  0.533137  0.750720  0.093590  1
  Na  Na29  1  0.591844  0.451300  0.746508  1
  Na  Na30  1  0.966863  0.249280  0.593590  1
  Na  Na31  1  0.408156  0.951300  0.753492  1
  Si  Si32  1  0.157646  0.804432  0.682170  1
  Si  Si33  1  0.342354  0.304432  0.682170  1
  Si  Si34  1  0.157646  0.695568  0.182170  1
  Si  Si35  1  0.657646  0.695568  0.317830  1
  Si  Si36  1  0.657646  0.804432  0.817830  1
  Si  Si37  1  0.342354  0.195568  0.182170  1
  Si  Si38  1  0.842354  0.304432  0.817830  1
  Si  Si39  1  0.842354  0.195568  0.317830  1
  O  O40  1  0.841867  0.105968  0.197840  1
  O  O41  1  0.878138  0.163205  0.773914  1
  O  O42  1  0.460790  0.148046  0.088359  1
  O  O43  1  0.158133  0.605968  0.302160  1
  O  O44  1  0.190650  0.310437  0.619294  1
  O  O45  1  0.039210  0.851954  0.588359  1
  O  O46  1  0.309350  0.689563  0.119294  1
  O  O47  1  0.690650  0.310437  0.880706  1
  O  O48  1  0.960790  0.351954  0.911641  1
  O  O49  1  0.378138  0.336795  0.226086  1
  O  O50  1  0.690650  0.189563  0.380706  1
  O  O51  1  0.809350  0.810437  0.880706  1
  O  O52  1  0.460790  0.351954  0.588359  1
  O  O53  1  0.960790  0.148046  0.411641  1
  O  O54  1  0.841867  0.394032  0.697840  1
  O  O55  1  0.539210  0.851954  0.911641  1
  O  O56  1  0.658133  0.605968  0.197840  1
  O  O57  1  0.378138  0.163205  0.726086  1
  O  O58  1  0.158133  0.894032  0.802160  1
  O  O59  1  0.658133  0.894032  0.697840  1
  O  O60  1  0.878138  0.336795  0.273914  1
  O  O61  1  0.309350  0.810437  0.619294  1
  O  O62  1  0.341867  0.394032  0.802160  1
  O  O63  1  0.621862  0.663205  0.773914  1
  O  O64  1  0.121862  0.836795  0.226086  1
  O  O65  1  0.190650  0.189563  0.119294  1
  O  O66  1  0.341867  0.105968  0.302160  1
  O  O67  1  0.539210  0.648046  0.411641  1
  O  O68  1  0.039210  0.648046  0.088359  1
  O  O69  1  0.809350  0.689563  0.380706  1
  O  O70  1  0.621862  0.836795  0.273914  1
  O  O71  1  0.121862  0.663205  0.726086  1
