# generated using pymatgen
data_Rb3InP2
_symmetry_space_group_name_H-M   'P 1'
_cell_length_a   9.50185258
_cell_length_b   12.62639545
_cell_length_c   16.07485244
_cell_angle_alpha   97.11864691
_cell_angle_beta   106.92831677
_cell_angle_gamma   106.65951313
_symmetry_Int_Tables_number   1
_chemical_formula_structural   Rb3InP2
_chemical_formula_sum   'Rb24 In8 P16'
_cell_volume   1721.70695407
_cell_formula_units_Z   8
loop_
 _symmetry_equiv_pos_site_id
 _symmetry_equiv_pos_as_xyz
  1  'x, y, z'
loop_
 _atom_site_type_symbol
 _atom_site_label
 _atom_site_symmetry_multiplicity
 _atom_site_fract_x
 _atom_site_fract_y
 _atom_site_fract_z
 _atom_site_occupancy
  In  In0  1  0.421027  0.356195  0.008381  1
  In  In1  1  0.578973  0.643805  0.991619  1
  In  In2  1  0.172330  0.109222  0.010901  1
  In  In3  1  0.827670  0.890778  0.989099  1
  In  In4  1  0.438222  0.281474  0.579033  1
  In  In5  1  0.561778  0.718526  0.420967  1
  In  In6  1  0.077082  0.231851  0.442437  1
  In  In7  1  0.922918  0.768149  0.557563  1
  Rb  Rb8  1  0.536967  0.578717  0.194798  1
  Rb  Rb9  1  0.463033  0.421283  0.805202  1
  Rb  Rb10  1  0.334882  0.747837  0.118780  1
  Rb  Rb11  1  0.665118  0.252163  0.881220  1
  Rb  Rb12  1  0.017627  0.098587  0.195242  1
  Rb  Rb13  1  0.982373  0.901413  0.804758  1
  Rb  Rb14  1  0.168313  0.076302  0.656230  1
  Rb  Rb15  1  0.831688  0.923698  0.343770  1
  Rb  Rb16  1  0.019600  0.265068  0.820358  1
  Rb  Rb17  1  0.980400  0.734932  0.179642  1
  Rb  Rb18  1  0.077056  0.393745  0.089174  1
  Rb  Rb19  1  0.922944  0.606255  0.910826  1
  Rb  Rb20  1  0.393860  0.396906  0.354211  1
  Rb  Rb21  1  0.606140  0.603094  0.645789  1
  Rb  Rb22  1  0.784263  0.415666  0.244716  1
  Rb  Rb23  1  0.215737  0.584334  0.755284  1
  Rb  Rb24  1  0.417563  0.068814  0.253941  1
  Rb  Rb25  1  0.582437  0.931186  0.746059  1
  Rb  Rb26  1  0.609970  0.122773  0.085383  1
  Rb  Rb27  1  0.390030  0.877227  0.914617  1
  Rb  Rb28  1  0.149107  0.585776  0.473582  1
  Rb  Rb29  1  0.850893  0.414224  0.526418  1
  Rb  Rb30  1  0.310896  0.880258  0.478583  1
  Rb  Rb31  1  0.689104  0.119742  0.521417  1
  P  P32  1  0.311099  0.156371  0.890981  1
  P  P33  1  0.688901  0.843629  0.109019  1
  P  P34  1  0.369378  0.279291  0.147309  1
  P  P35  1  0.630622  0.720709  0.852691  1
  P  P36  1  0.714668  0.487170  0.038817  1
  P  P37  1  0.285332  0.512830  0.961183  1
  P  P38  1  0.127637  0.902022  0.039370  1
  P  P39  1  0.872363  0.097978  0.960630  1
  P  P40  1  0.293926  0.661113  0.312647  1
  P  P41  1  0.706074  0.338887  0.687353  1
  P  P42  1  0.723704  0.870450  0.568845  1
  P  P43  1  0.276296  0.129550  0.431155  1
  P  P44  1  0.769691  0.625166  0.407683  1
  P  P45  1  0.230309  0.374834  0.592317  1
  P  P46  1  0.186538  0.801315  0.660770  1
  P  P47  1  0.813462  0.198685  0.339230  1
