# generated using pymatgen
data_SrLa7TiGa7O24
_symmetry_space_group_name_H-M   'P 1'
_cell_length_a   5.57452056
_cell_length_b   5.57922356
_cell_length_c   31.37575321
_cell_angle_alpha   90.00000000
_cell_angle_beta   89.99459054
_cell_angle_gamma   90.00000000
_symmetry_Int_Tables_number   1
_chemical_formula_structural   SrLa7TiGa7O24
_chemical_formula_sum   'Sr2 La14 Ti2 Ga14 O48'
_cell_volume   975.83287307
_cell_formula_units_Z   2
loop_
 _symmetry_equiv_pos_site_id
 _symmetry_equiv_pos_as_xyz
  1  'x, y, z'
loop_
 _atom_site_type_symbol
 _atom_site_label
 _atom_site_symmetry_multiplicity
 _atom_site_fract_x
 _atom_site_fract_y
 _atom_site_fract_z
 _atom_site_occupancy
  Ga  Ga0  1  0.999167  0.502943  0.999598  1
  Ga  Ga1  1  0.002744  0.497962  0.250242  1
  Ga  Ga2  1  0.999834  0.501683  0.375134  1
  Ga  Ga3  1  0.999964  0.500143  0.624996  1
  Ga  Ga4  1  1.000093  0.500224  0.749906  1
  Ga  Ga5  1  0.000653  0.500196  0.874861  1
  Ga  Ga6  1  0.497256  0.997962  0.999758  1
  Ga  Ga7  1  0.499347  0.000196  0.375139  1
  Ga  Ga8  1  0.500036  1.000143  0.625004  1
  Ga  Ga9  1  0.500833  0.002943  0.250402  1
  Ga  Ga10  1  0.500089  0.000541  0.749898  1
  Ga  Ga11  1  0.500166  1.001683  0.874866  1
  Ga  Ga12  1  0.499907  1.000224  0.500094  1
  Ga  Ga13  1  -0.000089  0.500541  0.500102  1
  La  La14  1  0.024343  0.995122  0.312334  1
  La  La15  1  0.026871  0.992404  0.562563  1
  La  La16  1  0.027141  0.992407  0.812525  1
  La  La17  1  0.472859  0.492407  0.437475  1
  La  La18  1  0.473129  0.492404  0.687437  1
  La  La19  1  0.475657  0.495122  0.937666  1
  La  La20  1  0.520615  0.507362  0.059511  1
  La  La21  1  0.525866  0.508770  0.312165  1
  La  La22  1  0.527337  0.508782  0.812450  1
  La  La23  1  0.526875  0.508030  0.562525  1
  La  La24  1  0.979385  0.007362  0.190489  1
  La  La25  1  0.973125  0.008030  0.687475  1
  La  La26  1  0.974134  0.008770  0.937835  1
  La  La27  1  0.972663  0.008782  0.437550  1
  O  O28  1  0.005115  0.569643  0.186239  1
  O  O29  1  0.013911  0.579705  0.437675  1
  O  O30  1  0.014107  0.579115  0.687439  1
  O  O31  1  0.013304  0.578606  0.937044  1
  O  O32  1  0.222601  0.220791  0.240920  1
  O  O33  1  0.228916  0.224480  0.133825  1
  O  O34  1  0.221458  0.222851  0.385992  1
  O  O35  1  0.222428  0.223310  0.739125  1
  O  O36  1  0.222201  0.223020  0.635665  1
  O  O37  1  0.222022  0.223294  0.489451  1
  O  O38  1  0.221158  0.222639  0.885529  1
  O  O39  1  0.226957  0.228338  0.989848  1
  O  O40  1  0.278842  0.722639  0.364471  1
  O  O41  1  0.271084  0.724480  0.116175  1
  O  O42  1  0.277399  0.720791  0.009080  1
  O  O43  1  0.273043  0.728338  0.260152  1
  O  O44  1  0.277799  0.723020  0.614335  1
  O  O45  1  0.277572  0.723310  0.510875  1
  O  O46  1  0.278542  0.722851  0.864008  1
  O  O47  1  0.277978  0.723294  0.760549  1
  O  O48  1  0.494885  0.069643  0.063761  1
  O  O49  1  0.486696  0.078606  0.312956  1
  O  O50  1  0.486089  0.079705  0.812325  1
  O  O51  1  0.485893  0.079115  0.562561  1
  O  O52  1  0.509727  0.941291  0.186254  1
  O  O53  1  0.514203  0.921407  0.437722  1
  O  O54  1  0.514089  0.921298  0.687433  1
  O  O55  1  0.512465  0.925011  0.936946  1
  O  O56  1  0.739298  0.254778  0.133279  1
  O  O57  1  0.736316  0.263845  0.241089  1
  O  O58  1  0.722020  0.277632  0.489445  1
  O  O59  1  0.721765  0.278054  0.385877  1
  O  O60  1  0.722386  0.277362  0.739096  1
  O  O61  1  0.722244  0.277246  0.635660  1
  O  O62  1  0.724659  0.272813  0.990485  1
  O  O63  1  0.722405  0.278208  0.885602  1
  O  O64  1  0.775341  0.772813  0.259515  1
  O  O65  1  0.760702  0.754778  0.116721  1
  O  O66  1  0.763684  0.763845  0.008911  1
  O  O67  1  0.777595  0.778208  0.364398  1
  O  O68  1  0.777756  0.777246  0.614340  1
  O  O69  1  0.778235  0.778054  0.864123  1
  O  O70  1  0.777614  0.777362  0.510904  1
  O  O71  1  0.777980  0.777632  0.760555  1
  O  O72  1  0.987535  0.425011  0.313054  1
  O  O73  1  0.990273  0.441291  0.063746  1
  O  O74  1  0.985797  0.421407  0.812278  1
  O  O75  1  0.985911  0.421298  0.562567  1
  Sr  Sr76  1  0.014657  0.995198  0.060809  1
  Sr  Sr77  1  0.485343  0.495198  0.189191  1
  Ti  Ti78  1  0.001551  0.503498  0.124423  1
  Ti  Ti79  1  0.498449  1.003498  0.125577  1
