# generated using pymatgen
data_K3La(PSe4)2
_symmetry_space_group_name_H-M   'P 1'
_cell_length_a   9.67543619
_cell_length_b   10.16086893
_cell_length_c   18.07729114
_cell_angle_alpha   90.00000000
_cell_angle_beta   90.00000000
_cell_angle_gamma   89.53329392
_symmetry_Int_Tables_number   1
_chemical_formula_structural   K3La(PSe4)2
_chemical_formula_sum   'K12 La4 P8 Se32'
_cell_volume   1777.13469939
_cell_formula_units_Z   4
loop_
 _symmetry_equiv_pos_site_id
 _symmetry_equiv_pos_as_xyz
  1  'x, y, z'
loop_
 _atom_site_type_symbol
 _atom_site_label
 _atom_site_symmetry_multiplicity
 _atom_site_fract_x
 _atom_site_fract_y
 _atom_site_fract_z
 _atom_site_occupancy
  La  La0  1  0.774038  0.029254  0.986415  1
  La  La1  1  0.225962  0.470746  0.486415  1
  La  La2  1  0.225962  0.970746  0.013585  1
  La  La3  1  0.774038  0.529254  0.513585  1
  Se  Se4  1  0.035141  0.029845  0.874537  1
  Se  Se5  1  0.964859  0.470155  0.374537  1
  Se  Se6  1  0.964859  0.970155  0.125463  1
  Se  Se7  1  0.035141  0.529845  0.625463  1
  Se  Se8  1  0.942773  0.747175  0.981907  1
  Se  Se9  1  0.057227  0.752825  0.481907  1
  Se  Se10  1  0.057227  0.252825  0.018093  1
  Se  Se11  1  0.942773  0.247175  0.518093  1
  Se  Se12  1  0.462130  0.178860  0.976392  1
  Se  Se13  1  0.537870  0.321140  0.476392  1
  Se  Se14  1  0.537870  0.821140  0.023608  1
  Se  Se15  1  0.462130  0.678860  0.523608  1
  Se  Se16  1  0.691135  0.172844  0.130880  1
  Se  Se17  1  0.308865  0.327156  0.630880  1
  Se  Se18  1  0.308865  0.827156  0.869120  1
  Se  Se19  1  0.691135  0.672844  0.369120  1
  Se  Se20  1  0.780893  0.278292  0.885303  1
  Se  Se21  1  0.219107  0.221708  0.385303  1
  Se  Se22  1  0.219107  0.721708  0.114697  1
  Se  Se23  1  0.780893  0.778292  0.614697  1
  Se  Se24  1  0.125703  0.366149  0.819930  1
  Se  Se25  1  0.874297  0.133851  0.319930  1
  Se  Se26  1  0.874297  0.633851  0.180070  1
  Se  Se27  1  0.125703  0.866149  0.680070  1
  Se  Se28  1  0.429381  0.429192  0.125852  1
  Se  Se29  1  0.570619  0.070808  0.625852  1
  Se  Se30  1  0.570619  0.570808  0.874148  1
  Se  Se31  1  0.429381  0.929192  0.374148  1
  Se  Se32  1  0.669672  0.909648  0.841759  1
  Se  Se33  1  0.330328  0.590352  0.341759  1
  Se  Se34  1  0.330328  0.090352  0.158241  1
  Se  Se35  1  0.669672  0.409648  0.658241  1
  K  K36  1  0.879297  0.627028  0.793309  1
  K  K37  1  0.120703  0.872972  0.293309  1
  K  K38  1  0.120703  0.372972  0.206691  1
  K  K39  1  0.879297  0.127028  0.706691  1
  P  P40  1  0.474176  0.222749  0.098212  1
  P  P41  1  0.525824  0.277251  0.598212  1
  P  P42  1  0.525824  0.777251  0.901788  1
  P  P43  1  0.474176  0.722749  0.401788  1
  K  K44  1  0.617975  0.373958  0.285494  1
  K  K45  1  0.382025  0.126042  0.785494  1
  K  K46  1  0.382025  0.626042  0.714506  1
  K  K47  1  0.617975  0.873958  0.214506  1
  P  P48  1  0.006592  0.245864  0.897415  1
  P  P49  1  0.993408  0.254136  0.397415  1
  P  P50  1  0.993408  0.754136  0.102585  1
  P  P51  1  0.006592  0.745864  0.602585  1
  K  K52  1  0.730347  0.486867  0.032229  1
  K  K53  1  0.269653  0.013133  0.532229  1
  K  K54  1  0.269653  0.513133  0.967771  1
  K  K55  1  0.730347  0.986867  0.467771  1
