# generated using pymatgen
data_Tl3Ag3(AsS3)2
_symmetry_space_group_name_H-M   'P 1'
_cell_length_a   11.36361057
_cell_length_b   11.71961507
_cell_length_c   12.00955487
_cell_angle_alpha   90.00000000
_cell_angle_beta   90.00000000
_cell_angle_gamma   116.63247724
_symmetry_Int_Tables_number   1
_chemical_formula_structural   Tl3Ag3(AsS3)2
_chemical_formula_sum   'Tl12 Ag12 As8 S24'
_cell_volume   1429.70250278
_cell_formula_units_Z   4
loop_
 _symmetry_equiv_pos_site_id
 _symmetry_equiv_pos_as_xyz
  1  'x, y, z'
loop_
 _atom_site_type_symbol
 _atom_site_label
 _atom_site_symmetry_multiplicity
 _atom_site_fract_x
 _atom_site_fract_y
 _atom_site_fract_z
 _atom_site_occupancy
  Tl  Tl0  1  0.723221  0.523404  0.014862  1
  Tl  Tl1  1  0.896820  0.113058  0.883897  1
  Tl  Tl2  1  0.564942  0.726744  0.247258  1
  Tl  Tl3  1  0.776779  0.976596  0.514862  1
  Tl  Tl4  1  0.223221  0.023404  0.485138  1
  Tl  Tl5  1  0.276779  0.476596  0.985138  1
  Tl  Tl6  1  0.396820  0.613058  0.616103  1
  Tl  Tl7  1  0.603180  0.386942  0.383897  1
  Tl  Tl8  1  0.935058  0.773256  0.747258  1
  Tl  Tl9  1  0.435058  0.273256  0.752742  1
  Tl  Tl10  1  0.064942  0.226744  0.252742  1
  Tl  Tl11  1  0.103180  0.886942  0.116103  1
  Ag  Ag12  1  0.921275  0.454136  0.374571  1
  Ag  Ag13  1  0.421275  0.954136  0.125429  1
  Ag  Ag14  1  0.578725  0.045864  0.874571  1
  Ag  Ag15  1  0.685658  0.571238  0.652974  1
  Ag  Ag16  1  0.456788  0.927163  0.641093  1
  Ag  Ag17  1  0.814342  0.928762  0.152974  1
  Ag  Ag18  1  0.185658  0.071238  0.847026  1
  Ag  Ag19  1  0.078725  0.545864  0.625429  1
  Ag  Ag20  1  0.543212  0.072837  0.358907  1
  Ag  Ag21  1  0.314342  0.428762  0.347026  1
  Ag  Ag22  1  0.043212  0.572837  0.141093  1
  Ag  Ag23  1  0.956788  0.427163  0.858907  1
  As  As24  1  0.401840  0.243903  0.096856  1
  As  As25  1  0.901840  0.743903  0.403144  1
  As  As26  1  0.249730  0.755947  0.855531  1
  As  As27  1  0.098160  0.256097  0.596856  1
  As  As28  1  0.749730  0.255947  0.644469  1
  As  As29  1  0.750270  0.244053  0.144469  1
  As  As30  1  0.250270  0.744053  0.355531  1
  As  As31  1  0.598160  0.756097  0.903144  1
  S  S32  1  0.443484  0.438113  0.177040  1
  S  S33  1  0.461045  0.839946  0.424419  1
  S  S34  1  0.364317  0.109059  0.244552  1
  S  S35  1  0.825959  0.462891  0.583957  1
  S  S36  1  0.290923  0.716441  0.175152  1
  S  S37  1  0.193969  0.187629  0.032141  1
  S  S38  1  0.135683  0.390941  0.744552  1
  S  S39  1  0.806031  0.812371  0.967859  1
  S  S40  1  0.693969  0.687629  0.467859  1
  S  S41  1  0.635683  0.890941  0.755448  1
  S  S42  1  0.961045  0.339946  0.075581  1
  S  S43  1  0.790923  0.216441  0.324848  1
  S  S44  1  0.538955  0.160054  0.575581  1
  S  S45  1  0.943484  0.938113  0.322960  1
  S  S46  1  0.556516  0.561887  0.822960  1
  S  S47  1  0.306031  0.312371  0.532141  1
  S  S48  1  0.174041  0.537109  0.416043  1
  S  S49  1  0.709077  0.283559  0.824848  1
  S  S50  1  0.056516  0.061887  0.677040  1
  S  S51  1  0.038955  0.660054  0.924419  1
  S  S52  1  0.674041  0.037109  0.083957  1
  S  S53  1  0.864317  0.609059  0.255448  1
  S  S54  1  0.209077  0.783559  0.675152  1
  S  S55  1  0.325959  0.962891  0.916043  1
