# generated using pymatgen
data_K3SO4F
_symmetry_space_group_name_H-M   'P 1'
_cell_length_a   7.39001953
_cell_length_b   7.39001932
_cell_length_c   7.60991937
_cell_angle_alpha   119.04862849
_cell_angle_beta   119.04862757
_cell_angle_gamma   90.00000162
_symmetry_Int_Tables_number   1
_chemical_formula_structural   K3SO4F
_chemical_formula_sum   'K6 S2 O8 F2'
_cell_volume   302.12389440
_cell_formula_units_Z   2
loop_
 _symmetry_equiv_pos_site_id
 _symmetry_equiv_pos_as_xyz
  1  'x, y, z'
loop_
 _atom_site_type_symbol
 _atom_site_label
 _atom_site_symmetry_multiplicity
 _atom_site_fract_x
 _atom_site_fract_y
 _atom_site_fract_z
 _atom_site_occupancy
  K  K0  1  0.192962  0.692962  0.000000  1
  K  K1  1  0.250000  0.250000  0.500000  1
  K  K2  1  0.692962  0.807038  1.000000  1
  K  K3  1  0.807038  0.307038  1.000000  1
  K  K4  1  0.307038  0.192962  0.000000  1
  K  K5  1  0.750000  0.750000  0.500000  1
  S  S6  1  0.750000  0.250000  0.500000  1
  S  S7  1  0.250000  0.750000  0.500000  1
  O  O8  1  0.287401  0.554900  0.342301  1
  O  O9  1  0.445100  0.945100  0.657699  1
  O  O10  1  0.787401  0.287401  0.342301  1
  O  O11  1  0.212599  0.712599  0.657699  1
  O  O12  1  0.054900  0.787401  0.342301  1
  O  O13  1  0.554900  0.054900  0.342301  1
  O  O14  1  0.945100  0.212599  0.657699  1
  O  O15  1  0.712599  0.445100  0.657699  1
  F  F16  1  0.000000  0.000000  0.000000  1
  F  F17  1  0.500000  0.500000  0.000000  1
