# generated using pymatgen
data_Mg16Si8HO32
_symmetry_space_group_name_H-M   'P 1'
_cell_length_a   6.07389822
_cell_length_b   9.66887628
_cell_length_c   10.47233921
_cell_angle_alpha   90.88079470
_cell_angle_beta   90.01483322
_cell_angle_gamma   90.00799146
_symmetry_Int_Tables_number   1
_chemical_formula_structural   Mg16Si8HO32
_chemical_formula_sum   'Mg16 Si8 H1 O32'
_cell_volume   614.94443612
_cell_formula_units_Z   1
loop_
 _symmetry_equiv_pos_site_id
 _symmetry_equiv_pos_as_xyz
  1  'x, y, z'
loop_
 _atom_site_type_symbol
 _atom_site_label
 _atom_site_symmetry_multiplicity
 _atom_site_fract_x
 _atom_site_fract_y
 _atom_site_fract_z
 _atom_site_occupancy
  H  H0  1  0.744872  0.652226  0.350298  1
  Mg  Mg1  1  0.002183  0.005003  0.993534  1
  Mg  Mg2  1  0.003039  0.243820  0.502510  1
  Mg  Mg3  1  0.497866  0.004991  0.993556  1
  Mg  Mg4  1  0.497204  0.243824  0.502521  1
  Mg  Mg5  1  0.250126  0.500285  0.279147  1
  Mg  Mg6  1  0.750068  0.244910  0.219395  1
  Mg  Mg7  1  0.750113  0.008005  0.721274  1
  Mg  Mg8  1  0.249998  0.257813  0.778759  1
  Mg  Mg9  1  0.999621  0.502037  0.001073  1
  Mg  Mg10  1  0.006299  0.755401  0.510198  1
  Mg  Mg11  1  0.500489  0.502031  0.001027  1
  Mg  Mg12  1  0.493816  0.755550  0.510915  1
  Mg  Mg13  1  0.250090  0.995641  0.276161  1
  Mg  Mg14  1  0.750838  0.767437  0.196471  1
  Mg  Mg15  1  0.750031  0.503155  0.725185  1
  Mg  Mg16  1  0.249846  0.750839  0.780376  1
  O  O17  1  0.250061  0.385306  0.094842  1
  O  O18  1  0.750117  0.131394  0.407137  1
  O  O19  1  0.750020  0.120175  0.904546  1
  O  O20  1  0.250124  0.366320  0.592169  1
  O  O21  1  0.250019  0.105871  0.450456  1
  O  O22  1  0.750054  0.362395  0.052439  1
  O  O23  1  0.750204  0.376481  0.559076  1
  O  O24  1  0.250027  0.143410  0.947075  1
  O  O25  1  0.033610  0.140286  0.160854  1
  O  O26  1  0.969101  0.387002  0.342602  1
  O  O27  1  0.533609  0.363569  0.838897  1
  O  O28  1  0.466247  0.112546  0.664235  1
  O  O29  1  0.966430  0.363580  0.838917  1
  O  O30  1  0.033982  0.112592  0.664263  1
  O  O31  1  0.466490  0.140299  0.160878  1
  O  O32  1  0.531248  0.387016  0.342602  1
  O  O33  1  0.250027  0.886007  0.087151  1
  O  O34  1  0.749873  0.620768  0.444775  1
  O  O35  1  0.750063  0.621178  0.907704  1
  O  O36  1  0.249901  0.868293  0.596999  1
  O  O37  1  0.250186  0.612464  0.451534  1
  O  O38  1  0.750052  0.872482  0.040873  1
  O  O39  1  0.750176  0.891938  0.551509  1
  O  O40  1  0.250004  0.639070  0.946651  1
  O  O41  1  0.032287  0.644376  0.160002  1
  O  O42  1  0.966707  0.886654  0.337020  1
  O  O43  1  0.532526  0.862522  0.831529  1
  O  O44  1  0.465621  0.610173  0.665601  1
  O  O45  1  0.967396  0.862555  0.831545  1
  O  O46  1  0.034250  0.610146  0.665383  1
  O  O47  1  0.468319  0.644403  0.159892  1
  O  O48  1  0.533152  0.886699  0.337141  1
  Si  Si49  1  0.250046  0.215664  0.094443  1
  Si  Si50  1  0.750244  0.447042  0.416298  1
  Si  Si51  1  0.750028  0.289291  0.906071  1
  Si  Si52  1  0.250041  0.037143  0.596883  1
  Si  Si53  1  0.250229  0.716404  0.091234  1
  Si  Si54  1  0.749981  0.961918  0.405287  1
  Si  Si55  1  0.749978  0.789911  0.898174  1
  Si  Si56  1  0.250000  0.535788  0.595174  1
