# generated using pymatgen
data_Zn4As2O9
_symmetry_space_group_name_H-M   'P 1'
_cell_length_a   8.31613420
_cell_length_b   9.89274297
_cell_length_c   18.28908922
_cell_angle_alpha   91.52732543
_cell_angle_beta   90.00000000
_cell_angle_gamma   90.00000000
_symmetry_Int_Tables_number   1
_chemical_formula_structural   Zn4As2O9
_chemical_formula_sum   'Zn32 As16 O72'
_cell_volume   1504.09744247
_cell_formula_units_Z   8
loop_
 _symmetry_equiv_pos_site_id
 _symmetry_equiv_pos_as_xyz
  1  'x, y, z'
loop_
 _atom_site_type_symbol
 _atom_site_label
 _atom_site_symmetry_multiplicity
 _atom_site_fract_x
 _atom_site_fract_y
 _atom_site_fract_z
 _atom_site_occupancy
  Zn  Zn0  1  0.556584  0.368039  0.619461  1
  Zn  Zn1  1  0.443624  0.135172  0.881266  1
  Zn  Zn2  1  0.428084  0.701314  0.631799  1
  Zn  Zn3  1  0.413845  0.051414  0.609165  1
  Zn  Zn4  1  0.056376  0.635172  0.381266  1
  Zn  Zn5  1  0.230292  0.662731  0.944178  1
  Zn  Zn6  1  0.928084  0.798686  0.868201  1
  Zn  Zn7  1  0.056584  0.131961  0.880539  1
  Zn  Zn8  1  0.317116  0.095917  0.290303  1
  Zn  Zn9  1  0.462342  0.207707  0.132291  1
  Zn  Zn10  1  0.269708  0.162731  0.444178  1
  Zn  Zn11  1  0.586155  0.948586  0.390835  1
  Zn  Zn12  1  0.556376  0.864828  0.118734  1
  Zn  Zn13  1  0.182884  0.595917  0.790303  1
  Zn  Zn14  1  0.985116  0.047444  0.652488  1
  Zn  Zn15  1  0.913845  0.448586  0.890835  1
  Zn  Zn16  1  0.443416  0.631961  0.380539  1
  Zn  Zn17  1  0.014884  0.952556  0.347512  1
  Zn  Zn18  1  0.943416  0.868039  0.119461  1
  Zn  Zn19  1  0.962342  0.292293  0.367709  1
  Zn  Zn20  1  0.730292  0.837269  0.555822  1
  Zn  Zn21  1  0.682884  0.904083  0.709697  1
  Zn  Zn22  1  0.943624  0.364828  0.618734  1
  Zn  Zn23  1  0.037658  0.707707  0.632291  1
  Zn  Zn24  1  0.571916  0.298686  0.368201  1
  Zn  Zn25  1  0.769708  0.337269  0.055822  1
  Zn  Zn26  1  0.537658  0.792293  0.867709  1
  Zn  Zn27  1  0.485116  0.452556  0.847512  1
  Zn  Zn28  1  0.071916  0.201314  0.131799  1
  Zn  Zn29  1  0.514884  0.547444  0.152488  1
  Zn  Zn30  1  0.086155  0.551414  0.109165  1
  Zn  Zn31  1  0.817116  0.404083  0.209697  1
  As  As32  1  0.756137  0.235380  0.766807  1
  As  As33  1  0.759292  0.518627  0.474458  1
  As  As34  1  0.748102  0.146060  0.510946  1
  As  As35  1  0.751898  0.646060  0.010946  1
  As  As36  1  0.753868  0.606540  0.748116  1
  As  As37  1  0.259292  0.981373  0.025542  1
  As  As38  1  0.243863  0.764620  0.233193  1
  As  As39  1  0.256137  0.264620  0.733193  1
  As  As40  1  0.246132  0.393460  0.251884  1
  As  As41  1  0.253868  0.893460  0.751884  1
  As  As42  1  0.746132  0.106540  0.248116  1
  As  As43  1  0.740708  0.018627  0.974458  1
  As  As44  1  0.240708  0.481373  0.525542  1
  As  As45  1  0.251898  0.853940  0.489054  1
  As  As46  1  0.743863  0.735380  0.266807  1
  As  As47  1  0.248102  0.353940  0.989054  1
  O  O48  1  0.911927  0.165500  0.568167  1
  O  O49  1  0.926051  0.479416  0.419644  1
  O  O50  1  0.268625  0.260164  0.065848  1
  O  O51  1  0.255967  0.226553  0.212056  1
  O  O52  1  0.731375  0.739836  0.934152  1
  O  O53  1  0.610331  0.361560  0.135803  1
  O  O54  1  0.569353  0.184089  0.554558  1
  O  O55  1  0.250915  0.661722  0.308382  1
  O  O56  1  0.410177  0.227895  0.672225  1
  O  O57  1  0.573949  0.979416  0.919644  1
  O  O58  1  0.244033  0.726553  0.712056  1
  O  O59  1  0.264544  0.021125  0.520304  1
  O  O60  1  0.231375  0.760164  0.565848  1
  O  O61  1  0.447023  0.915855  0.783888  1
  O  O62  1  0.393738  0.402886  0.315962  1
  O  O63  1  0.910334  0.984992  0.920662  1
  O  O64  1  0.273388  0.812307  0.010737  1
  O  O65  1  0.783775  0.006129  0.321932  1
  O  O66  1  0.957588  0.379932  0.123113  1
  O  O67  1  0.249085  0.161722  0.808382  1
  O  O68  1  0.247465  0.570050  0.445808  1
  O  O69  1  0.768625  0.239836  0.434152  1
  O  O70  1  0.735456  0.978875  0.479696  1
  O  O71  1  0.893738  0.097114  0.184038  1
  O  O72  1  0.773388  0.687693  0.489263  1
  O  O73  1  0.457588  0.120068  0.376887  1
  O  O74  1  0.299709  0.426427  0.766443  1
  O  O75  1  0.889669  0.861560  0.635803  1
  O  O76  1  0.423223  0.752240  0.186868  1
  O  O77  1  0.799709  0.073573  0.733557  1
  O  O78  1  0.910177  0.272105  0.827775  1
  O  O79  1  0.088073  0.834500  0.431833  1
  O  O80  1  0.226612  0.312307  0.510737  1
  O  O81  1  0.283775  0.493871  0.178068  1
  O  O82  1  0.389669  0.638440  0.864197  1
  O  O83  1  0.076777  0.252240  0.686868  1
  O  O84  1  0.052977  0.415855  0.283888  1
  O  O85  1  0.542412  0.879932  0.623113  1
  O  O86  1  0.700291  0.573573  0.233557  1
  O  O87  1  0.411927  0.334500  0.931833  1
  O  O88  1  0.588073  0.665500  0.068167  1
  O  O89  1  0.106262  0.902886  0.815962  1
  O  O90  1  0.589823  0.772105  0.327775  1
  O  O91  1  0.089666  0.015008  0.079338  1
  O  O92  1  0.755967  0.273447  0.287944  1
  O  O93  1  0.110331  0.138440  0.364197  1
  O  O94  1  0.744033  0.773447  0.787944  1
  O  O95  1  0.252535  0.070050  0.945808  1
  O  O96  1  0.606262  0.597114  0.684038  1
  O  O97  1  0.930647  0.684089  0.054558  1
  O  O98  1  0.716225  0.506129  0.821932  1
  O  O99  1  0.200291  0.926427  0.266443  1
  O  O100  1  0.747465  0.929950  0.054192  1
  O  O101  1  0.947023  0.584145  0.716112  1
  O  O102  1  0.576777  0.247760  0.813132  1
  O  O103  1  0.216225  0.993871  0.678068  1
  O  O104  1  0.430647  0.815911  0.445442  1
  O  O105  1  0.410334  0.515008  0.579338  1
  O  O106  1  0.042412  0.620068  0.876887  1
  O  O107  1  0.923223  0.747760  0.313132  1
  O  O108  1  0.089823  0.727895  0.172225  1
  O  O109  1  0.069353  0.315911  0.945442  1
  O  O110  1  0.752535  0.429950  0.554192  1
  O  O111  1  0.589666  0.484992  0.420662  1
  O  O112  1  0.749085  0.338278  0.691618  1
  O  O113  1  0.235456  0.521125  0.020304  1
  O  O114  1  0.552977  0.084145  0.216112  1
  O  O115  1  0.750915  0.838278  0.191618  1
  O  O116  1  0.073949  0.520584  0.580356  1
  O  O117  1  0.426051  0.020584  0.080356  1
  O  O118  1  0.726612  0.187693  0.989263  1
  O  O119  1  0.764544  0.478875  0.979696  1
