# generated using pymatgen
data_EuCu9Sn4
_symmetry_space_group_name_H-M   'P 1'
_cell_length_a   8.66980675
_cell_length_b   8.66980675
_cell_length_c   8.74233965
_cell_angle_alpha   119.72592539
_cell_angle_beta   119.72592547
_cell_angle_gamma   89.99999901
_symmetry_Int_Tables_number   1
_chemical_formula_structural   EuCu9Sn4
_chemical_formula_sum   'Eu2 Cu18 Sn8'
_cell_volume   468.47934328
_cell_formula_units_Z   2
loop_
 _symmetry_equiv_pos_site_id
 _symmetry_equiv_pos_as_xyz
  1  'x, y, z'
loop_
 _atom_site_type_symbol
 _atom_site_label
 _atom_site_symmetry_multiplicity
 _atom_site_fract_x
 _atom_site_fract_y
 _atom_site_fract_z
 _atom_site_occupancy
  Eu  Eu0  1  0.750000  0.750000  0.500000  1
  Eu  Eu1  1  0.250000  0.250000  0.500000  1
  Cu  Cu2  1  0.717897  0.434389  0.652286  1
  Cu  Cu3  1  0.798747  0.054915  0.000000  1
  Cu  Cu4  1  0.201253  0.945085  1.000000  1
  Cu  Cu5  1  0.782103  0.282103  0.347714  1
  Cu  Cu6  1  0.282103  0.565611  0.347714  1
  Cu  Cu7  1  0.945085  0.798747  1.000000  1
  Cu  Cu8  1  0.298747  0.445085  1.000000  1
  Cu  Cu9  1  0.934389  0.217897  0.652286  1
  Cu  Cu10  1  0.554915  0.298747  0.000000  1
  Cu  Cu11  1  0.217897  0.717897  0.652286  1
  Cu  Cu12  1  0.500000  0.000000  0.000000  1
  Cu  Cu13  1  0.054915  0.201253  0.000000  1
  Cu  Cu14  1  0.434389  0.934389  0.652286  1
  Cu  Cu15  1  0.445085  0.701253  1.000000  1
  Cu  Cu16  1  0.565611  0.065611  0.347714  1
  Cu  Cu17  1  0.701253  0.554915  0.000000  1
  Cu  Cu18  1  0.000000  0.500000  0.000000  1
  Cu  Cu19  1  0.065611  0.782103  0.347714  1
  Sn  Sn20  1  0.559047  0.687955  0.747002  1
  Sn  Sn21  1  0.812045  0.940953  0.252998  1
  Sn  Sn22  1  0.687955  0.187955  0.747002  1
  Sn  Sn23  1  0.059047  0.559047  0.747002  1
  Sn  Sn24  1  0.940953  0.440953  0.252998  1
  Sn  Sn25  1  0.312045  0.812045  0.252998  1
  Sn  Sn26  1  0.440953  0.312045  0.252998  1
  Sn  Sn27  1  0.187955  0.059047  0.747002  1
