# generated using pymatgen
data_SiO2
_symmetry_space_group_name_H-M   'P 1'
_cell_length_a   10.10498076
_cell_length_b   12.95531062
_cell_length_c   13.10221236
_cell_angle_alpha   93.70148438
_cell_angle_beta   95.66514694
_cell_angle_gamma   91.60611852
_symmetry_Int_Tables_number   1
_chemical_formula_structural   SiO2
_chemical_formula_sum   'Si16 O32'
_cell_volume   1702.29144802
_cell_formula_units_Z   16
loop_
 _symmetry_equiv_pos_site_id
 _symmetry_equiv_pos_as_xyz
  1  'x, y, z'
loop_
 _atom_site_type_symbol
 _atom_site_label
 _atom_site_symmetry_multiplicity
 _atom_site_fract_x
 _atom_site_fract_y
 _atom_site_fract_z
 _atom_site_occupancy
  Si  Si0  1  0.234438  0.898996  0.430415  1
  Si  Si1  1  0.436174  0.602300  0.698847  1
  Si  Si2  1  0.395882  0.739135  0.359996  1
  Si  Si3  1  0.563826  0.397700  0.301153  1
  Si  Si4  1  0.328273  0.250897  0.566805  1
  Si  Si5  1  0.672082  0.249732  0.433245  1
  Si  Si6  1  0.563770  0.578988  0.301178  1
  Si  Si7  1  0.671727  0.749103  0.433195  1
  Si  Si8  1  0.603887  0.761995  0.639918  1
  Si  Si9  1  0.604118  0.260865  0.640004  1
  Si  Si10  1  0.436230  0.421012  0.698822  1
  Si  Si11  1  0.234708  0.080158  0.430478  1
  Si  Si12  1  0.396113  0.238005  0.360082  1
  Si  Si13  1  0.765562  0.101004  0.569585  1
  Si  Si14  1  0.765292  0.919842  0.569522  1
  Si  Si15  1  0.327918  0.750268  0.566755  1
  O  O16  1  0.276537  0.820490  0.334707  1
  O  O17  1  0.535175  0.493252  0.386372  1
  O  O18  1  0.211100  0.830131  0.530000  1
  O  O19  1  0.788900  0.169869  0.470000  1
  O  O20  1  0.536016  0.806910  0.390851  1
  O  O21  1  0.723463  0.179510  0.665293  1
  O  O22  1  0.463984  0.193090  0.609149  1
  O  O23  1  0.536322  0.180462  0.390955  1
  O  O24  1  0.692476  0.658038  0.343020  1
  O  O25  1  0.692644  0.329876  0.343004  1
  O  O26  1  0.723205  0.851880  0.665185  1
  O  O27  1  0.463678  0.819538  0.609045  1
  O  O28  1  0.276795  0.148120  0.334815  1
  O  O29  1  0.211642  0.161062  0.530013  1
  O  O30  1  0.407729  0.516738  0.786236  1
  O  O31  1  0.354692  0.307245  0.461194  1
  O  O32  1  0.431816  0.318298  0.273353  1
  O  O33  1  0.464825  0.506748  0.613628  1
  O  O34  1  0.645308  0.692755  0.538806  1
  O  O35  1  0.592271  0.483262  0.213764  1
  O  O36  1  0.881733  0.014933  0.601251  1
  O  O37  1  0.307524  0.341962  0.656980  1
  O  O38  1  0.118267  0.985067  0.398749  1
  O  O39  1  0.568184  0.681702  0.726647  1
  O  O40  1  0.651847  0.006005  0.538023  1
  O  O41  1  0.788358  0.838938  0.469987  1
  O  O42  1  0.307356  0.670124  0.656996  1
  O  O43  1  0.568272  0.351049  0.726532  1
  O  O44  1  0.645795  0.318636  0.538912  1
  O  O45  1  0.431728  0.648951  0.273468  1
  O  O46  1  0.348153  0.993995  0.461977  1
  O  O47  1  0.354205  0.681364  0.461088  1
