# generated using pymatgen
data_Na3Fe2(MoO4)3
_symmetry_space_group_name_H-M   'P 1'
_cell_length_a   7.32417194
_cell_length_b   9.29015608
_cell_length_c   9.29015611
_cell_angle_alpha   96.09912935
_cell_angle_beta   105.71443389
_cell_angle_gamma   105.71443858
_symmetry_Int_Tables_number   1
_chemical_formula_structural   Na3Fe2(MoO4)3
_chemical_formula_sum   'Na6 Fe4 Mo6 O24'
_cell_volume   574.64903407
_cell_formula_units_Z   2
loop_
 _symmetry_equiv_pos_site_id
 _symmetry_equiv_pos_as_xyz
  1  'x, y, z'
loop_
 _atom_site_type_symbol
 _atom_site_label
 _atom_site_symmetry_multiplicity
 _atom_site_fract_x
 _atom_site_fract_y
 _atom_site_fract_z
 _atom_site_occupancy
  Na  Na0  1  0.750000  0.508919  0.491082  1
  Na  Na1  1  0.250000  0.491082  0.508919  1
  Na  Na2  1  0.250000  0.767593  0.232407  1
  Na  Na3  1  0.750000  0.232407  0.767593  1
  Na  Na4  1  0.000000  0.000000  0.000000  1
  Na  Na5  1  0.500000  0.000000  0.000000  1
  Fe  Fe6  1  0.370505  0.445928  0.126105  1
  Fe  Fe7  1  0.129495  0.873895  0.554072  1
  Fe  Fe8  1  0.629495  0.554072  0.873895  1
  Fe  Fe9  1  0.870505  0.126105  0.445928  1
  Mo  Mo10  1  0.626976  0.836992  0.619261  1
  Mo  Mo11  1  0.873024  0.380739  0.163008  1
  Mo  Mo12  1  0.373024  0.163008  0.380739  1
  Mo  Mo13  1  0.126976  0.619261  0.836992  1
  Mo  Mo14  1  0.750000  0.780132  0.219868  1
  Mo  Mo15  1  0.250000  0.219868  0.780132  1
  O  O16  1  0.523580  0.658804  0.258167  1
  O  O17  1  0.976420  0.741833  0.341196  1
  O  O18  1  0.476420  0.341196  0.741833  1
  O  O19  1  0.023580  0.258167  0.658804  1
  O  O20  1  0.694654  0.963453  0.794748  1
  O  O21  1  0.805346  0.205252  0.036547  1
  O  O22  1  0.305346  0.036547  0.205252  1
  O  O23  1  0.194654  0.794748  0.963453  1
  O  O24  1  0.388365  0.839187  0.502652  1
  O  O25  1  0.111635  0.497348  0.160813  1
  O  O26  1  0.611635  0.160813  0.497348  1
  O  O27  1  0.888365  0.502652  0.839187  1
  O  O28  1  0.599987  0.644920  0.655153  1
  O  O29  1  0.900013  0.344847  0.355080  1
  O  O30  1  0.400013  0.355080  0.344847  1
  O  O31  1  0.099987  0.655153  0.644920  1
  O  O32  1  0.768692  0.758083  0.021733  1
  O  O33  1  0.731308  0.978267  0.241917  1
  O  O34  1  0.231308  0.241917  0.978267  1
  O  O35  1  0.268692  0.021733  0.758083  1
  O  O36  1  0.827904  0.899472  0.537293  1
  O  O37  1  0.672096  0.462707  0.100528  1
  O  O38  1  0.172096  0.100528  0.462707  1
  O  O39  1  0.327904  0.537293  0.899472  1
