# generated using pymatgen
data_As2W2O11
_symmetry_space_group_name_H-M   'P 1'
_cell_length_a   6.57607779
_cell_length_b   8.37263449
_cell_length_c   16.64248593
_cell_angle_alpha   90.00000000
_cell_angle_beta   90.00000000
_cell_angle_gamma   90.00000000
_symmetry_Int_Tables_number   1
_chemical_formula_structural   As2W2O11
_chemical_formula_sum   'As8 W8 O44'
_cell_volume   916.32022573
_cell_formula_units_Z   4
loop_
 _symmetry_equiv_pos_site_id
 _symmetry_equiv_pos_as_xyz
  1  'x, y, z'
loop_
 _atom_site_type_symbol
 _atom_site_label
 _atom_site_symmetry_multiplicity
 _atom_site_fract_x
 _atom_site_fract_y
 _atom_site_fract_z
 _atom_site_occupancy
  O  O0  1  0.049034  0.713679  0.429399  1
  O  O1  1  0.549035  0.286321  0.570601  1
  O  O2  1  0.950966  0.213680  0.070601  1
  O  O3  1  0.450965  0.786321  0.929399  1
  O  O4  1  0.950966  0.286321  0.570601  1
  O  O5  1  0.450965  0.713679  0.429399  1
  O  O6  1  0.049034  0.786321  0.929399  1
  O  O7  1  0.549035  0.213680  0.070601  1
  O  O8  1  0.049106  0.074679  0.294745  1
  O  O9  1  0.549107  0.925321  0.705255  1
  O  O10  1  0.950894  0.574679  0.205254  1
  O  O11  1  0.450893  0.425321  0.794745  1
  O  O12  1  0.950894  0.925321  0.705255  1
  O  O13  1  0.450893  0.074679  0.294745  1
  O  O14  1  0.250000  0.470411  0.645231  1
  O  O15  1  0.549107  0.574679  0.205254  1
  O  O16  1  0.250000  0.494527  0.320491  1
  O  O17  1  0.749999  0.505473  0.679509  1
  O  O18  1  0.749999  0.994526  0.179509  1
  O  O19  1  0.250000  0.005474  0.820491  1
  O  O20  1  0.250000  0.787803  0.263995  1
  O  O21  1  0.749999  0.212197  0.736006  1
  O  O22  1  0.749999  0.287803  0.236005  1
  O  O23  1  0.250000  0.712198  0.763994  1
  O  O24  1  0.250000  0.684516  0.106869  1
  O  O25  1  0.749999  0.315483  0.893130  1
  O  O26  1  0.749999  0.184516  0.393131  1
  O  O27  1  0.250000  0.815484  0.606870  1
  O  O28  1  0.250000  0.365257  0.158356  1
  O  O29  1  0.749999  0.634743  0.841645  1
  O  O30  1  0.749999  0.865256  0.341645  1
  O  O31  1  0.250000  0.134744  0.658356  1
  O  O32  1  0.250000  0.113338  0.494332  1
  O  O33  1  0.749999  0.886662  0.505669  1
  O  O34  1  0.749999  0.613338  0.005669  1
  O  O35  1  0.250000  0.386663  0.994331  1
  O  O36  1  0.250000  0.445486  0.484152  1
  O  O37  1  0.749999  0.554514  0.515849  1
  O  O38  1  0.749999  0.945487  0.015849  1
  O  O39  1  0.250000  0.054513  0.984151  1
  O  O40  1  0.250000  0.029590  0.145231  1
  O  O41  1  0.749999  0.970411  0.854769  1
  O  O42  1  0.749999  0.529589  0.354769  1
  O  O43  1  0.049106  0.425321  0.794745  1
  As  As44  1  0.250000  0.912387  0.910908  1
  As  As45  1  0.749999  0.087612  0.089092  1
  As  As46  1  0.749999  0.412387  0.589092  1
  As  As47  1  0.250000  0.587613  0.410908  1
  As  As48  1  0.250000  0.989032  0.243965  1
  As  As49  1  0.749999  0.010968  0.756035  1
  As  As50  1  0.749999  0.489031  0.256035  1
  As  As51  1  0.250000  0.510968  0.743965  1
  W  W52  1  0.250000  0.268787  0.562722  1
  W  W53  1  0.749999  0.731212  0.437278  1
  W  W54  1  0.749999  0.768788  0.937278  1
  W  W55  1  0.250000  0.231212  0.062722  1
  W  W56  1  0.250000  0.918943  0.696759  1
  W  W57  1  0.749999  0.081058  0.303241  1
  W  W58  1  0.749999  0.418943  0.803242  1
  W  W59  1  0.250000  0.581057  0.196759  1
