# generated using pymatgen
data_KC(NO2)3
_symmetry_space_group_name_H-M   'P 1'
_cell_length_a   7.77805952
_cell_length_b   8.36588540
_cell_length_c   9.36386087
_cell_angle_alpha   90.00000000
_cell_angle_beta   98.99219838
_cell_angle_gamma   90.00000000
_symmetry_Int_Tables_number   1
_chemical_formula_structural   KC(NO2)3
_chemical_formula_sum   'K4 C4 N12 O24'
_cell_volume   601.82110635
_cell_formula_units_Z   4
loop_
 _symmetry_equiv_pos_site_id
 _symmetry_equiv_pos_as_xyz
  1  'x, y, z'
loop_
 _atom_site_type_symbol
 _atom_site_label
 _atom_site_symmetry_multiplicity
 _atom_site_fract_x
 _atom_site_fract_y
 _atom_site_fract_z
 _atom_site_occupancy
  K  K0  1  0.752852  0.604957  0.866444  1
  K  K1  1  0.247148  0.395043  0.133556  1
  K  K2  1  0.747148  0.104957  0.633556  1
  K  K3  1  0.252852  0.895043  0.366444  1
  C  C4  1  0.289798  0.879196  0.878343  1
  C  C5  1  0.210202  0.379196  0.621657  1
  C  C6  1  0.710202  0.120804  0.121658  1
  C  C7  1  0.789798  0.620804  0.378343  1
  N  N8  1  0.178455  0.265645  0.510478  1
  N  N9  1  0.080173  0.429232  0.700572  1
  N  N10  1  0.678455  0.234355  0.010478  1
  N  N11  1  0.919827  0.570768  0.299428  1
  N  N12  1  0.622091  0.546793  0.345818  1
  N  N13  1  0.580173  0.070768  0.200572  1
  N  N14  1  0.877909  0.046793  0.154182  1
  N  N15  1  0.419827  0.929232  0.799428  1
  N  N16  1  0.321545  0.765645  0.989522  1
  N  N17  1  0.821545  0.734355  0.489522  1
  N  N18  1  0.122091  0.953207  0.845818  1
  N  N19  1  0.377909  0.453207  0.654182  1
  O  O20  1  0.988737  0.872216  0.850517  1
  O  O21  1  0.011263  0.127784  0.149483  1
  O  O22  1  0.488737  0.627784  0.350517  1
  O  O23  1  0.707939  0.752316  0.570288  1
  O  O24  1  0.040947  0.185157  0.494403  1
  O  O25  1  0.959053  0.814843  0.505597  1
  O  O26  1  0.626248  0.011814  0.323909  1
  O  O27  1  0.922789  0.414155  0.646748  1
  O  O28  1  0.540947  0.314843  0.994403  1
  O  O29  1  0.792061  0.252316  0.929712  1
  O  O30  1  0.292061  0.247684  0.429712  1
  O  O31  1  0.077211  0.585845  0.353252  1
  O  O32  1  0.873752  0.511814  0.176091  1
  O  O33  1  0.422789  0.085845  0.146748  1
  O  O34  1  0.511263  0.372216  0.649483  1
  O  O35  1  0.373752  0.988186  0.676091  1
  O  O36  1  0.381869  0.597769  0.686506  1
  O  O37  1  0.207939  0.747684  0.070288  1
  O  O38  1  0.459053  0.685157  0.005597  1
  O  O39  1  0.881869  0.902231  0.186506  1
  O  O40  1  0.126248  0.488186  0.823909  1
  O  O41  1  0.577211  0.914155  0.853252  1
  O  O42  1  0.118131  0.097769  0.813494  1
  O  O43  1  0.618131  0.402231  0.313494  1
