# generated using pymatgen
data_MgCrO4
_symmetry_space_group_name_H-M   'P 1'
_cell_length_a   6.84225958
_cell_length_b   6.84528183
_cell_length_c   6.84528256
_cell_angle_alpha   85.35843112
_cell_angle_beta   79.93041055
_cell_angle_gamma   79.93041420
_symmetry_Int_Tables_number   1
_chemical_formula_structural   MgCrO4
_chemical_formula_sum   'Mg4 Cr4 O16'
_cell_volume   310.39299642
_cell_formula_units_Z   4
loop_
 _symmetry_equiv_pos_site_id
 _symmetry_equiv_pos_as_xyz
  1  'x, y, z'
loop_
 _atom_site_type_symbol
 _atom_site_label
 _atom_site_symmetry_multiplicity
 _atom_site_fract_x
 _atom_site_fract_y
 _atom_site_fract_z
 _atom_site_occupancy
  Mg  Mg0  1  0.500000  0.182045  0.817955  1
  Mg  Mg1  1  0.500000  0.817955  0.182045  1
  Mg  Mg2  1  0.866222  0.796883  0.796883  1
  Mg  Mg3  1  0.133778  0.203117  0.203117  1
  Cr  Cr4  1  1.000000  0.256404  0.743596  1
  Cr  Cr5  1  0.000000  0.743596  0.256404  1
  Cr  Cr6  1  0.588250  0.274403  0.274403  1
  Cr  Cr7  1  0.411750  0.725597  0.725597  1
  O  O8  1  0.539707  0.857696  0.857696  1
  O  O9  1  0.460293  0.142304  0.142304  1
  O  O10  1  0.832420  0.211432  0.211432  1
  O  O11  1  0.167580  0.788568  0.788568  1
  O  O12  1  0.897308  0.488049  0.778390  1
  O  O13  1  0.102692  0.221610  0.511951  1
  O  O14  1  0.102692  0.511951  0.221610  1
  O  O15  1  0.897308  0.778390  0.488049  1
  O  O16  1  0.816334  0.798683  0.112640  1
  O  O17  1  0.183666  0.887360  0.201317  1
  O  O18  1  0.183666  0.201317  0.887360  1
  O  O19  1  0.816334  0.112640  0.798683  1
  O  O20  1  0.523668  0.510929  0.216181  1
  O  O21  1  0.476332  0.783819  0.489071  1
  O  O22  1  0.476332  0.489071  0.783819  1
  O  O23  1  0.523668  0.216181  0.510929  1
