# generated using pymatgen
data_Ca3SiO5
_symmetry_space_group_name_H-M   'P 1'
_cell_length_a   9.44645531
_cell_length_b   9.44645491
_cell_length_c   9.44645499
_cell_angle_alpha   44.67090911
_cell_angle_beta   44.67091158
_cell_angle_gamma   44.67090650
_symmetry_Int_Tables_number   1
_chemical_formula_structural   Ca3SiO5
_chemical_formula_sum   'Ca9 Si3 O15'
_cell_volume   378.95207908
_cell_formula_units_Z   3
loop_
 _symmetry_equiv_pos_site_id
 _symmetry_equiv_pos_as_xyz
  1  'x, y, z'
loop_
 _atom_site_type_symbol
 _atom_site_label
 _atom_site_symmetry_multiplicity
 _atom_site_fract_x
 _atom_site_fract_y
 _atom_site_fract_z
 _atom_site_occupancy
  Ca  Ca0  1  0.998374  0.498025  0.498025  1
  Ca  Ca1  1  0.498025  0.998374  0.498025  1
  Ca  Ca2  1  0.704843  0.253703  0.704843  1
  Ca  Ca3  1  0.292124  0.292124  0.743141  1
  Ca  Ca4  1  0.743141  0.292124  0.292124  1
  Ca  Ca5  1  0.292124  0.743141  0.292124  1
  Ca  Ca6  1  0.704843  0.704843  0.253703  1
  Ca  Ca7  1  0.253703  0.704843  0.704843  1
  Ca  Ca8  1  0.498025  0.498025  0.998374  1
  Si  Si9  1  0.778585  0.778585  0.778585  1
  Si  Si10  1  0.992631  0.992631  0.992631  1
  Si  Si11  1  0.213667  0.213667  0.213667  1
  O  O12  1  0.927077  0.927077  0.927077  1
  O  O13  1  0.360663  0.988264  0.360663  1
  O  O14  1  0.050139  0.673431  0.673431  1
  O  O15  1  0.714287  0.714287  0.714287  1
  O  O16  1  0.673431  0.673431  0.050139  1
  O  O17  1  0.988264  0.360663  0.360663  1
  O  O18  1  0.139924  0.764338  0.139924  1
  O  O19  1  0.147895  0.147895  0.147895  1
  O  O20  1  0.673431  0.050139  0.673431  1
  O  O21  1  0.139924  0.139924  0.764338  1
  O  O22  1  0.499697  0.499697  0.499697  1
  O  O23  1  0.764338  0.139924  0.139924  1
  O  O24  1  0.613955  0.613955  0.613955  1
  O  O25  1  0.384226  0.384226  0.384226  1
  O  O26  1  0.360663  0.360663  0.988264  1
