# generated using pymatgen
data_ZnS
_symmetry_space_group_name_H-M   'P 1'
_cell_length_a   37.83834020
_cell_length_b   37.83834018
_cell_length_c   37.83834087
_cell_angle_alpha   5.84490073
_cell_angle_beta   5.84490103
_cell_angle_gamma   5.84490009
_symmetry_Int_Tables_number   1
_chemical_formula_structural   ZnS
_chemical_formula_sum   'Zn12 S12'
_cell_volume   486.97346728
_cell_formula_units_Z   12
loop_
 _symmetry_equiv_pos_site_id
 _symmetry_equiv_pos_as_xyz
  1  'x, y, z'
loop_
 _atom_site_type_symbol
 _atom_site_label
 _atom_site_symmetry_multiplicity
 _atom_site_fract_x
 _atom_site_fract_y
 _atom_site_fract_z
 _atom_site_occupancy
  Zn  Zn0  1  0.083339  0.083339  0.083339  1
  Zn  Zn1  1  0.611125  0.611125  0.611125  1
  Zn  Zn2  1  0.500011  0.500011  0.500011  1
  Zn  Zn3  1  0.194454  0.194454  0.194454  1
  Zn  Zn4  1  0.916671  0.916671  0.916671  1
  Zn  Zn5  1  0.361127  0.361127  0.361127  1
  Zn  Zn6  1  0.000002  0.000002  0.000002  1
  Zn  Zn7  1  0.805550  0.805550  0.805550  1
  Zn  Zn8  1  0.722221  0.722221  0.722221  1
  Zn  Zn9  1  0.555563  0.555563  0.555563  1
  Zn  Zn10  1  0.305554  0.305554  0.305554  1
  Zn  Zn11  1  0.444453  0.444453  0.444453  1
  S  S12  1  0.937511  0.937511  0.937511  1
  S  S13  1  0.104164  0.104164  0.104164  1
  S  S14  1  0.520816  0.520816  0.520816  1
  S  S15  1  0.381939  0.381939  0.381939  1
  S  S16  1  0.215291  0.215291  0.215291  1
  S  S17  1  0.465255  0.465255  0.465255  1
  S  S18  1  0.743048  0.743048  0.743048  1
  S  S19  1  0.020844  0.020844  0.020844  1
  S  S20  1  0.826392  0.826392  0.826392  1
  S  S21  1  0.576368  0.576368  0.576368  1
  S  S22  1  0.631939  0.631939  0.631939  1
  S  S23  1  0.326366  0.326366  0.326366  1
