# generated using pymatgen
data_Mg8B5IN10
_symmetry_space_group_name_H-M   'P 1'
_cell_length_a   9.39005664
_cell_length_b   10.03256836
_cell_length_c   10.03256824
_cell_angle_alpha   68.52682206
_cell_angle_beta   62.09603558
_cell_angle_gamma   62.09604301
_symmetry_Int_Tables_number   1
_chemical_formula_structural   Mg8B5IN10
_chemical_formula_sum   'Mg16 B10 I2 N20'
_cell_volume   724.93106124
_cell_formula_units_Z   2
loop_
 _symmetry_equiv_pos_site_id
 _symmetry_equiv_pos_as_xyz
  1  'x, y, z'
loop_
 _atom_site_type_symbol
 _atom_site_label
 _atom_site_symmetry_multiplicity
 _atom_site_fract_x
 _atom_site_fract_y
 _atom_site_fract_z
 _atom_site_occupancy
  Mg  Mg0  1  0.604819  0.895182  0.895203  1
  Mg  Mg1  1  0.751103  1.000012  0.499991  1
  Mg  Mg2  1  0.315720  0.684309  0.684298  1
  Mg  Mg3  1  0.815720  0.684298  0.684309  1
  Mg  Mg4  1  0.545945  0.275270  0.724734  1
  Mg  Mg5  1  0.895181  0.104797  0.104818  1
  Mg  Mg6  1  0.248897  -0.000012  0.500009  1
  Mg  Mg7  1  0.395181  0.104818  0.104797  1
  Mg  Mg8  1  0.748897  0.500009  0.999988  1
  Mg  Mg9  1  0.954055  0.275265  0.724730  1
  Mg  Mg10  1  0.684280  0.315691  0.315702  1
  Mg  Mg11  1  0.045945  0.724734  0.275270  1
  Mg  Mg12  1  0.454055  0.724730  0.275265  1
  Mg  Mg13  1  0.184280  0.315702  0.315691  1
  Mg  Mg14  1  0.251103  0.499991  0.000012  1
  Mg  Mg15  1  0.104819  0.895203  0.895182  1
  B  B16  1  0.455664  0.896135  0.692451  1
  B  B17  1  0.750000  0.096709  0.903291  1
  B  B18  1  0.114146  0.786255  0.485462  1
  B  B19  1  0.614146  0.485462  0.786255  1
  B  B20  1  0.544336  0.103865  0.307549  1
  B  B21  1  0.250000  0.903291  0.096709  1
  B  B22  1  0.955664  0.692451  0.896135  1
  B  B23  1  0.885854  0.213745  0.514538  1
  B  B24  1  0.385854  0.514538  0.213745  1
  B  B25  1  0.044336  0.307549  0.103865  1
  I  I26  1  0.750000  0.652463  0.347537  1
  I  I27  1  0.250000  0.347537  0.652463  1
  N  N28  1  0.241397  0.517995  0.212593  1
  N  N29  1  0.258603  0.787407  0.482005  1
  N  N30  1  0.314300  0.893311  0.693206  1
  N  N31  1  0.758603  0.482005  0.787407  1
  N  N32  1  0.400810  0.106694  0.306789  1
  N  N33  1  0.685700  0.106689  0.306794  1
  N  N34  1  0.971995  0.787414  0.482001  1
  N  N35  1  0.741397  0.212593  0.517995  1
  N  N36  1  0.892694  0.099285  0.900721  1
  N  N37  1  0.528005  0.517999  0.212586  1
  N  N38  1  0.471995  0.482001  0.787414  1
  N  N39  1  0.099190  0.693211  0.893306  1
  N  N40  1  0.185700  0.306794  0.106689  1
  N  N41  1  0.814300  0.693206  0.893311  1
  N  N42  1  0.392694  0.900721  0.099285  1
  N  N43  1  0.900810  0.306789  0.106694  1
  N  N44  1  0.607306  0.099279  0.900715  1
  N  N45  1  0.599190  0.893306  0.693211  1
  N  N46  1  0.028005  0.212586  0.517999  1
  N  N47  1  0.107306  0.900715  0.099279  1
