# generated using pymatgen
data_Ce3SiPt5
_symmetry_space_group_name_H-M   'P 1'
_cell_length_a   7.34965516
_cell_length_b   7.49903875
_cell_length_c   8.34573813
_cell_angle_alpha   116.69708175
_cell_angle_beta   116.12454457
_cell_angle_gamma   90.00000420
_symmetry_Int_Tables_number   1
_chemical_formula_structural   Ce3SiPt5
_chemical_formula_sum   'Ce6 Si2 Pt10'
_cell_volume   357.56268679
_cell_formula_units_Z   2
loop_
 _symmetry_equiv_pos_site_id
 _symmetry_equiv_pos_as_xyz
  1  'x, y, z'
loop_
 _atom_site_type_symbol
 _atom_site_label
 _atom_site_symmetry_multiplicity
 _atom_site_fract_x
 _atom_site_fract_y
 _atom_site_fract_z
 _atom_site_occupancy
  Ce  Ce0  1  0.548066  0.270053  0.096133  1
  Ce  Ce1  1  0.250000  0.883619  0.500000  1
  Ce  Ce2  1  0.451934  0.729947  0.903867  1
  Ce  Ce3  1  0.750000  0.116381  0.500000  1
  Ce  Ce4  1  0.951934  0.673921  0.903867  1
  Ce  Ce5  1  0.048066  0.326079  0.096133  1
  Si  Si6  1  0.250000  0.283913  0.500000  1
  Si  Si7  1  0.750000  0.716087  0.500000  1
  Pt  Pt8  1  0.901876  0.042428  0.211719  1
  Pt  Pt9  1  0.098124  0.957572  0.788281  1
  Pt  Pt10  1  0.190157  0.330709  0.788281  1
  Pt  Pt11  1  0.401876  0.669291  0.211719  1
  Pt  Pt12  1  0.690157  0.957572  0.788281  1
  Pt  Pt13  1  0.598124  0.330709  0.788281  1
  Pt  Pt14  1  0.809843  0.669291  0.211719  1
  Pt  Pt15  1  0.309843  0.042428  0.211719  1
  Pt  Pt16  1  0.000000  0.500000  0.500000  1
  Pt  Pt17  1  0.500000  0.500000  0.500000  1
