# generated using pymatgen
data_Rb2Mn(PO3)4
_symmetry_space_group_name_H-M   'P 1'
_cell_length_a   7.96555176
_cell_length_b   11.47808312
_cell_length_c   13.22618332
_cell_angle_alpha   90.00000000
_cell_angle_beta   90.00000000
_cell_angle_gamma   102.05325175
_symmetry_Int_Tables_number   1
_chemical_formula_structural   Rb2Mn(PO3)4
_chemical_formula_sum   'Rb8 Mn4 P16 O48'
_cell_volume   1182.60080173
_cell_formula_units_Z   4
loop_
 _symmetry_equiv_pos_site_id
 _symmetry_equiv_pos_as_xyz
  1  'x, y, z'
loop_
 _atom_site_type_symbol
 _atom_site_label
 _atom_site_symmetry_multiplicity
 _atom_site_fract_x
 _atom_site_fract_y
 _atom_site_fract_z
 _atom_site_occupancy
  Rb  Rb0  1  0.906999  0.341395  0.134798  1
  Rb  Rb1  1  0.577591  0.636211  0.117210  1
  Rb  Rb2  1  0.422409  0.363789  0.882790  1
  Rb  Rb3  1  0.077591  0.136211  0.382790  1
  Rb  Rb4  1  0.593001  0.158605  0.634798  1
  Rb  Rb5  1  0.922409  0.863789  0.617210  1
  Rb  Rb6  1  0.093001  0.658605  0.865202  1
  Rb  Rb7  1  0.406999  0.841395  0.365202  1
  Mn  Mn8  1  0.759400  0.515985  0.649360  1
  Mn  Mn9  1  0.259400  0.015985  0.850640  1
  Mn  Mn10  1  0.740600  0.984015  0.149360  1
  Mn  Mn11  1  0.240600  0.484015  0.350640  1
  P  P12  1  0.911897  0.337741  0.831604  1
  P  P13  1  0.667767  0.587645  0.409345  1
  P  P14  1  0.180925  0.626946  0.568904  1
  P  P15  1  0.912509  0.797724  0.314670  1
  P  P16  1  0.319075  0.873054  0.068904  1
  P  P17  1  0.832233  0.912355  0.909345  1
  P  P18  1  0.087491  0.202276  0.685330  1
  P  P19  1  0.819075  0.373054  0.431096  1
  P  P20  1  0.680925  0.126946  0.931096  1
  P  P21  1  0.412509  0.297724  0.185330  1
  P  P22  1  0.332233  0.412355  0.590655  1
  P  P23  1  0.588103  0.162259  0.331604  1
  P  P24  1  0.088103  0.662259  0.168396  1
  P  P25  1  0.167767  0.087645  0.090655  1
  P  P26  1  0.587491  0.702276  0.814670  1
  P  P27  1  0.411897  0.837741  0.668396  1
  O  O28  1  0.292698  0.907897  0.716852  1
  O  O29  1  0.314477  0.384925  0.479764  1
  O  O30  1  0.067786  0.767111  0.246702  1
  O  O31  1  0.806339  0.257632  0.922344  1
  O  O32  1  0.329977  0.163385  0.150326  1
  O  O33  1  0.306339  0.757632  0.577656  1
  O  O34  1  0.185523  0.115075  0.979764  1
  O  O35  1  0.207302  0.592103  0.216852  1
  O  O36  1  0.693661  0.242368  0.422344  1
  O  O37  1  0.506037  0.599581  0.354830  1
  O  O38  1  0.493963  0.400419  0.645170  1
  O  O39  1  0.193661  0.742368  0.077656  1
  O  O40  1  0.969125  0.376417  0.360940  1
  O  O41  1  0.302593  0.544034  0.615343  1
  O  O42  1  0.345305  0.894420  0.957707  1
  O  O43  1  0.845305  0.394420  0.542293  1
  O  O44  1  0.685523  0.615075  0.520236  1
  O  O45  1  0.216984  0.159218  0.751061  1
  O  O46  1  0.670023  0.836615  0.849674  1
  O  O47  1  0.567786  0.267111  0.253298  1
  O  O48  1  0.505141  0.626613  0.900243  1
  O  O49  1  0.783016  0.840782  0.248939  1
  O  O50  1  0.576927  0.902737  0.623707  1
  O  O51  1  0.530875  0.123583  0.860940  1
  O  O52  1  0.005141  0.126613  0.599757  1
  O  O53  1  0.432214  0.732889  0.746702  1
  O  O54  1  0.792698  0.407897  0.783148  1
  O  O55  1  0.994859  0.873387  0.400243  1
  O  O56  1  0.494859  0.373387  0.099757  1
  O  O57  1  0.030875  0.623583  0.639060  1
  O  O58  1  0.006037  0.099581  0.145170  1
  O  O59  1  0.423073  0.097263  0.376293  1
  O  O60  1  0.469125  0.876417  0.139060  1
  O  O61  1  0.283016  0.340782  0.251061  1
  O  O62  1  0.716984  0.659218  0.748939  1
  O  O63  1  0.154695  0.605580  0.457707  1
  O  O64  1  0.814477  0.884925  0.020236  1
  O  O65  1  0.932214  0.232889  0.753298  1
  O  O66  1  0.993963  0.900419  0.854830  1
  O  O67  1  0.829977  0.663385  0.349674  1
  O  O68  1  0.170023  0.336615  0.650326  1
  O  O69  1  0.923073  0.597263  0.123707  1
  O  O70  1  0.707302  0.092103  0.283148  1
  O  O71  1  0.654695  0.105580  0.042293  1
  O  O72  1  0.076927  0.402737  0.876293  1
  O  O73  1  0.197407  0.955966  0.115343  1
  O  O74  1  0.697407  0.455966  0.384657  1
  O  O75  1  0.802593  0.044034  0.884657  1
