# generated using pymatgen
data_C3O2
_symmetry_space_group_name_H-M   'P 1'
_cell_length_a   5.38182871
_cell_length_b   10.28737068
_cell_length_c   12.72048696
_cell_angle_alpha   90.00000000
_cell_angle_beta   90.00000000
_cell_angle_gamma   90.00000000
_symmetry_Int_Tables_number   1
_chemical_formula_structural   C3O2
_chemical_formula_sum   'C24 O16'
_cell_volume   704.26806714
_cell_formula_units_Z   8
loop_
 _symmetry_equiv_pos_site_id
 _symmetry_equiv_pos_as_xyz
  1  'x, y, z'
loop_
 _atom_site_type_symbol
 _atom_site_label
 _atom_site_symmetry_multiplicity
 _atom_site_fract_x
 _atom_site_fract_y
 _atom_site_fract_z
 _atom_site_occupancy
  C  C0  1  0.197953  0.363710  0.750000  1
  C  C1  1  0.687243  0.923922  0.503260  1
  C  C2  1  0.187243  0.576078  0.496740  1
  C  C3  1  0.312757  0.076078  0.496740  1
  C  C4  1  0.697953  0.136290  0.250000  1
  C  C5  1  0.324238  0.289214  0.250000  1
  C  C6  1  0.812757  0.423922  0.996740  1
  C  C7  1  0.675762  0.710786  0.750000  1
  C  C8  1  0.302047  0.863710  0.750000  1
  C  C9  1  0.512606  0.213694  0.250000  1
  C  C10  1  0.012606  0.286306  0.750000  1
  C  C11  1  0.487394  0.786306  0.750000  1
  C  C12  1  0.802047  0.636290  0.250000  1
  C  C13  1  0.000000  0.500000  0.500000  1
  C  C14  1  0.687243  0.923922  0.996740  1
  C  C15  1  0.812757  0.423922  0.503260  1
  C  C16  1  0.175762  0.789214  0.250000  1
  C  C17  1  0.824238  0.210786  0.750000  1
  C  C18  1  0.000000  0.500000  0.000000  1
  C  C19  1  0.312757  0.076078  0.003260  1
  C  C20  1  0.500000  0.000000  0.500000  1
  C  C21  1  0.987394  0.713694  0.250000  1
  C  C22  1  0.500000  0.000000  0.000000  1
  C  C23  1  0.187243  0.576078  0.003260  1
  O  O24  1  0.869352  0.064949  0.250000  1
  O  O25  1  0.149952  0.358468  0.250000  1
  O  O26  1  0.860471  0.853966  0.506364  1
  O  O27  1  0.369352  0.435051  0.750000  1
  O  O28  1  0.130648  0.935051  0.750000  1
  O  O29  1  0.360471  0.646034  0.493636  1
  O  O30  1  0.639529  0.353966  0.993636  1
  O  O31  1  0.350048  0.858468  0.250000  1
  O  O32  1  0.860471  0.853966  0.993636  1
  O  O33  1  0.649952  0.141532  0.750000  1
  O  O34  1  0.139529  0.146034  0.493636  1
  O  O35  1  0.360471  0.646034  0.006364  1
  O  O36  1  0.630648  0.564949  0.250000  1
  O  O37  1  0.850048  0.641532  0.750000  1
  O  O38  1  0.139529  0.146034  0.006364  1
  O  O39  1  0.639529  0.353966  0.506364  1
