# generated using pymatgen
data_Li3Ni2(PO4)3
_symmetry_space_group_name_H-M   'P 1'
_cell_length_a   9.75254664
_cell_length_b   9.75254653
_cell_length_c   9.69638122
_cell_angle_alpha   85.86009511
_cell_angle_beta   94.13990487
_cell_angle_gamma   94.85275057
_symmetry_Int_Tables_number   1
_chemical_formula_structural   Li3Ni2(PO4)3
_chemical_formula_sum   'Li12 Ni8 P12 O48'
_cell_volume   914.51158724
_cell_formula_units_Z   4
loop_
 _symmetry_equiv_pos_site_id
 _symmetry_equiv_pos_as_xyz
  1  'x, y, z'
loop_
 _atom_site_type_symbol
 _atom_site_label
 _atom_site_symmetry_multiplicity
 _atom_site_fract_x
 _atom_site_fract_y
 _atom_site_fract_z
 _atom_site_occupancy
  Li  Li0  1  0.750288  0.375611  0.197268  1
  Li  Li1  1  0.375611  0.750288  0.802732  1
  Li  Li2  1  0.018456  0.502383  0.242780  1
  Li  Li3  1  0.502383  0.018456  0.757220  1
  Li  Li4  1  0.555561  0.225402  0.520973  1
  Li  Li5  1  0.225402  0.555561  0.479027  1
  Li  Li6  1  0.242233  0.981038  0.601751  1
  Li  Li7  1  0.232374  0.733078  0.181211  1
  Li  Li8  1  0.981038  0.242233  0.398249  1
  Li  Li9  1  0.929369  0.701030  0.018313  1
  Li  Li10  1  0.733078  0.232374  0.818789  1
  Li  Li11  1  0.701030  0.929369  0.981687  1
  Ni  Ni12  1  0.532630  0.532630  0.500000  1
  Ni  Ni13  1  0.749755  0.749755  0.500000  1
  Ni  Ni14  1  0.253546  0.030169  0.214904  1
  Ni  Ni15  1  0.030169  0.253546  0.785096  1
  Ni  Ni16  1  0.964234  0.750287  0.717272  1
  Ni  Ni17  1  0.750287  0.964234  0.282728  1
  Ni  Ni18  1  0.248270  0.248270  1.000000  1
  Ni  Ni19  1  0.466213  0.466213  0.000000  1
  P  P20  1  0.949228  0.172743  0.097293  1
  P  P21  1  0.837335  0.447798  0.572520  1
  P  P22  1  0.550391  0.157104  0.072699  1
  P  P23  1  0.051487  0.821052  0.405977  1
  P  P24  1  0.339463  0.321113  0.699170  1
  P  P25  1  0.172743  0.949228  0.902707  1
  P  P26  1  0.652449  0.680340  0.801315  1
  P  P27  1  0.447798  0.837335  0.427480  1
  P  P28  1  0.680340  0.652449  0.198685  1
  P  P29  1  0.157104  0.550391  0.927301  1
  P  P30  1  0.821052  0.051487  0.594023  1
  P  P31  1  0.321113  0.339463  0.300830  1
  O  O32  1  0.199515  0.905371  0.058674  1
  O  O33  1  0.890928  0.824346  0.372485  1
  O  O34  1  0.089275  0.819898  0.564804  1
  O  O35  1  0.406585  0.197140  0.652181  1
  O  O36  1  0.622739  0.671322  0.639229  1
  O  O37  1  0.914482  0.286019  0.187862  1
  O  O38  1  0.405627  0.904634  0.553727  1
  O  O39  1  0.590250  0.314790  0.072617  1
  O  O40  1  0.286019  0.914482  0.812138  1
  O  O41  1  0.389629  0.122970  0.075911  1
  O  O42  1  0.115354  0.962269  0.348667  1
  O  O43  1  0.109571  0.161982  0.124195  1
  O  O44  1  0.538741  0.594651  0.138531  1
  O  O45  1  0.327781  0.375747  0.139899  1
  O  O46  1  0.696463  0.103681  0.657215  1
  O  O47  1  0.161982  0.109571  0.875805  1
  O  O48  1  0.312550  0.181685  0.337971  1
  O  O49  1  0.884461  0.375613  0.712822  1
  O  O50  1  0.181685  0.312550  0.662029  1
  O  O51  1  0.600640  0.098569  0.943151  1
  O  O52  1  0.375613  0.884461  0.287178  1
  O  O53  1  0.824346  0.890928  0.627515  1
  O  O54  1  0.029800  0.876162  0.863513  1
  O  O55  1  0.871596  0.607743  0.582715  1
  O  O56  1  0.314790  0.590250  0.927383  1
  O  O57  1  0.808472  0.695107  0.844774  1
  O  O58  1  0.962269  0.115354  0.651333  1
  O  O59  1  0.904634  0.405627  0.446273  1
  O  O60  1  0.876162  0.029800  0.136487  1
  O  O61  1  0.103681  0.696463  0.342785  1
  O  O62  1  0.098569  0.600640  0.056849  1
  O  O63  1  0.802655  0.579374  0.155505  1
  O  O64  1  0.671322  0.622739  0.360771  1
  O  O65  1  0.678364  0.406838  0.561729  1
  O  O66  1  0.594651  0.538741  0.861469  1
  O  O67  1  0.375747  0.327781  0.860101  1
  O  O68  1  0.613247  0.094884  0.210979  1
  O  O69  1  0.122970  0.389629  0.924089  1
  O  O70  1  0.462459  0.388384  0.371636  1
  O  O71  1  0.579374  0.802655  0.844495  1
  O  O72  1  0.388384  0.462459  0.628364  1
  O  O73  1  0.406838  0.678364  0.438271  1
  O  O74  1  0.819898  0.089275  0.435196  1
  O  O75  1  0.094884  0.613247  0.789021  1
  O  O76  1  0.607743  0.871596  0.417285  1
  O  O77  1  0.695107  0.808472  0.155226  1
  O  O78  1  0.905371  0.199515  0.941326  1
  O  O79  1  0.197140  0.406585  0.347819  1
