# generated using pymatgen
data_CaU(SeO4)2
_symmetry_space_group_name_H-M   'P 1'
_cell_length_a   5.67427337
_cell_length_b   6.75244642
_cell_length_c   11.22934260
_cell_angle_alpha   103.96591764
_cell_angle_beta   93.62543612
_cell_angle_gamma   110.72598411
_symmetry_Int_Tables_number   1
_chemical_formula_structural   CaU(SeO4)2
_chemical_formula_sum   'Ca2 U2 Se4 O16'
_cell_volume   385.24218104
_cell_formula_units_Z   2
loop_
 _symmetry_equiv_pos_site_id
 _symmetry_equiv_pos_as_xyz
  1  'x, y, z'
loop_
 _atom_site_type_symbol
 _atom_site_label
 _atom_site_symmetry_multiplicity
 _atom_site_fract_x
 _atom_site_fract_y
 _atom_site_fract_z
 _atom_site_occupancy
  Ca  Ca0  1  0.673677  0.244582  0.435519  1
  Ca  Ca1  1  0.326323  0.755418  0.564481  1
  U  U2  1  0.167486  0.261349  0.167843  1
  U  U3  1  0.832514  0.738651  0.832157  1
  Se  Se4  1  0.311626  0.811085  0.124942  1
  Se  Se5  1  0.735295  0.702957  0.352737  1
  Se  Se6  1  0.688374  0.188915  0.875058  1
  Se  Se7  1  0.264705  0.297043  0.647263  1
  O  O8  1  0.105367  0.871512  0.029612  1
  O  O9  1  0.110861  0.580764  0.160581  1
  O  O10  1  0.893504  0.177688  0.250136  1
  O  O11  1  0.670751  0.977103  0.747216  1
  O  O12  1  0.923920  0.620680  0.436678  1
  O  O13  1  0.559899  0.520804  0.651142  1
  O  O14  1  0.445821  0.349506  0.093166  1
  O  O15  1  0.554179  0.650494  0.906834  1
  O  O16  1  0.076080  0.379320  0.563322  1
  O  O17  1  0.106496  0.822312  0.749864  1
  O  O18  1  0.440101  0.479196  0.348858  1
  O  O19  1  0.889139  0.419236  0.839419  1
  O  O20  1  0.326250  0.097958  0.543550  1
  O  O21  1  0.894633  0.128488  0.970388  1
  O  O22  1  0.673750  0.902042  0.456450  1
  O  O23  1  0.329249  0.022897  0.252784  1
