# generated using pymatgen
data_H12PbC4S4(NO4)2
_symmetry_space_group_name_H-M   'P 1'
_cell_length_a   7.87631765
_cell_length_b   9.16368437
_cell_length_c   20.46608060
_cell_angle_alpha   90.00000000
_cell_angle_beta   93.60920238
_cell_angle_gamma   90.00000000
_symmetry_Int_Tables_number   1
_chemical_formula_structural   H12PbC4S4(NO4)2
_chemical_formula_sum   'H48 Pb4 C16 S16 N8 O32'
_cell_volume   1474.23189749
_cell_formula_units_Z   4
loop_
 _symmetry_equiv_pos_site_id
 _symmetry_equiv_pos_as_xyz
  1  'x, y, z'
loop_
 _atom_site_type_symbol
 _atom_site_label
 _atom_site_symmetry_multiplicity
 _atom_site_fract_x
 _atom_site_fract_y
 _atom_site_fract_z
 _atom_site_occupancy
  H  H0  1  0.301482  0.459776  0.766009  1
  H  H1  1  0.056411  0.253854  0.601811  1
  H  H2  1  0.282620  0.215950  0.602873  1
  H  H3  1  0.198518  0.959776  0.733991  1
  H  H4  1  0.264305  0.155356  0.321638  1
  H  H5  1  0.130602  0.087141  0.566680  1
  H  H6  1  0.225763  0.424092  0.285767  1
  H  H7  1  0.807622  0.030265  0.670485  1
  H  H8  1  0.725763  0.075908  0.785767  1
  H  H9  1  0.692378  0.530265  0.829515  1
  H  H10  1  0.664731  0.882199  0.270957  1
  H  H11  1  0.334050  0.950434  0.131366  1
  H  H12  1  0.217380  0.715950  0.897127  1
  H  H13  1  0.165950  0.450434  0.368634  1
  H  H14  1  0.569552  0.382263  0.860695  1
  H  H15  1  0.930448  0.882263  0.639305  1
  H  H16  1  0.774237  0.575908  0.714233  1
  H  H17  1  0.133145  0.595053  0.308486  1
  H  H18  1  0.782620  0.284050  0.102873  1
  H  H19  1  0.665950  0.049566  0.868634  1
  H  H20  1  0.430448  0.617737  0.139305  1
  H  H21  1  0.835269  0.382199  0.229043  1
  H  H22  1  0.764305  0.344644  0.821638  1
  H  H23  1  0.556411  0.246146  0.101811  1
  H  H24  1  0.274237  0.924092  0.214233  1
  H  H25  1  0.359901  0.995774  0.797953  1
  H  H26  1  0.834050  0.549566  0.631366  1
  H  H27  1  0.335269  0.117801  0.729043  1
  H  H28  1  0.069552  0.117737  0.360695  1
  H  H29  1  0.943589  0.746146  0.398189  1
  H  H30  1  0.698518  0.540224  0.233991  1
  H  H31  1  0.192378  0.969735  0.329515  1
  H  H32  1  0.735695  0.844644  0.678362  1
  H  H33  1  0.235695  0.655356  0.178362  1
  H  H34  1  0.630602  0.412859  0.066680  1
  H  H35  1  0.801482  0.040224  0.266009  1
  H  H36  1  0.164731  0.617801  0.770957  1
  H  H37  1  0.307622  0.469735  0.170485  1
  H  H38  1  0.640099  0.004226  0.202047  1
  H  H39  1  0.633145  0.904947  0.808486  1
  H  H40  1  0.369398  0.587141  0.933320  1
  H  H41  1  0.859901  0.504226  0.297953  1
  H  H42  1  0.443589  0.753854  0.898189  1
  H  H43  1  0.869398  0.912859  0.433320  1
  H  H44  1  0.366855  0.095053  0.191514  1
  H  H45  1  0.140099  0.495774  0.702047  1
  H  H46  1  0.717380  0.784050  0.397127  1
  H  H47  1  0.866855  0.404947  0.691514  1
  Pb  Pb48  1  0.656271  0.283294  0.464395  1
  Pb  Pb49  1  0.843729  0.783294  0.035605  1
  Pb  Pb50  1  0.156271  0.216706  0.964395  1
  Pb  Pb51  1  0.343729  0.716706  0.535605  1
  C  C52  1  0.158790  0.202517  0.576085  1
  C  C53  1  0.786154  0.496823  0.674593  1
  C  C54  1  0.230608  0.544699  0.738398  1
  C  C55  1  0.802387  0.921533  0.648001  1
  C  C56  1  0.697613  0.421533  0.851999  1
  C  C57  1  0.269392  0.044699  0.761602  1
  C  C58  1  0.213846  0.503177  0.325407  1
  C  C59  1  0.302387  0.578467  0.148001  1
  C  C60  1  0.841210  0.797483  0.423915  1
  C  C61  1  0.197613  0.078467  0.351999  1
  C  C62  1  0.658790  0.297483  0.076085  1
  C  C63  1  0.769392  0.455301  0.261602  1
  C  C64  1  0.341210  0.702517  0.923915  1
  C  C65  1  0.286154  0.003177  0.174593  1
  C  C66  1  0.730608  0.955301  0.238398  1
  C  C67  1  0.713846  0.996823  0.825407  1
  S  S68  1  0.374586  0.653851  0.696583  1
  S  S69  1  0.081565  0.077368  0.152667  1
  S  S70  1  0.167751  0.291239  0.499225  1
  S  S71  1  0.125414  0.153851  0.803417  1
  S  S72  1  0.184753  0.560910  0.071569  1
  S  S73  1  0.832249  0.708761  0.500775  1
  S  S74  1  0.815247  0.439090  0.928431  1
  S  S75  1  0.684753  0.939090  0.571569  1
  S  S76  1  0.581565  0.422633  0.652667  1
  S  S77  1  0.625414  0.346149  0.303417  1
  S  S78  1  0.315247  0.060910  0.428431  1
  S  S79  1  0.667751  0.208761  0.999225  1
  S  S80  1  0.332249  0.791239  0.000775  1
  S  S81  1  0.418435  0.577368  0.347333  1
  S  S82  1  0.918435  0.922632  0.847333  1
  S  S83  1  0.874586  0.846149  0.196583  1
  N  N84  1  0.952357  0.941568  0.138971  1
  N  N85  1  0.824452  0.280172  0.963065  1
  N  N86  1  0.547643  0.441568  0.361029  1
  N  N87  1  0.675548  0.780172  0.536935  1
  N  N88  1  0.047643  0.058432  0.861029  1
  N  N89  1  0.452357  0.558432  0.638971  1
  N  N90  1  0.175548  0.719828  0.036935  1
  N  N91  1  0.324452  0.219828  0.463065  1
  O  O92  1  0.773420  0.048740  0.534141  1
  O  O93  1  0.273420  0.451260  0.034141  1
  O  O94  1  0.727232  0.235851  0.340781  1
  O  O95  1  0.214623  0.442972  0.511320  1
  O  O96  1  0.505889  0.233999  0.961709  1
  O  O97  1  0.467268  0.667958  0.293225  1
  O  O98  1  0.226580  0.951260  0.465859  1
  O  O99  1  0.492538  0.030704  0.415847  1
  O  O100  1  0.272768  0.764149  0.659219  1
  O  O101  1  0.772768  0.735851  0.159219  1
  O  O102  1  0.497222  0.291646  0.254963  1
  O  O103  1  0.494111  0.766001  0.038291  1
  O  O104  1  0.592410  0.349987  0.589495  1
  O  O105  1  0.032732  0.167958  0.206775  1
  O  O106  1  0.785377  0.557028  0.488680  1
  O  O107  1  0.994111  0.733999  0.538291  1
  O  O108  1  0.502778  0.708354  0.745037  1
  O  O109  1  0.532732  0.332042  0.706775  1
  O  O110  1  0.007462  0.530704  0.084153  1
  O  O111  1  0.992538  0.469296  0.915847  1
  O  O112  1  0.285377  0.942972  0.988680  1
  O  O113  1  0.714623  0.057028  0.011320  1
  O  O114  1  0.907590  0.849987  0.910505  1
  O  O115  1  0.227232  0.264149  0.840781  1
  O  O116  1  0.005889  0.266001  0.461709  1
  O  O117  1  0.092410  0.150013  0.089495  1
  O  O118  1  0.002778  0.791646  0.245037  1
  O  O119  1  0.726580  0.548740  0.965859  1
  O  O120  1  0.997222  0.208354  0.754963  1
  O  O121  1  0.507462  0.969296  0.584153  1
  O  O122  1  0.407590  0.650013  0.410505  1
  O  O123  1  0.967268  0.832042  0.793225  1
