# generated using pymatgen
data_CaFeClO2
_symmetry_space_group_name_H-M   'P 1'
_cell_length_a   3.87917040
_cell_length_b   5.45015630
_cell_length_c   8.83219114
_cell_angle_alpha   103.26211438
_cell_angle_beta   90.00119764
_cell_angle_gamma   110.84511052
_symmetry_Int_Tables_number   1
_chemical_formula_structural   CaFeClO2
_chemical_formula_sum   'Ca2 Fe2 Cl2 O4'
_cell_volume   169.16887462
_cell_formula_units_Z   2
loop_
 _symmetry_equiv_pos_site_id
 _symmetry_equiv_pos_as_xyz
  1  'x, y, z'
loop_
 _atom_site_type_symbol
 _atom_site_label
 _atom_site_symmetry_multiplicity
 _atom_site_fract_x
 _atom_site_fract_y
 _atom_site_fract_z
 _atom_site_occupancy
  Ca  Ca0  1  0.607581  0.215084  0.291998  1
  Ca  Ca1  1  0.392407  0.784893  0.707995  1
  Fe  Fe2  1  0.139229  0.278405  0.001968  1
  Fe  Fe3  1  0.860780  0.721614  0.998024  1
  Cl  Cl4  1  0.334553  0.669099  0.376993  1
  Cl  Cl5  1  0.665430  0.330861  0.623021  1
  O  O6  1  0.685248  0.370447  0.057691  1
  O  O7  1  0.024217  0.048292  0.161785  1
  O  O8  1  0.975790  0.951723  0.838209  1
  O  O9  1  0.314765  0.629580  0.942313  1
