# generated using pymatgen
data_BaMgSiO4
_symmetry_space_group_name_H-M   'P 1'
_cell_length_a   9.24189825
_cell_length_b   9.24189800
_cell_length_c   8.88308203
_cell_angle_alpha   90.00000000
_cell_angle_beta   90.00000000
_cell_angle_gamma   120.00000093
_symmetry_Int_Tables_number   1
_chemical_formula_structural   BaMgSiO4
_chemical_formula_sum   'Ba6 Mg6 Si6 O24'
_cell_volume   657.07758786
_cell_formula_units_Z   6
loop_
 _symmetry_equiv_pos_site_id
 _symmetry_equiv_pos_as_xyz
  1  'x, y, z'
loop_
 _atom_site_type_symbol
 _atom_site_label
 _atom_site_symmetry_multiplicity
 _atom_site_fract_x
 _atom_site_fract_y
 _atom_site_fract_z
 _atom_site_occupancy
  Ba  Ba0  1  0.666667  0.333333  0.739167  1
  Ba  Ba1  1  0.000000  0.000000  0.248240  1
  Ba  Ba2  1  0.333333  0.666667  0.239167  1
  Ba  Ba3  1  0.333333  0.666667  0.731256  1
  Ba  Ba4  1  0.000000  0.000000  0.748240  1
  Ba  Ba5  1  0.666667  0.333333  0.231256  1
  Mg  Mg6  1  0.677566  0.666252  0.539060  1
  Mg  Mg7  1  0.011314  0.677566  0.039060  1
  Mg  Mg8  1  0.988686  0.322434  0.539060  1
  Mg  Mg9  1  0.333748  0.011314  0.539060  1
  Mg  Mg10  1  0.666252  0.988686  0.039060  1
  Mg  Mg11  1  0.322434  0.333748  0.039060  1
  Si  Si12  1  0.327631  0.338846  0.434476  1
  Si  Si13  1  0.011215  0.672369  0.434476  1
  Si  Si14  1  0.661154  0.988785  0.434476  1
  Si  Si15  1  0.988785  0.327631  0.934476  1
  Si  Si16  1  0.672369  0.661154  0.934476  1
  Si  Si17  1  0.338846  0.011215  0.934476  1
  O  O18  1  0.650029  0.943228  0.253706  1
  O  O19  1  0.532744  0.095413  0.996501  1
  O  O20  1  0.095413  0.562669  0.496501  1
  O  O21  1  0.764456  0.906937  0.515119  1
  O  O22  1  0.193510  0.430374  0.955584  1
  O  O23  1  0.467256  0.904587  0.496501  1
  O  O24  1  0.293199  0.349971  0.253706  1
  O  O25  1  0.569626  0.763137  0.955584  1
  O  O26  1  0.562669  0.467256  0.996501  1
  O  O27  1  0.943228  0.293199  0.753706  1
  O  O28  1  0.706801  0.650029  0.753706  1
  O  O29  1  0.806490  0.569626  0.455584  1
  O  O30  1  0.904587  0.437331  0.996501  1
  O  O31  1  0.236863  0.806490  0.955584  1
  O  O32  1  0.437331  0.532744  0.496501  1
  O  O33  1  0.142480  0.235544  0.515119  1
  O  O34  1  0.235544  0.093063  0.015119  1
  O  O35  1  0.857520  0.764456  0.015119  1
  O  O36  1  0.906937  0.142480  0.015119  1
  O  O37  1  0.056772  0.706801  0.253706  1
  O  O38  1  0.430374  0.236863  0.455584  1
  O  O39  1  0.763137  0.193510  0.455584  1
  O  O40  1  0.093063  0.857520  0.515119  1
  O  O41  1  0.349971  0.056772  0.753706  1
