# generated using pymatgen
data_Ba(CuS)2
_symmetry_space_group_name_H-M   'P 1'
_cell_length_a   4.05115154
_cell_length_b   9.28425908
_cell_length_c   10.41640269
_cell_angle_alpha   90.00000000
_cell_angle_beta   90.00000000
_cell_angle_gamma   90.00000000
_symmetry_Int_Tables_number   1
_chemical_formula_structural   Ba(CuS)2
_chemical_formula_sum   'Ba4 Cu8 S8'
_cell_volume   391.78111788
_cell_formula_units_Z   4
loop_
 _symmetry_equiv_pos_site_id
 _symmetry_equiv_pos_as_xyz
  1  'x, y, z'
loop_
 _atom_site_type_symbol
 _atom_site_label
 _atom_site_symmetry_multiplicity
 _atom_site_fract_x
 _atom_site_fract_y
 _atom_site_fract_z
 _atom_site_occupancy
  S  S0  1  0.750000  0.656392  0.458784  1
  S  S1  1  0.250000  0.343608  0.541216  1
  S  S2  1  0.750000  0.156392  0.041216  1
  S  S3  1  0.250000  0.843608  0.958784  1
  S  S4  1  0.250000  0.480416  0.166894  1
  S  S5  1  0.750000  0.519584  0.833106  1
  S  S6  1  0.250000  0.980416  0.333106  1
  S  S7  1  0.750000  0.019584  0.666894  1
  Cu  Cu8  1  0.250000  0.583312  0.956242  1
  Cu  Cu9  1  0.750000  0.416688  0.043758  1
  Cu  Cu10  1  0.250000  0.083312  0.543758  1
  Cu  Cu11  1  0.750000  0.916688  0.456242  1
  Cu  Cu12  1  0.250000  0.056557  0.114385  1
  Cu  Cu13  1  0.750000  0.943443  0.885615  1
  Cu  Cu14  1  0.250000  0.556557  0.385615  1
  Cu  Cu15  1  0.750000  0.443443  0.614385  1
  Ba  Ba16  1  0.750000  0.759552  0.175780  1
  Ba  Ba17  1  0.250000  0.240448  0.824220  1
  Ba  Ba18  1  0.750000  0.259552  0.324220  1
  Ba  Ba19  1  0.250000  0.740448  0.675780  1
