# generated using pymatgen
data_BaVZnP2O9
_symmetry_space_group_name_H-M   'P 1'
_cell_length_a   9.00728171
_cell_length_b   9.19036227
_cell_length_c   18.73567279
_cell_angle_alpha   90.00000000
_cell_angle_beta   90.00000000
_cell_angle_gamma   90.00000000
_symmetry_Int_Tables_number   1
_chemical_formula_structural   BaVZnP2O9
_chemical_formula_sum   'Ba8 V8 Zn8 P16 O72'
_cell_volume   1550.94240313
_cell_formula_units_Z   8
loop_
 _symmetry_equiv_pos_site_id
 _symmetry_equiv_pos_as_xyz
  1  'x, y, z'
loop_
 _atom_site_type_symbol
 _atom_site_label
 _atom_site_symmetry_multiplicity
 _atom_site_fract_x
 _atom_site_fract_y
 _atom_site_fract_z
 _atom_site_occupancy
  Ba  Ba0  1  0.654818  0.004995  0.091310  1
  Ba  Ba1  1  0.154818  0.495004  0.908690  1
  Ba  Ba2  1  0.345182  0.504996  0.408690  1
  Ba  Ba3  1  0.845182  0.995004  0.591310  1
  Ba  Ba4  1  0.345182  0.995004  0.908690  1
  Ba  Ba5  1  0.845182  0.504996  0.091310  1
  Ba  Ba6  1  0.654818  0.495004  0.591310  1
  Ba  Ba7  1  0.154818  0.004995  0.408690  1
  V  V8  1  0.498855  0.156277  0.287715  1
  V  V9  1  0.998855  0.343723  0.712285  1
  V  V10  1  0.501145  0.656277  0.212285  1
  V  V11  1  0.001145  0.843723  0.787715  1
  V  V12  1  0.501145  0.843723  0.712285  1
  V  V13  1  0.001145  0.656277  0.287715  1
  V  V14  1  0.498855  0.343723  0.787715  1
  V  V15  1  0.998855  0.156277  0.212285  1
  Zn  Zn16  1  0.683186  0.908802  0.416665  1
  Zn  Zn17  1  0.183186  0.591198  0.583335  1
  Zn  Zn18  1  0.316814  0.408802  0.083335  1
  Zn  Zn19  1  0.816814  0.091198  0.916665  1
  Zn  Zn20  1  0.316814  0.091198  0.583335  1
  Zn  Zn21  1  0.816814  0.408802  0.416665  1
  Zn  Zn22  1  0.683186  0.591198  0.916665  1
  Zn  Zn23  1  0.183186  0.908802  0.083335  1
  P  P24  1  0.950432  0.794311  0.971529  1
  P  P25  1  0.450432  0.705689  0.028471  1
  P  P26  1  0.049568  0.294311  0.528471  1
  P  P27  1  0.549568  0.205689  0.471529  1
  P  P28  1  0.049568  0.205689  0.028471  1
  P  P29  1  0.549568  0.294311  0.971529  1
  P  P30  1  0.950432  0.705689  0.471529  1
  P  P31  1  0.450432  0.794311  0.528471  1
  P  P32  1  0.751024  0.403516  0.261973  1
  P  P33  1  0.251024  0.096484  0.738027  1
  P  P34  1  0.248976  0.903516  0.238027  1
  P  P35  1  0.748976  0.596484  0.761973  1
  P  P36  1  0.248976  0.596484  0.738027  1
  P  P37  1  0.748976  0.903516  0.261973  1
  P  P38  1  0.751024  0.096484  0.761973  1
  P  P39  1  0.251024  0.403516  0.238027  1
  O  O40  1  0.655520  0.306971  0.310776  1
  O  O41  1  0.155520  0.193029  0.689224  1
  O  O42  1  0.344480  0.806971  0.189224  1
  O  O43  1  0.844480  0.693029  0.810776  1
  O  O44  1  0.344480  0.693029  0.689224  1
  O  O45  1  0.844480  0.806971  0.310776  1
  O  O46  1  0.655520  0.193029  0.810776  1
  O  O47  1  0.155520  0.306971  0.189224  1
  O  O48  1  0.664415  0.505578  0.211400  1
  O  O49  1  0.164415  0.994422  0.788600  1
  O  O50  1  0.335585  0.005578  0.288600  1
  O  O51  1  0.835585  0.494422  0.711400  1
  O  O52  1  0.335585  0.494422  0.788600  1
  O  O53  1  0.835585  0.005578  0.211400  1
  O  O54  1  0.664415  0.994422  0.711400  1
  O  O55  1  0.164415  0.505578  0.288600  1
  O  O56  1  0.029848  0.779046  0.044984  1
  O  O57  1  0.529848  0.720954  0.955016  1
  O  O58  1  0.970152  0.279046  0.455016  1
  O  O59  1  0.470152  0.220954  0.544984  1
  O  O60  1  0.970152  0.220954  0.955016  1
  O  O61  1  0.470152  0.279046  0.044984  1
  O  O62  1  0.029848  0.720954  0.544984  1
  O  O63  1  0.529848  0.779046  0.455016  1
  O  O64  1  0.849039  0.491895  0.317221  1
  O  O65  1  0.349039  0.008105  0.682779  1
  O  O66  1  0.150961  0.991895  0.182779  1
  O  O67  1  0.531037  0.147708  0.201235  1
  O  O68  1  0.650961  0.508105  0.817221  1
  O  O69  1  0.650961  0.991895  0.317221  1
  O  O70  1  0.849039  0.008105  0.817221  1
  O  O71  1  0.349039  0.491895  0.182779  1
  O  O72  1  0.881322  0.638493  0.959948  1
  O  O73  1  0.381322  0.861507  0.040052  1
  O  O74  1  0.118678  0.138493  0.540052  1
  O  O75  1  0.618678  0.361507  0.459948  1
  O  O76  1  0.118678  0.361507  0.040052  1
  O  O77  1  0.618678  0.138493  0.959948  1
  O  O78  1  0.881322  0.861507  0.459948  1
  O  O79  1  0.381322  0.638493  0.540052  1
  O  O80  1  0.059064  0.671955  0.409184  1
  O  O81  1  0.559064  0.828045  0.590816  1
  O  O82  1  0.940936  0.171955  0.090816  1
  O  O83  1  0.440936  0.328045  0.909184  1
  O  O84  1  0.940936  0.328045  0.590816  1
  O  O85  1  0.440936  0.171955  0.409184  1
  O  O86  1  0.059064  0.828045  0.909184  1
  O  O87  1  0.559064  0.671955  0.090816  1
  O  O88  1  0.149935  0.817007  0.290221  1
  O  O89  1  0.649935  0.682993  0.709779  1
  O  O90  1  0.850065  0.317007  0.209779  1
  O  O91  1  0.350065  0.182993  0.790221  1
  O  O92  1  0.850065  0.182993  0.709779  1
  O  O93  1  0.350065  0.317007  0.290221  1
  O  O94  1  0.149935  0.682993  0.790221  1
  O  O95  1  0.649935  0.817007  0.209779  1
  O  O96  1  0.325821  0.909754  0.523579  1
  O  O97  1  0.825821  0.590246  0.476421  1
  O  O98  1  0.674179  0.409754  0.976421  1
  O  O99  1  0.174179  0.090246  0.023579  1
  O  O100  1  0.674179  0.090246  0.476421  1
  O  O101  1  0.174179  0.409754  0.523579  1
  O  O102  1  0.325821  0.590246  0.023579  1
  O  O103  1  0.825821  0.909754  0.976421  1
  O  O104  1  0.031037  0.147708  0.298765  1
  O  O105  1  0.531037  0.352292  0.701235  1
  O  O106  1  0.968963  0.647708  0.201235  1
  O  O107  1  0.468963  0.852292  0.798765  1
  O  O108  1  0.968963  0.852292  0.701235  1
  O  O109  1  0.468963  0.647708  0.298765  1
  O  O110  1  0.031037  0.352292  0.798765  1
  O  O111  1  0.150961  0.508105  0.682779  1
