# generated using pymatgen
data_Zr3(Bi5Br9)2
_symmetry_space_group_name_H-M   'P 1'
_cell_length_a   14.85205759
_cell_length_b   14.85205798
_cell_length_c   11.47617002
_cell_angle_alpha   90.00000000
_cell_angle_beta   90.00000000
_cell_angle_gamma   119.99999912
_symmetry_Int_Tables_number   1
_chemical_formula_structural   Zr3(Bi5Br9)2
_chemical_formula_sum   'Zr6 Bi20 Br36'
_cell_volume   2192.30447166
_cell_formula_units_Z   2
loop_
 _symmetry_equiv_pos_site_id
 _symmetry_equiv_pos_as_xyz
  1  'x, y, z'
loop_
 _atom_site_type_symbol
 _atom_site_label
 _atom_site_symmetry_multiplicity
 _atom_site_fract_x
 _atom_site_fract_y
 _atom_site_fract_z
 _atom_site_occupancy
  Zr  Zr0  1  0.226201  0.890907  0.242518  1
  Zr  Zr1  1  0.109093  0.335294  0.242518  1
  Zr  Zr2  1  0.335294  0.226201  0.742518  1
  Zr  Zr3  1  0.664706  0.773799  0.242518  1
  Zr  Zr4  1  0.890907  0.664706  0.742518  1
  Zr  Zr5  1  0.773799  0.109093  0.742518  1
  Bi  Bi6  1  0.122365  0.518093  0.750078  1
  Bi  Bi7  1  0.235148  0.710363  0.575946  1
  Bi  Bi8  1  0.232969  0.708980  0.919359  1
  Bi  Bi9  1  0.395728  0.877635  0.750078  1
  Bi  Bi10  1  0.291020  0.523989  0.919359  1
  Bi  Bi11  1  0.289637  0.524785  0.575946  1
  Bi  Bi12  1  0.475215  0.764852  0.575946  1
  Bi  Bi13  1  0.476011  0.767031  0.919359  1
  Bi  Bi14  1  0.481907  0.604272  0.750078  1
  Bi  Bi15  1  0.518093  0.395728  0.250078  1
  Bi  Bi16  1  0.524785  0.235148  0.075946  1
  Bi  Bi17  1  0.523989  0.232969  0.419359  1
  Bi  Bi18  1  0.708980  0.476011  0.419359  1
  Bi  Bi19  1  0.710363  0.475215  0.075946  1
  Bi  Bi20  1  0.000000  -0.000000  0.389532  1
  Bi  Bi21  1  0.000000  0.000000  0.889532  1
  Bi  Bi22  1  0.604272  0.122365  0.250078  1
  Bi  Bi23  1  0.764852  0.289637  0.075946  1
  Bi  Bi24  1  0.767031  0.291020  0.419359  1
  Bi  Bi25  1  0.877635  0.481907  0.250078  1
  Br  Br26  1  0.077593  0.855407  0.405211  1
  Br  Br27  1  0.086709  0.834894  0.086145  1
  Br  Br28  1  0.090086  0.806893  0.745356  1
  Br  Br29  1  0.063772  0.438162  0.082163  1
  Br  Br30  1  0.063402  0.428717  0.423294  1
  Br  Br31  1  0.192581  0.700836  0.268551  1
  Br  Br32  1  0.365316  0.936598  0.423294  1
  Br  Br33  1  0.374390  0.936228  0.082163  1
  Br  Br34  1  0.165106  0.251815  0.086145  1
  Br  Br35  1  0.144593  0.222187  0.405211  1
  Br  Br36  1  0.193107  0.283192  0.745356  1
  Br  Br37  1  0.299164  0.491744  0.268551  1
  Br  Br38  1  0.508256  0.807419  0.268551  1
  Br  Br39  1  0.251815  0.086709  0.586145  1
  Br  Br40  1  0.222187  0.077593  0.905211  1
  Br  Br41  1  0.283192  0.090086  0.245356  1
  Br  Br42  1  0.438162  0.374390  0.582163  1
  Br  Br43  1  0.428717  0.365316  0.923294  1
  Br  Br44  1  0.561838  0.625610  0.082163  1
  Br  Br45  1  0.571283  0.634684  0.423294  1
  Br  Br46  1  0.716808  0.909914  0.745356  1
  Br  Br47  1  0.748185  0.913291  0.086145  1
  Br  Br48  1  0.777813  0.922407  0.405211  1
  Br  Br49  1  0.491744  0.192581  0.768551  1
  Br  Br50  1  0.700836  0.508256  0.768551  1
  Br  Br51  1  0.806893  0.716808  0.245356  1
  Br  Br52  1  0.834894  0.748185  0.586145  1
  Br  Br53  1  0.855407  0.777813  0.905211  1
  Br  Br54  1  0.634684  0.063402  0.923294  1
  Br  Br55  1  0.625610  0.063772  0.582163  1
  Br  Br56  1  0.807419  0.299164  0.768551  1
  Br  Br57  1  0.936228  0.561838  0.582163  1
  Br  Br58  1  0.936598  0.571283  0.923294  1
  Br  Br59  1  0.909914  0.193107  0.245356  1
  Br  Br60  1  0.922407  0.144593  0.905211  1
  Br  Br61  1  0.913291  0.165106  0.586145  1
