# generated using pymatgen
data_K3Zr4Ag2F23
_symmetry_space_group_name_H-M   'P 1'
_cell_length_a   8.03283595
_cell_length_b   10.38308534
_cell_length_c   11.45152889
_cell_angle_alpha   90.00000000
_cell_angle_beta   90.00000000
_cell_angle_gamma   97.26402639
_symmetry_Int_Tables_number   1
_chemical_formula_structural   K3Zr4Ag2F23
_chemical_formula_sum   'K6 Zr8 Ag4 F46'
_cell_volume   947.45609649
_cell_formula_units_Z   2
loop_
 _symmetry_equiv_pos_site_id
 _symmetry_equiv_pos_as_xyz
  1  'x, y, z'
loop_
 _atom_site_type_symbol
 _atom_site_label
 _atom_site_symmetry_multiplicity
 _atom_site_fract_x
 _atom_site_fract_y
 _atom_site_fract_z
 _atom_site_occupancy
  K  K0  1  0.711826  0.136396  0.520874  1
  K  K1  1  0.288174  0.363604  0.020874  1
  K  K2  1  0.288174  0.863604  0.479126  1
  K  K3  1  0.000000  0.000000  0.000000  1
  K  K4  1  0.711826  0.636396  0.979126  1
  K  K5  1  0.000000  0.500000  0.500000  1
  Zr  Zr6  1  0.474171  0.457937  0.682218  1
  Zr  Zr7  1  0.474171  0.957937  0.817782  1
  Zr  Zr8  1  0.167069  0.661588  0.805842  1
  Zr  Zr9  1  0.525829  0.042063  0.182218  1
  Zr  Zr10  1  0.832931  0.338412  0.194158  1
  Zr  Zr11  1  0.832931  0.838412  0.305842  1
  Zr  Zr12  1  0.167069  0.161588  0.694158  1
  Zr  Zr13  1  0.525829  0.542063  0.317782  1
  Ag  Ag14  1  0.181575  0.186717  0.339466  1
  Ag  Ag15  1  0.181575  0.686717  0.160534  1
  Ag  Ag16  1  0.818425  0.813283  0.660534  1
  Ag  Ag17  1  0.818425  0.313283  0.839466  1
  F  F18  1  0.996930  0.498585  0.783293  1
  F  F19  1  0.644960  0.122297  0.815309  1
  F  F20  1  0.500000  0.000000  0.000000  1
  F  F21  1  0.981133  0.263244  0.639300  1
  F  F22  1  0.678449  0.184809  0.290489  1
  F  F23  1  0.860826  0.909243  0.474388  1
  F  F24  1  0.310780  0.809513  0.915077  1
  F  F25  1  0.390650  0.068487  0.663012  1
  F  F26  1  0.355040  0.377703  0.315309  1
  F  F27  1  0.737081  0.938629  0.147192  1
  F  F28  1  0.996930  0.998585  0.716707  1
  F  F29  1  0.689220  0.690487  0.415077  1
  F  F30  1  0.003070  0.001415  0.283293  1
  F  F31  1  0.651453  0.846824  0.865149  1
  F  F32  1  0.018867  0.736756  0.360700  1
  F  F33  1  0.618459  0.924467  0.657966  1
  F  F34  1  0.321551  0.315191  0.790489  1
  F  F35  1  0.644960  0.622297  0.684691  1
  F  F36  1  0.737081  0.438629  0.352808  1
  F  F37  1  0.139174  0.090757  0.525612  1
  F  F38  1  0.689220  0.190487  0.084923  1
  F  F39  1  0.975482  0.291070  0.355082  1
  F  F40  1  0.390650  0.568487  0.836988  1
  F  F41  1  0.310780  0.309513  0.584923  1
  F  F42  1  0.860826  0.409243  0.025612  1
  F  F43  1  0.381541  0.575533  0.157966  1
  F  F44  1  0.262919  0.561371  0.647192  1
  F  F45  1  0.018867  0.236756  0.139300  1
  F  F46  1  0.348547  0.653176  0.365149  1
  F  F47  1  0.139174  0.590757  0.974388  1
  F  F48  1  0.609350  0.431513  0.163012  1
  F  F49  1  0.651453  0.346824  0.634851  1
  F  F50  1  0.981133  0.763244  0.860700  1
  F  F51  1  0.618459  0.424467  0.842034  1
  F  F52  1  0.348547  0.153176  0.134851  1
  F  F53  1  0.381541  0.075533  0.342034  1
  F  F54  1  0.262919  0.061371  0.852808  1
  F  F55  1  0.024518  0.708930  0.644918  1
  F  F56  1  0.321551  0.815191  0.709511  1
  F  F57  1  0.975482  0.791070  0.144918  1
  F  F58  1  0.355040  0.877703  0.184691  1
  F  F59  1  0.024518  0.208930  0.855082  1
  F  F60  1  0.678449  0.684809  0.209511  1
  F  F61  1  0.609350  0.931513  0.336988  1
  F  F62  1  0.003070  0.501415  0.216707  1
  F  F63  1  0.500000  0.500000  0.500000  1
