# generated using pymatgen
data_ZnCdC4(SeN)4
_symmetry_space_group_name_H-M   'P 1'
_cell_length_a   4.98695079
_cell_length_b   8.45354425
_cell_length_c   8.45354457
_cell_angle_alpha   85.00880434
_cell_angle_beta   72.84473249
_cell_angle_gamma   72.84473366
_symmetry_Int_Tables_number   1
_chemical_formula_structural   ZnCdC4(SeN)4
_chemical_formula_sum   'Zn1 Cd1 Se4 C4 N4'
_cell_volume   325.37356879
_cell_formula_units_Z   1
loop_
 _symmetry_equiv_pos_site_id
 _symmetry_equiv_pos_as_xyz
  1  'x, y, z'
loop_
 _atom_site_type_symbol
 _atom_site_label
 _atom_site_symmetry_multiplicity
 _atom_site_fract_x
 _atom_site_fract_y
 _atom_site_fract_z
 _atom_site_occupancy
  Cd  Cd0  1  0.500000  0.000000  0.000000  1
  Zn  Zn1  1  0.750000  0.500000  0.500000  1
  Se  Se2  1  0.303730  0.727867  0.046898  1
  Se  Se3  1  0.649372  0.046898  0.272133  1
  Se  Se4  1  0.968403  0.953102  0.727867  1
  Se  Se5  1  0.078495  0.272133  0.953102  1
  N  N6  1  0.568931  0.590115  0.321119  1
  N  N7  1  0.109950  0.321119  0.409885  1
  N  N8  1  0.840954  0.678881  0.590115  1
  N  N9  1  0.480165  0.409885  0.678881  1
  C  C10  1  0.465718  0.646992  0.213469  1
  C  C11  1  0.320814  0.213469  0.353008  1
  C  C12  1  0.887290  0.786531  0.646992  1
  C  C13  1  0.326179  0.353008  0.786531  1
