# generated using pymatgen
data_SbClO
_symmetry_space_group_name_H-M   'P 1'
_cell_length_a   8.13797958
_cell_length_b   9.68551932
_cell_length_c   11.41440987
_cell_angle_alpha   90.00000000
_cell_angle_beta   90.00000000
_cell_angle_gamma   76.13724657
_symmetry_Int_Tables_number   1
_chemical_formula_structural   SbClO
_chemical_formula_sum   'Sb12 Cl12 O12'
_cell_volume   873.48438282
_cell_formula_units_Z   12
loop_
 _symmetry_equiv_pos_site_id
 _symmetry_equiv_pos_as_xyz
  1  'x, y, z'
loop_
 _atom_site_type_symbol
 _atom_site_label
 _atom_site_symmetry_multiplicity
 _atom_site_fract_x
 _atom_site_fract_y
 _atom_site_fract_z
 _atom_site_occupancy
  Sb  Sb0  1  0.283307  0.573754  0.969108  1
  Sb  Sb1  1  0.716693  0.926246  0.469108  1
  Sb  Sb2  1  0.716693  0.426246  0.030892  1
  Sb  Sb3  1  0.283307  0.073754  0.530892  1
  Sb  Sb4  1  0.091723  0.906911  0.756615  1
  Sb  Sb5  1  0.908277  0.593089  0.256615  1
  Sb  Sb6  1  0.908277  0.093089  0.243385  1
  Sb  Sb7  1  0.091723  0.406911  0.743385  1
  Sb  Sb8  1  0.527957  0.759705  0.826548  1
  Sb  Sb9  1  0.472043  0.740295  0.326548  1
  Sb  Sb10  1  0.472043  0.240295  0.173452  1
  Sb  Sb11  1  0.527957  0.259705  0.673452  1
  O  O12  1  0.530283  0.587718  0.929440  1
  O  O13  1  0.469717  0.912282  0.429440  1
  O  O14  1  0.469717  0.412282  0.070560  1
  O  O15  1  0.530283  0.087718  0.570560  1
  O  O16  1  0.276704  0.756167  0.840127  1
  O  O17  1  0.723296  0.743833  0.340127  1
  O  O18  1  0.723296  0.243833  0.159873  1
  O  O19  1  0.276704  0.256167  0.659873  1
  O  O20  1  0.286597  0.936700  0.661234  1
  O  O21  1  0.713403  0.563300  0.161234  1
  O  O22  1  0.713403  0.063300  0.338766  1
  O  O23  1  0.286597  0.436700  0.838766  1
  Cl  Cl24  1  0.115871  0.588077  0.601693  1
  Cl  Cl25  1  0.884129  0.911923  0.101693  1
  Cl  Cl26  1  0.884129  0.411923  0.398307  1
  Cl  Cl27  1  0.115871  0.088077  0.898307  1
  Cl  Cl28  1  0.593148  0.626153  0.646153  1
  Cl  Cl29  1  0.406852  0.873847  0.146153  1
  Cl  Cl30  1  0.406852  0.373847  0.353847  1
  Cl  Cl31  1  0.593148  0.126153  0.853847  1
  Cl  Cl32  1  0.894720  0.646659  0.885877  1
  Cl  Cl33  1  0.105280  0.853341  0.385877  1
  Cl  Cl34  1  0.105280  0.353341  0.114123  1
  Cl  Cl35  1  0.894720  0.146659  0.614123  1
