# generated using pymatgen
data_Rb2MgP2WO10
_symmetry_space_group_name_H-M   'P 1'
_cell_length_a   10.00742989
_cell_length_b   12.85786472
_cell_length_c   15.68649099
_cell_angle_alpha   90.00000000
_cell_angle_beta   90.00000000
_cell_angle_gamma   90.00000000
_symmetry_Int_Tables_number   1
_chemical_formula_structural   Rb2MgP2WO10
_chemical_formula_sum   'Rb16 Mg8 P16 W8 O80'
_cell_volume   2018.44636083
_cell_formula_units_Z   8
loop_
 _symmetry_equiv_pos_site_id
 _symmetry_equiv_pos_as_xyz
  1  'x, y, z'
loop_
 _atom_site_type_symbol
 _atom_site_label
 _atom_site_symmetry_multiplicity
 _atom_site_fract_x
 _atom_site_fract_y
 _atom_site_fract_z
 _atom_site_occupancy
  Rb  Rb0  1  0.605712  0.867231  0.107693  1
  Rb  Rb1  1  0.107644  0.173347  0.345715  1
  Rb  Rb2  1  0.392356  0.826653  0.845715  1
  Rb  Rb3  1  0.892356  0.673347  0.154285  1
  Rb  Rb4  1  0.607644  0.173347  0.154285  1
  Rb  Rb5  1  0.394288  0.367231  0.392307  1
  Rb  Rb6  1  0.894288  0.367231  0.107693  1
  Rb  Rb7  1  0.605712  0.632769  0.607693  1
  Rb  Rb8  1  0.107644  0.326653  0.845715  1
  Rb  Rb9  1  0.105712  0.867231  0.392307  1
  Rb  Rb10  1  0.392356  0.673347  0.345715  1
  Rb  Rb11  1  0.894288  0.132769  0.607693  1
  Rb  Rb12  1  0.394288  0.132769  0.892307  1
  Rb  Rb13  1  0.607644  0.326653  0.654285  1
  Rb  Rb14  1  0.105712  0.632769  0.892307  1
  Rb  Rb15  1  0.892356  0.826653  0.654285  1
  Mg  Mg16  1  0.000295  0.874357  0.002393  1
  Mg  Mg17  1  0.999705  0.125643  0.997607  1
  Mg  Mg18  1  0.000295  0.625643  0.502393  1
  Mg  Mg19  1  0.999705  0.374357  0.497607  1
  Mg  Mg20  1  0.500295  0.874357  0.497607  1
  Mg  Mg21  1  0.499705  0.374357  0.002393  1
  Mg  Mg22  1  0.500295  0.625643  0.997607  1
  Mg  Mg23  1  0.499705  0.125643  0.502393  1
  P  P24  1  0.076556  0.995113  0.834574  1
  P  P25  1  0.423444  0.004887  0.334574  1
  P  P26  1  0.076556  0.504887  0.334574  1
  P  P27  1  0.257887  0.744175  0.592387  1
  P  P28  1  0.576556  0.995113  0.665426  1
  P  P29  1  0.242113  0.255825  0.092387  1
  P  P30  1  0.757887  0.744175  0.907613  1
  P  P31  1  0.742113  0.255825  0.407613  1
  P  P32  1  0.923444  0.495113  0.665426  1
  P  P33  1  0.423444  0.495113  0.834574  1
  P  P34  1  0.257887  0.755825  0.092387  1
  P  P35  1  0.757887  0.755825  0.407613  1
  P  P36  1  0.242113  0.244175  0.592387  1
  P  P37  1  0.742113  0.244175  0.907613  1
  P  P38  1  0.576556  0.504887  0.165426  1
  P  P39  1  0.923444  0.004887  0.165426  1
  W  W40  1  0.749436  0.492569  0.857378  1
  W  W41  1  0.750564  0.992569  0.857378  1
  W  W42  1  0.250564  0.992569  0.642622  1
  W  W43  1  0.749436  0.007431  0.357378  1
  W  W44  1  0.249436  0.492569  0.642622  1
  W  W45  1  0.750564  0.507431  0.357378  1
  W  W46  1  0.249436  0.007431  0.142622  1
  W  W47  1  0.250564  0.507431  0.142622  1
  O  O48  1  0.728937  0.352858  0.346252  1
  O  O49  1  0.359968  0.500574  0.049156  1
  O  O50  1  0.591998  0.605439  0.113202  1
  O  O51  1  0.591253  0.977370  0.906624  1
  O  O52  1  0.438690  0.501420  0.213529  1
  O  O53  1  0.091998  0.605439  0.386798  1
  O  O54  1  0.561310  0.001420  0.286471  1
  O  O55  1  0.140032  0.000574  0.049156  1
  O  O56  1  0.091253  0.522630  0.093376  1
  O  O57  1  0.377331  0.259232  0.048331  1
  O  O58  1  0.640032  0.499426  0.950844  1
  O  O59  1  0.938690  0.501420  0.286471  1
  O  O60  1  0.623761  0.248516  0.468441  1
  O  O61  1  0.122669  0.740768  0.548331  1
  O  O62  1  0.376239  0.748516  0.031559  1
  O  O63  1  0.098809  0.096099  0.885323  1
  O  O64  1  0.309908  0.491420  0.764976  1
  O  O65  1  0.266604  0.662780  0.158170  1
  O  O66  1  0.623761  0.251484  0.968441  1
  O  O67  1  0.766604  0.662780  0.341830  1
  O  O68  1  0.377331  0.240768  0.548331  1
  O  O69  1  0.809908  0.008580  0.235024  1
  O  O70  1  0.376239  0.751484  0.531559  1
  O  O71  1  0.401191  0.596099  0.885323  1
  O  O72  1  0.271063  0.647142  0.653748  1
  O  O73  1  0.401191  0.903901  0.385323  1
  O  O74  1  0.233396  0.162780  0.158170  1
  O  O75  1  0.771063  0.852858  0.346252  1
  O  O76  1  0.438690  0.998580  0.713529  1
  O  O77  1  0.123761  0.251484  0.531559  1
  O  O78  1  0.271063  0.852858  0.153748  1
  O  O79  1  0.876239  0.748516  0.468441  1
  O  O80  1  0.859968  0.999426  0.950844  1
  O  O81  1  0.733396  0.162780  0.341830  1
  O  O82  1  0.591998  0.894561  0.613202  1
  O  O83  1  0.908747  0.477370  0.906624  1
  O  O84  1  0.408002  0.394561  0.886798  1
  O  O85  1  0.901191  0.596099  0.614677  1
  O  O86  1  0.877331  0.259232  0.451669  1
  O  O87  1  0.309908  0.008580  0.264976  1
  O  O88  1  0.771063  0.647142  0.846252  1
  O  O89  1  0.228937  0.352858  0.153748  1
  O  O90  1  0.809908  0.491420  0.735024  1
  O  O91  1  0.859968  0.500574  0.450844  1
  O  O92  1  0.877331  0.240768  0.951669  1
  O  O93  1  0.190092  0.508580  0.264976  1
  O  O94  1  0.938690  0.998580  0.786471  1
  O  O95  1  0.091998  0.894561  0.886798  1
  O  O96  1  0.233396  0.337220  0.658170  1
  O  O97  1  0.728937  0.147142  0.846252  1
  O  O98  1  0.266604  0.837220  0.658170  1
  O  O99  1  0.640032  0.000574  0.450844  1
  O  O100  1  0.908002  0.394561  0.613202  1
  O  O101  1  0.622669  0.740768  0.951669  1
  O  O102  1  0.733396  0.337220  0.841830  1
  O  O103  1  0.228937  0.147142  0.653748  1
  O  O104  1  0.408747  0.477370  0.593376  1
  O  O105  1  0.622669  0.759232  0.451669  1
  O  O106  1  0.908002  0.105439  0.113202  1
  O  O107  1  0.123761  0.248516  0.031559  1
  O  O108  1  0.908747  0.022630  0.406624  1
  O  O109  1  0.359968  0.999426  0.549156  1
  O  O110  1  0.061310  0.001420  0.213529  1
  O  O111  1  0.408747  0.022630  0.093376  1
  O  O112  1  0.766604  0.837220  0.841830  1
  O  O113  1  0.561310  0.498580  0.786471  1
  O  O114  1  0.408002  0.105439  0.386798  1
  O  O115  1  0.690092  0.508580  0.235024  1
  O  O116  1  0.122669  0.759232  0.048331  1
  O  O117  1  0.061310  0.498580  0.713529  1
  O  O118  1  0.876239  0.751484  0.968441  1
  O  O119  1  0.598809  0.403901  0.114677  1
  O  O120  1  0.140032  0.499426  0.549156  1
  O  O121  1  0.091253  0.977370  0.593376  1
  O  O122  1  0.098809  0.403901  0.385323  1
  O  O123  1  0.690092  0.991420  0.735024  1
  O  O124  1  0.598809  0.096099  0.614677  1
  O  O125  1  0.591253  0.522630  0.406624  1
  O  O126  1  0.901191  0.903901  0.114677  1
  O  O127  1  0.190092  0.991420  0.764976  1
