# generated using pymatgen
data_KEr2F7
_symmetry_space_group_name_H-M   'P 1'
_cell_length_a   7.81953750
_cell_length_b   11.84278712
_cell_length_c   13.35061904
_cell_angle_alpha   90.00000000
_cell_angle_beta   90.00000000
_cell_angle_gamma   90.00000000
_symmetry_Int_Tables_number   1
_chemical_formula_structural   KEr2F7
_chemical_formula_sum   'K8 Er16 F56'
_cell_volume   1236.33565143
_cell_formula_units_Z   8
loop_
 _symmetry_equiv_pos_site_id
 _symmetry_equiv_pos_as_xyz
  1  'x, y, z'
loop_
 _atom_site_type_symbol
 _atom_site_label
 _atom_site_symmetry_multiplicity
 _atom_site_fract_x
 _atom_site_fract_y
 _atom_site_fract_z
 _atom_site_occupancy
  K  K0  1  0.250000  0.915307  0.094783  1
  K  K1  1  0.750000  0.434697  0.932040  1
  K  K2  1  0.750000  0.584693  0.594783  1
  K  K3  1  0.250000  0.415307  0.405217  1
  K  K4  1  0.250000  0.565303  0.067960  1
  K  K5  1  0.250000  0.065303  0.432040  1
  K  K6  1  0.750000  0.934697  0.567960  1
  K  K7  1  0.750000  0.084693  0.905217  1
  Er  Er8  1  0.475898  0.743608  0.337263  1
  Er  Er9  1  0.250000  0.506247  0.758280  1
  Er  Er10  1  0.750000  0.493753  0.241720  1
  Er  Er11  1  0.975898  0.256392  0.662737  1
  Er  Er12  1  0.250000  0.209507  0.937544  1
  Er  Er13  1  0.750000  0.993753  0.258280  1
  Er  Er14  1  0.524102  0.256392  0.662737  1
  Er  Er15  1  0.524102  0.756392  0.837263  1
  Er  Er16  1  0.750000  0.290493  0.437544  1
  Er  Er17  1  0.750000  0.790493  0.062456  1
  Er  Er18  1  0.250000  0.709507  0.562456  1
  Er  Er19  1  0.475898  0.243608  0.162737  1
  Er  Er20  1  0.250000  0.006247  0.741720  1
  Er  Er21  1  0.024102  0.243608  0.162737  1
  Er  Er22  1  0.975898  0.756392  0.837263  1
  Er  Er23  1  0.024102  0.743608  0.337263  1
  F  F24  1  0.985156  0.218513  0.997621  1
  F  F25  1  0.995430  0.926123  0.767658  1
  F  F26  1  0.750000  0.866143  0.904617  1
  F  F27  1  0.750000  0.189811  0.162052  1
  F  F28  1  0.917353  0.330415  0.300868  1
  F  F29  1  0.750000  0.242052  0.763943  1
  F  F30  1  0.420762  0.587101  0.877357  1
  F  F31  1  0.579238  0.412899  0.122643  1
  F  F32  1  0.750000  0.742052  0.736057  1
  F  F33  1  0.495430  0.573877  0.267658  1
  F  F34  1  0.079238  0.087101  0.622643  1
  F  F35  1  0.750000  0.973967  0.088655  1
  F  F36  1  0.514844  0.218513  0.997621  1
  F  F37  1  0.420762  0.087101  0.622643  1
  F  F38  1  0.917353  0.830415  0.199132  1
  F  F39  1  0.014844  0.281487  0.497621  1
  F  F40  1  0.250000  0.026033  0.911345  1
  F  F41  1  0.750000  0.123333  0.375123  1
  F  F42  1  0.250000  0.810189  0.837948  1
  F  F43  1  0.514844  0.718513  0.502379  1
  F  F44  1  0.250000  0.337494  0.079737  1
  F  F45  1  0.250000  0.633857  0.404617  1
  F  F46  1  0.582647  0.830415  0.199132  1
  F  F47  1  0.985156  0.718513  0.502379  1
  F  F48  1  0.417353  0.669585  0.699132  1
  F  F49  1  0.504570  0.926123  0.767658  1
  F  F50  1  0.014844  0.781487  0.002379  1
  F  F51  1  0.485156  0.281487  0.497621  1
  F  F52  1  0.750000  0.662506  0.920263  1
  F  F53  1  0.750000  0.366143  0.595383  1
  F  F54  1  0.485156  0.781487  0.002379  1
  F  F55  1  0.250000  0.526033  0.588655  1
  F  F56  1  0.920762  0.912899  0.377357  1
  F  F57  1  0.082647  0.669585  0.699132  1
  F  F58  1  0.750000  0.162506  0.579737  1
  F  F59  1  0.250000  0.837494  0.420263  1
  F  F60  1  0.250000  0.757948  0.236057  1
  F  F61  1  0.250000  0.310189  0.662052  1
  F  F62  1  0.750000  0.689811  0.337948  1
  F  F63  1  0.250000  0.133857  0.095383  1
  F  F64  1  0.995430  0.426123  0.732342  1
  F  F65  1  0.082647  0.169585  0.800868  1
  F  F66  1  0.417353  0.169585  0.800868  1
  F  F67  1  0.004570  0.573877  0.267658  1
  F  F68  1  0.250000  0.876667  0.624877  1
  F  F69  1  0.079238  0.587101  0.877357  1
  F  F70  1  0.250000  0.376667  0.875123  1
  F  F71  1  0.920762  0.412899  0.122643  1
  F  F72  1  0.504570  0.426123  0.732342  1
  F  F73  1  0.250000  0.257948  0.263943  1
  F  F74  1  0.004570  0.073877  0.232342  1
  F  F75  1  0.495430  0.073877  0.232342  1
  F  F76  1  0.582647  0.330415  0.300868  1
  F  F77  1  0.750000  0.623333  0.124877  1
  F  F78  1  0.579238  0.912899  0.377357  1
  F  F79  1  0.750000  0.473967  0.411345  1
