# generated using pymatgen
data_MgSiO3
_symmetry_space_group_name_H-M   'P 1'
_cell_length_a   5.25372175
_cell_length_b   9.01182553
_cell_length_c   9.93073435
_cell_angle_alpha   90.00000000
_cell_angle_beta   111.82130385
_cell_angle_gamma   90.00000000
_symmetry_Int_Tables_number   1
_chemical_formula_structural   MgSiO3
_chemical_formula_sum   'Mg8 Si8 O24'
_cell_volume   436.48755291
_cell_formula_units_Z   8
loop_
 _symmetry_equiv_pos_site_id
 _symmetry_equiv_pos_as_xyz
  1  'x, y, z'
loop_
 _atom_site_type_symbol
 _atom_site_label
 _atom_site_symmetry_multiplicity
 _atom_site_fract_x
 _atom_site_fract_y
 _atom_site_fract_z
 _atom_site_occupancy
  Mg  Mg0  1  0.695426  0.843708  0.280597  1
  Mg  Mg1  1  0.195426  0.656292  0.280597  1
  Mg  Mg2  1  0.347553  0.509599  0.767516  1
  Mg  Mg3  1  0.304574  0.156292  0.719403  1
  Mg  Mg4  1  0.804574  0.343708  0.719403  1
  Mg  Mg5  1  0.652447  0.490401  0.232484  1
  Mg  Mg6  1  0.152447  0.009599  0.232484  1
  Mg  Mg7  1  0.847553  0.990401  0.767516  1
  Si  Si8  1  0.254742  0.334086  0.430894  1
  Si  Si9  1  0.787280  0.287098  0.981918  1
  Si  Si10  1  0.745258  0.665914  0.569106  1
  Si  Si11  1  0.712720  0.787098  0.018082  1
  Si  Si12  1  0.287280  0.212902  0.981918  1
  Si  Si13  1  0.212720  0.712902  0.018082  1
  Si  Si14  1  0.754742  0.165914  0.430894  1
  Si  Si15  1  0.245258  0.834086  0.569106  1
  O  O16  1  0.206548  0.330661  0.846837  1
  O  O17  1  0.615832  0.656995  0.392076  1
  O  O18  1  0.731344  0.444923  0.898316  1
  O  O19  1  0.967142  0.812624  0.617958  1
  O  O20  1  0.793452  0.669339  0.153163  1
  O  O21  1  0.884168  0.156995  0.607924  1
  O  O22  1  0.429461  0.971503  0.652097  1
  O  O23  1  0.231344  0.055077  0.898316  1
  O  O24  1  0.929461  0.528497  0.652097  1
  O  O25  1  0.532858  0.312624  0.382042  1
  O  O26  1  0.393983  0.732033  0.911433  1
  O  O27  1  0.706548  0.169339  0.846837  1
  O  O28  1  0.467142  0.687376  0.617958  1
  O  O29  1  0.032858  0.187376  0.382042  1
  O  O30  1  0.606017  0.267967  0.088567  1
  O  O31  1  0.570539  0.028497  0.347903  1
  O  O32  1  0.384168  0.343005  0.607924  1
  O  O33  1  0.115832  0.843005  0.392076  1
  O  O34  1  0.768656  0.944923  0.101684  1
  O  O35  1  0.293452  0.830661  0.153163  1
  O  O36  1  0.106017  0.232033  0.088567  1
  O  O37  1  0.893983  0.767967  0.911433  1
  O  O38  1  0.070539  0.471503  0.347903  1
  O  O39  1  0.268656  0.555077  0.101684  1
