# generated using pymatgen
data_As2Se3(NF6)2
_symmetry_space_group_name_H-M   'P 1'
_cell_length_a   7.90493202
_cell_length_b   7.90493150
_cell_length_c   11.18002983
_cell_angle_alpha   88.86405486
_cell_angle_beta   88.86405495
_cell_angle_gamma   68.17115810
_symmetry_Int_Tables_number   1
_chemical_formula_structural   As2Se3(NF6)2
_chemical_formula_sum   'As4 Se6 N4 F24'
_cell_volume   648.33957245
_cell_formula_units_Z   2
loop_
 _symmetry_equiv_pos_site_id
 _symmetry_equiv_pos_as_xyz
  1  'x, y, z'
loop_
 _atom_site_type_symbol
 _atom_site_label
 _atom_site_symmetry_multiplicity
 _atom_site_fract_x
 _atom_site_fract_y
 _atom_site_fract_z
 _atom_site_occupancy
  Se  Se0  1  0.057834  0.520674  0.643351  1
  Se  Se1  1  0.479326  0.942166  0.356649  1
  Se  Se2  1  0.051257  0.521054  0.858437  1
  Se  Se3  1  0.478946  0.948743  0.141563  1
  Se  Se4  1  0.427529  0.292742  0.753352  1
  Se  Se5  1  0.707258  0.572471  0.246648  1
  N  N6  1  0.276124  0.380185  0.875490  1
  N  N7  1  0.619815  0.723876  0.124510  1
  N  N8  1  0.283720  0.380364  0.629137  1
  N  N9  1  0.619636  0.716280  0.370863  1
  As  As10  1  0.906612  0.093388  0.500000  1
  F  F11  1  0.694440  0.164020  0.578800  1
  F  F12  1  0.835980  0.305560  0.421200  1
  F  F13  1  0.117708  0.020657  0.420688  1
  F  F14  1  0.979343  0.882292  0.579312  1
  F  F15  1  0.811533  1.001376  0.387774  1
  F  F16  1  -0.001376  0.188467  0.612226  1
  As  As17  1  0.901568  0.098432  1.000000  1
  F  F18  1  0.817536  0.019914  0.129102  1
  F  F19  1  0.980086  0.182464  0.870898  1
  F  F20  1  0.119702  0.034071  0.065083  1
  F  F21  1  0.965929  0.880298  0.934917  1
  F  F22  1  0.681402  0.161817  0.935631  1
  F  F23  1  0.838183  0.318598  0.064369  1
  As  As24  1  0.518039  0.751690  0.751005  1
  As  As25  1  0.248310  0.481961  0.248995  1
  F  F26  1  0.590605  0.583882  0.638978  1
  F  F27  1  0.416118  0.409395  0.361022  1
  F  F28  1  0.454239  0.921910  0.862443  1
  F  F29  1  0.078090  0.545761  0.137557  1
  F  F30  1  0.585464  0.579077  0.862816  1
  F  F31  1  0.420923  0.414536  0.137184  1
  F  F32  1  0.746326  0.753792  0.751155  1
  F  F33  1  0.246208  0.253674  0.248845  1
  F  F34  1  0.458985  0.926225  0.639389  1
  F  F35  1  0.073775  0.541015  0.360611  1
  F  F36  1  0.297184  0.746275  0.750981  1
  F  F37  1  0.253725  0.702816  0.249019  1
