# generated using pymatgen
data_Sb4PdC4(O2F11)2
_symmetry_space_group_name_H-M   'P 1'
_cell_length_a   10.10775991
_cell_length_b   12.87373552
_cell_length_c   18.38980796
_cell_angle_alpha   103.39422930
_cell_angle_beta   90.00000000
_cell_angle_gamma   90.00000000
_symmetry_Int_Tables_number   1
_chemical_formula_structural   Sb4PdC4(O2F11)2
_chemical_formula_sum   'Sb16 Pd4 C16 O16 F88'
_cell_volume   2327.87633477
_cell_formula_units_Z   4
loop_
 _symmetry_equiv_pos_site_id
 _symmetry_equiv_pos_as_xyz
  1  'x, y, z'
loop_
 _atom_site_type_symbol
 _atom_site_label
 _atom_site_symmetry_multiplicity
 _atom_site_fract_x
 _atom_site_fract_y
 _atom_site_fract_z
 _atom_site_occupancy
  Sb  Sb0  1  0.744744  0.552749  0.831229  1
  Sb  Sb1  1  0.260458  0.989883  0.675900  1
  Sb  Sb2  1  0.760458  0.010117  0.824100  1
  Sb  Sb3  1  0.758733  0.434370  0.515114  1
  Sb  Sb4  1  0.244819  0.879130  0.865790  1
  Sb  Sb5  1  0.258733  0.565630  0.984886  1
  Sb  Sb6  1  0.255181  0.879130  0.365790  1
  Sb  Sb7  1  0.739542  0.010117  0.324100  1
  Sb  Sb8  1  0.241267  0.565630  0.484886  1
  Sb  Sb9  1  0.255256  0.447251  0.168771  1
  Sb  Sb10  1  0.755256  0.552749  0.331229  1
  Sb  Sb11  1  0.239542  0.989883  0.175900  1
  Sb  Sb12  1  0.755181  0.120870  0.134210  1
  Sb  Sb13  1  0.744819  0.120870  0.634210  1
  Sb  Sb14  1  0.244744  0.447251  0.668771  1
  Sb  Sb15  1  0.741267  0.434370  0.015114  1
  Pd  Pd16  1  0.241642  0.228105  0.411472  1
  Pd  Pd17  1  0.758358  0.771895  0.588528  1
  Pd  Pd18  1  0.258358  0.228105  0.911472  1
  Pd  Pd19  1  0.741642  0.771895  0.088528  1
  C  C20  1  0.121735  0.275094  0.846996  1
  C  C21  1  0.878265  0.724906  0.153004  1
  C  C22  1  0.886419  0.803845  0.023408  1
  C  C23  1  0.887867  0.820977  0.521687  1
  C  C24  1  0.613581  0.803845  0.523408  1
  C  C25  1  0.378265  0.275094  0.346996  1
  C  C26  1  0.908032  0.736315  0.649609  1
  C  C27  1  0.091968  0.263685  0.350391  1
  C  C28  1  0.612133  0.820977  0.021687  1
  C  C29  1  0.386419  0.196155  0.476592  1
  C  C30  1  0.387867  0.179023  0.978313  1
  C  C31  1  0.621735  0.724906  0.653004  1
  C  C32  1  0.113581  0.196155  0.976592  1
  C  C33  1  0.408032  0.263685  0.850391  1
  C  C34  1  0.112133  0.179023  0.478313  1
  C  C35  1  0.591968  0.736315  0.149609  1
  O  O36  1  0.966387  0.819557  0.984266  1
  O  O37  1  0.466387  0.180443  0.515734  1
  O  O38  1  0.459640  0.302755  0.313646  1
  O  O39  1  0.496018  0.285441  0.818891  1
  O  O40  1  0.959640  0.697245  0.186354  1
  O  O41  1  0.040360  0.302755  0.813646  1
  O  O42  1  0.540360  0.697245  0.686354  1
  O  O43  1  0.956760  0.849560  0.481889  1
  O  O44  1  1.003982  0.285441  0.318891  1
  O  O45  1  -0.003982  0.714559  0.681109  1
  O  O46  1  0.503982  0.714559  0.181109  1
  O  O47  1  0.456760  0.150440  0.018111  1
  O  O48  1  0.043240  0.150440  0.518111  1
  O  O49  1  0.543240  0.849560  0.981889  1
  O  O50  1  0.033613  0.180443  0.015734  1
  O  O51  1  0.533613  0.819557  0.484266  1
  F  F52  1  0.559388  0.558975  0.818095  1
  F  F53  1  0.267801  0.318480  0.090576  1
  F  F54  1  0.879478  0.005226  0.107414  1
  F  F55  1  0.887989  0.538794  0.559593  1
  F  F56  1  0.630617  0.342347  0.458037  1
  F  F57  1  0.609892  0.115041  0.363332  1
  F  F58  1  0.076126  0.456507  0.140548  1
  F  F59  1  0.249806  0.857063  0.464056  1
  F  F60  1  0.737987  0.093493  0.741263  1
  F  F61  1  0.396574  0.784114  0.332428  1
  F  F62  1  0.750194  0.142937  0.535944  1
  F  F63  1  0.280960  0.604080  0.394608  1
  F  F64  1  0.923874  0.543493  0.859452  1
  F  F65  1  0.632285  0.913315  0.770019  1
  F  F66  1  0.895023  0.331186  0.485513  1
  F  F67  1  0.636376  0.551764  0.531834  1
  F  F68  1  0.423874  0.456507  0.640548  1
  F  F69  1  0.124104  0.897946  0.627209  1
  F  F70  1  0.390709  0.073270  0.738690  1
  F  F71  1  0.732199  0.681520  0.909424  1
  F  F72  1  0.869383  0.342347  0.958037  1
  F  F73  1  0.863624  0.551764  0.031834  1
  F  F74  1  0.804710  0.476366  0.416657  1
  F  F75  1  0.237987  0.906507  0.758737  1
  F  F76  1  0.718186  0.628187  0.255675  1
  F  F77  1  0.896574  0.215886  0.167572  1
  F  F78  1  0.132285  0.086685  0.729981  1
  F  F79  1  0.604977  0.331186  0.985513  1
  F  F80  1  0.695290  0.476366  0.916657  1
  F  F81  1  0.603426  0.215886  0.667572  1
  F  F82  1  0.377777  0.778330  0.827431  1
  F  F83  1  0.390108  0.884959  0.636668  1
  F  F84  1  0.377132  0.989310  0.886221  1
  F  F85  1  0.109291  0.073270  0.238690  1
  F  F86  1  0.122223  0.778330  0.327431  1
  F  F87  1  0.375896  0.897946  0.127209  1
  F  F88  1  0.122868  0.989310  0.386221  1
  F  F89  1  0.877132  0.010690  0.613779  1
  F  F90  1  0.136376  0.448236  0.968166  1
  F  F91  1  0.940612  0.558975  0.318095  1
  F  F92  1  0.130617  0.657653  0.041963  1
  F  F93  1  0.252198  0.586454  0.730303  1
  F  F94  1  0.104977  0.668814  0.514487  1
  F  F95  1  0.875896  0.102054  0.372791  1
  F  F96  1  0.622223  0.221670  0.172569  1
  F  F97  1  0.281814  0.371813  0.744325  1
  F  F98  1  0.890709  0.926730  0.761310  1
  F  F99  1  0.776973  0.935995  0.901714  1
  F  F100  1  0.369383  0.657653  0.541963  1
  F  F101  1  0.223027  0.064005  0.098286  1
  F  F102  1  0.747802  0.413546  0.269697  1
  F  F103  1  0.749806  0.142937  0.035944  1
  F  F104  1  0.387989  0.461206  0.940407  1
  F  F105  1  0.276973  0.064005  0.598286  1
  F  F106  1  0.363624  0.448236  0.468166  1
  F  F107  1  0.440612  0.441025  0.181905  1
  F  F108  1  0.612011  0.538794  0.059593  1
  F  F109  1  0.781814  0.628187  0.755675  1
  F  F110  1  0.767801  0.681520  0.409424  1
  F  F111  1  0.103426  0.784114  0.832428  1
  F  F112  1  0.112011  0.461206  0.440407  1
  F  F113  1  0.247802  0.586454  0.230303  1
  F  F114  1  0.109892  0.884959  0.136668  1
  F  F115  1  0.379478  0.994774  0.392586  1
  F  F116  1  0.195290  0.523634  0.583343  1
  F  F117  1  0.120522  0.994774  0.892586  1
  F  F118  1  0.719040  0.395920  0.605392  1
  F  F119  1  0.867715  0.913315  0.270019  1
  F  F120  1  0.395023  0.668814  0.014487  1
  F  F121  1  0.304710  0.523634  0.083343  1
  F  F122  1  0.219040  0.604080  0.894608  1
  F  F123  1  0.762013  0.093493  0.241263  1
  F  F124  1  0.609291  0.926730  0.261310  1
  F  F125  1  0.367715  0.086685  0.229981  1
  F  F126  1  0.262013  0.906507  0.258737  1
  F  F127  1  0.780960  0.395920  0.105392  1
  F  F128  1  0.232199  0.318480  0.590576  1
  F  F129  1  0.250194  0.857063  0.964056  1
  F  F130  1  0.620522  0.005226  0.607414  1
  F  F131  1  0.624104  0.102054  0.872791  1
  F  F132  1  0.752198  0.413546  0.769697  1
  F  F133  1  0.218186  0.371813  0.244325  1
  F  F134  1  0.890108  0.115041  0.863332  1
  F  F135  1  0.622868  0.010690  0.113779  1
  F  F136  1  0.059388  0.441025  0.681905  1
  F  F137  1  0.877777  0.221670  0.672569  1
  F  F138  1  0.723027  0.935995  0.401714  1
  F  F139  1  0.576126  0.543493  0.359452  1
