# generated using pymatgen
data_U2MnN3
_symmetry_space_group_name_H-M   'P 1'
_cell_length_a   3.31151794
_cell_length_b   3.75140880
_cell_length_c   6.55246741
_cell_angle_alpha   106.62935507
_cell_angle_beta   104.64125381
_cell_angle_gamma   89.99980861
_symmetry_Int_Tables_number   1
_chemical_formula_structural   U2MnN3
_chemical_formula_sum   'U2 Mn1 N3'
_cell_volume   75.23310839
_cell_formula_units_Z   1
loop_
 _symmetry_equiv_pos_site_id
 _symmetry_equiv_pos_as_xyz
  1  'x, y, z'
loop_
 _atom_site_type_symbol
 _atom_site_label
 _atom_site_symmetry_multiplicity
 _atom_site_fract_x
 _atom_site_fract_y
 _atom_site_fract_z
 _atom_site_occupancy
  U  U0  1  0.355953  0.355923  0.711906  1
  U  U1  1  0.644047  0.644077  0.288094  1
  Mn  Mn2  1  0.000000  0.000000  0.000000  1
  N  N3  1  0.168020  0.168016  0.336041  1
  N  N4  1  0.831979  0.831984  0.663959  1
  N  N5  1  0.000000  0.500000  0.000000  1
