# generated using pymatgen
data_H8C3(NO)3
_symmetry_space_group_name_H-M   'P 1'
_cell_length_a   3.99916216
_cell_length_b   9.22597854
_cell_length_c   17.75523986
_cell_angle_alpha   90.00000000
_cell_angle_beta   90.00000000
_cell_angle_gamma   102.19310832
_symmetry_Int_Tables_number   1
_chemical_formula_structural   H8C3(NO)3
_chemical_formula_sum   'H32 C12 N12 O12'
_cell_volume   640.32238799
_cell_formula_units_Z   4
loop_
 _symmetry_equiv_pos_site_id
 _symmetry_equiv_pos_as_xyz
  1  'x, y, z'
loop_
 _atom_site_type_symbol
 _atom_site_label
 _atom_site_symmetry_multiplicity
 _atom_site_fract_x
 _atom_site_fract_y
 _atom_site_fract_z
 _atom_site_occupancy
  O  O0  1  0.802277  0.239405  0.478999  1
  O  O1  1  0.197723  0.260595  0.978999  1
  O  O2  1  0.197723  0.760595  0.521001  1
  O  O3  1  0.802277  0.739405  0.021001  1
  O  O4  1  0.646612  0.021608  0.625775  1
  O  O5  1  0.353388  0.478392  0.125775  1
  O  O6  1  0.353388  0.978392  0.374225  1
  O  O7  1  0.646612  0.521608  0.874225  1
  C  C8  1  0.634785  0.108730  0.490757  1
  C  C9  1  0.365215  0.391270  0.990757  1
  C  C10  1  0.365215  0.891270  0.509243  1
  C  C11  1  0.634785  0.608730  0.009243  1
  C  C12  1  0.563701  0.010242  0.556877  1
  C  C13  1  0.436299  0.489758  0.056877  1
  C  C14  1  0.436299  0.989758  0.443123  1
  C  C15  1  0.563701  0.510242  0.943123  1
  N  N16  1  0.373072  0.517992  0.709358  1
  N  N17  1  0.626928  0.982008  0.209358  1
  N  N18  1  0.626928  0.482008  0.290642  1
  N  N19  1  0.373072  0.017992  0.790642  1
  N  N20  1  0.218078  0.440679  0.587491  1
  N  N21  1  0.781922  0.059321  0.087491  1
  N  N22  1  0.781922  0.559321  0.412509  1
  N  N23  1  0.218078  0.940679  0.912509  1
  N  N24  1  0.059086  0.280314  0.688504  1
  N  N25  1  0.940914  0.219686  0.188504  1
  N  N26  1  0.940914  0.719686  0.311496  1
  N  N27  1  0.059086  0.780314  0.811496  1
  C  C28  1  0.214663  0.412411  0.661884  1
  C  C29  1  0.785337  0.087589  0.161884  1
  C  C30  1  0.785337  0.587589  0.338116  1
  C  C31  1  0.214663  0.912411  0.838116  1
  O  O32  1  0.862755  0.765318  0.656822  1
  O  O33  1  0.137245  0.734682  0.156822  1
  O  O34  1  0.137245  0.234682  0.343178  1
  O  O35  1  0.862755  0.265318  0.843178  1
  H  H36  1  0.538306  0.610481  0.688336  1
  H  H37  1  0.461694  0.889519  0.188336  1
  H  H38  1  0.461694  0.389519  0.311664  1
  H  H39  1  0.538306  0.110481  0.811664  1
  H  H40  1  0.393274  0.494182  0.764984  1
  H  H41  1  0.606726  0.005818  0.264984  1
  H  H42  1  0.606726  0.505818  0.235016  1
  H  H43  1  0.393274  0.994182  0.735016  1
  H  H44  1  0.069686  0.365894  0.551660  1
  H  H45  1  0.930314  0.134106  0.051660  1
  H  H46  1  0.930314  0.634106  0.448340  1
  H  H47  1  0.069686  0.865894  0.948340  1
  H  H48  1  0.296066  0.547168  0.569421  1
  H  H49  1  0.703934  0.952832  0.069421  1
  H  H50  1  0.703934  0.452832  0.430579  1
  H  H51  1  0.296066  0.047168  0.930579  1
  H  H52  1  0.916571  0.198538  0.655155  1
  H  H53  1  0.083429  0.301462  0.155155  1
  H  H54  1  0.083429  0.801462  0.344845  1
  H  H55  1  0.916571  0.698538  0.844845  1
  H  H56  1  0.033012  0.266921  0.745858  1
  H  H57  1  0.966988  0.233079  0.245858  1
  H  H58  1  0.966988  0.733079  0.254142  1
  H  H59  1  0.033012  0.766921  0.754142  1
  H  H60  1  0.771561  0.856613  0.648960  1
  H  H61  1  0.228439  0.643387  0.148960  1
  H  H62  1  0.228439  0.143387  0.351040  1
  H  H63  1  0.771561  0.356613  0.851040  1
  H  H64  1  0.995287  0.755702  0.610307  1
  H  H65  1  0.004713  0.744298  0.110307  1
  H  H66  1  0.004713  0.244298  0.389693  1
  H  H67  1  0.995287  0.255702  0.889693  1
