# generated using pymatgen
data_RbLaSi(CN2)4
_symmetry_space_group_name_H-M   'P 1'
_cell_length_a   6.94835349
_cell_length_b   7.01732003
_cell_length_c   7.01683992
_cell_angle_alpha   75.80967693
_cell_angle_beta   60.32215551
_cell_angle_gamma   60.32381817
_symmetry_Int_Tables_number   1
_chemical_formula_structural   RbLaSi(CN2)4
_chemical_formula_sum   'Rb1 La1 Si1 C4 N8'
_cell_volume   258.26442841
_cell_formula_units_Z   1
loop_
 _symmetry_equiv_pos_site_id
 _symmetry_equiv_pos_as_xyz
  1  'x, y, z'
loop_
 _atom_site_type_symbol
 _atom_site_label
 _atom_site_symmetry_multiplicity
 _atom_site_fract_x
 _atom_site_fract_y
 _atom_site_fract_z
 _atom_site_occupancy
  Rb  Rb0  1  1.000001  0.000006  -0.000008  1
  La  La1  1  0.749794  0.499986  0.500034  1
  Si  Si2  1  0.249984  0.499999  0.500008  1
  C  C3  1  0.558867  0.087111  0.530269  1
  C  C4  1  0.910886  0.530262  0.912954  1
  C  C5  1  0.354152  0.469725  0.086983  1
  C  C6  1  0.176231  0.912905  0.469728  1
  N  N7  1  0.504520  0.426052  0.900277  1
  N  N8  1  0.992702  0.479438  0.715930  1
  N  N9  1  0.291480  0.715875  0.520558  1
  N  N10  1  0.527918  0.284132  0.479447  1
  N  N11  1  0.069407  0.099704  0.426039  1
  N  N12  1  0.595152  0.900291  0.573959  1
  N  N13  1  0.188065  0.520561  0.284077  1
  N  N14  1  0.830841  0.573953  0.099744  1
