# generated using pymatgen
data_K2Th(MoO4)3
_symmetry_space_group_name_H-M   'P 1'
_cell_length_a   5.46566005
_cell_length_b   10.96432892
_cell_length_c   10.96432903
_cell_angle_alpha   68.59935745
_cell_angle_beta   77.64795212
_cell_angle_gamma   77.64794918
_symmetry_Int_Tables_number   1
_chemical_formula_structural   K2Th(MoO4)3
_chemical_formula_sum   'K4 Th2 Mo6 O24'
_cell_volume   590.89279802
_cell_formula_units_Z   2
loop_
 _symmetry_equiv_pos_site_id
 _symmetry_equiv_pos_as_xyz
  1  'x, y, z'
loop_
 _atom_site_type_symbol
 _atom_site_label
 _atom_site_symmetry_multiplicity
 _atom_site_fract_x
 _atom_site_fract_y
 _atom_site_fract_z
 _atom_site_occupancy
  K  K0  1  0.412224  0.956012  0.709677  1
  K  K1  1  0.587776  0.043988  0.290323  1
  K  K2  1  0.912224  0.709677  0.956012  1
  K  K3  1  0.087776  0.290323  0.043988  1
  Th  Th4  1  0.250000  0.372008  0.627992  1
  Th  Th5  1  0.750000  0.627992  0.372008  1
  Mo  Mo6  1  0.610462  0.542679  0.763635  1
  Mo  Mo7  1  0.110462  0.763635  0.542679  1
  Mo  Mo8  1  0.389538  0.457321  0.236365  1
  Mo  Mo9  1  0.889538  0.236365  0.457321  1
  Mo  Mo10  1  0.250000  0.855953  0.144047  1
  Mo  Mo11  1  0.750000  0.144047  0.855953  1
  O  O12  1  0.072790  0.011932  0.135933  1
  O  O13  1  0.965537  0.268296  0.811682  1
  O  O14  1  0.144608  0.469544  0.386991  1
  O  O15  1  0.034463  0.731704  0.188318  1
  O  O16  1  0.912408  0.745950  0.695548  1
  O  O17  1  0.103026  0.208531  0.576469  1
  O  O18  1  0.572790  0.135933  0.011932  1
  O  O19  1  0.247154  0.500200  0.095141  1
  O  O20  1  0.427210  0.864067  0.988068  1
  O  O21  1  0.465537  0.811682  0.268296  1
  O  O22  1  0.587592  0.304452  0.254050  1
  O  O23  1  0.644608  0.386991  0.469544  1
  O  O24  1  0.396974  0.423531  0.791469  1
  O  O25  1  0.752846  0.499800  0.904859  1
  O  O26  1  0.603026  0.576469  0.208531  1
  O  O27  1  0.747154  0.095141  0.500200  1
  O  O28  1  0.252846  0.904859  0.499800  1
  O  O29  1  0.412408  0.695548  0.745950  1
  O  O30  1  0.087592  0.254050  0.304452  1
  O  O31  1  0.927210  0.988068  0.864067  1
  O  O32  1  0.896974  0.791469  0.423531  1
  O  O33  1  0.534463  0.188318  0.731704  1
  O  O34  1  0.355392  0.613009  0.530456  1
  O  O35  1  0.855392  0.530456  0.613009  1
