# generated using pymatgen
data_Ca3Cr3(PO4)4
_symmetry_space_group_name_H-M   'P 1'
_cell_length_a   9.09756749
_cell_length_b   9.13837266
_cell_length_c   10.02062758
_cell_angle_alpha   104.83409312
_cell_angle_beta   106.22908946
_cell_angle_gamma   109.90272941
_symmetry_Int_Tables_number   1
_chemical_formula_structural   Ca3Cr3(PO4)4
_chemical_formula_sum   'Ca6 Cr6 P8 O32'
_cell_volume   692.88390349
_cell_formula_units_Z   2
loop_
 _symmetry_equiv_pos_site_id
 _symmetry_equiv_pos_as_xyz
  1  'x, y, z'
loop_
 _atom_site_type_symbol
 _atom_site_label
 _atom_site_symmetry_multiplicity
 _atom_site_fract_x
 _atom_site_fract_y
 _atom_site_fract_z
 _atom_site_occupancy
  Ca  Ca0  1  0.677488  0.650484  0.210976  1
  Ca  Ca1  1  0.520416  -0.000048  0.800332  1
  Ca  Ca2  1  0.322512  0.349516  0.789024  1
  Ca  Ca3  1  0.479584  1.000048  0.199668  1
  Ca  Ca4  1  0.271703  0.284530  0.292460  1
  Ca  Ca5  1  0.728297  0.715470  0.707540  1
  Cr  Cr6  1  0.941954  0.189977  0.416713  1
  Cr  Cr7  1  0.049637  0.803671  0.112210  1
  Cr  Cr8  1  0.058046  0.810023  0.583287  1
  Cr  Cr9  1  0.046997  0.517238  0.269908  1
  Cr  Cr10  1  0.950363  0.196329  0.887790  1
  Cr  Cr11  1  0.953003  0.482762  0.730092  1
  P  P12  1  0.732744  0.420756  0.391200  1
  P  P13  1  0.267256  0.579244  0.608800  1
  P  P14  1  0.811895  0.989216  0.074942  1
  P  P15  1  0.759225  0.440866  0.942984  1
  P  P16  1  0.240775  0.559134  0.057016  1
  P  P17  1  0.262986  0.062120  0.483698  1
  P  P18  1  0.188105  0.010784  0.925058  1
  P  P19  1  0.737014  0.937880  0.516302  1
  O  O20  1  0.368012  0.033494  0.946827  1
  O  O21  1  0.627780  0.885592  0.347042  1
  O  O22  1  0.557407  0.409233  0.303898  1
  O  O23  1  0.087943  0.435088  0.898814  1
  O  O24  1  0.824723  0.815217  0.514984  1
  O  O25  1  0.124706  0.874239  0.414023  1
  O  O26  1  0.595402  0.430581  0.959922  1
  O  O27  1  0.759919  0.265664  0.900682  1
  O  O28  1  0.841204  0.843390  0.113743  1
  O  O29  1  0.130679  0.460428  0.648103  1
  O  O30  1  0.869321  0.539572  0.351897  1
  O  O31  1  0.785599  0.505827  0.563838  1
  O  O32  1  0.175277  0.184783  0.485016  1
  O  O33  1  0.205913  0.476272  0.169269  1
  O  O34  1  0.794087  0.523728  0.830731  1
  O  O35  1  0.214401  0.494173  0.436162  1
  O  O36  1  0.912057  0.564912  0.101186  1
  O  O37  1  0.631988  0.966506  0.053173  1
  O  O38  1  0.174471  0.020874  0.080235  1
  O  O39  1  0.954180  0.162671  0.202412  1
  O  O40  1  0.372220  0.114408  0.652958  1
  O  O41  1  0.825529  0.979126  0.919765  1
  O  O42  1  0.265763  0.753686  0.647064  1
  O  O43  1  0.636795  0.907507  0.616119  1
  O  O44  1  0.240081  0.734336  0.099318  1
  O  O45  1  0.045820  0.837329  0.797588  1
  O  O46  1  0.442593  0.590767  0.696102  1
  O  O47  1  0.734237  0.246314  0.352936  1
  O  O48  1  0.158796  0.156610  0.886257  1
  O  O49  1  0.404598  0.569419  0.040078  1
  O  O50  1  0.363205  0.092493  0.383881  1
  O  O51  1  0.875294  0.125761  0.585977  1
