# generated using pymatgen
data_Cs4PbO4
_symmetry_space_group_name_H-M   'P 1'
_cell_length_a   7.55853171
_cell_length_b   11.96228373
_cell_length_c   12.08502913
_cell_angle_alpha   111.08296648
_cell_angle_beta   90.00000000
_cell_angle_gamma   90.00000000
_symmetry_Int_Tables_number   1
_chemical_formula_structural   Cs4PbO4
_chemical_formula_sum   'Cs16 Pb4 O16'
_cell_volume   1019.55122977
_cell_formula_units_Z   4
loop_
 _symmetry_equiv_pos_site_id
 _symmetry_equiv_pos_as_xyz
  1  'x, y, z'
loop_
 _atom_site_type_symbol
 _atom_site_label
 _atom_site_symmetry_multiplicity
 _atom_site_fract_x
 _atom_site_fract_y
 _atom_site_fract_z
 _atom_site_occupancy
  Cs  Cs0  1  0.584829  0.300026  0.937137  1
  Cs  Cs1  1  0.664501  0.892900  0.371174  1
  Cs  Cs2  1  0.084829  0.199974  0.062863  1
  Cs  Cs3  1  0.164501  0.607100  0.628826  1
  Cs  Cs4  1  0.335499  0.107100  0.628826  1
  Cs  Cs5  1  0.179058  0.789217  0.421557  1
  Cs  Cs6  1  0.679058  0.710783  0.578443  1
  Cs  Cs7  1  0.113069  0.416858  0.844721  1
  Cs  Cs8  1  0.613069  0.083142  0.155279  1
  Cs  Cs9  1  0.386931  0.916858  0.844721  1
  Cs  Cs10  1  0.415171  0.699974  0.062863  1
  Cs  Cs11  1  0.320942  0.289217  0.421557  1
  Cs  Cs12  1  0.915171  0.800026  0.937137  1
  Cs  Cs13  1  0.886931  0.583142  0.155279  1
  Cs  Cs14  1  0.835499  0.392900  0.371174  1
  Cs  Cs15  1  0.820942  0.210783  0.578443  1
  Pb  Pb16  1  0.624086  0.509464  0.758457  1
  Pb  Pb17  1  0.124086  0.990536  0.241543  1
  Pb  Pb18  1  0.875914  0.009464  0.758457  1
  Pb  Pb19  1  0.375914  0.490536  0.241543  1
  O  O20  1  0.516782  0.329693  0.214401  1
  O  O21  1  0.666610  0.990936  0.636371  1
  O  O22  1  0.483218  0.670307  0.785599  1
  O  O23  1  0.983218  0.829693  0.214401  1
  O  O24  1  0.833390  0.490936  0.636371  1
  O  O25  1  0.464695  0.352986  0.688943  1
  O  O26  1  0.964695  0.147014  0.311057  1
  O  O27  1  0.035305  0.852986  0.688943  1
  O  O28  1  0.333390  0.009064  0.363629  1
  O  O29  1  0.764499  0.026556  0.924561  1
  O  O30  1  0.235501  0.973444  0.075439  1
  O  O31  1  0.535305  0.647014  0.311057  1
  O  O32  1  0.264499  0.473444  0.075439  1
  O  O33  1  0.735501  0.526556  0.924561  1
  O  O34  1  0.166610  0.509064  0.363629  1
  O  O35  1  0.016782  0.170307  0.785599  1
