# generated using pymatgen
data_Tl2Ge2Se5
_symmetry_space_group_name_H-M   'P 1'
_cell_length_a   9.28403191
_cell_length_b   11.33730111
_cell_length_c   11.33730190
_cell_angle_alpha   89.73563325
_cell_angle_beta   78.43574409
_cell_angle_gamma   78.43574048
_symmetry_Int_Tables_number   1
_chemical_formula_structural   Tl2Ge2Se5
_chemical_formula_sum   'Tl8 Ge8 Se20'
_cell_volume   1144.57482944
_cell_formula_units_Z   4
loop_
 _symmetry_equiv_pos_site_id
 _symmetry_equiv_pos_as_xyz
  1  'x, y, z'
loop_
 _atom_site_type_symbol
 _atom_site_label
 _atom_site_symmetry_multiplicity
 _atom_site_fract_x
 _atom_site_fract_y
 _atom_site_fract_z
 _atom_site_occupancy
  Tl  Tl0  1  0.096970  0.544888  0.801951  1
  Tl  Tl1  1  0.403030  0.198049  0.455112  1
  Tl  Tl2  1  0.903030  0.455112  0.198049  1
  Tl  Tl3  1  0.596970  0.801951  0.544888  1
  Tl  Tl4  1  0.403577  0.201300  0.078160  1
  Tl  Tl5  1  0.096423  0.921840  0.798700  1
  Tl  Tl6  1  0.596423  0.798700  0.921840  1
  Tl  Tl7  1  0.903577  0.078160  0.201300  1
  Ge  Ge8  1  0.591688  0.478544  0.732755  1
  Ge  Ge9  1  0.908312  0.267245  0.521456  1
  Ge  Ge10  1  0.408312  0.521456  0.267245  1
  Ge  Ge11  1  0.091688  0.732755  0.478544  1
  Ge  Ge12  1  0.109845  0.729853  0.136056  1
  Ge  Ge13  1  0.390155  0.863944  0.270147  1
  Ge  Ge14  1  0.890155  0.270147  0.863944  1
  Ge  Ge15  1  0.609845  0.136056  0.729853  1
  Se  Se16  1  0.732227  0.467605  0.892724  1
  Se  Se17  1  0.767773  0.107276  0.532395  1
  Se  Se18  1  0.267773  0.532395  0.107276  1
  Se  Se19  1  0.232227  0.892724  0.467605  1
  Se  Se20  1  0.561930  0.671503  0.239352  1
  Se  Se21  1  0.938070  0.760648  0.328497  1
  Se  Se22  1  0.438070  0.328497  0.760648  1
  Se  Se23  1  0.061930  0.239352  0.671503  1
  Se  Se24  1  0.430320  0.667299  0.758485  1
  Se  Se25  1  0.069680  0.241515  0.332701  1
  Se  Se26  1  0.569680  0.332701  0.241515  1
  Se  Se27  1  0.930320  0.758485  0.667299  1
  Se  Se28  1  0.046253  0.243660  1.002086  1
  Se  Se29  1  0.453747  -0.002086  0.756340  1
  Se  Se30  1  0.953747  0.756340  -0.002086  1
  Se  Se31  1  0.546253  1.002086  0.243660  1
  Se  Se32  1  0.750000  0.108814  0.891186  1
  Se  Se33  1  0.250000  0.891186  0.108814  1
  Se  Se34  1  0.750000  0.464608  0.535392  1
  Se  Se35  1  0.250000  0.535392  0.464608  1
