# generated using pymatgen
data_BaCuSn2
_symmetry_space_group_name_H-M   'P 1'
_cell_length_a   4.69183336
_cell_length_b   4.86309581
_cell_length_c   10.10725030
_cell_angle_alpha   103.92045736
_cell_angle_beta   90.00000000
_cell_angle_gamma   90.00000000
_symmetry_Int_Tables_number   1
_chemical_formula_structural   BaCuSn2
_chemical_formula_sum   'Ba2 Cu2 Sn4'
_cell_volume   223.84243668
_cell_formula_units_Z   2
loop_
 _symmetry_equiv_pos_site_id
 _symmetry_equiv_pos_as_xyz
  1  'x, y, z'
loop_
 _atom_site_type_symbol
 _atom_site_label
 _atom_site_symmetry_multiplicity
 _atom_site_fract_x
 _atom_site_fract_y
 _atom_site_fract_z
 _atom_site_occupancy
  Cu  Cu0  1  0.750000  0.179127  0.358255  1
  Cu  Cu1  1  0.250000  0.820873  0.641745  1
  Sn  Sn2  1  0.250000  0.956660  0.913321  1
  Sn  Sn3  1  0.750000  0.043340  0.086679  1
  Sn  Sn4  1  0.750000  0.749941  0.499882  1
  Sn  Sn5  1  0.250000  0.250059  0.500118  1
  Ba  Ba6  1  0.250000  0.608093  0.216186  1
  Ba  Ba7  1  0.750000  0.391907  0.783814  1
