# generated using pymatgen
data_AgTe3I
_symmetry_space_group_name_H-M   'P 1'
_cell_length_a   5.14774496
_cell_length_b   8.80615465
_cell_length_c   16.46904544
_cell_angle_alpha   90.00000000
_cell_angle_beta   90.00000000
_cell_angle_gamma   90.00000000
_symmetry_Int_Tables_number   1
_chemical_formula_structural   AgTe3I
_chemical_formula_sum   'Ag4 Te12 I4'
_cell_volume   746.57210347
_cell_formula_units_Z   4
loop_
 _symmetry_equiv_pos_site_id
 _symmetry_equiv_pos_as_xyz
  1  'x, y, z'
loop_
 _atom_site_type_symbol
 _atom_site_label
 _atom_site_symmetry_multiplicity
 _atom_site_fract_x
 _atom_site_fract_y
 _atom_site_fract_z
 _atom_site_occupancy
  Ag  Ag0  1  0.300637  0.750000  0.250000  1
  Ag  Ag1  1  0.300637  0.750000  0.750000  1
  Ag  Ag2  1  0.699363  0.250000  0.250000  1
  Ag  Ag3  1  0.699363  0.250000  0.750000  1
  Te  Te4  1  0.372979  0.717869  0.000000  1
  Te  Te5  1  0.630910  0.858865  0.127067  1
  Te  Te6  1  0.372979  0.782131  0.500000  1
  Te  Te7  1  0.369090  0.141135  0.872933  1
  Te  Te8  1  0.627021  0.217869  0.500000  1
  Te  Te9  1  0.630910  0.641135  0.372933  1
  Te  Te10  1  0.369090  0.358865  0.372933  1
  Te  Te11  1  0.627021  0.282131  0.000000  1
  Te  Te12  1  0.369090  0.141135  0.127067  1
  Te  Te13  1  0.630910  0.858865  0.872933  1
  Te  Te14  1  0.369090  0.358865  0.627067  1
  Te  Te15  1  0.630910  0.641135  0.627067  1
  I  I16  1  0.000000  0.000000  0.677980  1
  I  I17  1  0.000000  0.500000  0.822020  1
  I  I18  1  0.000000  0.500000  0.177980  1
  I  I19  1  0.000000  0.000000  0.322020  1
