# generated using pymatgen
data_Li28Mg22N25
_symmetry_space_group_name_H-M   'P 1'
_cell_length_a   3.53079600
_cell_length_b   3.53079561
_cell_length_c   88.55638151
_cell_angle_alpha   60.10695651
_cell_angle_beta   60.10696014
_cell_angle_gamma   59.99999101
_symmetry_Int_Tables_number   1
_chemical_formula_structural   Li28Mg22N25
_chemical_formula_sum   'Li28 Mg22 N25'
_cell_volume   781.89828994
_cell_formula_units_Z   1
loop_
 _symmetry_equiv_pos_site_id
 _symmetry_equiv_pos_as_xyz
  1  'x, y, z'
loop_
 _atom_site_type_symbol
 _atom_site_label
 _atom_site_symmetry_multiplicity
 _atom_site_fract_x
 _atom_site_fract_y
 _atom_site_fract_z
 _atom_site_occupancy
  Li  Li0  1  0.750578  0.750578  0.029931  1
  Li  Li1  1  0.749605  0.749605  0.070047  1
  Li  Li2  1  0.749473  0.749473  0.110063  1
  Li  Li3  1  0.749550  0.749550  0.150054  1
  Li  Li4  1  0.749667  0.749667  0.190040  1
  Li  Li5  1  0.749761  0.749761  0.230029  1
  Li  Li6  1  0.749845  0.749845  0.270019  1
  Li  Li7  1  0.749937  0.749937  0.310008  1
  Li  Li8  1  0.750033  0.750033  0.349996  1
  Li  Li9  1  0.750104  0.750104  0.389988  1
  Li  Li10  1  0.750146  0.750146  0.429982  1
  Li  Li11  1  0.750205  0.750205  0.469975  1
  Li  Li12  1  0.750268  0.750268  0.509968  1
  Li  Li13  1  0.750259  0.750259  0.549969  1
  Li  Li14  1  0.748970  0.748970  0.590124  1
  Li  Li15  1  0.246535  0.246535  0.650416  1
  Li  Li16  1  0.728905  0.728905  0.632531  1
  Li  Li17  1  0.769185  0.769185  0.667698  1
  Li  Li18  1  0.750974  0.750974  0.709883  1
  Li  Li19  1  0.748681  0.748681  0.750158  1
  Li  Li20  1  0.245928  0.245928  0.810489  1
  Li  Li21  1  0.729671  0.729671  0.792439  1
  Li  Li22  1  0.769298  0.769298  0.827684  1
  Li  Li23  1  0.751421  0.751421  0.869829  1
  Li  Li24  1  0.748954  0.748954  0.910126  1
  Li  Li25  1  0.245087  0.245087  0.970590  1
  Li  Li26  1  0.729864  0.729864  0.952416  1
  Li  Li27  1  0.768575  0.768575  0.987771  1
  Mg  Mg28  1  0.253752  0.253752  0.009550  1
  Mg  Mg29  1  0.250424  0.250424  0.049949  1
  Mg  Mg30  1  0.249790  0.249790  0.090025  1
  Mg  Mg31  1  0.249656  0.249656  0.130041  1
  Mg  Mg32  1  0.249721  0.249721  0.170033  1
  Mg  Mg33  1  0.249802  0.249802  0.210024  1
  Mg  Mg34  1  0.249849  0.249849  0.250018  1
  Mg  Mg35  1  0.249904  0.249904  0.290011  1
  Mg  Mg36  1  0.250009  0.250009  0.329999  1
  Mg  Mg37  1  0.250098  0.250098  0.369988  1
  Mg  Mg38  1  0.250152  0.250152  0.409982  1
  Mg  Mg39  1  0.250212  0.250212  0.449975  1
  Mg  Mg40  1  0.250336  0.250336  0.489960  1
  Mg  Mg41  1  0.250515  0.250515  0.529938  1
  Mg  Mg42  1  0.250307  0.250307  0.569963  1
  Mg  Mg43  1  0.246762  0.246762  0.610389  1
  Mg  Mg44  1  0.254654  0.254654  0.689442  1
  Mg  Mg45  1  0.250735  0.250735  0.729912  1
  Mg  Mg46  1  0.247598  0.247598  0.770288  1
  Mg  Mg47  1  0.254887  0.254887  0.849414  1
  Mg  Mg48  1  0.250943  0.250943  0.889887  1
  Mg  Mg49  1  0.247918  0.247918  0.930250  1
  N  N50  1  0.997374  0.997374  0.000315  1
  N  N51  1  -0.000600  -0.000600  0.040072  1
  N  N52  1  0.999848  0.999848  0.080018  1
  N  N53  1  1.000005  1.000005  0.119999  1
  N  N54  1  1.000069  1.000069  0.159992  1
  N  N55  1  1.000105  1.000105  0.199987  1
  N  N56  1  1.000128  1.000128  0.239985  1
  N  N57  1  1.000171  1.000171  0.279979  1
  N  N58  1  0.000267  0.000267  0.319968  1
  N  N59  1  0.000350  0.000350  0.359958  1
  N  N60  1  0.000348  0.000348  0.399958  1
  N  N61  1  0.000286  0.000286  0.439966  1
  N  N62  1  0.000262  0.000262  0.479969  1
  N  N63  1  0.000474  0.000474  0.519943  1
  N  N64  1  1.001223  1.001223  0.559853  1
  N  N65  1  0.002211  0.002211  0.599735  1
  N  N66  1  0.003180  0.003180  0.639618  1
  N  N67  1  0.996516  0.996516  0.680418  1
  N  N68  1  0.999738  0.999738  0.720031  1
  N  N69  1  1.001802  1.001802  0.759784  1
  N  N70  1  0.003954  0.003954  0.799525  1
  N  N71  1  1.001701  1.001701  0.919796  1
  N  N72  1  0.997396  0.997396  0.840313  1
  N  N73  1  1.000103  1.000103  0.879988  1
  N  N74  1  0.003586  0.003586  0.959570  1
