# generated using pymatgen
data_Ba2Ca3Tl2(CuO3)4
_symmetry_space_group_name_H-M   'P 1'
_cell_length_a   3.88122299
_cell_length_b   3.88122270
_cell_length_c   21.79863908
_cell_angle_alpha   95.10748405
_cell_angle_beta   95.10748366
_cell_angle_gamma   89.99999439
_symmetry_Int_Tables_number   1
_chemical_formula_structural   Ba2Ca3Tl2(CuO3)4
_chemical_formula_sum   'Ba2 Ca3 Tl2 Cu4 O12'
_cell_volume   325.75946015
_cell_formula_units_Z   1
loop_
 _symmetry_equiv_pos_site_id
 _symmetry_equiv_pos_as_xyz
  1  'x, y, z'
loop_
 _atom_site_type_symbol
 _atom_site_label
 _atom_site_symmetry_multiplicity
 _atom_site_fract_x
 _atom_site_fract_y
 _atom_site_fract_z
 _atom_site_occupancy
  Ba  Ba0  1  0.156988  0.156988  0.313975  1
  Ba  Ba1  1  0.843012  0.843012  0.686025  1
  Ca  Ca2  1  0.075032  0.075032  0.150064  1
  Ca  Ca3  1  0.924968  0.924968  0.849936  1
  Ca  Ca4  1  0.000000  0.000000  0.000000  1
  Tl  Tl5  1  0.723493  0.723493  0.446985  1
  Tl  Tl6  1  0.276507  0.276507  0.553015  1
  Cu  Cu7  1  0.537541  0.537541  0.075082  1
  Cu  Cu8  1  0.389915  0.389915  0.779830  1
  Cu  Cu9  1  0.610085  0.610085  0.220170  1
  Cu  Cu10  1  0.462459  0.462459  0.924918  1
  O  O11  1  0.389031  0.889031  0.778062  1
  O  O12  1  0.537169  0.037169  0.074339  1
  O  O13  1  0.228285  0.228285  0.456570  1
  O  O14  1  0.962831  0.462831  0.925661  1
  O  O15  1  0.771715  0.771715  0.543430  1
  O  O16  1  0.110969  0.610969  0.221938  1
  O  O17  1  0.610969  0.110969  0.221938  1
  O  O18  1  0.323497  0.323497  0.646994  1
  O  O19  1  0.889031  0.389031  0.778062  1
  O  O20  1  0.037169  0.537169  0.074339  1
  O  O21  1  0.462831  0.962831  0.925661  1
  O  O22  1  0.676503  0.676503  0.353006  1
