# generated using pymatgen
data_Li4Ga3Si3BrO12
_symmetry_space_group_name_H-M   'P 1'
_cell_length_a   8.66876377
_cell_length_b   8.66876377
_cell_length_c   8.66876377
_cell_angle_alpha   90.00000000
_cell_angle_beta   90.00000000
_cell_angle_gamma   90.00000000
_symmetry_Int_Tables_number   1
_chemical_formula_structural   Li4Ga3Si3BrO12
_chemical_formula_sum   'Li8 Ga6 Si6 Br2 O24'
_cell_volume   651.43562460
_cell_formula_units_Z   2
loop_
 _symmetry_equiv_pos_site_id
 _symmetry_equiv_pos_as_xyz
  1  'x, y, z'
loop_
 _atom_site_type_symbol
 _atom_site_label
 _atom_site_symmetry_multiplicity
 _atom_site_fract_x
 _atom_site_fract_y
 _atom_site_fract_z
 _atom_site_occupancy
  Li  Li0  1  0.320905  0.320905  0.679095  1
  Li  Li1  1  0.179095  0.820905  0.820905  1
  Li  Li2  1  0.320905  0.679095  0.320905  1
  Li  Li3  1  0.820905  0.179095  0.820905  1
  Li  Li4  1  0.179095  0.179095  0.179095  1
  Li  Li5  1  0.679095  0.679095  0.679095  1
  Li  Li6  1  0.679095  0.320905  0.320905  1
  Li  Li7  1  0.820905  0.820905  0.179095  1
  Ga  Ga8  1  0.000000  0.750000  0.500000  1
  Ga  Ga9  1  0.250000  0.500000  0.000000  1
  Ga  Ga10  1  0.500000  0.000000  0.750000  1
  Ga  Ga11  1  0.500000  0.000000  0.250000  1
  Ga  Ga12  1  0.000000  0.250000  0.500000  1
  Ga  Ga13  1  0.750000  0.500000  0.000000  1
  Si  Si14  1  0.000000  0.500000  0.250000  1
  Si  Si15  1  0.500000  0.750000  0.000000  1
  Si  Si16  1  0.500000  0.250000  0.000000  1
  Si  Si17  1  0.000000  0.500000  0.750000  1
  Si  Si18  1  0.750000  0.000000  0.500000  1
  Si  Si19  1  0.250000  0.000000  0.500000  1
  Br  Br20  1  0.000000  0.000000  0.000000  1
  Br  Br21  1  0.500000  0.500000  0.500000  1
  O  O22  1  0.904569  0.627969  0.646987  1
  O  O23  1  0.404569  0.853013  0.872031  1
  O  O24  1  0.095431  0.372031  0.646987  1
  O  O25  1  0.853013  0.872031  0.404569  1
  O  O26  1  0.404569  0.146987  0.127969  1
  O  O27  1  0.646987  0.095431  0.372031  1
  O  O28  1  0.372031  0.353013  0.904569  1
  O  O29  1  0.353013  0.904569  0.372031  1
  O  O30  1  0.595431  0.853013  0.127969  1
  O  O31  1  0.146987  0.127969  0.404569  1
  O  O32  1  0.595431  0.146987  0.872031  1
  O  O33  1  0.872031  0.595431  0.146987  1
  O  O34  1  0.146987  0.872031  0.595431  1
  O  O35  1  0.372031  0.646987  0.095431  1
  O  O36  1  0.127969  0.595431  0.853013  1
  O  O37  1  0.627969  0.646987  0.904569  1
  O  O38  1  0.127969  0.404569  0.146987  1
  O  O39  1  0.353013  0.095431  0.627969  1
  O  O40  1  0.095431  0.627969  0.353013  1
  O  O41  1  0.872031  0.404569  0.853013  1
  O  O42  1  0.627969  0.353013  0.095431  1
  O  O43  1  0.646987  0.904569  0.627969  1
  O  O44  1  0.904569  0.372031  0.353013  1
  O  O45  1  0.853013  0.127969  0.595431  1
