# generated using pymatgen
data_Ca2Al2FeSi4BHO16
_symmetry_space_group_name_H-M   'P 1'
_cell_length_a   7.20375628
_cell_length_b   9.08780449
_cell_length_c   9.33218499
_cell_angle_alpha   88.47775099
_cell_angle_beta   77.36557591
_cell_angle_gamma   81.75729470
_symmetry_Int_Tables_number   1
_chemical_formula_structural   Ca2Al2FeSi4BHO16
_chemical_formula_sum   'Ca4 Al4 Fe2 Si8 B2 H2 O32'
_cell_volume   589.98449250
_cell_formula_units_Z   2
loop_
 _symmetry_equiv_pos_site_id
 _symmetry_equiv_pos_as_xyz
  1  'x, y, z'
loop_
 _atom_site_type_symbol
 _atom_site_label
 _atom_site_symmetry_multiplicity
 _atom_site_fract_x
 _atom_site_fract_y
 _atom_site_fract_z
 _atom_site_occupancy
  H  H0  1  0.989632  0.625141  0.041496  1
  H  H1  1  0.010369  0.374859  0.958504  1
  B  B2  1  0.538052  0.288079  0.365311  1
  B  B3  1  0.461947  0.711921  0.634689  1
  O  O4  1  0.875011  0.066135  0.156802  1
  O  O5  1  0.324722  0.646723  0.746098  1
  O  O6  1  0.204264  0.178046  0.121484  1
  O  O7  1  0.795737  0.821954  0.878516  1
  O  O8  1  0.277871  0.384528  0.898308  1
  O  O9  1  0.722130  0.615472  0.101692  1
  O  O10  1  0.564409  0.245370  0.016243  1
  O  O11  1  0.435591  0.754630  0.983757  1
  O  O12  1  0.400472  0.086642  0.864614  1
  O  O13  1  0.599528  0.913358  0.135386  1
  O  O14  1  0.238560  0.138013  0.633697  1
  O  O15  1  0.761440  0.861987  0.366303  1
  O  O16  1  0.124988  0.933865  0.843198  1
  O  O17  1  0.675278  0.353277  0.253902  1
  O  O18  1  0.096816  0.678086  0.993090  1
  O  O19  1  0.903184  0.321913  0.006911  1
  O  O20  1  0.049415  0.810571  0.603664  1
  O  O21  1  0.950586  0.189429  0.396336  1
  O  O22  1  0.225595  0.902895  0.338760  1
  O  O23  1  0.774406  0.097106  0.661240  1
  O  O24  1  0.416608  0.690596  0.488470  1
  O  O25  1  0.583393  0.309404  0.511530  1
  O  O26  1  0.133912  0.630506  0.371586  1
  O  O27  1  0.469279  0.874619  0.658641  1
  O  O28  1  0.021213  0.434187  0.245335  1
  O  O29  1  0.978786  0.565813  0.754665  1
  O  O30  1  0.329679  0.359828  0.381990  1
  O  O31  1  0.670320  0.640173  0.618010  1
  O  O32  1  0.380107  0.503072  0.126854  1
  O  O33  1  0.619892  0.496928  0.873146  1
  O  O34  1  0.530720  0.125382  0.341359  1
  O  O35  1  0.866087  0.369494  0.628414  1
  Al  Al36  1  0.351487  0.579146  0.935762  1
  Al  Al37  1  0.052582  0.745891  0.800007  1
  Al  Al38  1  0.947419  0.254109  0.199993  1
  Al  Al39  1  0.648512  0.420854  0.064238  1
  Si  Si40  1  0.358215  0.231437  0.979001  1
  Si  Si41  1  0.219852  0.476421  0.275248  1
  Si  Si42  1  0.792373  0.234402  0.549279  1
  Si  Si43  1  0.207627  0.765598  0.450721  1
  Si  Si44  1  0.695687  0.989809  0.255731  1
  Si  Si45  1  0.780149  0.523579  0.724751  1
  Si  Si46  1  0.304312  0.010191  0.744269  1
  Si  Si47  1  0.641786  0.768563  0.020999  1
  Ca  Ca48  1  0.814026  0.080824  0.900686  1
  Ca  Ca49  1  0.185974  0.919176  0.099314  1
  Ca  Ca50  1  0.251655  0.393050  0.652795  1
  Ca  Ca51  1  0.748346  0.606950  0.347203  1
  Fe  Fe52  1  0.232492  0.108223  0.413963  1
  Fe  Fe53  1  0.767509  0.891777  0.586037  1
