# generated using pymatgen
data_Gd2WO6
_symmetry_space_group_name_H-M   'P 1'
_cell_length_a   5.34936074
_cell_length_b   9.27052573
_cell_length_c   10.12302775
_cell_angle_alpha   90.00000000
_cell_angle_beta   90.00000000
_cell_angle_gamma   90.00000000
_symmetry_Int_Tables_number   1
_chemical_formula_structural   Gd2WO6
_chemical_formula_sum   'Gd8 W4 O24'
_cell_volume   502.01498048
_cell_formula_units_Z   4
loop_
 _symmetry_equiv_pos_site_id
 _symmetry_equiv_pos_as_xyz
  1  'x, y, z'
loop_
 _atom_site_type_symbol
 _atom_site_label
 _atom_site_symmetry_multiplicity
 _atom_site_fract_x
 _atom_site_fract_y
 _atom_site_fract_z
 _atom_site_occupancy
  O  O0  1  0.253538  0.088260  0.506499  1
  O  O1  1  0.753538  0.411740  0.493501  1
  O  O2  1  0.746462  0.588260  0.993501  1
  O  O3  1  0.246462  0.911740  0.006499  1
  O  O4  1  0.729081  0.114498  0.567855  1
  O  O5  1  0.229081  0.385502  0.432144  1
  O  O6  1  0.270919  0.614498  0.932145  1
  O  O7  1  0.770919  0.885502  0.067855  1
  O  O8  1  0.184402  0.864112  0.680170  1
  O  O9  1  0.684402  0.635888  0.319830  1
  O  O10  1  0.815598  0.364112  0.819830  1
  O  O11  1  0.315598  0.135888  0.180170  1
  O  O12  1  0.188987  0.859801  0.262062  1
  O  O13  1  0.688987  0.640199  0.737938  1
  O  O14  1  0.811013  0.359801  0.237938  1
  O  O15  1  0.311013  0.140199  0.762062  1
  O  O16  1  0.828147  0.048087  0.295641  1
  O  O17  1  0.328147  0.451913  0.704359  1
  O  O18  1  0.171853  0.548087  0.204359  1
  O  O19  1  0.671853  0.951913  0.795641  1
  O  O20  1  0.915064  0.154931  0.030786  1
  O  O21  1  0.415064  0.345069  0.969214  1
  O  O22  1  0.084936  0.654931  0.469214  1
  O  O23  1  0.584936  0.845069  0.530786  1
  Gd  Gd24  1  0.480838  0.603761  0.535909  1
  Gd  Gd25  1  0.980838  0.896239  0.464091  1
  Gd  Gd26  1  0.519162  0.103761  0.964091  1
  Gd  Gd27  1  0.019162  0.396239  0.035909  1
  Gd  Gd28  1  0.962521  0.781304  0.869398  1
  Gd  Gd29  1  0.462521  0.718696  0.130602  1
  Gd  Gd30  1  0.037479  0.281304  0.630602  1
  Gd  Gd31  1  0.537479  0.218696  0.369398  1
  W  W32  1  0.461010  0.996098  0.650412  1
  W  W33  1  0.961010  0.503902  0.349588  1
  W  W34  1  0.538990  0.496098  0.849588  1
  W  W35  1  0.038990  0.003902  0.150412  1
