# generated using pymatgen
data_AsSeI
_symmetry_space_group_name_H-M   'P 1'
_cell_length_a   4.03516810
_cell_length_b   9.60393260
_cell_length_c   10.33096497
_cell_angle_alpha   87.39752118
_cell_angle_beta   90.00000000
_cell_angle_gamma   90.00000000
_symmetry_Int_Tables_number   1
_chemical_formula_structural   AsSeI
_chemical_formula_sum   'As4 Se4 I4'
_cell_volume   399.94794022
_cell_formula_units_Z   4
loop_
 _symmetry_equiv_pos_site_id
 _symmetry_equiv_pos_as_xyz
  1  'x, y, z'
loop_
 _atom_site_type_symbol
 _atom_site_label
 _atom_site_symmetry_multiplicity
 _atom_site_fract_x
 _atom_site_fract_y
 _atom_site_fract_z
 _atom_site_occupancy
  I  I0  1  0.461488  0.706228  0.073482  1
  I  I1  1  0.961488  0.793772  0.426518  1
  I  I2  1  0.538512  0.293772  0.926518  1
  I  I3  1  0.038512  0.206228  0.573482  1
  Se  Se4  1  0.934211  0.893573  0.803009  1
  Se  Se5  1  0.434211  0.606427  0.696991  1
  Se  Se6  1  0.065789  0.106427  0.196991  1
  Se  Se7  1  0.565789  0.393573  0.303009  1
  As  As8  1  0.883262  0.644781  0.865421  1
  As  As9  1  0.383262  0.855219  0.634579  1
  As  As10  1  0.116738  0.355219  0.134579  1
  As  As11  1  0.616738  0.144781  0.365421  1
