# generated using pymatgen
data_BaHg2(ClO)2
_symmetry_space_group_name_H-M   'P 1'
_cell_length_a   4.37539369
_cell_length_b   12.13352540
_cell_length_c   12.13352540
_cell_angle_alpha   90.00000000
_cell_angle_beta   90.00000000
_cell_angle_gamma   90.00000000
_symmetry_Int_Tables_number   1
_chemical_formula_structural   BaHg2(ClO)2
_chemical_formula_sum   'Ba4 Hg8 Cl8 O8'
_cell_volume   644.15612902
_cell_formula_units_Z   4
loop_
 _symmetry_equiv_pos_site_id
 _symmetry_equiv_pos_as_xyz
  1  'x, y, z'
loop_
 _atom_site_type_symbol
 _atom_site_label
 _atom_site_symmetry_multiplicity
 _atom_site_fract_x
 _atom_site_fract_y
 _atom_site_fract_z
 _atom_site_occupancy
  Ba  Ba0  1  0.000000  0.136048  0.636048  1
  Ba  Ba1  1  0.000000  0.863952  0.363952  1
  Ba  Ba2  1  0.000000  0.363952  0.136048  1
  Ba  Ba3  1  0.000000  0.636048  0.863952  1
  Hg  Hg4  1  0.500000  0.422234  0.672900  1
  Hg  Hg5  1  0.500000  0.577766  0.327100  1
  Hg  Hg6  1  0.500000  0.077766  0.172900  1
  Hg  Hg7  1  0.500000  0.672900  0.577766  1
  Hg  Hg8  1  0.500000  0.922234  0.827100  1
  Hg  Hg9  1  0.500000  0.827100  0.077766  1
  Hg  Hg10  1  0.500000  0.172900  0.922234  1
  Hg  Hg11  1  0.500000  0.327100  0.422234  1
  Cl  Cl12  1  0.500000  0.000000  0.500000  1
  Cl  Cl13  1  0.000000  0.172554  0.327446  1
  Cl  Cl14  1  0.000000  0.827446  0.672554  1
  Cl  Cl15  1  0.000000  0.327446  0.827446  1
  Cl  Cl16  1  0.000000  0.000000  0.000000  1
  Cl  Cl17  1  0.000000  0.500000  0.500000  1
  Cl  Cl18  1  0.000000  0.672554  0.172554  1
  Cl  Cl19  1  0.500000  0.500000  0.000000  1
  O  O20  1  0.500000  0.271218  0.586350  1
  O  O21  1  0.500000  0.728782  0.413650  1
  O  O22  1  0.500000  0.413650  0.271218  1
  O  O23  1  0.500000  0.771218  0.913650  1
  O  O24  1  0.500000  0.913650  0.228782  1
  O  O25  1  0.500000  0.228782  0.086350  1
  O  O26  1  0.500000  0.086350  0.771218  1
  O  O27  1  0.500000  0.586350  0.728782  1
