# generated using pymatgen
data_V6Zn3(FeO6)4
_symmetry_space_group_name_H-M   'P 1'
_cell_length_a   6.77062883
_cell_length_b   8.14885858
_cell_length_c   9.95296462
_cell_angle_alpha   105.46719990
_cell_angle_beta   104.99746535
_cell_angle_gamma   102.26969979
_symmetry_Int_Tables_number   1
_chemical_formula_structural   V6Zn3(FeO6)4
_chemical_formula_sum   'V6 Zn3 Fe4 O24'
_cell_volume   487.28289571
_cell_formula_units_Z   1
loop_
 _symmetry_equiv_pos_site_id
 _symmetry_equiv_pos_as_xyz
  1  'x, y, z'
loop_
 _atom_site_type_symbol
 _atom_site_label
 _atom_site_symmetry_multiplicity
 _atom_site_fract_x
 _atom_site_fract_y
 _atom_site_fract_z
 _atom_site_occupancy
  V  V0  1  0.895901  0.902353  0.666308  1
  V  V1  1  0.104099  0.097647  0.333692  1
  V  V2  1  0.222190  0.658676  0.270726  1
  V  V3  1  0.777810  0.341324  0.729274  1
  V  V4  1  0.595359  0.272961  0.127773  1
  V  V5  1  0.404641  0.727039  0.872227  1
  Zn  Zn6  1  0.000000  0.500000  0.500000  1
  Zn  Zn7  1  0.714886  0.708797  0.203846  1
  Zn  Zn8  1  0.285114  0.291203  0.796154  1
  Fe  Fe9  1  0.380232  0.950726  0.607514  1
  Fe  Fe10  1  0.619768  0.049274  0.392486  1
  Fe  Fe11  1  0.041768  0.209408  0.015372  1
  Fe  Fe12  1  0.958232  0.790592  0.984628  1
  O  O13  1  0.074088  0.056102  0.143777  1
  O  O14  1  0.925912  0.943898  0.856223  1
  O  O15  1  0.558372  0.137044  0.232036  1
  O  O16  1  0.441628  0.862956  0.767964  1
  O  O17  1  0.180649  0.439583  0.183332  1
  O  O18  1  0.819351  0.560417  0.816668  1
  O  O19  1  0.983376  0.278056  0.833694  1
  O  O20  1  0.016624  0.721944  0.166306  1
  O  O21  1  0.236185  0.783863  0.966879  1
  O  O22  1  0.763815  0.216137  0.033121  1
  O  O23  1  0.869164  0.972520  0.348043  1
  O  O24  1  0.130836  0.027480  0.651957  1
  O  O25  1  0.527302  0.224001  0.728916  1
  O  O26  1  0.472698  0.775999  0.271084  1
  O  O27  1  0.346474  0.253352  0.995447  1
  O  O28  1  0.653526  0.746648  0.004553  1
  O  O29  1  0.332546  0.040581  0.425726  1
  O  O30  1  0.667454  0.959419  0.574274  1
  O  O31  1  0.213730  0.698182  0.455011  1
  O  O32  1  0.786270  0.301818  0.544989  1
  O  O33  1  0.720608  0.489990  0.252293  1
  O  O34  1  0.279392  0.510010  0.747707  1
  O  O35  1  0.123650  0.312227  0.415633  1
  O  O36  1  0.876350  0.687773  0.584367  1
