# generated using pymatgen
data_La2C2Cl
_symmetry_space_group_name_H-M   'P 1'
_cell_length_a   4.21753219
_cell_length_b   6.84496268
_cell_length_c   7.81315257
_cell_angle_alpha   101.62293059
_cell_angle_beta   105.65828776
_cell_angle_gamma   89.99999927
_symmetry_Int_Tables_number   1
_chemical_formula_structural   La2C2Cl
_chemical_formula_sum   'La4 C4 Cl2'
_cell_volume   212.37865637
_cell_formula_units_Z   2
loop_
 _symmetry_equiv_pos_site_id
 _symmetry_equiv_pos_as_xyz
  1  'x, y, z'
loop_
 _atom_site_type_symbol
 _atom_site_label
 _atom_site_symmetry_multiplicity
 _atom_site_fract_x
 _atom_site_fract_y
 _atom_site_fract_z
 _atom_site_occupancy
  La  La0  1  0.551122  0.848933  0.702167  1
  La  La1  1  0.151045  0.348933  0.702167  1
  La  La2  1  0.448878  0.151067  0.297833  1
  La  La3  1  0.848955  0.651067  0.297833  1
  C  C4  1  0.359522  0.527090  0.445143  1
  C  C5  1  0.914380  0.972910  0.554857  1
  C  C6  1  0.640478  0.472910  0.554857  1
  C  C7  1  0.085620  0.027090  0.445143  1
  Cl  Cl8  1  0.784944  0.250000  0.000000  1
  Cl  Cl9  1  0.215056  0.750000  1.000000  1
