# generated using pymatgen
data_Y16B4C8I19
_symmetry_space_group_name_H-M   'P 1'
_cell_length_a   12.60743290
_cell_length_b   14.48376449
_cell_length_c   19.84286158
_cell_angle_alpha   75.28856983
_cell_angle_beta   89.61434999
_cell_angle_gamma   67.21860185
_symmetry_Int_Tables_number   1
_chemical_formula_structural   Y16B4C8I19
_chemical_formula_sum   'Y32 B8 C16 I38'
_cell_volume   3214.09458904
_cell_formula_units_Z   2
loop_
 _symmetry_equiv_pos_site_id
 _symmetry_equiv_pos_as_xyz
  1  'x, y, z'
loop_
 _atom_site_type_symbol
 _atom_site_label
 _atom_site_symmetry_multiplicity
 _atom_site_fract_x
 _atom_site_fract_y
 _atom_site_fract_z
 _atom_site_occupancy
  Y  Y0  1  0.685395  0.340557  0.779339  1
  Y  Y1  1  0.429542  0.347509  0.778309  1
  Y  Y2  1  0.314605  0.659443  0.220661  1
  Y  Y3  1  0.601870  0.264831  0.956929  1
  Y  Y4  1  0.678708  0.710965  0.456061  1
  Y  Y5  1  0.140503  0.728054  0.458144  1
  Y  Y6  1  0.360880  0.504621  0.591536  1
  Y  Y7  1  0.556429  0.651647  0.720849  1
  Y  Y8  1  0.602041  0.263986  0.627091  1
  Y  Y9  1  0.861149  0.276756  0.043949  1
  Y  Y10  1  0.674829  0.714459  0.958142  1
  Y  Y11  1  0.594956  0.262793  0.127357  1
  Y  Y12  1  0.138851  0.723244  0.956051  1
  Y  Y13  1  0.321292  0.289035  0.543939  1
  Y  Y14  1  0.398130  0.735169  0.043071  1
  Y  Y15  1  0.405044  0.737207  0.872643  1
  Y  Y16  1  0.362342  0.502308  0.908282  1
  Y  Y17  1  0.637658  0.497692  0.091718  1
  Y  Y18  1  0.859497  0.271946  0.541856  1
  Y  Y19  1  0.300029  0.659944  0.721987  1
  Y  Y20  1  0.595043  0.264610  0.456976  1
  Y  Y21  1  0.633588  0.496716  0.592096  1
  Y  Y22  1  0.633617  0.497410  0.908002  1
  Y  Y23  1  0.366383  0.502590  0.091998  1
  Y  Y24  1  0.570458  0.652491  0.221691  1
  Y  Y25  1  0.639120  0.495379  0.408464  1
  Y  Y26  1  0.325171  0.285541  0.041858  1
  Y  Y27  1  0.404957  0.735390  0.543024  1
  Y  Y28  1  0.366412  0.503284  0.407904  1
  Y  Y29  1  0.443571  0.348353  0.279151  1
  Y  Y30  1  0.699971  0.340056  0.278013  1
  Y  Y31  1  0.397959  0.736014  0.372909  1
  B  B32  1  0.491985  0.501147  0.794746  1
  B  B33  1  0.529223  0.430115  0.513009  1
  B  B34  1  0.508015  0.498853  0.205254  1
  B  B35  1  0.529247  0.430101  0.012981  1
  B  B36  1  0.470753  0.569899  0.987019  1
  B  B37  1  0.507713  0.500710  0.294668  1
  B  B38  1  0.492287  0.499290  0.705332  1
  B  B39  1  0.470777  0.569885  0.486991  1
  C  C40  1  0.333968  0.635932  0.474733  1
  C  C41  1  0.539265  0.391775  0.684365  1
  C  C42  1  0.550146  0.391698  0.183998  1
  C  C43  1  0.555055  0.630061  0.975042  1
  C  C44  1  0.446284  0.368634  0.524221  1
  C  C45  1  0.460735  0.608225  0.315635  1
  C  C46  1  0.665943  0.363178  0.024477  1
  C  C47  1  0.549163  0.394960  0.355528  1
  C  C48  1  0.444945  0.369939  0.024958  1
  C  C49  1  0.334057  0.636822  0.975523  1
  C  C50  1  0.449854  0.608302  0.816002  1
  C  C51  1  0.538854  0.395246  0.855366  1
  C  C52  1  0.553716  0.631366  0.475779  1
  C  C53  1  0.666032  0.364068  0.525267  1
  C  C54  1  0.450837  0.605040  0.644472  1
  C  C55  1  0.461146  0.604754  0.144634  1
  I  I56  1  0.544611  0.085722  0.052982  1
  I  I57  1  0.383105  0.867752  0.166110  1
  I  I58  1  0.497115  0.905391  0.359089  1
  I  I59  1  0.888313  0.352888  0.175132  1
  I  I60  1  0.384788  0.205037  0.415810  1
  I  I61  1  0.130754  0.193905  0.562132  1
  I  I62  1  0.154331  0.912047  0.856552  1
  I  I63  1  0.126757  0.506038  0.050424  1
  I  I64  1  0.137328  0.812320  0.297527  1
  I  I65  1  0.616895  0.132248  0.833890  1
  I  I66  1  0.862672  0.187680  0.702473  1
  I  I67  1  0.228897  0.366409  0.675198  1
  I  I68  1  0.133140  0.808387  0.083463  1
  I  I69  1  0.249187  0.338608  0.885530  1
  I  I70  1  0.455389  0.914278  0.947018  1
  I  I71  1  0.891706  0.325188  0.384924  1
  I  I72  1  0.108294  0.674812  0.615076  1
  I  I73  1  0.181905  0.922009  0.461040  1
  I  I74  1  0.864512  0.810610  0.942834  1
  I  I75  1  0.194364  0.509786  0.251072  1
  I  I76  1  0.135488  0.189390  0.057166  1
  I  I77  1  0.872631  0.491335  0.549366  1
  I  I78  1  0.750813  0.661392  0.114470  1
  I  I79  1  0.869246  0.806095  0.437868  1
  I  I80  1  0.375748  0.211765  0.202232  1
  I  I81  1  0.805636  0.490214  0.748928  1
  I  I82  1  0.818095  0.077991  0.538960  1
  I  I83  1  0.502885  0.094609  0.640911  1
  I  I84  1  0.615212  0.794963  0.584190  1
  I  I85  1  0.845669  0.087953  0.143449  1
  I  I86  1  0.127369  0.508665  0.450634  1
  I  I87  1  0.316052  0.868514  0.672057  1
  I  I88  1  0.866860  0.191613  0.916537  1
  I  I89  1  0.873243  0.493962  0.949576  1
  I  I90  1  0.771103  0.633591  0.324802  1
  I  I91  1  0.624252  0.788235  0.797768  1
  I  I92  1  0.683948  0.131486  0.327943  1
  I  I93  1  0.111687  0.647112  0.824868  1
