# generated using pymatgen
data_Cs2KFe(CN)6
_symmetry_space_group_name_H-M   'P 1'
_cell_length_a   7.75450079
_cell_length_b   8.21964500
_cell_length_c   11.26370878
_cell_angle_alpha   90.00000000
_cell_angle_beta   90.25362110
_cell_angle_gamma   90.00000000
_symmetry_Int_Tables_number   1
_chemical_formula_structural   Cs2KFe(CN)6
_chemical_formula_sum   'Cs4 K2 Fe2 C12 N12'
_cell_volume   717.93324434
_cell_formula_units_Z   2
loop_
 _symmetry_equiv_pos_site_id
 _symmetry_equiv_pos_as_xyz
  1  'x, y, z'
loop_
 _atom_site_type_symbol
 _atom_site_label
 _atom_site_symmetry_multiplicity
 _atom_site_fract_x
 _atom_site_fract_y
 _atom_site_fract_z
 _atom_site_occupancy
  Cs  Cs0  1  0.979863  0.432640  0.250665  1
  Cs  Cs1  1  0.520137  0.932640  0.249335  1
  Cs  Cs2  1  0.020137  0.567360  0.749335  1
  Cs  Cs3  1  0.479863  0.067360  0.750665  1
  Fe  Fe4  1  0.500000  0.500000  0.500000  1
  Fe  Fe5  1  0.000000  0.000000  0.000000  1
  K  K6  1  0.500000  0.500000  0.000000  1
  K  K7  1  0.000000  0.000000  0.500000  1
  N  N8  1  0.386005  0.539672  0.238523  1
  N  N9  1  0.113995  0.039672  0.261477  1
  N  N10  1  0.613995  0.460328  0.761477  1
  N  N11  1  0.886005  0.960328  0.738523  1
  N  N12  1  0.671626  0.200148  0.052161  1
  N  N13  1  0.828374  0.700148  0.447839  1
  N  N14  1  0.328374  0.799852  0.947839  1
  N  N15  1  0.171626  0.299852  0.552161  1
  N  N16  1  0.196359  0.315175  0.935102  1
  N  N17  1  0.303641  0.815175  0.564898  1
  N  N18  1  0.803641  0.684825  0.064898  1
  N  N19  1  0.696359  0.184825  0.435102  1
  C  C20  1  0.429850  0.522867  0.338074  1
  C  C21  1  0.070150  0.022867  0.161926  1
  C  C22  1  0.570150  0.477133  0.661926  1
  C  C23  1  0.929850  0.977133  0.838074  1
  C  C24  1  0.796889  0.124391  0.031224  1
  C  C25  1  0.703111  0.624391  0.468776  1
  C  C26  1  0.203111  0.875609  0.968776  1
  C  C27  1  0.296889  0.375609  0.531224  1
  C  C28  1  0.121218  0.195448  0.960186  1
  C  C29  1  0.378782  0.695448  0.539814  1
  C  C30  1  0.878782  0.804552  0.039814  1
  C  C31  1  0.621218  0.304552  0.460186  1
