# generated using pymatgen
data_SrAlF5
_symmetry_space_group_name_H-M   'P 1'
_cell_length_a   7.23271836
_cell_length_b   10.80445229
_cell_length_c   10.80631601
_cell_angle_alpha   83.56620296
_cell_angle_beta   70.45043103
_cell_angle_gamma   70.44404094
_symmetry_Int_Tables_number   1
_chemical_formula_structural   SrAlF5
_chemical_formula_sum   'Sr8 Al8 F40'
_cell_volume   749.87936862
_cell_formula_units_Z   8
loop_
 _symmetry_equiv_pos_site_id
 _symmetry_equiv_pos_as_xyz
  1  'x, y, z'
loop_
 _atom_site_type_symbol
 _atom_site_label
 _atom_site_symmetry_multiplicity
 _atom_site_fract_x
 _atom_site_fract_y
 _atom_site_fract_z
 _atom_site_occupancy
  Sr  Sr0  1  0.228575  0.826703  0.723854  1
  Sr  Sr1  1  0.952430  0.276090  0.826679  1
  Sr  Sr2  1  0.055168  0.723917  0.173340  1
  Sr  Sr3  1  0.779111  0.173355  0.276075  1
  Sr  Sr4  1  0.573015  0.177824  0.683750  1
  Sr  Sr5  1  0.256733  0.316182  0.177885  1
  Sr  Sr6  1  0.750857  0.683769  0.822177  1
  Sr  Sr7  1  0.434699  0.822106  0.316189  1
  Al  Al8  1  0.263771  -0.000008  0.999975  1
  Al  Al9  1  0.758744  -0.000015  0.999986  1
  Al  Al10  1  0.003299  0.500023  0.500018  1
  Al  Al11  1  0.503359  0.499970  0.500001  1
  Al  Al12  1  0.184470  0.152672  0.484037  1
  Al  Al13  1  0.668469  0.515981  0.152617  1
  Al  Al14  1  0.337075  0.484082  0.847453  1
  Al  Al15  1  0.821225  0.847382  0.515939  1
  F  F16  1  0.011207  -0.000009  0.000041  1
  F  F17  1  0.511487  0.999932  -0.000107  1
  F  F18  1  0.293386  0.082060  0.842196  1
  F  F19  1  0.135574  0.157768  0.082035  1
  F  F20  1  0.375352  0.842251  0.917863  1
  F  F21  1  0.217751  0.917937  0.157749  1
  F  F22  1  0.806036  0.080762  0.841444  1
  F  F23  1  0.647369  0.158502  0.080757  1
  F  F24  1  0.886850  0.841463  0.919208  1
  F  F25  1  0.728037  0.919222  0.158528  1
  F  F26  1  0.253387  0.499974  0.499986  1
  F  F27  1  0.753388  0.499962  0.500020  1
  F  F28  1  0.117450  0.332262  0.441269  1
  F  F29  1  0.558660  0.558772  0.332209  1
  F  F30  1  0.449633  0.441223  0.667801  1
  F  F31  1  0.890840  0.667796  0.558801  1
  F  F32  1  0.611257  0.326297  0.457165  1
  F  F33  1  0.068113  0.542900  0.326335  1
  F  F34  1  0.937376  0.457217  0.673755  1
  F  F35  1  0.394707  0.673649  0.542855  1
  F  F36  1  0.428731  0.140965  0.352161  1
  F  F37  1  0.780887  0.647793  0.140900  1
  F  F38  1  0.569515  0.352085  0.859254  1
  F  F39  1  0.921759  0.859119  0.647904  1
  F  F40  1  0.082806  0.142287  0.352469  1
  F  F41  1  0.435373  0.647348  0.142120  1
  F  F42  1  0.224717  0.352690  0.857936  1
  F  F43  1  0.577491  0.857886  0.647332  1
  F  F44  1  0.276964  0.186900  0.609632  1
  F  F45  1  0.886608  0.390358  0.186881  1
  F  F46  1  0.463991  0.609544  0.813150  1
  F  F47  1  0.073627  0.813095  0.390432  1
  F  F48  1  0.931237  0.188366  0.608551  1
  F  F49  1  0.539800  0.391363  0.188443  1
  F  F50  1  0.119614  0.608586  0.811647  1
  F  F51  1  0.728288  0.811628  0.391372  1
  F  F52  1  0.257270  0.977029  0.512355  1
  F  F53  1  0.769705  0.487467  0.976970  1
  F  F54  1  0.234249  0.512485  0.023094  1
  F  F55  1  0.746907  0.023033  0.487509  1
