# generated using pymatgen
data_Ba2BiSbO6
_symmetry_space_group_name_H-M   'P 1'
_cell_length_a   6.13126712
_cell_length_b   6.13127966
_cell_length_c   6.13127406
_cell_angle_alpha   60.02739054
_cell_angle_beta   60.02743878
_cell_angle_gamma   60.02733119
_symmetry_Int_Tables_number   1
_chemical_formula_structural   Ba2BiSbO6
_chemical_formula_sum   'Ba2 Bi1 Sb1 O6'
_cell_volume   163.08222559
_cell_formula_units_Z   1
loop_
 _symmetry_equiv_pos_site_id
 _symmetry_equiv_pos_as_xyz
  1  'x, y, z'
loop_
 _atom_site_type_symbol
 _atom_site_label
 _atom_site_symmetry_multiplicity
 _atom_site_fract_x
 _atom_site_fract_y
 _atom_site_fract_z
 _atom_site_occupancy
  O  O0  1  0.732660  0.267139  0.267139  1
  Ba  Ba1  1  0.250169  0.250170  0.250167  1
  O  O2  1  0.267341  0.732861  0.732861  1
  O  O3  1  0.267140  0.267138  0.732660  1
  Bi  Bi4  1  0.000000  0.999999  1.000000  1
  Ba  Ba5  1  0.749830  0.749833  0.749833  1
  O  O6  1  0.267138  0.732659  0.267139  1
  O  O7  1  0.732861  0.267341  0.732862  1
  O  O8  1  0.732861  0.732860  0.267340  1
  Sb  Sb9  1  0.500000  0.500000  0.500000  1
