# generated using pymatgen
data_Ba2CuSi2O7
_symmetry_space_group_name_H-M   'P 1'
_cell_length_a   6.85472182
_cell_length_b   6.85472209
_cell_length_c   8.65954150
_cell_angle_alpha   102.55294583
_cell_angle_beta   102.55294632
_cell_angle_gamma   101.63962417
_symmetry_Int_Tables_number   1
_chemical_formula_structural   Ba2CuSi2O7
_chemical_formula_sum   'Ba4 Si4 Cu2 O14'
_cell_volume   374.19496601
_cell_formula_units_Z   2
loop_
 _symmetry_equiv_pos_site_id
 _symmetry_equiv_pos_as_xyz
  1  'x, y, z'
loop_
 _atom_site_type_symbol
 _atom_site_label
 _atom_site_symmetry_multiplicity
 _atom_site_fract_x
 _atom_site_fract_y
 _atom_site_fract_z
 _atom_site_occupancy
  Ba  Ba0  1  0.187341  0.267153  0.972595  1
  Ba  Ba1  1  0.267153  0.187341  0.472595  1
  Ba  Ba2  1  0.732847  0.812659  0.527405  1
  Ba  Ba3  1  0.812659  0.732847  0.027405  1
  Si  Si4  1  0.384510  0.840065  0.140206  1
  Si  Si5  1  0.615490  0.159935  0.859794  1
  Si  Si6  1  0.159935  0.615490  0.359794  1
  Si  Si7  1  0.840065  0.384510  0.640206  1
  Cu  Cu8  1  0.736852  0.263148  0.250000  1
  Cu  Cu9  1  0.263148  0.736852  0.750000  1
  O  O10  1  0.373013  0.034746  0.764722  1
  O  O11  1  0.626987  0.965254  0.235278  1
  O  O12  1  0.983523  0.223770  0.636818  1
  O  O13  1  0.330556  0.669444  0.250000  1
  O  O14  1  0.688333  0.372530  0.460945  1
  O  O15  1  0.223770  0.983523  0.136818  1
  O  O16  1  0.372530  0.688333  0.960945  1
  O  O17  1  0.016477  0.776230  0.363182  1
  O  O18  1  0.669444  0.330556  0.750000  1
  O  O19  1  0.311667  0.627470  0.539055  1
  O  O20  1  0.965254  0.626987  0.735278  1
  O  O21  1  0.034746  0.373013  0.264722  1
  O  O22  1  0.776230  0.016477  0.863182  1
  O  O23  1  0.627470  0.311667  0.039055  1
