# generated using pymatgen
data_KV4P7O24
_symmetry_space_group_name_H-M   'P 1'
_cell_length_a   10.26458818
_cell_length_b   10.37746195
_cell_length_c   10.84352641
_cell_angle_alpha   108.80334467
_cell_angle_beta   111.68264036
_cell_angle_gamma   104.42620790
_symmetry_Int_Tables_number   1
_chemical_formula_structural   KV4P7O24
_chemical_formula_sum   'K2 V8 P14 O48'
_cell_volume   922.74538592
_cell_formula_units_Z   2
loop_
 _symmetry_equiv_pos_site_id
 _symmetry_equiv_pos_as_xyz
  1  'x, y, z'
loop_
 _atom_site_type_symbol
 _atom_site_label
 _atom_site_symmetry_multiplicity
 _atom_site_fract_x
 _atom_site_fract_y
 _atom_site_fract_z
 _atom_site_occupancy
  K  K0  1  0.540714  0.249103  0.674682  1
  K  K1  1  0.459286  0.750897  0.325318  1
  V  V2  1  0.986368  0.830252  0.411796  1
  V  V3  1  0.499402  0.895192  0.745117  1
  V  V4  1  -0.000032  0.385526  0.075088  1
  V  V5  1  0.489272  0.338451  0.113959  1
  V  V6  1  0.500598  0.104808  0.254883  1
  V  V7  1  0.510728  0.661549  0.886041  1
  V  V8  1  1.000032  0.614474  0.924912  1
  V  V9  1  0.013632  0.169748  0.588204  1
  P  P10  1  0.807376  0.376989  0.565302  1
  P  P11  1  0.749997  0.541291  0.052467  1
  P  P12  1  0.260502  0.035508  0.759444  1
  P  P13  1  0.802706  0.059020  0.739005  1
  P  P14  1  0.772597  0.780841  0.773163  1
  P  P15  1  0.250003  0.458709  0.947533  1
  P  P16  1  0.249314  0.390945  0.521904  1
  P  P17  1  0.267316  0.823393  0.883810  1
  P  P18  1  0.732684  0.176607  0.116190  1
  P  P19  1  0.192624  0.623011  0.434698  1
  P  P20  1  0.197294  0.940980  0.260995  1
  P  P21  1  0.739498  0.964492  0.240556  1
  P  P22  1  0.750686  0.609055  0.478096  1
  P  P23  1  0.227403  0.219159  0.226837  1
  O  O24  1  0.838759  0.440502  0.726920  1
  O  O25  1  0.871210  0.497181  0.009551  1
  O  O26  1  0.880399  0.972842  0.369567  1
  O  O27  1  0.307333  0.336556  0.401447  1
  O  O28  1  0.363393  0.591313  0.951252  1
  O  O29  1  0.394161  0.490944  0.669218  1
  O  O30  1  0.636607  0.408687  0.048748  1
  O  O31  1  0.910436  0.302731  0.539072  1
  O  O32  1  0.089563  0.697269  0.460928  1
  O  O33  1  0.865293  0.314208  0.156659  1
  O  O34  1  0.854561  0.749904  0.492338  1
  O  O35  1  0.837537  0.678218  0.203211  1
  O  O36  1  0.379089  0.782772  0.826516  1
  O  O37  1  0.139172  0.058004  0.206110  1
  O  O38  1  0.627100  0.992480  0.296939  1
  O  O39  1  0.692667  0.663444  0.598553  1
  O  O40  1  0.885412  0.742483  0.869656  1
  O  O41  1  0.372900  0.007520  0.703061  1
  O  O42  1  0.162463  0.321782  0.796789  1
  O  O43  1  0.114588  0.257517  0.130344  1
  O  O44  1  0.652873  0.565270  0.920449  1
  O  O45  1  0.643738  0.059896  0.953698  1
  O  O46  1  0.126391  0.792084  0.124504  1
  O  O47  1  0.119601  0.027158  0.630433  1
  O  O48  1  0.366371  0.722006  0.538468  1
  O  O49  1  0.356262  0.940104  0.046302  1
  O  O50  1  0.152532  0.479839  0.470047  1
  O  O51  1  0.847468  0.520161  0.529953  1
  O  O52  1  0.620911  0.217228  0.173484  1
  O  O53  1  0.633629  0.277994  0.461532  1
  O  O54  1  0.186074  0.895403  0.782789  1
  O  O55  1  0.813926  0.104597  0.217211  1
  O  O56  1  0.605839  0.509056  0.330782  1
  O  O57  1  0.145439  0.250096  0.507662  1
  O  O58  1  0.347127  0.434730  0.079551  1
  O  O59  1  0.145349  0.933997  0.373239  1
  O  O60  1  0.161241  0.559498  0.273080  1
  O  O61  1  0.873609  0.207916  0.875496  1
  O  O62  1  0.365335  0.220744  0.200785  1
  O  O63  1  0.134707  0.685792  0.843341  1
  O  O64  1  0.625852  0.985500  0.661911  1
  O  O65  1  0.338310  0.174848  0.905138  1
  O  O66  1  0.374148  0.014500  0.338089  1
  O  O67  1  0.128790  0.502819  0.990449  1
  O  O68  1  0.860828  0.941996  0.793890  1
  O  O69  1  0.854651  0.066003  0.626761  1
  O  O70  1  0.634665  0.779256  0.799215  1
  O  O71  1  0.661690  0.825152  0.094862  1
