# generated using pymatgen
data_In3Au10
_symmetry_space_group_name_H-M   'P 1'
_cell_length_a   10.78473878
_cell_length_b   10.78473885
_cell_length_c   4.89965699
_cell_angle_alpha   90.00000000
_cell_angle_beta   90.00000000
_cell_angle_gamma   119.99999979
_symmetry_Int_Tables_number   1
_chemical_formula_structural   In3Au10
_chemical_formula_sum   'In6 Au20'
_cell_volume   493.53229158
_cell_formula_units_Z   2
loop_
 _symmetry_equiv_pos_site_id
 _symmetry_equiv_pos_as_xyz
  1  'x, y, z'
loop_
 _atom_site_type_symbol
 _atom_site_label
 _atom_site_symmetry_multiplicity
 _atom_site_fract_x
 _atom_site_fract_y
 _atom_site_fract_z
 _atom_site_occupancy
  Au  Au0  1  0.333333  0.666667  0.250000  1
  Au  Au1  1  0.666667  0.333333  0.750000  1
  Au  Au2  1  0.177806  0.127048  0.250000  1
  Au  Au3  1  0.050758  0.177806  0.750000  1
  Au  Au4  1  0.127048  0.949242  0.750000  1
  Au  Au5  1  0.872952  0.050758  0.250000  1
  Au  Au6  1  0.949242  0.822194  0.250000  1
  Au  Au7  1  0.822194  0.872952  0.750000  1
  Au  Au8  1  0.410641  0.434227  0.250000  1
  Au  Au9  1  0.976414  0.410641  0.750000  1
  Au  Au10  1  0.434227  0.023586  0.750000  1
  Au  Au11  1  0.565773  0.976414  0.250000  1
  Au  Au12  1  0.023586  0.589359  0.250000  1
  Au  Au13  1  0.589359  0.565773  0.750000  1
  Au  Au14  1  0.486163  0.206814  0.250000  1
  Au  Au15  1  0.279349  0.486163  0.750000  1
  Au  Au16  1  0.206814  0.720651  0.750000  1
  Au  Au17  1  0.793186  0.279349  0.250000  1
  Au  Au18  1  0.720651  0.513837  0.250000  1
  Au  Au19  1  0.513837  0.793186  0.750000  1
  In  In20  1  0.104473  0.363211  0.250000  1
  In  In21  1  0.741262  0.104473  0.750000  1
  In  In22  1  0.363211  0.258738  0.750000  1
  In  In23  1  0.636789  0.741262  0.250000  1
  In  In24  1  0.258738  0.895527  0.250000  1
  In  In25  1  0.895527  0.636789  0.750000  1
