# generated using pymatgen
data_SiO2
_symmetry_space_group_name_H-M   'P 1'
_cell_length_a   4.27410250
_cell_length_b   4.31130778
_cell_length_c   7.99161311
_cell_angle_alpha   93.73330027
_cell_angle_beta   90.00000000
_cell_angle_gamma   90.00000000
_symmetry_Int_Tables_number   1
_chemical_formula_structural   SiO2
_chemical_formula_sum   'Si4 O8'
_cell_volume   146.94872924
_cell_formula_units_Z   4
loop_
 _symmetry_equiv_pos_site_id
 _symmetry_equiv_pos_as_xyz
  1  'x, y, z'
loop_
 _atom_site_type_symbol
 _atom_site_label
 _atom_site_symmetry_multiplicity
 _atom_site_fract_x
 _atom_site_fract_y
 _atom_site_fract_z
 _atom_site_occupancy
  Si  Si0  1  0.415566  0.446630  0.194219  1
  Si  Si1  1  0.010962  0.138501  0.678628  1
  Si  Si2  1  0.010962  0.861499  0.321372  1
  Si  Si3  1  0.415566  0.553370  0.805781  1
  O  O4  1  0.333827  0.500000  0.000000  1
  O  O5  1  0.769723  0.626670  0.207859  1
  O  O6  1  0.856657  0.000000  0.500000  1
  O  O7  1  0.222940  0.107518  0.212753  1
  O  O8  1  0.282407  0.623032  0.365589  1
  O  O9  1  0.282407  0.376968  0.634411  1
  O  O10  1  0.769723  0.373330  0.792141  1
  O  O11  1  0.222940  0.892482  0.787247  1
