# generated using pymatgen
data_Sm(NiSn)2
_symmetry_space_group_name_H-M   'P 1'
_cell_length_a   4.39624046
_cell_length_b   4.39623973
_cell_length_c   6.10263982
_cell_angle_alpha   111.11197276
_cell_angle_beta   111.11196838
_cell_angle_gamma   89.99999424
_symmetry_Int_Tables_number   1
_chemical_formula_structural   Sm(NiSn)2
_chemical_formula_sum   'Sm1 Ni2 Sn2'
_cell_volume   101.49626876
_cell_formula_units_Z   1
loop_
 _symmetry_equiv_pos_site_id
 _symmetry_equiv_pos_as_xyz
  1  'x, y, z'
loop_
 _atom_site_type_symbol
 _atom_site_label
 _atom_site_symmetry_multiplicity
 _atom_site_fract_x
 _atom_site_fract_y
 _atom_site_fract_z
 _atom_site_occupancy
  Sm  Sm0  1  0.000000  0.000000  0.000000  1
  Ni  Ni1  1  0.750000  0.250000  0.500000  1
  Ni  Ni2  1  0.250000  0.750000  0.500000  1
  Sn  Sn3  1  0.365314  0.365314  0.730627  1
  Sn  Sn4  1  0.634686  0.634686  0.269373  1
