# generated using pymatgen
data_Li4CO4
_symmetry_space_group_name_H-M   'P 1'
_cell_length_a   4.19174072
_cell_length_b   4.19174087
_cell_length_c   4.19174064
_cell_angle_alpha   91.55772804
_cell_angle_beta   91.55772856
_cell_angle_gamma   91.55773260
_symmetry_Int_Tables_number   1
_chemical_formula_structural   Li4CO4
_chemical_formula_sum   'Li4 C1 O4'
_cell_volume   73.56861197
_cell_formula_units_Z   1
loop_
 _symmetry_equiv_pos_site_id
 _symmetry_equiv_pos_as_xyz
  1  'x, y, z'
loop_
 _atom_site_type_symbol
 _atom_site_label
 _atom_site_symmetry_multiplicity
 _atom_site_fract_x
 _atom_site_fract_y
 _atom_site_fract_z
 _atom_site_occupancy
  Li  Li0  1  0.230814  0.230814  0.230814  1
  Li  Li1  1  0.774789  0.774789  0.206780  1
  Li  Li2  1  0.774789  0.206780  0.774789  1
  Li  Li3  1  0.206780  0.774789  0.774789  1
  C  C4  1  0.518343  0.518343  0.518343  1
  O  O5  1  0.321293  0.710690  0.321293  1
  O  O6  1  0.724570  0.724570  0.724570  1
  O  O7  1  0.321293  0.321293  0.710690  1
  O  O8  1  0.710690  0.321293  0.321293  1
