# generated using pymatgen
data_Tl2SnS3
_symmetry_space_group_name_H-M   'P 1'
_cell_length_a   3.91530555
_cell_length_b   7.52817019
_cell_length_c   11.97321766
_cell_angle_alpha   93.37735138
_cell_angle_beta   99.41025655
_cell_angle_gamma   89.99999725
_symmetry_Int_Tables_number   1
_chemical_formula_structural   Tl2SnS3
_chemical_formula_sum   'Tl4 Sn2 S6'
_cell_volume   347.54114754
_cell_formula_units_Z   2
loop_
 _symmetry_equiv_pos_site_id
 _symmetry_equiv_pos_as_xyz
  1  'x, y, z'
loop_
 _atom_site_type_symbol
 _atom_site_label
 _atom_site_symmetry_multiplicity
 _atom_site_fract_x
 _atom_site_fract_y
 _atom_site_fract_z
 _atom_site_occupancy
  S  S0  1  0.912786  0.985965  0.825572  1
  S  S1  1  0.087214  0.014035  0.174428  1
  S  S2  1  0.910349  0.472771  0.820698  1
  S  S3  1  0.089651  0.527229  0.179302  1
  S  S4  1  0.286326  0.714400  0.572653  1
  S  S5  1  0.713674  0.285600  0.427347  1
  Sn  Sn6  1  0.851752  0.720601  0.703504  1
  Sn  Sn7  1  0.148248  0.279399  0.296496  1
  Tl  Tl8  1  0.661308  0.786020  0.322617  1
  Tl  Tl9  1  0.338692  0.213980  0.677383  1
  Tl  Tl10  1  0.492103  0.747394  0.984207  1
  Tl  Tl11  1  0.507897  0.252606  0.015793  1
