# generated using pymatgen
data_TlH12C4Br4N5
_symmetry_space_group_name_H-M   'P 1'
_cell_length_a   7.17577265
_cell_length_b   10.75182734
_cell_length_c   20.98044071
_cell_angle_alpha   88.67490806
_cell_angle_beta   90.00000000
_cell_angle_gamma   90.00000000
_symmetry_Int_Tables_number   1
_chemical_formula_structural   TlH12C4Br4N5
_chemical_formula_sum   'Tl4 H48 C16 Br16 N20'
_cell_volume   1618.26411247
_cell_formula_units_Z   4
loop_
 _symmetry_equiv_pos_site_id
 _symmetry_equiv_pos_as_xyz
  1  'x, y, z'
loop_
 _atom_site_type_symbol
 _atom_site_label
 _atom_site_symmetry_multiplicity
 _atom_site_fract_x
 _atom_site_fract_y
 _atom_site_fract_z
 _atom_site_occupancy
  Tl  Tl0  1  0.006284  0.206681  0.572256  1
  Tl  Tl1  1  0.993716  0.793319  0.427744  1
  Tl  Tl2  1  0.493716  0.706681  0.072256  1
  Tl  Tl3  1  0.506284  0.293319  0.927744  1
  H  H4  1  0.492664  0.976423  0.251359  1
  H  H5  1  0.001243  0.049413  0.087287  1
  H  H6  1  0.501243  0.450587  0.412713  1
  H  H7  1  0.166117  0.071505  0.192971  1
  H  H8  1  0.896998  0.518185  0.173010  1
  H  H9  1  0.446830  0.926504  0.593397  1
  H  H10  1  0.553170  0.073496  0.406603  1
  H  H11  1  0.517580  0.481603  0.243547  1
  H  H12  1  0.360606  0.314593  0.413887  1
  H  H13  1  0.991943  0.266440  0.298268  1
  H  H14  1  0.764198  0.674937  0.891981  1
  H  H15  1  0.574625  0.177858  0.130081  1
  H  H16  1  0.139394  0.814593  0.913887  1
  H  H17  1  0.425375  0.822142  0.869919  1
  H  H18  1  0.074625  0.322142  0.369919  1
  H  H19  1  0.998757  0.950587  0.912713  1
  H  H20  1  0.744769  0.533522  0.587669  1
  H  H21  1  0.244769  0.966478  0.912331  1
  H  H22  1  0.007336  0.476423  0.751359  1
  H  H23  1  0.507336  0.023577  0.748641  1
  H  H24  1  0.755231  0.033522  0.087669  1
  H  H25  1  0.333883  0.571505  0.692971  1
  H  H26  1  0.543730  0.572872  0.313232  1
  H  H27  1  0.017580  0.018397  0.256453  1
  H  H28  1  0.498757  0.549413  0.587287  1
  H  H29  1  0.925375  0.677858  0.630081  1
  H  H30  1  0.666117  0.428495  0.307029  1
  H  H31  1  0.053170  0.426504  0.093397  1
  H  H32  1  0.456270  0.427128  0.686768  1
  H  H33  1  0.860606  0.185407  0.086113  1
  H  H34  1  0.491943  0.233560  0.201732  1
  H  H35  1  0.639394  0.685407  0.586113  1
  H  H36  1  0.235802  0.325063  0.108019  1
  H  H37  1  0.956270  0.072872  0.813232  1
  H  H38  1  0.946830  0.573496  0.906603  1
  H  H39  1  0.833883  0.928495  0.807029  1
  H  H40  1  0.982420  0.981603  0.743547  1
  H  H41  1  0.735802  0.174937  0.391981  1
  H  H42  1  0.008057  0.733560  0.701732  1
  H  H43  1  0.103002  0.481815  0.826990  1
  H  H44  1  0.264198  0.825063  0.608019  1
  H  H45  1  0.603002  0.018185  0.673010  1
  H  H46  1  0.396998  0.981815  0.326990  1
  H  H47  1  0.508057  0.766440  0.798268  1
  H  H48  1  0.992664  0.523577  0.248641  1
  H  H49  1  0.482420  0.518397  0.756453  1
  H  H50  1  0.043730  0.927128  0.186768  1
  H  H51  1  0.255231  0.466478  0.412331  1
  C  C52  1  0.628034  0.589665  0.605221  1
  C  C53  1  0.738741  0.134807  0.209072  1
  C  C54  1  0.128034  0.910335  0.894779  1
  C  C55  1  0.376123  0.904236  0.687771  1
  C  C56  1  0.464246  0.522223  0.704729  1
  C  C57  1  0.261259  0.865193  0.790928  1
  C  C58  1  0.123877  0.404236  0.187771  1
  C  C59  1  0.035754  0.022223  0.204729  1
  C  C60  1  0.238741  0.365193  0.290928  1
  C  C61  1  0.371966  0.410335  0.394779  1
  C  C62  1  0.623877  0.095764  0.312229  1
  C  C63  1  0.535754  0.477777  0.295271  1
  C  C64  1  0.871966  0.089665  0.105221  1
  C  C65  1  0.876123  0.595764  0.812229  1
  C  C66  1  0.761259  0.634807  0.709072  1
  C  C67  1  0.964246  0.977777  0.795271  1
  Br  Br68  1  0.113507  0.705137  0.318866  1
  Br  Br69  1  0.147253  0.016230  0.422040  1
  Br  Br70  1  0.363314  0.162158  0.024200  1
  Br  Br71  1  0.366991  0.223180  0.566084  1
  Br  Br72  1  0.136685  0.662158  0.524200  1
  Br  Br73  1  0.886493  0.294863  0.681134  1
  Br  Br74  1  0.352747  0.516230  0.922040  1
  Br  Br75  1  0.852747  0.983770  0.577960  1
  Br  Br76  1  0.863314  0.337842  0.475800  1
  Br  Br77  1  0.636686  0.837842  0.975800  1
  Br  Br78  1  0.386493  0.205137  0.818866  1
  Br  Br79  1  0.866991  0.276820  0.933916  1
  Br  Br80  1  0.613507  0.794863  0.181134  1
  Br  Br81  1  0.633009  0.776820  0.433916  1
  Br  Br82  1  0.133009  0.723180  0.066084  1
  Br  Br83  1  0.647253  0.483770  0.077960  1
  N  N84  1  0.411764  0.818674  0.821693  1
  N  N85  1  0.872348  0.625144  0.874500  1
  N  N86  1  0.016973  0.520866  0.793520  1
  N  N87  1  0.516973  0.979134  0.706480  1
  N  N88  1  0.588236  0.181326  0.178307  1
  N  N89  1  0.621188  0.587485  0.674874  1
  N  N90  1  0.372348  0.874856  0.625500  1
  N  N91  1  0.244707  0.858293  0.726453  1
  N  N92  1  0.127652  0.374856  0.125500  1
  N  N93  1  0.378812  0.412515  0.325126  1
  N  N94  1  0.744707  0.641707  0.773547  1
  N  N95  1  0.483027  0.020866  0.293520  1
  N  N96  1  0.121188  0.912515  0.825126  1
  N  N97  1  0.088236  0.318674  0.321693  1
  N  N98  1  0.878812  0.087485  0.174874  1
  N  N99  1  0.911764  0.681326  0.678307  1
  N  N100  1  0.627652  0.125144  0.374500  1
  N  N101  1  0.983027  0.479134  0.206480  1
  N  N102  1  0.255293  0.358293  0.226453  1
  N  N103  1  0.755293  0.141707  0.273547  1
