# generated using pymatgen
data_RbIn(MoO4)2
_symmetry_space_group_name_H-M   'P 1'
_cell_length_a   5.96171746
_cell_length_b   9.11674043
_cell_length_c   15.61509180
_cell_angle_alpha   90.00000000
_cell_angle_beta   90.00000000
_cell_angle_gamma   90.00000000
_symmetry_Int_Tables_number   1
_chemical_formula_structural   RbIn(MoO4)2
_chemical_formula_sum   'Rb4 In4 Mo8 O32'
_cell_volume   848.70257828
_cell_formula_units_Z   4
loop_
 _symmetry_equiv_pos_site_id
 _symmetry_equiv_pos_as_xyz
  1  'x, y, z'
loop_
 _atom_site_type_symbol
 _atom_site_label
 _atom_site_symmetry_multiplicity
 _atom_site_fract_x
 _atom_site_fract_y
 _atom_site_fract_z
 _atom_site_occupancy
  Rb  Rb0  1  0.750000  0.450251  0.875588  1
  Rb  Rb1  1  0.250000  0.549749  0.124412  1
  Rb  Rb2  1  0.250000  0.950251  0.624412  1
  Rb  Rb3  1  0.750000  0.049749  0.375588  1
  In  In4  1  0.250000  0.811659  0.886256  1
  In  In5  1  0.750000  0.188341  0.113744  1
  In  In6  1  0.750000  0.311659  0.613744  1
  In  In7  1  0.250000  0.688341  0.386256  1
  Mo  Mo8  1  0.250000  0.508249  0.716198  1
  Mo  Mo9  1  0.750000  0.491751  0.283802  1
  Mo  Mo10  1  0.750000  0.008249  0.783802  1
  Mo  Mo11  1  0.250000  0.991751  0.216198  1
  Mo  Mo12  1  0.250000  0.211825  0.968853  1
  Mo  Mo13  1  0.750000  0.788175  0.031147  1
  Mo  Mo14  1  0.750000  0.711825  0.531147  1
  Mo  Mo15  1  0.250000  0.288175  0.468853  1
  O  O16  1  0.750000  0.139976  0.864283  1
  O  O17  1  0.250000  0.860024  0.135717  1
  O  O18  1  0.250000  0.639976  0.635717  1
  O  O19  1  0.750000  0.360024  0.364283  1
  O  O20  1  0.002111  0.898625  0.797424  1
  O  O21  1  0.502111  0.101375  0.202576  1
  O  O22  1  0.997889  0.398625  0.702576  1
  O  O23  1  0.497889  0.601375  0.297424  1
  O  O24  1  0.997889  0.101375  0.202576  1
  O  O25  1  0.497889  0.898625  0.797424  1
  O  O26  1  0.002111  0.601375  0.297424  1
  O  O27  1  0.502111  0.398625  0.702576  1
  O  O28  1  0.250000  0.604073  0.818645  1
  O  O29  1  0.750000  0.395927  0.181355  1
  O  O30  1  0.750000  0.104073  0.681355  1
  O  O31  1  0.250000  0.895927  0.318645  1
  O  O32  1  0.250000  0.299133  0.869197  1
  O  O33  1  0.750000  0.700867  0.130803  1
  O  O34  1  0.750000  0.799133  0.630803  1
  O  O35  1  0.250000  0.200867  0.369197  1
  O  O36  1  0.250000  0.016281  0.956867  1
  O  O37  1  0.750000  0.983719  0.043133  1
  O  O38  1  0.750000  0.516281  0.543133  1
  O  O39  1  0.250000  0.483719  0.456867  1
  O  O40  1  0.506058  0.722627  0.971442  1
  O  O41  1  0.006058  0.277373  0.028558  1
  O  O42  1  0.493942  0.222627  0.528558  1
  O  O43  1  0.993942  0.777373  0.471442  1
  O  O44  1  0.493942  0.277373  0.028558  1
  O  O45  1  0.993942  0.722627  0.971442  1
  O  O46  1  0.506058  0.777373  0.471442  1
  O  O47  1  0.006058  0.222627  0.528558  1
