# generated using pymatgen
data_KMo3Br7
_symmetry_space_group_name_H-M   'P 1'
_cell_length_a   14.39333738
_cell_length_b   14.35291640
_cell_length_c   14.12848181
_cell_angle_alpha   90.00000000
_cell_angle_beta   90.00000000
_cell_angle_gamma   90.00000000
_symmetry_Int_Tables_number   1
_chemical_formula_structural   KMo3Br7
_chemical_formula_sum   'K8 Mo24 Br56'
_cell_volume   2918.75174435
_cell_formula_units_Z   8
loop_
 _symmetry_equiv_pos_site_id
 _symmetry_equiv_pos_as_xyz
  1  'x, y, z'
loop_
 _atom_site_type_symbol
 _atom_site_label
 _atom_site_symmetry_multiplicity
 _atom_site_fract_x
 _atom_site_fract_y
 _atom_site_fract_z
 _atom_site_occupancy
  Br  Br0  1  0.047535  0.889670  0.192582  1
  Br  Br1  1  0.047535  0.610330  0.307418  1
  Br  Br2  1  0.072976  0.594354  0.793585  1
  Br  Br3  1  0.072976  0.905646  0.706415  1
  Br  Br4  1  0.096850  0.209049  0.576930  1
  Br  Br5  1  0.096850  0.290951  0.923070  1
  Br  Br6  1  0.107448  0.689972  0.550499  1
  Br  Br7  1  0.107448  0.810028  0.949501  1
  Br  Br8  1  0.130139  0.371330  0.368618  1
  Br  Br9  1  0.130139  0.128670  0.131382  1
  Br  Br10  1  0.190080  0.046726  0.889643  1
  Br  Br11  1  0.190080  0.453274  0.610357  1
  Br  Br12  1  0.210006  0.577109  0.097329  1
  Br  Br13  1  0.210006  0.922891  0.402671  1
  Br  Br14  1  0.289994  0.577109  0.402671  1
  Br  Br15  1  0.289994  0.922891  0.097329  1
  Br  Br16  1  0.309920  0.046726  0.610357  1
  Br  Br17  1  0.309920  0.453274  0.889643  1
  Br  Br18  1  0.369861  0.128670  0.368618  1
  Br  Br19  1  0.369861  0.371330  0.131382  1
  Br  Br20  1  0.392552  0.689972  0.949501  1
  Br  Br21  1  0.392552  0.810028  0.550499  1
  Br  Br22  1  0.403150  0.209049  0.923070  1
  Br  Br23  1  0.403150  0.290951  0.576930  1
  Br  Br24  1  0.427024  0.594354  0.706415  1
  Br  Br25  1  0.427024  0.905646  0.793585  1
  Br  Br26  1  0.452465  0.889670  0.307418  1
  Br  Br27  1  0.452465  0.610330  0.192582  1
  Br  Br28  1  0.547535  0.389670  0.807418  1
  Br  Br29  1  0.547535  0.110330  0.692582  1
  Br  Br30  1  0.572976  0.094354  0.206415  1
  Br  Br31  1  0.572976  0.405646  0.293585  1
  Br  Br32  1  0.596850  0.709049  0.423070  1
  Br  Br33  1  0.596850  0.790951  0.076930  1
  Br  Br34  1  0.607448  0.189972  0.449501  1
  Br  Br35  1  0.607448  0.310028  0.050499  1
  Br  Br36  1  0.630139  0.628670  0.868618  1
  Br  Br37  1  0.630139  0.871330  0.631382  1
  Br  Br38  1  0.690080  0.546726  0.110357  1
  Br  Br39  1  0.690080  0.953274  0.389643  1
  Br  Br40  1  0.710006  0.077109  0.902671  1
  Br  Br41  1  0.710006  0.422891  0.597329  1
  Br  Br42  1  0.789994  0.077109  0.597329  1
  Br  Br43  1  0.789994  0.422891  0.902671  1
  Br  Br44  1  0.809920  0.546726  0.389643  1
  Br  Br45  1  0.809920  0.953274  0.110357  1
  Br  Br46  1  0.869861  0.871330  0.868618  1
  Br  Br47  1  0.869861  0.628670  0.631382  1
  Br  Br48  1  0.892552  0.189972  0.050499  1
  Br  Br49  1  0.892552  0.310028  0.449501  1
  Br  Br50  1  0.903150  0.709049  0.076930  1
  Br  Br51  1  0.903150  0.790951  0.423070  1
  Br  Br52  1  0.927024  0.094354  0.293585  1
  Br  Br53  1  0.927024  0.405646  0.206415  1
  Br  Br54  1  0.952465  0.389670  0.692582  1
  Br  Br55  1  0.952465  0.110330  0.807418  1
  K  K56  1  0.000000  0.000000  0.500000  1
  K  K57  1  0.000000  0.500000  0.000000  1
  K  K58  1  0.250000  0.250000  0.750000  1
  K  K59  1  0.250000  0.750000  0.250000  1
  K  K60  1  0.500000  0.500000  0.500000  1
  K  K61  1  0.500000  0.000000  0.000000  1
  K  K62  1  0.750000  0.250000  0.750000  1
  K  K63  1  0.750000  0.750000  0.250000  1
  Mo  Mo64  1  0.029963  0.540832  0.622590  1
  Mo  Mo65  1  0.029963  0.959168  0.877410  1
  Mo  Mo66  1  0.041230  0.379510  0.530580  1
  Mo  Mo67  1  0.041230  0.120490  0.969420  1
  Mo  Mo68  1  0.119951  0.531542  0.458625  1
  Mo  Mo69  1  0.119951  0.968458  0.041375  1
  Mo  Mo70  1  0.380049  0.968458  0.458625  1
  Mo  Mo71  1  0.380049  0.531542  0.041375  1
  Mo  Mo72  1  0.458770  0.120490  0.530580  1
  Mo  Mo73  1  0.458770  0.379510  0.969420  1
  Mo  Mo74  1  0.470037  0.540832  0.877410  1
  Mo  Mo75  1  0.470037  0.959168  0.622590  1
  Mo  Mo76  1  0.529963  0.040832  0.377410  1
  Mo  Mo77  1  0.529963  0.459168  0.122590  1
  Mo  Mo78  1  0.541230  0.620490  0.030580  1
  Mo  Mo79  1  0.541230  0.879510  0.469420  1
  Mo  Mo80  1  0.619951  0.468458  0.958625  1
  Mo  Mo81  1  0.619951  0.031542  0.541375  1
  Mo  Mo82  1  0.880049  0.031542  0.958625  1
  Mo  Mo83  1  0.880049  0.468458  0.541375  1
  Mo  Mo84  1  0.958770  0.620490  0.469420  1
  Mo  Mo85  1  0.958770  0.879510  0.030580  1
  Mo  Mo86  1  0.970037  0.040832  0.122590  1
  Mo  Mo87  1  0.970037  0.459168  0.377410  1
