# generated using pymatgen
data_Sr2CaCu2(BiO4)2
_symmetry_space_group_name_H-M   'P 1'
_cell_length_a   3.75245639
_cell_length_b   3.75245621
_cell_length_c   16.12815341
_cell_angle_alpha   96.68048930
_cell_angle_beta   96.68048896
_cell_angle_gamma   90.00000507
_symmetry_Int_Tables_number   1
_chemical_formula_structural   Sr2CaCu2(BiO4)2
_chemical_formula_sum   'Sr2 Ca1 Cu2 Bi2 O8'
_cell_volume   224.00489422
_cell_formula_units_Z   1
loop_
 _symmetry_equiv_pos_site_id
 _symmetry_equiv_pos_as_xyz
  1  'x, y, z'
loop_
 _atom_site_type_symbol
 _atom_site_label
 _atom_site_symmetry_multiplicity
 _atom_site_fract_x
 _atom_site_fract_y
 _atom_site_fract_z
 _atom_site_occupancy
  Sr  Sr0  1  0.892123  0.892123  0.784246  1
  Sr  Sr1  1  0.107877  0.107877  0.215754  1
  Ca  Ca2  1  0.000000  0.000000  0.000000  1
  Cu  Cu3  1  0.548042  0.548042  0.096084  1
  Cu  Cu4  1  0.451958  0.451958  0.903916  1
  Bi  Bi5  1  0.301934  0.301934  0.603868  1
  Bi  Bi6  1  0.698066  0.698066  0.396132  1
  O  O7  1  0.197047  0.197047  0.394093  1
  O  O8  1  0.949663  0.449663  0.899327  1
  O  O9  1  0.050336  0.550337  0.100673  1
  O  O10  1  0.802953  0.802953  0.605907  1
  O  O11  1  0.366928  0.366928  0.733856  1
  O  O12  1  0.633072  0.633072  0.266144  1
  O  O13  1  0.449663  0.949663  0.899327  1
  O  O14  1  0.550337  0.050336  0.100673  1
