# generated using pymatgen
data_Ba2ScCl7
_symmetry_space_group_name_H-M   'P 1'
_cell_length_a   7.02761951
_cell_length_b   12.36932980
_cell_length_c   13.60670138
_cell_angle_alpha   90.00000000
_cell_angle_beta   90.00000000
_cell_angle_gamma   96.27033859
_symmetry_Int_Tables_number   1
_chemical_formula_structural   Ba2ScCl7
_chemical_formula_sum   'Ba8 Sc4 Cl28'
_cell_volume   1175.71308159
_cell_formula_units_Z   4
loop_
 _symmetry_equiv_pos_site_id
 _symmetry_equiv_pos_as_xyz
  1  'x, y, z'
loop_
 _atom_site_type_symbol
 _atom_site_label
 _atom_site_symmetry_multiplicity
 _atom_site_fract_x
 _atom_site_fract_y
 _atom_site_fract_z
 _atom_site_occupancy
  Ba  Ba0  1  0.762180  0.255973  0.546576  1
  Ba  Ba1  1  0.261963  0.621909  0.636799  1
  Ba  Ba2  1  0.293926  0.233438  0.868124  1
  Ba  Ba3  1  0.706074  0.766562  0.368124  1
  Ba  Ba4  1  0.749374  0.877227  0.784554  1
  Ba  Ba5  1  0.250626  0.122773  0.284554  1
  Ba  Ba6  1  0.237820  0.744027  0.046576  1
  Ba  Ba7  1  0.738037  0.378091  0.136799  1
  Sc  Sc8  1  0.188189  0.546714  0.344398  1
  Sc  Sc9  1  0.811811  0.453286  0.844398  1
  Sc  Sc10  1  0.794233  0.955805  0.077081  1
  Sc  Sc11  1  0.205767  0.044195  0.577081  1
  Cl  Cl12  1  0.881977  0.637103  0.775972  1
  Cl  Cl13  1  0.027015  0.892834  0.202753  1
  Cl  Cl14  1  0.533770  0.477253  0.948886  1
  Cl  Cl15  1  0.763626  0.763201  0.016955  1
  Cl  Cl16  1  0.376889  0.732484  0.835384  1
  Cl  Cl17  1  0.960809  0.499120  0.485470  1
  Cl  Cl18  1  0.629200  0.770076  0.586666  1
  Cl  Cl19  1  0.547738  0.993614  0.958545  1
  Cl  Cl20  1  0.125351  0.861935  0.644961  1
  Cl  Cl21  1  0.926304  0.603963  0.233643  1
  Cl  Cl22  1  0.427538  0.602422  0.208813  1
  Cl  Cl23  1  0.452262  0.006386  0.458545  1
  Cl  Cl24  1  0.472325  0.091156  0.701140  1
  Cl  Cl25  1  0.527675  0.908844  0.201140  1
  Cl  Cl26  1  0.466230  0.522747  0.448886  1
  Cl  Cl27  1  0.073696  0.396037  0.733643  1
  Cl  Cl28  1  0.623111  0.267516  0.335384  1
  Cl  Cl29  1  0.039191  0.500880  0.985470  1
  Cl  Cl30  1  0.972985  0.107166  0.702753  1
  Cl  Cl31  1  0.118023  0.362897  0.275972  1
  Cl  Cl32  1  0.209959  0.736941  0.408515  1
  Cl  Cl33  1  0.874649  0.138065  0.144961  1
  Cl  Cl34  1  0.572462  0.397578  0.708813  1
  Cl  Cl35  1  0.054210  0.983548  0.948116  1
  Cl  Cl36  1  0.945790  0.016452  0.448116  1
  Cl  Cl37  1  0.790041  0.263059  0.908516  1
  Cl  Cl38  1  0.370800  0.229924  0.086666  1
  Cl  Cl39  1  0.236374  0.236799  0.516955  1
