# generated using pymatgen
data_CsKTeH6SO10
_symmetry_space_group_name_H-M   'P 1'
_cell_length_a   6.70884298
_cell_length_b   12.71474581
_cell_length_c   12.93661993
_cell_angle_alpha   106.58499329
_cell_angle_beta   90.00000000
_cell_angle_gamma   90.00000000
_symmetry_Int_Tables_number   1
_chemical_formula_structural   CsKTeH6SO10
_chemical_formula_sum   'Cs4 K4 Te4 H24 S4 O40'
_cell_volume   1057.60072809
_cell_formula_units_Z   4
loop_
 _symmetry_equiv_pos_site_id
 _symmetry_equiv_pos_as_xyz
  1  'x, y, z'
loop_
 _atom_site_type_symbol
 _atom_site_label
 _atom_site_symmetry_multiplicity
 _atom_site_fract_x
 _atom_site_fract_y
 _atom_site_fract_z
 _atom_site_occupancy
  Cs  Cs0  1  0.020633  0.269330  0.272913  1
  Cs  Cs1  1  0.523301  0.499563  0.498337  1
  Cs  Cs2  1  0.476699  -0.000437  0.998337  1
  Cs  Cs3  1  0.979367  0.769330  0.772913  1
  K  K4  1  0.040696  0.011198  0.478489  1
  K  K5  1  0.959304  0.511198  0.978489  1
  K  K6  1  0.537203  0.749571  0.288652  1
  K  K7  1  0.462797  0.249571  0.788652  1
  Te  Te8  1  0.506665  0.406179  0.118822  1
  Te  Te9  1  0.995549  0.859562  0.150245  1
  Te  Te10  1  0.004451  0.359562  0.650245  1
  Te  Te11  1  0.493335  0.906179  0.618822  1
  H  H12  1  0.508916  0.254292  0.205853  1
  H  H13  1  0.546665  0.069833  0.545843  1
  H  H14  1  0.984293  0.013771  0.067111  1
  H  H15  1  0.744482  0.761435  0.012697  1
  H  H16  1  0.187456  0.320465  0.027101  1
  H  H17  1  0.255518  0.261435  0.512697  1
  H  H18  1  0.271564  0.459007  0.772286  1
  H  H19  1  0.774522  0.248213  0.504866  1
  H  H20  1  0.812544  0.820465  0.527101  1
  H  H21  1  0.688034  0.446572  0.744081  1
  H  H22  1  0.491084  0.754292  0.705853  1
  H  H23  1  0.948529  0.194966  0.720540  1
  H  H24  1  0.051471  0.694966  0.220540  1
  H  H25  1  0.284250  0.520744  0.266589  1
  H  H26  1  0.715750  0.020744  0.766589  1
  H  H27  1  0.225478  0.748213  0.004866  1
  H  H28  1  0.231680  0.803192  0.495476  1
  H  H29  1  0.311966  0.946572  0.244081  1
  H  H30  1  0.768320  0.303192  0.995476  1
  H  H31  1  0.453335  0.569833  0.045843  1
  H  H32  1  0.234655  0.002539  0.751482  1
  H  H33  1  0.728436  0.959007  0.272286  1
  H  H34  1  0.015707  0.513771  0.567111  1
  H  H35  1  0.765345  0.502539  0.251482  1
  S  S36  1  0.997572  0.128560  0.905058  1
  S  S37  1  0.002428  0.628560  0.405058  1
  S  S38  1  0.498043  0.137112  0.363328  1
  S  S39  1  0.501957  0.637112  0.863328  1
  O  O40  1  0.014136  0.730492  0.498672  1
  O  O41  1  0.052589  0.530712  0.441232  1
  O  O42  1  0.947411  0.030712  0.941232  1
  O  O43  1  0.344572  0.850639  0.484189  1
  O  O44  1  0.985864  0.230492  -0.001328  1
  O  O45  1  0.232594  0.879112  0.241280  1
  O  O46  1  0.993236  0.511033  0.643011  1
  O  O47  1  0.365834  0.452449  0.256560  1
  O  O48  1  0.655428  0.350639  0.984189  1
  O  O49  1  0.452289  0.736217  0.829145  1
  O  O50  1  0.767406  0.379112  0.741280  1
  O  O51  1  0.837673  0.909063  0.282665  1
  O  O52  1  0.290612  0.145672  0.406788  1
  O  O53  1  0.513763  0.035988  0.269025  1
  O  O54  1  0.011785  0.207248  0.654886  1
  O  O55  1  0.547711  0.236217  0.329145  1
  O  O56  1  0.762333  0.430156  0.194197  1
  O  O57  1  0.489497  0.256057  0.129305  1
  O  O58  1  0.357070  0.627803  0.949172  1
  O  O59  1  0.149618  0.638186  0.320230  1
  O  O60  1  0.851638  0.318062  0.515945  1
  O  O61  1  0.253453  0.334614  0.568931  1
  O  O62  1  0.148362  0.818062  0.015945  1
  O  O63  1  0.988215  0.707248  0.154886  1
  O  O64  1  0.796855  0.618048  0.359150  1
  O  O65  1  0.237667  0.930156  0.694197  1
  O  O66  1  0.746547  0.834614  0.068931  1
  O  O67  1  0.162327  0.409063  0.782665  1
  O  O68  1  0.519893  0.557135  0.110605  1
  O  O69  1  0.736595  0.889710  0.533109  1
  O  O70  1  0.709388  0.645672  0.906788  1
  O  O71  1  0.634166  0.952449  0.756560  1
  O  O72  1  0.486237  0.535988  0.769025  1
  O  O73  1  0.006764  0.011033  0.143011  1
  O  O74  1  0.642930  0.127803  0.449172  1
  O  O75  1  0.480107  0.057135  0.610605  1
  O  O76  1  0.850382  0.138186  0.820230  1
  O  O77  1  0.263405  0.389710  0.033109  1
  O  O78  1  0.203145  0.118048  0.859150  1
  O  O79  1  0.510503  0.756057  0.629305  1
