# generated using pymatgen
data_KV3P4O17
_symmetry_space_group_name_H-M   'P 1'
_cell_length_a   7.98087321
_cell_length_b   10.13357400
_cell_length_c   16.63049466
_cell_angle_alpha   90.00000000
_cell_angle_beta   90.00000000
_cell_angle_gamma   90.00000000
_symmetry_Int_Tables_number   1
_chemical_formula_structural   KV3P4O17
_chemical_formula_sum   'K4 V12 P16 O68'
_cell_volume   1344.98741828
_cell_formula_units_Z   4
loop_
 _symmetry_equiv_pos_site_id
 _symmetry_equiv_pos_as_xyz
  1  'x, y, z'
loop_
 _atom_site_type_symbol
 _atom_site_label
 _atom_site_symmetry_multiplicity
 _atom_site_fract_x
 _atom_site_fract_y
 _atom_site_fract_z
 _atom_site_occupancy
  K  K0  1  0.994746  0.550206  0.821152  1
  K  K1  1  0.505254  0.449794  0.321152  1
  K  K2  1  0.005254  0.050206  0.678848  1
  K  K3  1  0.494746  0.949794  0.178848  1
  V  V4  1  0.209233  0.748056  0.993576  1
  V  V5  1  0.713419  0.815787  0.347774  1
  V  V6  1  0.786581  0.184213  0.847774  1
  V  V7  1  0.286581  0.315787  0.152226  1
  V  V8  1  0.213419  0.684213  0.652226  1
  V  V9  1  0.709233  0.751944  0.006424  1
  V  V10  1  0.790767  0.248056  0.506424  1
  V  V11  1  0.290767  0.251944  0.493576  1
  V  V12  1  0.712475  0.682611  0.653210  1
  V  V13  1  0.212475  0.817389  0.346790  1
  V  V14  1  0.287525  0.182611  0.846790  1
  V  V15  1  0.787525  0.317389  0.153210  1
  P  P16  1  0.309165  0.367012  0.685569  1
  P  P17  1  0.190835  0.632988  0.185569  1
  P  P18  1  0.690835  0.867012  0.814431  1
  P  P19  1  0.809165  0.132988  0.314431  1
  P  P20  1  0.305233  0.934719  0.534414  1
  P  P21  1  0.805233  0.565281  0.465586  1
  P  P22  1  0.694767  0.434719  0.965586  1
  P  P23  1  0.194767  0.065281  0.034414  1
  P  P24  1  0.309445  0.866165  0.815504  1
  P  P25  1  0.809445  0.633835  0.184496  1
  P  P26  1  0.690555  0.366165  0.684496  1
  P  P27  1  0.190555  0.133835  0.315504  1
  P  P28  1  0.307867  0.433247  0.967049  1
  P  P29  1  0.807867  0.066753  0.032951  1
  P  P30  1  0.692133  0.933247  0.532951  1
  P  P31  1  0.192133  0.566753  0.467049  1
  O  O32  1  0.501710  0.401756  0.977151  1
  O  O33  1  0.001710  0.098244  0.022849  1
  O  O34  1  0.498290  0.901756  0.522849  1
  O  O35  1  0.998290  0.598244  0.477151  1
  O  O36  1  0.500512  0.380325  0.712652  1
  O  O37  1  0.000512  0.119675  0.287348  1
  O  O38  1  0.499488  0.880325  0.787348  1
  O  O39  1  0.999488  0.619675  0.212652  1
  O  O40  1  0.246494  0.870222  0.612292  1
  O  O41  1  0.746494  0.629778  0.387708  1
  O  O42  1  0.753506  0.370222  0.887708  1
  O  O43  1  0.253506  0.129778  0.112292  1
  O  O44  1  0.228438  0.756238  0.767248  1
  O  O45  1  0.728438  0.743762  0.232752  1
  O  O46  1  0.771562  0.256238  0.732752  1
  O  O47  1  0.271562  0.243762  0.267248  1
  O  O48  1  0.274248  0.612293  0.544317  1
  O  O49  1  0.774248  0.887707  0.455683  1
  O  O50  1  0.725752  0.112293  0.955683  1
  O  O51  1  0.225752  0.387707  0.044317  1
  O  O52  1  0.229937  0.500709  0.701174  1
  O  O53  1  0.729937  0.999291  0.298826  1
  O  O54  1  0.770063  0.000709  0.798826  1
  O  O55  1  0.270063  0.499291  0.201174  1
  O  O56  1  0.017720  0.742135  0.960460  1
  O  O57  1  0.317502  0.829493  0.905943  1
  O  O58  1  0.682498  0.329493  0.594057  1
  O  O59  1  0.182498  0.170507  0.405943  1
  O  O60  1  0.290763  0.583457  0.952713  1
  O  O61  1  0.790763  0.916543  0.047288  1
  O  O62  1  0.709237  0.083457  0.547287  1
  O  O63  1  0.209237  0.416543  0.452713  1
  O  O64  1  0.994514  0.318101  0.162176  1
  O  O65  1  0.494514  0.181899  0.837824  1
  O  O66  1  0.005486  0.818101  0.337824  1
  O  O67  1  0.505486  0.681899  0.662176  1
  O  O68  1  0.732168  0.243865  0.264878  1
  O  O69  1  0.232168  0.256135  0.735122  1
  O  O70  1  0.267832  0.743865  0.235122  1
  O  O71  1  0.767832  0.756135  0.764878  1
  O  O72  1  0.494254  0.316790  0.147934  1
  O  O73  1  0.994254  0.183210  0.852066  1
  O  O74  1  0.505746  0.816790  0.352066  1
  O  O75  1  0.005746  0.683210  0.647934  1
  O  O76  1  0.745458  0.134705  0.109140  1
  O  O77  1  0.245458  0.365295  0.890860  1
  O  O78  1  0.254542  0.634705  0.390860  1
  O  O79  1  0.754542  0.865295  0.609140  1
  O  O80  1  0.729778  0.498890  0.197769  1
  O  O81  1  0.229778  0.001110  0.802231  1
  O  O82  1  0.270222  0.998890  0.302231  1
  O  O83  1  0.770222  0.501110  0.697769  1
  O  O84  1  0.780960  0.388585  0.041034  1
  O  O85  1  0.280960  0.111415  0.958966  1
  O  O86  1  0.219040  0.888585  0.458966  1
  O  O87  1  0.719040  0.611415  0.541034  1
  O  O88  1  0.309055  0.330819  0.595436  1
  O  O89  1  0.809055  0.169181  0.404564  1
  O  O90  1  0.690945  0.830819  0.904564  1
  O  O91  1  0.190945  0.669181  0.095436  1
  O  O92  1  0.287691  0.085747  0.548044  1
  O  O93  1  0.787691  0.414253  0.451956  1
  O  O94  1  0.712309  0.585747  0.951956  1
  O  O95  1  0.212309  0.914253  0.048044  1
  O  O96  1  0.482280  0.257865  0.460460  1
  O  O97  1  0.982280  0.242135  0.539540  1
  O  O98  1  0.517720  0.757865  0.039540  1
  O  O99  1  0.817502  0.670507  0.094057  1
