# generated using pymatgen
data_CsCuF4
_symmetry_space_group_name_H-M   'P 1'
_cell_length_a   6.31512908
_cell_length_b   6.31111540
_cell_length_c   7.62241678
_cell_angle_alpha   114.53815279
_cell_angle_beta   114.54564240
_cell_angle_gamma   89.86592490
_symmetry_Int_Tables_number   1
_chemical_formula_structural   CsCuF4
_chemical_formula_sum   'Cs2 Cu2 F8'
_cell_volume   246.00976661
_cell_formula_units_Z   2
loop_
 _symmetry_equiv_pos_site_id
 _symmetry_equiv_pos_as_xyz
  1  'x, y, z'
loop_
 _atom_site_type_symbol
 _atom_site_label
 _atom_site_symmetry_multiplicity
 _atom_site_fract_x
 _atom_site_fract_y
 _atom_site_fract_z
 _atom_site_occupancy
  Cs  Cs0  1  0.250055  0.249941  0.500011  1
  Cs  Cs1  1  0.749945  0.750059  0.499989  1
  Cu  Cu2  1  0.000000  0.500000  0.000000  1
  Cu  Cu3  1  0.500000  0.000000  0.000000  1
  F  F4  1  0.242993  0.742912  0.203038  1
  F  F5  1  0.459556  0.243420  0.203034  1
  F  F6  1  0.743456  0.959614  0.203019  1
  F  F7  1  0.540444  0.756580  0.796966  1
  F  F8  1  0.256544  0.040386  0.796981  1
  F  F9  1  0.040141  0.540141  0.796971  1
  F  F10  1  0.757008  0.257088  0.796962  1
  F  F11  1  0.959859  0.459859  0.203029  1
