# generated using pymatgen
data_K8Zr(MoO4)6
_symmetry_space_group_name_H-M   'P 1'
_cell_length_a   10.45390537
_cell_length_b   12.11706506
_cell_length_c   12.33309513
_cell_angle_alpha   90.00000000
_cell_angle_beta   108.74793373
_cell_angle_gamma   90.00000000
_symmetry_Int_Tables_number   1
_chemical_formula_structural   K8Zr(MoO4)6
_chemical_formula_sum   'K16 Zr2 Mo12 O48'
_cell_volume   1479.35136644
_cell_formula_units_Z   2
loop_
 _symmetry_equiv_pos_site_id
 _symmetry_equiv_pos_as_xyz
  1  'x, y, z'
loop_
 _atom_site_type_symbol
 _atom_site_label
 _atom_site_symmetry_multiplicity
 _atom_site_fract_x
 _atom_site_fract_y
 _atom_site_fract_z
 _atom_site_occupancy
  K  K0  1  0.601938  0.297832  0.794379  1
  K  K1  1  0.887226  0.443694  0.720074  1
  K  K2  1  0.387226  0.056306  0.220074  1
  K  K3  1  0.750806  0.929926  0.391455  1
  K  K4  1  0.749194  0.429926  0.108545  1
  K  K5  1  0.681417  0.779255  0.076936  1
  K  K6  1  0.898062  0.797832  0.705621  1
  K  K7  1  0.612774  0.943694  0.779926  1
  K  K8  1  0.101938  0.202168  0.294379  1
  K  K9  1  0.818583  0.279255  0.423064  1
  K  K10  1  0.318583  0.220745  0.923064  1
  K  K11  1  0.112774  0.556306  0.279926  1
  K  K12  1  0.250806  0.570074  0.891455  1
  K  K13  1  0.398062  0.702168  0.205621  1
  K  K14  1  0.249194  0.070074  0.608545  1
  K  K15  1  0.181417  0.720745  0.576936  1
  Zr  Zr16  1  0.000000  0.000000  0.000000  1
  Zr  Zr17  1  0.500000  0.500000  0.500000  1
  Mo  Mo18  1  0.560403  0.605197  0.794929  1
  Mo  Mo19  1  0.939597  0.105197  0.705071  1
  Mo  Mo20  1  0.439597  0.394803  0.205071  1
  Mo  Mo21  1  0.479631  0.820106  0.493312  1
  Mo  Mo22  1  0.788016  0.607213  0.401557  1
  Mo  Mo23  1  0.520369  0.179894  0.506688  1
  Mo  Mo24  1  0.060403  0.894803  0.294929  1
  Mo  Mo25  1  0.288016  0.892787  0.901557  1
  Mo  Mo26  1  0.979631  0.679894  0.993312  1
  Mo  Mo27  1  0.020369  0.320106  0.006688  1
  Mo  Mo28  1  0.211984  0.392787  0.598443  1
  Mo  Mo29  1  0.711984  0.107213  0.098443  1
  O  O30  1  0.149733  0.654452  0.077772  1
  O  O31  1  0.671893  0.680306  0.286162  1
  O  O32  1  0.306879  0.474988  0.521012  1
  O  O33  1  0.806879  0.025012  0.021012  1
  O  O34  1  0.417828  0.486090  0.088669  1
  O  O35  1  0.402145  0.474772  0.322283  1
  O  O36  1  0.544095  0.118772  0.643422  1
  O  O37  1  0.850267  0.345548  0.922228  1
  O  O38  1  0.597855  0.525228  0.677717  1
  O  O39  1  0.953027  0.831743  0.974224  1
  O  O40  1  0.693121  0.525012  0.478988  1
  O  O41  1  0.336690  0.274776  0.159827  1
  O  O42  1  0.612830  0.016396  0.152419  1
  O  O43  1  0.955905  0.618772  0.856578  1
  O  O44  1  0.046973  0.168258  0.025776  1
  O  O45  1  0.902145  0.025228  0.822283  1
  O  O46  1  0.111275  0.145753  0.752376  1
  O  O47  1  0.171893  0.819694  0.786162  1
  O  O48  1  0.163310  0.774776  0.340173  1
  O  O49  1  0.350267  0.154452  0.422228  1
  O  O50  1  0.604379  0.203950  0.002372  1
  O  O51  1  0.917828  0.013910  0.588669  1
  O  O52  1  0.663310  0.725224  0.840173  1
  O  O53  1  0.887170  0.516396  0.347581  1
  O  O54  1  0.082172  0.986090  0.411331  1
  O  O55  1  0.876652  0.621802  0.068393  1
  O  O56  1  0.123348  0.378198  0.931607  1
  O  O57  1  0.112830  0.483604  0.652419  1
  O  O58  1  0.623348  0.121802  0.431607  1
  O  O59  1  0.611275  0.354247  0.252376  1
  O  O60  1  0.455905  0.881228  0.356578  1
  O  O61  1  0.097855  0.974772  0.177717  1
  O  O62  1  0.453027  0.668257  0.474224  1
  O  O63  1  0.836690  0.225224  0.659827  1
  O  O64  1  0.328107  0.319694  0.713838  1
  O  O65  1  0.888725  0.854247  0.247624  1
  O  O66  1  0.387170  0.983604  0.847581  1
  O  O67  1  0.546973  0.331742  0.525776  1
  O  O68  1  0.582172  0.513910  0.911331  1
  O  O69  1  0.649733  0.845548  0.577772  1
  O  O70  1  0.044095  0.381228  0.143422  1
  O  O71  1  0.193121  0.974988  0.978988  1
  O  O72  1  0.395621  0.796050  0.997628  1
  O  O73  1  0.388725  0.645753  0.747624  1
  O  O74  1  0.376652  0.878198  0.568393  1
  O  O75  1  0.828107  0.180306  0.213838  1
  O  O76  1  0.104379  0.296050  0.502372  1
  O  O77  1  0.895621  0.703950  0.497628  1
