# generated using pymatgen
data_Mn2BiPO6
_symmetry_space_group_name_H-M   'P 1'
_cell_length_a   5.44104945
_cell_length_b   8.22162627
_cell_length_c   12.32741606
_cell_angle_alpha   90.00000000
_cell_angle_beta   90.00000000
_cell_angle_gamma   90.00000000
_symmetry_Int_Tables_number   1
_chemical_formula_structural   Mn2BiPO6
_chemical_formula_sum   'Mn8 Bi4 P4 O24'
_cell_volume   551.45802123
_cell_formula_units_Z   4
loop_
 _symmetry_equiv_pos_site_id
 _symmetry_equiv_pos_as_xyz
  1  'x, y, z'
loop_
 _atom_site_type_symbol
 _atom_site_label
 _atom_site_symmetry_multiplicity
 _atom_site_fract_x
 _atom_site_fract_y
 _atom_site_fract_z
 _atom_site_occupancy
  Mn  Mn0  1  0.750000  0.293455  0.098701  1
  Mn  Mn1  1  0.750000  0.206545  0.598701  1
  Mn  Mn2  1  0.250000  0.706545  0.901299  1
  Mn  Mn3  1  0.250000  0.308879  0.896744  1
  Mn  Mn4  1  0.750000  0.691121  0.103256  1
  Mn  Mn5  1  0.250000  0.191120  0.396744  1
  Mn  Mn6  1  0.250000  0.793455  0.401299  1
  Mn  Mn7  1  0.750000  0.808879  0.603256  1
  Bi  Bi8  1  0.750000  0.513215  0.406886  1
  Bi  Bi9  1  0.250000  0.486785  0.593114  1
  Bi  Bi10  1  0.750000  0.986785  0.906886  1
  Bi  Bi11  1  0.250000  0.013215  0.093114  1
  P  P12  1  0.250000  0.470763  0.197832  1
  P  P13  1  0.250000  0.029237  0.697832  1
  P  P14  1  0.750000  0.529237  0.802168  1
  P  P15  1  0.750000  0.970763  0.302168  1
  O  O16  1  0.487174  0.007451  0.627035  1
  O  O17  1  0.987174  0.992549  0.372964  1
  O  O18  1  0.750000  0.793180  0.259341  1
  O  O19  1  0.512826  0.992549  0.372964  1
  O  O20  1  0.501559  0.666539  0.506435  1
  O  O21  1  0.498441  0.333461  0.493565  1
  O  O22  1  0.250000  0.293180  0.240659  1
  O  O23  1  0.750000  0.706820  0.759341  1
  O  O24  1  0.250000  0.905270  0.791543  1
  O  O25  1  0.998441  0.666539  0.506435  1
  O  O26  1  0.512826  0.507451  0.872965  1
  O  O27  1  0.998441  0.833461  0.006435  1
  O  O28  1  0.498441  0.166539  0.993565  1
  O  O29  1  0.001559  0.333461  0.493565  1
  O  O30  1  0.250000  0.594730  0.291543  1
  O  O31  1  0.012826  0.492549  0.127035  1
  O  O32  1  0.987174  0.507451  0.872965  1
  O  O33  1  0.750000  0.094730  0.208457  1
  O  O34  1  0.750000  0.405270  0.708457  1
  O  O35  1  0.001559  0.166539  0.993565  1
  O  O36  1  0.501559  0.833461  0.006435  1
  O  O37  1  0.487174  0.492549  0.127035  1
  O  O38  1  0.012826  0.007451  0.627035  1
  O  O39  1  0.250000  0.206820  0.740659  1
