# generated using pymatgen
data_Ba2I2O
_symmetry_space_group_name_H-M   'P 1'
_cell_length_a   6.91643901
_cell_length_b   7.72003343
_cell_length_c   8.76311841
_cell_angle_alpha   116.13773168
_cell_angle_beta   113.24243718
_cell_angle_gamma   89.99942669
_symmetry_Int_Tables_number   1
_chemical_formula_structural   Ba2I2O
_chemical_formula_sum   'Ba4 I4 O2'
_cell_volume   377.30020300
_cell_formula_units_Z   2
loop_
 _symmetry_equiv_pos_site_id
 _symmetry_equiv_pos_as_xyz
  1  'x, y, z'
loop_
 _atom_site_type_symbol
 _atom_site_label
 _atom_site_symmetry_multiplicity
 _atom_site_fract_x
 _atom_site_fract_y
 _atom_site_fract_z
 _atom_site_occupancy
  I  I0  1  0.349957  0.692892  0.699932  1
  I  I1  1  0.850105  0.006926  0.699936  1
  Ba  Ba2  1  0.407127  0.232862  0.814196  1
  I  I3  1  0.149895  0.993074  0.300064  1
  Ba  Ba4  1  0.592873  0.767138  0.185804  1
  O  O5  1  0.250001  0.500002  0.000002  1
  Ba  Ba6  1  0.092889  0.418659  0.185793  1
  I  I7  1  0.650042  0.307108  0.300068  1
  Ba  Ba8  1  0.907111  0.581341  0.814207  1
  O  O9  1  0.750000  0.499998  0.999998  1
