# generated using pymatgen
data_RbCr2FeO8
_symmetry_space_group_name_H-M   'P 1'
_cell_length_a   5.54434789
_cell_length_b   8.97785058
_cell_length_c   14.97124405
_cell_angle_alpha   90.00000000
_cell_angle_beta   90.00000000
_cell_angle_gamma   90.00000000
_symmetry_Int_Tables_number   1
_chemical_formula_structural   RbCr2FeO8
_chemical_formula_sum   'Rb4 Cr8 Fe4 O32'
_cell_volume   745.21353823
_cell_formula_units_Z   4
loop_
 _symmetry_equiv_pos_site_id
 _symmetry_equiv_pos_as_xyz
  1  'x, y, z'
loop_
 _atom_site_type_symbol
 _atom_site_label
 _atom_site_symmetry_multiplicity
 _atom_site_fract_x
 _atom_site_fract_y
 _atom_site_fract_z
 _atom_site_occupancy
  Rb  Rb0  1  0.250000  0.949386  0.379549  1
  Rb  Rb1  1  0.750000  0.050614  0.620451  1
  Rb  Rb2  1  0.750000  0.449386  0.120451  1
  Rb  Rb3  1  0.250000  0.550614  0.879549  1
  Fe  Fe4  1  0.250000  0.493132  0.343566  1
  Fe  Fe5  1  0.750000  0.506868  0.656434  1
  Fe  Fe6  1  0.750000  0.993132  0.156434  1
  Fe  Fe7  1  0.250000  0.006868  0.843566  1
  Cr  Cr8  1  0.750000  0.244260  0.336129  1
  Cr  Cr9  1  0.250000  0.755740  0.663871  1
  Cr  Cr10  1  0.250000  0.744260  0.163871  1
  Cr  Cr11  1  0.750000  0.255740  0.836129  1
  Cr  Cr12  1  0.750000  0.681602  0.436684  1
  Cr  Cr13  1  0.250000  0.318398  0.563316  1
  Cr  Cr14  1  0.250000  0.181602  0.063316  1
  Cr  Cr15  1  0.750000  0.818398  0.936684  1
  O  O16  1  0.750000  0.858796  0.459744  1
  O  O17  1  0.250000  0.141204  0.540256  1
  O  O18  1  0.250000  0.358796  0.040256  1
  O  O19  1  0.750000  0.641204  0.959744  1
  O  O20  1  0.250000  0.712433  0.057989  1
  O  O21  1  0.750000  0.287567  0.942011  1
  O  O22  1  0.750000  0.212433  0.442011  1
  O  O23  1  0.250000  0.787567  0.557989  1
  O  O24  1  0.250000  0.418934  0.470083  1
  O  O25  1  0.750000  0.581066  0.529917  1
  O  O26  1  0.750000  0.918934  0.029917  1
  O  O27  1  0.250000  0.081066  0.970083  1
  O  O28  1  0.250000  0.577940  0.217505  1
  O  O29  1  0.750000  0.422060  0.782495  1
  O  O30  1  0.750000  0.077940  0.282495  1
  O  O31  1  0.250000  0.922060  0.717505  1
  O  O32  1  0.996377  0.342914  0.307604  1
  O  O33  1  0.496377  0.657086  0.692396  1
  O  O34  1  0.003623  0.842914  0.192396  1
  O  O35  1  0.503623  0.157086  0.807604  1
  O  O36  1  0.003623  0.657086  0.692396  1
  O  O37  1  0.503623  0.342914  0.307604  1
  O  O38  1  0.996377  0.157086  0.807604  1
  O  O39  1  0.496377  0.842914  0.192396  1
  O  O40  1  0.002349  0.143868  0.124644  1
  O  O41  1  0.502349  0.856132  0.875356  1
  O  O42  1  0.997651  0.643868  0.375356  1
  O  O43  1  0.497651  0.356132  0.624644  1
  O  O44  1  0.997651  0.856132  0.875356  1
  O  O45  1  0.497651  0.143868  0.124644  1
  O  O46  1  0.002349  0.356132  0.624644  1
  O  O47  1  0.502349  0.643868  0.375356  1
