# generated using pymatgen
data_CsTa2P5O18
_symmetry_space_group_name_H-M   'P 1'
_cell_length_a   5.21568634
_cell_length_b   11.08139075
_cell_length_c   14.62809216
_cell_angle_alpha   82.94516389
_cell_angle_beta   87.14543421
_cell_angle_gamma   85.12354541
_symmetry_Int_Tables_number   1
_chemical_formula_structural   CsTa2P5O18
_chemical_formula_sum   'Cs2 Ta4 P10 O36'
_cell_volume   835.36006316
_cell_formula_units_Z   2
loop_
 _symmetry_equiv_pos_site_id
 _symmetry_equiv_pos_as_xyz
  1  'x, y, z'
loop_
 _atom_site_type_symbol
 _atom_site_label
 _atom_site_symmetry_multiplicity
 _atom_site_fract_x
 _atom_site_fract_y
 _atom_site_fract_z
 _atom_site_occupancy
  Cs  Cs0  1  0.713544  0.903368  0.620874  1
  Cs  Cs1  1  0.286456  0.096632  0.379126  1
  Ta  Ta2  1  0.705435  0.710128  0.991081  1
  Ta  Ta3  1  0.749942  0.442622  0.646847  1
  Ta  Ta4  1  0.250058  0.557378  0.353153  1
  Ta  Ta5  1  0.294565  0.289872  0.008919  1
  P  P6  1  0.223460  0.628385  0.577439  1
  P  P7  1  0.803058  0.150338  0.139020  1
  P  P8  1  0.213138  0.554405  0.111799  1
  P  P9  1  0.776540  0.371615  0.422561  1
  P  P10  1  0.707459  0.768749  0.331561  1
  P  P11  1  0.292541  0.231251  0.668439  1
  P  P12  1  0.601250  0.913049  0.153549  1
  P  P13  1  0.786862  0.445595  0.888201  1
  P  P14  1  0.196942  0.849662  0.860980  1
  P  P15  1  0.398750  0.086951  0.846451  1
  O  O16  1  0.186601  0.425972  0.083855  1
  O  O17  1  0.684572  0.861399  0.396600  1
  O  O18  1  0.815908  0.155374  0.238684  1
  O  O19  1  0.960505  0.807086  0.922751  1
  O  O20  1  0.813399  0.574028  0.916145  1
  O  O21  1  0.439603  0.555587  0.638434  1
  O  O22  1  0.963474  0.584250  0.623111  1
  O  O23  1  0.236651  0.762170  0.565385  1
  O  O24  1  0.974879  0.638939  0.081188  1
  O  O25  1  0.648170  0.038047  0.809389  1
  O  O26  1  0.563288  0.225616  0.093499  1
  O  O27  1  0.763349  0.237830  0.434615  1
  O  O28  1  0.351830  0.961953  0.190611  1
  O  O29  1  0.541904  0.396774  0.937815  1
  O  O30  1  0.224746  0.171943  0.773984  1
  O  O31  1  0.254167  0.570234  0.483491  1
  O  O32  1  0.039495  0.192914  0.077249  1
  O  O33  1  0.936457  0.669888  0.344785  1
  O  O34  1  0.535923  0.301125  0.676624  1
  O  O35  1  0.036526  0.415750  0.376889  1
  O  O36  1  0.210573  0.985122  0.889848  1
  O  O37  1  0.063543  0.330112  0.655215  1
  O  O38  1  0.775254  0.828057  0.226016  1
  O  O39  1  0.789427  0.014878  0.110152  1
  O  O40  1  0.458096  0.603226  0.062185  1
  O  O41  1  0.745833  0.429766  0.516509  1
  O  O42  1  0.762620  0.454228  0.784195  1
  O  O43  1  0.600208  0.836033  0.071344  1
  O  O44  1  0.237380  0.545772  0.215805  1
  O  O45  1  0.025121  0.361061  0.918812  1
  O  O46  1  0.315428  0.138601  0.603400  1
  O  O47  1  0.184092  0.844626  0.761316  1
  O  O48  1  0.399792  0.163967  0.928656  1
  O  O49  1  0.436712  0.774384  0.906501  1
  O  O50  1  0.464077  0.698875  0.323376  1
  O  O51  1  0.560397  0.444413  0.361566  1
