# generated using pymatgen
data_AlS2(NCl2)2
_symmetry_space_group_name_H-M   'P 1'
_cell_length_a   7.03229782
_cell_length_b   8.14926985
_cell_length_c   16.68894189
_cell_angle_alpha   90.00000000
_cell_angle_beta   90.00000000
_cell_angle_gamma   104.26155886
_symmetry_Int_Tables_number   1
_chemical_formula_structural   AlS2(NCl2)2
_chemical_formula_sum   'Al4 S8 N8 Cl16'
_cell_volume   926.93600405
_cell_formula_units_Z   4
loop_
 _symmetry_equiv_pos_site_id
 _symmetry_equiv_pos_as_xyz
  1  'x, y, z'
loop_
 _atom_site_type_symbol
 _atom_site_label
 _atom_site_symmetry_multiplicity
 _atom_site_fract_x
 _atom_site_fract_y
 _atom_site_fract_z
 _atom_site_occupancy
  Al  Al0  1  0.399431  0.355009  0.350021  1
  Al  Al1  1  0.600569  0.144991  0.850021  1
  Al  Al2  1  0.600569  0.644991  0.649979  1
  Al  Al3  1  0.399431  0.855009  0.149979  1
  S  S4  1  0.853857  0.077955  0.397918  1
  S  S5  1  0.969984  0.757169  0.446112  1
  S  S6  1  0.030016  0.742831  0.946112  1
  S  S7  1  0.146143  0.422045  0.897918  1
  S  S8  1  0.969984  0.257169  0.053888  1
  S  S9  1  0.030016  0.242831  0.553888  1
  S  S10  1  0.146143  0.922045  0.602082  1
  S  S11  1  0.853857  0.577955  0.102082  1
  N  N12  1  0.111853  0.605195  0.901876  1
  N  N13  1  0.073946  0.801999  0.528967  1
  N  N14  1  0.111853  0.105195  0.598124  1
  N  N15  1  0.888147  0.894805  0.401876  1
  N  N16  1  0.926054  0.198001  0.471033  1
  N  N17  1  0.888147  0.394805  0.098124  1
  N  N18  1  0.073946  0.301999  0.971033  1
  N  N19  1  0.926054  0.698001  0.028967  1
  Cl  Cl20  1  0.606678  0.371700  0.921150  1
  Cl  Cl21  1  0.393322  0.128300  0.421150  1
  Cl  Cl22  1  0.171215  0.278720  0.261832  1
  Cl  Cl23  1  0.689257  0.944650  0.197874  1
  Cl  Cl24  1  0.325456  0.543501  0.426961  1
  Cl  Cl25  1  0.310743  0.055350  0.802126  1
  Cl  Cl26  1  0.393322  0.628300  0.078850  1
  Cl  Cl27  1  0.674544  0.456499  0.573039  1
  Cl  Cl28  1  0.828785  0.721280  0.738168  1
  Cl  Cl29  1  0.606678  0.871700  0.578850  1
  Cl  Cl30  1  0.674544  0.956499  0.926961  1
  Cl  Cl31  1  0.171215  0.778720  0.238168  1
  Cl  Cl32  1  0.325456  0.043501  0.073039  1
  Cl  Cl33  1  0.310743  0.555350  0.697874  1
  Cl  Cl34  1  0.689257  0.444650  0.302126  1
  Cl  Cl35  1  0.828785  0.221280  0.761832  1
