# generated using pymatgen
data_BaCo2(AsO4)2
_symmetry_space_group_name_H-M   'P 1'
_cell_length_a   8.75542074
_cell_length_b   8.68437692
_cell_length_c   8.71713127
_cell_angle_alpha   32.74837784
_cell_angle_beta   33.54957398
_cell_angle_gamma   33.59184257
_symmetry_Int_Tables_number   1
_chemical_formula_structural   BaCo2(AsO4)2
_chemical_formula_sum   'Ba1 Co2 As2 O8'
_cell_volume   177.77422012
_cell_formula_units_Z   1
loop_
 _symmetry_equiv_pos_site_id
 _symmetry_equiv_pos_as_xyz
  1  'x, y, z'
loop_
 _atom_site_type_symbol
 _atom_site_label
 _atom_site_symmetry_multiplicity
 _atom_site_fract_x
 _atom_site_fract_y
 _atom_site_fract_z
 _atom_site_occupancy
  Ba  Ba0  1  0.000025  0.999960  0.999962  1
  Co  Co1  1  0.852458  0.821736  0.820853  1
  Co  Co2  1  0.147576  0.178273  0.179102  1
  As  As3  1  0.429999  0.421709  0.429788  1
  As  As4  1  0.569979  0.578297  0.570236  1
  O  O5  1  0.876084  0.571305  0.211416  1
  O  O6  1  0.123858  0.428825  0.788543  1
  O  O7  1  0.448948  0.779009  0.132488  1
  O  O8  1  0.641641  0.637243  0.645800  1
  O  O9  1  0.358460  0.362592  0.354267  1
  O  O10  1  0.551043  0.221021  0.867466  1
  O  O11  1  0.216545  0.888704  0.554718  1
  O  O12  1  0.783384  0.111326  0.445364  1
