# generated using pymatgen
data_Ca3(BN2)2
_symmetry_space_group_name_H-M   'P 1'
_cell_length_a   12.66615434
_cell_length_b   7.39830271
_cell_length_c   12.83752872
_cell_angle_alpha   125.19091419
_cell_angle_beta   109.67098897
_cell_angle_gamma   54.26055855
_symmetry_Int_Tables_number   1
_chemical_formula_structural   Ca3(BN2)2
_chemical_formula_sum   'Ca18 B12 N24'
_cell_volume   797.97937730
_cell_formula_units_Z   6
loop_
 _symmetry_equiv_pos_site_id
 _symmetry_equiv_pos_as_xyz
  1  'x, y, z'
loop_
 _atom_site_type_symbol
 _atom_site_label
 _atom_site_symmetry_multiplicity
 _atom_site_fract_x
 _atom_site_fract_y
 _atom_site_fract_z
 _atom_site_occupancy
  B  B0  1  0.244120  -0.000567  0.754495  1
  B  B1  1  1.000000  0.515348  0.510059  1
  B  B2  1  0.244120  0.512326  0.745505  1
  B  B3  1  0.255880  0.978684  0.245505  1
  B  B4  1  0.000000  0.484652  0.989941  1
  B  B5  1  0.255880  0.509557  0.254495  1
  B  B6  1  0.755880  1.000567  0.745505  1
  B  B7  1  0.500000  0.495230  0.489941  1
  B  B8  1  0.755880  0.487674  0.754495  1
  B  B9  1  0.744120  0.021316  0.254495  1
  B  B10  1  0.500000  0.504770  0.010059  1
  B  B11  1  0.744120  0.490443  0.245505  1
  Ca  Ca12  1  0.000000  0.989765  0.490945  1
  Ca  Ca13  1  0.000000  0.500000  0.750000  1
  Ca  Ca14  1  1.000000  0.010235  0.009055  1
  Ca  Ca15  1  0.253438  1.010469  0.510078  1
  Ca  Ca16  1  0.000000  0.000000  0.750000  1
  Ca  Ca17  1  0.246562  0.009686  0.010078  1
  Ca  Ca18  1  0.246562  0.497190  0.489922  1
  Ca  Ca19  1  0.000000  0.000000  0.250000  1
  Ca  Ca20  1  0.500000  0.007875  0.509055  1
  Ca  Ca21  1  0.500000  0.500000  0.750000  1
  Ca  Ca22  1  0.253438  0.482655  0.989922  1
  Ca  Ca23  1  0.500000  0.992125  0.990945  1
  Ca  Ca24  1  0.753438  0.990314  0.489922  1
  Ca  Ca25  1  0.500000  0.500000  0.250000  1
  Ca  Ca26  1  0.746562  -0.010469  0.989922  1
  Ca  Ca27  1  0.746562  0.517345  0.510078  1
  Ca  Ca28  1  0.500000  0.000000  0.250000  1
  Ca  Ca29  1  0.753438  0.502810  0.010078  1
  N  N30  1  0.159528  0.013734  0.658299  1
  N  N31  1  0.000000  0.326131  0.502329  1
  N  N32  1  0.175914  0.932000  0.147115  1
  N  N33  1  0.000000  0.291638  0.977019  1
  N  N34  1  0.159528  0.667209  0.841701  1
  N  N35  1  0.324086  0.362230  0.647115  1
  N  N36  1  0.175914  0.716172  0.352885  1
  N  N37  1  0.340472  0.302864  0.158299  1
  N  N38  1  0.324086  0.989598  0.852885  1
  N  N39  1  0.500000  0.321473  0.497671  1
  N  N40  1  0.675914  0.010402  0.647115  1
  N  N41  1  0.500000  0.662399  0.477019  1
  N  N42  1  0.340472  0.016192  0.341701  1
  N  N43  1  0.659528  0.983808  0.158299  1
  N  N44  1  0.500000  0.337601  0.022981  1
  N  N45  1  0.675914  0.637770  0.852885  1
  N  N46  1  0.840472  0.332791  0.658299  1
  N  N47  1  0.500000  0.678527  1.002329  1
  N  N48  1  0.659528  0.697136  0.341701  1
  N  N49  1  0.824086  0.283828  0.147115  1
  N  N50  1  0.840472  0.986266  0.841701  1
  N  N51  1  1.000000  0.708362  0.522981  1
  N  N52  1  0.824086  0.068000  0.352885  1
  N  N53  1  1.000000  0.673869  -0.002329  1
