# generated using pymatgen
data_BaGa2(GeO4)2
_symmetry_space_group_name_H-M   'P 1'
_cell_length_a   9.02411905
_cell_length_b   9.80093889
_cell_length_c   9.80093881
_cell_angle_alpha   88.87194554
_cell_angle_beta   82.20669059
_cell_angle_gamma   82.20668618
_symmetry_Int_Tables_number   1
_chemical_formula_structural   BaGa2(GeO4)2
_chemical_formula_sum   'Ba4 Ga8 Ge8 O32'
_cell_volume   850.90278792
_cell_formula_units_Z   4
loop_
 _symmetry_equiv_pos_site_id
 _symmetry_equiv_pos_as_xyz
  1  'x, y, z'
loop_
 _atom_site_type_symbol
 _atom_site_label
 _atom_site_symmetry_multiplicity
 _atom_site_fract_x
 _atom_site_fract_y
 _atom_site_fract_z
 _atom_site_occupancy
  Ba  Ba0  1  0.792253  0.933439  0.932742  1
  Ba  Ba1  1  0.707747  0.567258  0.566561  1
  Ba  Ba2  1  0.207747  0.066561  0.067258  1
  Ba  Ba3  1  0.292253  0.432742  0.433439  1
  Ge  Ge4  1  0.103150  0.071603  0.711940  1
  Ge  Ge5  1  0.396850  0.788060  0.428397  1
  Ge  Ge6  1  0.896850  0.928397  0.288060  1
  Ge  Ge7  1  0.603150  0.211940  0.571603  1
  Ge  Ge8  1  0.980663  0.442052  0.211682  1
  Ge  Ge9  1  0.519337  0.288318  0.057948  1
  Ge  Ge10  1  0.019337  0.557948  0.788318  1
  Ge  Ge11  1  0.480663  0.711682  0.942052  1
  Ga  Ga12  1  0.614275  0.567333  0.201933  1
  Ga  Ga13  1  0.885725  0.298067  0.932667  1
  Ga  Ga14  1  0.385725  0.432667  0.798067  1
  Ga  Ga15  1  0.114275  0.701933  0.067333  1
  Ga  Ga16  1  0.473018  0.948546  0.703675  1
  Ga  Ga17  1  0.026982  0.796325  0.551454  1
  Ga  Ga18  1  0.526982  0.051454  0.296325  1
  Ga  Ga19  1  0.973018  0.203675  0.448546  1
  O  O20  1  0.997206  0.130118  0.872323  1
  O  O21  1  0.502794  0.627677  0.369882  1
  O  O22  1  0.002794  0.869882  0.127677  1
  O  O23  1  0.497206  0.372323  0.630118  1
  O  O24  1  0.547654  0.854731  0.852233  1
  O  O25  1  0.952346  0.647767  0.645269  1
  O  O26  1  0.452346  0.145269  0.147767  1
  O  O27  1  0.047654  0.352233  0.354731  1
  O  O28  1  0.278580  0.021667  0.771195  1
  O  O29  1  0.221420  0.728805  0.478333  1
  O  O30  1  0.721420  0.978333  0.228805  1
  O  O31  1  0.778580  0.271195  0.521667  1
  O  O32  1  0.797785  0.526201  0.267895  1
  O  O33  1  0.702215  0.232105  0.973799  1
  O  O34  1  0.202215  0.473799  0.732105  1
  O  O35  1  0.297785  0.767895  0.026201  1
  O  O36  1  0.111435  0.187635  0.574031  1
  O  O37  1  0.388565  0.925969  0.312365  1
  O  O38  1  0.888565  0.812365  0.425969  1
  O  O39  1  0.611435  0.074031  0.687635  1
  O  O40  1  0.619619  0.684989  0.055090  1
  O  O41  1  0.880381  0.444910  0.815011  1
  O  O42  1  0.380381  0.315011  0.944910  1
  O  O43  1  0.119619  0.555090  0.184989  1
  O  O44  1  0.001352  0.935727  0.679192  1
  O  O45  1  0.498648  0.820808  0.564273  1
  O  O46  1  0.998648  0.064273  0.320808  1
  O  O47  1  0.501352  0.179192  0.435727  1
  O  O48  1  0.507663  0.421625  0.178642  1
  O  O49  1  0.992337  0.321358  0.078375  1
  O  O50  1  0.492337  0.578375  0.821358  1
  O  O51  1  0.007663  0.678642  0.921625  1
