# generated using pymatgen
data_In2Ag2GeS6
_symmetry_space_group_name_H-M   'P 1'
_cell_length_a   7.22913159
_cell_length_b   7.22913209
_cell_length_c   12.41255399
_cell_angle_alpha   73.26717465
_cell_angle_beta   73.26717345
_cell_angle_gamma   61.47300316
_symmetry_Int_Tables_number   1
_chemical_formula_structural   In2Ag2GeS6
_chemical_formula_sum   'In4 Ag4 Ge2 S12'
_cell_volume   537.00506707
_cell_formula_units_Z   2
loop_
 _symmetry_equiv_pos_site_id
 _symmetry_equiv_pos_as_xyz
  1  'x, y, z'
loop_
 _atom_site_type_symbol
 _atom_site_label
 _atom_site_symmetry_multiplicity
 _atom_site_fract_x
 _atom_site_fract_y
 _atom_site_fract_z
 _atom_site_occupancy
  In  In0  1  0.322394  0.507407  0.439606  1
  In  In1  1  0.174236  0.297244  0.245376  1
  In  In2  1  0.297244  0.174236  0.745376  1
  In  In3  1  0.507407  0.322394  0.939606  1
  Ag  Ag4  1  0.812907  0.981708  0.242837  1
  Ag  Ag5  1  0.808905  0.390439  0.587980  1
  Ag  Ag6  1  0.390439  0.808905  0.087980  1
  Ag  Ag7  1  0.981708  0.812907  0.742837  1
  Ge  Ge8  1  0.937164  0.400622  0.000690  1
  Ge  Ge9  1  0.400622  0.937164  0.500690  1
  S  S10  1  0.513815  0.066025  0.127992  1
  S  S11  1  0.597194  0.118772  0.445292  1
  S  S12  1  0.170400  0.642394  0.258329  1
  S  S13  1  0.843272  0.349208  0.189888  1
  S  S14  1  0.596031  0.638825  0.425459  1
  S  S15  1  0.638825  0.596031  0.925459  1
  S  S16  1  0.118772  0.597194  0.945292  1
  S  S17  1  0.349208  0.843272  0.689888  1
  S  S18  1  0.642394  0.170400  0.758329  1
  S  S19  1  0.066025  0.513815  0.627992  1
  S  S20  1  0.086656  0.103383  0.443750  1
  S  S21  1  0.103383  0.086656  0.943750  1
