# generated using pymatgen
data_SrCeI4
_symmetry_space_group_name_H-M   'P 1'
_cell_length_a   7.49600984
_cell_length_b   8.65788489
_cell_length_c   9.08791987
_cell_angle_alpha   113.33061637
_cell_angle_beta   108.72500104
_cell_angle_gamma   101.03524083
_symmetry_Int_Tables_number   1
_chemical_formula_structural   SrCeI4
_chemical_formula_sum   'Sr2 Ce2 I8'
_cell_volume   477.26154867
_cell_formula_units_Z   2
loop_
 _symmetry_equiv_pos_site_id
 _symmetry_equiv_pos_as_xyz
  1  'x, y, z'
loop_
 _atom_site_type_symbol
 _atom_site_label
 _atom_site_symmetry_multiplicity
 _atom_site_fract_x
 _atom_site_fract_y
 _atom_site_fract_z
 _atom_site_occupancy
  Sr  Sr0  1  0.385177  0.135287  0.270327  1
  Sr  Sr1  1  0.614823  0.864714  0.729673  1
  Ce  Ce2  1  0.750430  0.500284  0.000436  1
  Ce  Ce3  1  0.249570  0.499716  0.999564  1
  I  I4  1  0.993161  0.259181  0.125215  1
  I  I5  1  0.209070  0.798632  0.353017  1
  I  I6  1  0.643669  0.554208  0.352791  1
  I  I7  1  0.356331  0.445792  0.647209  1
  I  I8  1  0.368298  0.134270  0.875101  1
  I  I9  1  0.790930  0.201368  0.646983  1
  I  I10  1  0.631702  0.865730  0.124899  1
  I  I11  1  0.006839  0.740819  0.874785  1
