# generated using pymatgen
data_MoS3(NCl4)2
_symmetry_space_group_name_H-M   'P 1'
_cell_length_a   7.67620150
_cell_length_b   12.18914390
_cell_length_c   16.69256585
_cell_angle_alpha   90.00000000
_cell_angle_beta   90.00000000
_cell_angle_gamma   101.95722067
_symmetry_Int_Tables_number   1
_chemical_formula_structural   MoS3(NCl4)2
_chemical_formula_sum   'Mo4 S12 N8 Cl32'
_cell_volume   1527.97363329
_cell_formula_units_Z   4
loop_
 _symmetry_equiv_pos_site_id
 _symmetry_equiv_pos_as_xyz
  1  'x, y, z'
loop_
 _atom_site_type_symbol
 _atom_site_label
 _atom_site_symmetry_multiplicity
 _atom_site_fract_x
 _atom_site_fract_y
 _atom_site_fract_z
 _atom_site_occupancy
  Mo  Mo0  1  0.147697  0.210021  0.177364  1
  Mo  Mo1  1  0.352303  0.289979  0.677364  1
  Mo  Mo2  1  0.647697  0.710021  0.322636  1
  Mo  Mo3  1  0.852303  0.789979  0.822636  1
  S  S4  1  0.662966  0.526046  0.655620  1
  S  S5  1  0.760219  0.228035  0.873646  1
  S  S6  1  0.739781  0.271965  0.373646  1
  S  S7  1  0.852603  0.201438  0.535124  1
  S  S8  1  0.162966  0.026046  0.844380  1
  S  S9  1  0.260219  0.728035  0.626354  1
  S  S10  1  0.337034  0.473954  0.344380  1
  S  S11  1  0.837034  0.973954  0.155620  1
  S  S12  1  0.647397  0.298562  0.035124  1
  S  S13  1  0.352603  0.701438  0.964876  1
  S  S14  1  0.239781  0.771965  0.126354  1
  S  S15  1  0.147397  0.798562  0.464876  1
  N  N16  1  0.029033  0.911577  0.833652  1
  N  N17  1  0.529033  0.411577  0.666348  1
  N  N18  1  0.689259  0.235556  0.959516  1
  N  N19  1  0.310741  0.764444  0.040484  1
  N  N20  1  0.970967  0.088423  0.166348  1
  N  N21  1  0.470967  0.588423  0.333652  1
  N  N22  1  0.810741  0.264444  0.459516  1
  N  N23  1  0.189259  0.735556  0.540484  1
  Cl  Cl24  1  0.588588  0.630824  0.812561  1
  Cl  Cl25  1  0.139242  0.262528  0.041667  1
  Cl  Cl26  1  0.171859  0.191783  0.316072  1
  Cl  Cl27  1  0.671859  0.691783  0.183928  1
  Cl  Cl28  1  0.639242  0.762528  0.458333  1
  Cl  Cl29  1  0.129944  0.618312  0.169307  1
  Cl  Cl30  1  0.729319  0.466187  0.019127  1
  Cl  Cl31  1  0.859930  0.598637  0.350017  1
  Cl  Cl32  1  0.732925  0.983110  0.040099  1
  Cl  Cl33  1  0.953134  0.339567  0.202337  1
  Cl  Cl34  1  0.229319  0.966187  0.480873  1
  Cl  Cl35  1  0.860758  0.737472  0.958333  1
  Cl  Cl36  1  0.546866  0.160433  0.702337  1
  Cl  Cl37  1  0.453134  0.839567  0.297663  1
  Cl  Cl38  1  0.767075  0.516890  0.540099  1
  Cl  Cl39  1  0.770681  0.033813  0.519127  1
  Cl  Cl40  1  0.046866  0.660433  0.797663  1
  Cl  Cl41  1  0.640070  0.901363  0.850017  1
  Cl  Cl42  1  0.088588  0.130824  0.687439  1
  Cl  Cl43  1  0.629944  0.118312  0.330693  1
  Cl  Cl44  1  0.360758  0.237472  0.541667  1
  Cl  Cl45  1  0.140070  0.401363  0.649983  1
  Cl  Cl46  1  0.328141  0.308217  0.816072  1
  Cl  Cl47  1  0.359930  0.098637  0.149983  1
  Cl  Cl48  1  0.411412  0.369176  0.187439  1
  Cl  Cl49  1  0.270681  0.533813  0.980873  1
  Cl  Cl50  1  0.232925  0.483110  0.459901  1
  Cl  Cl51  1  0.267075  0.016890  0.959901  1
  Cl  Cl52  1  0.911412  0.869176  0.312561  1
  Cl  Cl53  1  0.870056  0.381688  0.830693  1
  Cl  Cl54  1  0.828141  0.808217  0.683928  1
  Cl  Cl55  1  0.370056  0.881688  0.669307  1
