# generated using pymatgen
data_EuNiGe
_symmetry_space_group_name_H-M   'P 1'
_cell_length_a   6.11823268
_cell_length_b   6.15417781
_cell_length_c   6.96235982
_cell_angle_alpha   90.00000000
_cell_angle_beta   109.63136596
_cell_angle_gamma   90.00000000
_symmetry_Int_Tables_number   1
_chemical_formula_structural   EuNiGe
_chemical_formula_sum   'Eu4 Ni4 Ge4'
_cell_volume   246.91367927
_cell_formula_units_Z   4
loop_
 _symmetry_equiv_pos_site_id
 _symmetry_equiv_pos_as_xyz
  1  'x, y, z'
loop_
 _atom_site_type_symbol
 _atom_site_label
 _atom_site_symmetry_multiplicity
 _atom_site_fract_x
 _atom_site_fract_y
 _atom_site_fract_z
 _atom_site_occupancy
  Ni  Ni0  1  0.437203  0.094284  0.823746  1
  Ni  Ni1  1  0.062797  0.594284  0.676254  1
  Ni  Ni2  1  0.562797  0.905716  0.176254  1
  Ni  Ni3  1  0.937203  0.405716  0.323746  1
  Ge  Ge4  1  0.805127  0.143740  0.072098  1
  Ge  Ge5  1  0.694873  0.643740  0.427902  1
  Ge  Ge6  1  0.194873  0.856260  0.927902  1
  Ge  Ge7  1  0.305127  0.356260  0.572098  1
  Eu  Eu8  1  0.305169  0.359935  0.106030  1
  Eu  Eu9  1  0.194831  0.859935  0.393970  1
  Eu  Eu10  1  0.694831  0.640065  0.893970  1
  Eu  Eu11  1  0.805169  0.140065  0.606030  1
