# generated using pymatgen
data_Sr2Co2O5
_symmetry_space_group_name_H-M   'P 1'
_cell_length_a   5.42390683
_cell_length_b   5.53052405
_cell_length_c   9.03122586
_cell_angle_alpha   107.82970846
_cell_angle_beta   107.47479768
_cell_angle_gamma   89.99999730
_symmetry_Int_Tables_number   1
_chemical_formula_structural   Sr2Co2O5
_chemical_formula_sum   'Sr4 Co4 O10'
_cell_volume   244.73193485
_cell_formula_units_Z   2
loop_
 _symmetry_equiv_pos_site_id
 _symmetry_equiv_pos_as_xyz
  1  'x, y, z'
loop_
 _atom_site_type_symbol
 _atom_site_label
 _atom_site_symmetry_multiplicity
 _atom_site_fract_x
 _atom_site_fract_y
 _atom_site_fract_z
 _atom_site_occupancy
  Sr  Sr0  1  0.601925  0.120549  0.221623  1
  Sr  Sr1  1  0.380302  0.879451  0.778377  1
  Sr  Sr2  1  0.101925  0.601075  0.221623  1
  Sr  Sr3  1  0.880302  0.398925  0.778377  1
  Co  Co4  1  0.989157  0.000000  0.000000  1
  Co  Co5  1  0.489157  0.500000  0.000000  1
  Co  Co6  1  0.275321  0.186552  0.500000  1
  Co  Co7  1  0.775321  0.813448  0.500000  1
  O  O8  1  0.736952  0.247592  0.992032  1
  O  O9  1  0.744920  0.752408  0.007968  1
  O  O10  1  0.236952  0.244440  0.992032  1
  O  O11  1  0.244920  0.755560  0.007968  1
  O  O12  1  0.121960  0.176642  0.289267  1
  O  O13  1  0.832693  0.823358  0.710733  1
  O  O14  1  0.621960  0.612624  0.289267  1
  O  O15  1  0.332693  0.387376  0.710733  1
  O  O16  1  0.628771  0.130540  0.500000  1
  O  O17  1  0.128771  0.869460  0.500000  1
