# generated using pymatgen
data_K3CrC3N3O4
_symmetry_space_group_name_H-M   'P 1'
_cell_length_a   7.75959400
_cell_length_b   11.74207862
_cell_length_c   12.30020597
_cell_angle_alpha   110.91782867
_cell_angle_beta   90.00000000
_cell_angle_gamma   90.00000000
_symmetry_Int_Tables_number   1
_chemical_formula_structural   K3CrC3N3O4
_chemical_formula_sum   'K12 Cr4 C12 N12 O16'
_cell_volume   1046.85535866
_cell_formula_units_Z   4
loop_
 _symmetry_equiv_pos_site_id
 _symmetry_equiv_pos_as_xyz
  1  'x, y, z'
loop_
 _atom_site_type_symbol
 _atom_site_label
 _atom_site_symmetry_multiplicity
 _atom_site_fract_x
 _atom_site_fract_y
 _atom_site_fract_z
 _atom_site_occupancy
  K  K0  1  0.145372  0.617972  0.675883  1
  K  K1  1  0.350664  0.331553  0.871738  1
  K  K2  1  0.350664  0.168447  0.128262  1
  K  K3  1  0.604621  0.750000  0.500000  1
  K  K4  1  0.854628  0.117972  0.675883  1
  K  K5  1  0.395379  0.250000  0.500000  1
  K  K6  1  0.854628  0.382028  0.324117  1
  K  K7  1  0.649336  0.831553  0.871738  1
  K  K8  1  0.867830  0.250000  0.000000  1
  K  K9  1  0.649336  0.668447  0.128262  1
  K  K10  1  0.132170  0.750000  0.000000  1
  K  K11  1  0.145372  0.882028  0.324117  1
  Cr  Cr12  1  0.234168  0.528638  0.220412  1
  Cr  Cr13  1  0.765832  0.471362  0.779588  1
  Cr  Cr14  1  0.765832  0.028638  0.220412  1
  Cr  Cr15  1  0.234168  0.971362  0.779588  1
  C  C16  1  0.995629  0.614086  0.285684  1
  C  C17  1  0.525323  0.945494  0.163208  1
  C  C18  1  0.474677  0.054506  0.836792  1
  C  C19  1  0.004371  0.114086  0.285684  1
  C  C20  1  0.266990  0.496545  0.373664  1
  C  C21  1  0.995629  0.885914  0.714316  1
  C  C22  1  0.525323  0.554506  0.836792  1
  C  C23  1  0.474677  0.445494  0.163208  1
  C  C24  1  0.733010  0.996545  0.373664  1
  C  C25  1  0.004371  0.385914  0.714316  1
  C  C26  1  0.266990  0.003455  0.626336  1
  C  C27  1  0.733010  0.503455  0.626336  1
  N  N28  1  0.719159  0.973951  0.458903  1
  N  N29  1  0.863256  0.838806  0.678319  1
  N  N30  1  0.610549  0.096496  0.870459  1
  N  N31  1  0.136744  0.338806  0.678319  1
  N  N32  1  0.136744  0.161194  0.321681  1
  N  N33  1  0.389451  0.903504  0.129541  1
  N  N34  1  0.610549  0.403504  0.129541  1
  N  N35  1  0.719159  0.526049  0.541097  1
  N  N36  1  0.863256  0.661194  0.321681  1
  N  N37  1  0.280841  0.473951  0.458903  1
  N  N38  1  0.389451  0.596496  0.870459  1
  N  N39  1  0.280841  0.026049  0.541097  1
  O  O40  1  0.646754  0.184259  0.290633  1
  O  O41  1  0.125277  0.368657  0.160004  1
  O  O42  1  0.646754  0.315741  0.709367  1
  O  O43  1  0.868875  0.929027  0.075295  1
  O  O44  1  0.703451  0.161892  0.171953  1
  O  O45  1  0.131125  0.070973  0.924705  1
  O  O46  1  0.874723  0.868657  0.160004  1
  O  O47  1  0.703451  0.338108  0.828047  1
  O  O48  1  0.125277  0.131343  0.839996  1
  O  O49  1  0.353246  0.815741  0.709367  1
  O  O50  1  0.131125  0.429027  0.075295  1
  O  O51  1  0.874723  0.631343  0.839996  1
  O  O52  1  0.868875  0.570973  0.924705  1
  O  O53  1  0.353246  0.684259  0.290633  1
  O  O54  1  0.296549  0.661892  0.171953  1
  O  O55  1  0.296549  0.838108  0.828047  1
