# generated using pymatgen
data_KEr(PO3)4
_symmetry_space_group_name_H-M   'P 1'
_cell_length_a   8.93721084
_cell_length_b   10.38235890
_cell_length_c   10.92047765
_cell_angle_alpha   106.39080046
_cell_angle_beta   90.00000000
_cell_angle_gamma   90.00000000
_symmetry_Int_Tables_number   1
_chemical_formula_structural   KEr(PO3)4
_chemical_formula_sum   'K4 Er4 P16 O48'
_cell_volume   972.12242918
_cell_formula_units_Z   4
loop_
 _symmetry_equiv_pos_site_id
 _symmetry_equiv_pos_as_xyz
  1  'x, y, z'
loop_
 _atom_site_type_symbol
 _atom_site_label
 _atom_site_symmetry_multiplicity
 _atom_site_fract_x
 _atom_site_fract_y
 _atom_site_fract_z
 _atom_site_occupancy
  Er  Er0  1  0.727596  0.500641  0.315877  1
  Er  Er1  1  0.227596  0.999359  0.184123  1
  Er  Er2  1  0.272404  0.499359  0.684123  1
  Er  Er3  1  0.772404  0.000641  0.815877  1
  P  P4  1  0.611434  0.823254  0.521798  1
  P  P5  1  0.111434  0.676746  0.978202  1
  P  P6  1  0.388566  0.176746  0.478202  1
  P  P7  1  0.888566  0.323254  0.021798  1
  P  P8  1  0.407588  0.851901  0.741821  1
  P  P9  1  0.907588  0.648099  0.758179  1
  P  P10  1  0.592412  0.148099  0.258179  1
  P  P11  1  0.092412  0.351901  0.241821  1
  P  P12  1  0.477119  0.752665  0.273611  1
  P  P13  1  0.977119  0.747335  0.226389  1
  P  P14  1  0.522881  0.247335  0.726389  1
  P  P15  1  0.022881  0.252665  0.773611  1
  P  P16  1  0.330723  0.540812  0.363240  1
  P  P17  1  0.830723  0.959188  0.136760  1
  P  P18  1  0.669277  0.459188  0.636760  1
  P  P19  1  0.169277  0.040812  0.863240  1
  K  K20  1  0.432752  0.295613  0.041272  1
  K  K21  1  0.932752  0.204387  0.458728  1
  K  K22  1  0.567248  0.704387  0.958728  1
  K  K23  1  0.067248  0.795613  0.541272  1
  O  O24  1  0.667576  0.681782  0.479960  1
  O  O25  1  0.167576  0.818218  0.020040  1
  O  O26  1  0.332424  0.318218  0.520040  1
  O  O27  1  0.832424  0.181782  0.979960  1
  O  O28  1  0.550080  0.861042  0.396854  1
  O  O29  1  0.050080  0.638958  0.103146  1
  O  O30  1  0.449920  0.138958  0.603146  1
  O  O31  1  0.949920  0.361042  0.896854  1
  O  O32  1  0.343804  0.686961  0.337798  1
  O  O33  1  0.843804  0.813039  0.162202  1
  O  O34  1  0.656196  0.313039  0.662202  1
  O  O35  1  0.156196  0.186961  0.837798  1
  O  O36  1  0.588013  0.644971  0.211195  1
  O  O37  1  0.088013  0.855029  0.288805  1
  O  O38  1  0.411987  0.355029  0.788805  1
  O  O39  1  0.911987  0.144971  0.711195  1
  O  O40  1  0.713616  0.931822  0.596739  1
  O  O41  1  0.213616  0.568178  0.903261  1
  O  O42  1  0.286384  0.068178  0.403261  1
  O  O43  1  0.786384  0.431822  0.096739  1
  O  O44  1  0.540568  0.899593  0.826643  1
  O  O45  1  0.040568  0.600407  0.673357  1
  O  O46  1  0.459432  0.100407  0.173357  1
  O  O47  1  0.959432  0.399593  0.326643  1
  O  O48  1  0.290207  0.974018  0.752550  1
  O  O49  1  0.790207  0.525982  0.747450  1
  O  O50  1  0.709793  0.025982  0.247450  1
  O  O51  1  0.209793  0.474018  0.252550  1
  O  O52  1  0.677747  0.266812  0.243468  1
  O  O53  1  0.177747  0.233188  0.256532  1
  O  O54  1  0.322253  0.733188  0.756532  1
  O  O55  1  0.822253  0.766812  0.743468  1
  O  O56  1  0.473794  0.463562  0.328457  1
  O  O57  1  0.973794  0.036438  0.171543  1
  O  O58  1  0.526206  0.536438  0.671543  1
  O  O59  1  0.026206  0.963562  0.828457  1
  O  O60  1  0.452844  0.827944  0.594994  1
  O  O61  1  0.952844  0.672056  0.905006  1
  O  O62  1  0.547156  0.172056  0.405006  1
  O  O63  1  0.047156  0.327944  0.094994  1
  O  O64  1  0.591369  0.168344  0.807601  1
  O  O65  1  0.091369  0.331656  0.692399  1
  O  O66  1  0.408631  0.831656  0.192399  1
  O  O67  1  0.908631  0.668344  0.307601  1
  O  O68  1  0.261118  0.564501  0.492382  1
  O  O69  1  0.761118  0.935499  0.007618  1
  O  O70  1  0.738882  0.435499  0.507618  1
  O  O71  1  0.238882  0.064501  0.992382  1
