# generated using pymatgen
data_HoAlB14
_symmetry_space_group_name_H-M   'P 1'
_cell_length_a   5.91131352
_cell_length_b   7.28628873
_cell_length_c   7.28628848
_cell_angle_alpha   68.87935384
_cell_angle_beta   66.06835814
_cell_angle_gamma   66.06835835
_symmetry_Int_Tables_number   1
_chemical_formula_structural   HoAlB14
_chemical_formula_sum   'Ho2 Al2 B28'
_cell_volume   254.88983893
_cell_formula_units_Z   2
loop_
 _symmetry_equiv_pos_site_id
 _symmetry_equiv_pos_as_xyz
  1  'x, y, z'
loop_
 _atom_site_type_symbol
 _atom_site_label
 _atom_site_symmetry_multiplicity
 _atom_site_fract_x
 _atom_site_fract_y
 _atom_site_fract_z
 _atom_site_occupancy
  Ho  Ho0  1  0.750000  0.597970  0.902030  1
  Ho  Ho1  1  0.250000  0.402030  0.097970  1
  Al  Al2  1  0.500000  0.000000  0.500000  1
  Al  Al3  1  0.000000  0.000000  0.500000  1
  B  B4  1  0.143985  0.230418  0.481612  1
  B  B5  1  0.672402  0.031715  0.127995  1
  B  B6  1  0.667436  0.366454  0.298673  1
  B  B7  1  0.832564  0.201327  0.133546  1
  B  B8  1  0.332564  0.633546  0.701327  1
  B  B9  1  0.398515  0.601537  0.277018  1
  B  B10  1  0.332112  0.372005  0.468285  1
  B  B11  1  0.856015  0.769582  0.518388  1
  B  B12  1  0.827598  0.372005  0.468285  1
  B  B13  1  0.172402  0.627995  0.531715  1
  B  B14  1  0.167436  0.798673  0.866454  1
  B  B15  1  0.590304  0.242796  0.576597  1
  B  B16  1  0.167888  0.031715  0.127995  1
  B  B17  1  0.101485  0.222982  0.898463  1
  B  B18  1  0.090304  0.076597  0.742796  1
  B  B19  1  0.601485  0.398463  0.722982  1
  B  B20  1  0.643985  0.981612  0.730418  1
  B  B21  1  0.409696  0.757204  0.423403  1
  B  B22  1  0.777070  0.222982  0.898463  1
  B  B23  1  0.277070  0.398463  0.722982  1
  B  B24  1  0.722930  0.601537  0.277018  1
  B  B25  1  0.898515  0.777018  0.101537  1
  B  B26  1  0.222930  0.777018  0.101537  1
  B  B27  1  0.667888  0.627995  0.531715  1
  B  B28  1  0.909696  0.923403  0.257204  1
  B  B29  1  0.356015  0.018388  0.269582  1
  B  B30  1  0.832112  0.968285  0.872005  1
  B  B31  1  0.327598  0.968285  0.872005  1
