# generated using pymatgen
data_Ga2Pt
_symmetry_space_group_name_H-M   'P 1'
_cell_length_a   8.64187143
_cell_length_b   8.64187722
_cell_length_c   12.70560024
_cell_angle_alpha   109.88046438
_cell_angle_beta   109.88044549
_cell_angle_gamma   89.99353635
_symmetry_Int_Tables_number   1
_chemical_formula_structural   Ga2Pt
_chemical_formula_sum   'Ga32 Pt16'
_cell_volume   831.96020427
_cell_formula_units_Z   16
loop_
 _symmetry_equiv_pos_site_id
 _symmetry_equiv_pos_as_xyz
  1  'x, y, z'
loop_
 _atom_site_type_symbol
 _atom_site_label
 _atom_site_symmetry_multiplicity
 _atom_site_fract_x
 _atom_site_fract_y
 _atom_site_fract_z
 _atom_site_occupancy
  Ga  Ga0  1  0.353814  0.290503  0.124411  1
  Ga  Ga1  1  0.146241  0.666068  0.875623  1
  Ga  Ga2  1  0.583740  0.519916  0.124194  1
  Ga  Ga3  1  0.790426  0.770633  0.624378  1
  Ga  Ga4  1  0.416260  0.480084  0.875806  1
  Ga  Ga5  1  0.853759  0.333932  0.124377  1
  Ga  Ga6  1  0.895663  0.916339  0.375820  1
  Ga  Ga7  1  0.083661  0.104337  0.124180  1
  Ga  Ga8  1  0.040468  0.604302  0.124191  1
  Ga  Ga9  1  0.833935  0.270649  0.624420  1
  Ga  Ga10  1  0.333932  0.853759  0.624377  1
  Ga  Ga11  1  0.459499  0.980127  0.875812  1
  Ga  Ga12  1  0.916339  0.895663  0.875820  1
  Ga  Ga13  1  0.104337  0.083661  0.624180  1
  Ga  Ga14  1  0.270649  0.833935  0.124420  1
  Ga  Ga15  1  0.959532  0.395698  0.875809  1
  Ga  Ga16  1  0.019873  0.540501  0.624188  1
  Ga  Ga17  1  0.666068  0.146241  0.375623  1
  Ga  Ga18  1  0.480084  0.416260  0.375806  1
  Ga  Ga19  1  0.709497  0.646186  0.375588  1
  Ga  Ga20  1  0.540501  0.019873  0.124188  1
  Ga  Ga21  1  0.229367  0.209574  0.875622  1
  Ga  Ga22  1  0.209574  0.229367  0.375622  1
  Ga  Ga23  1  0.166065  0.729351  0.375580  1
  Ga  Ga24  1  0.729351  0.166065  0.875580  1
  Ga  Ga25  1  0.395698  0.959532  0.375809  1
  Ga  Ga26  1  0.519916  0.583740  0.624194  1
  Ga  Ga27  1  0.770633  0.790426  0.124378  1
  Ga  Ga28  1  0.290503  0.353814  0.624412  1
  Ga  Ga29  1  0.646186  0.709497  0.875589  1
  Ga  Ga30  1  0.980127  0.459499  0.375812  1
  Ga  Ga31  1  0.604302  0.040468  0.624191  1
  Pt  Pt32  1  0.515078  0.265074  0.530135  1
  Pt  Pt33  1  0.734926  0.484922  0.969865  1
  Pt  Pt34  1  0.073399  0.926601  0.250000  1
  Pt  Pt35  1  0.676604  0.323396  0.250000  1
  Pt  Pt36  1  0.426492  0.176502  0.749990  1
  Pt  Pt37  1  0.765054  0.015038  0.030085  1
  Pt  Pt38  1  0.265074  0.515078  0.030135  1
  Pt  Pt39  1  0.484922  0.734926  0.469865  1
  Pt  Pt40  1  0.015038  0.765054  0.530085  1
  Pt  Pt41  1  0.926601  0.073399  0.750000  1
  Pt  Pt42  1  0.573508  0.823498  0.250010  1
  Pt  Pt43  1  0.234946  0.984962  0.969915  1
  Pt  Pt44  1  0.823498  0.573508  0.750010  1
  Pt  Pt45  1  0.323396  0.676604  0.750000  1
  Pt  Pt46  1  0.984962  0.234946  0.469915  1
  Pt  Pt47  1  0.176502  0.426492  0.249990  1
