# generated using pymatgen
data_K2Cu(PS3)3
_symmetry_space_group_name_H-M   'P 1'
_cell_length_a   6.90597381
_cell_length_b   9.75612693
_cell_length_c   24.34122465
_cell_angle_alpha   90.00000000
_cell_angle_beta   90.00000000
_cell_angle_gamma   99.43152511
_symmetry_Int_Tables_number   1
_chemical_formula_structural   K2Cu(PS3)3
_chemical_formula_sum   'K8 Cu4 P12 S36'
_cell_volume   1617.83424570
_cell_formula_units_Z   4
loop_
 _symmetry_equiv_pos_site_id
 _symmetry_equiv_pos_as_xyz
  1  'x, y, z'
loop_
 _atom_site_type_symbol
 _atom_site_label
 _atom_site_symmetry_multiplicity
 _atom_site_fract_x
 _atom_site_fract_y
 _atom_site_fract_z
 _atom_site_occupancy
  K  K0  1  0.771424  0.261948  0.455846  1
  K  K1  1  0.829745  0.627623  0.195701  1
  K  K2  1  0.170255  0.372377  0.804299  1
  K  K3  1  0.329745  0.127623  0.304299  1
  K  K4  1  0.670255  0.872377  0.695701  1
  K  K5  1  0.271424  0.761948  0.044154  1
  K  K6  1  0.728576  0.238052  0.955846  1
  K  K7  1  0.228576  0.738052  0.544154  1
  Cu  Cu8  1  0.570662  0.307798  0.108536  1
  Cu  Cu9  1  0.929338  0.192202  0.608536  1
  Cu  Cu10  1  0.429338  0.692202  0.891464  1
  Cu  Cu11  1  0.070662  0.807798  0.391464  1
  P  P12  1  0.561361  0.839026  0.400846  1
  P  P13  1  0.061361  0.339026  0.099154  1
  P  P14  1  0.762273  0.011165  0.101809  1
  P  P15  1  0.685279  0.280916  0.720877  1
  P  P16  1  0.438639  0.160974  0.599154  1
  P  P17  1  0.814721  0.219084  0.220877  1
  P  P18  1  0.185279  0.780916  0.779123  1
  P  P19  1  0.237727  0.988835  0.898191  1
  P  P20  1  0.938639  0.660974  0.900846  1
  P  P21  1  0.737727  0.488835  0.601809  1
  P  P22  1  0.314721  0.719084  0.279123  1
  P  P23  1  0.262273  0.511165  0.398191  1
  S  S24  1  0.717077  0.682896  0.581349  1
  S  S25  1  0.920714  0.192919  0.703369  1
  S  S26  1  0.523264  0.083052  0.075679  1
  S  S27  1  0.832078  0.924509  0.425198  1
  S  S28  1  0.079873  0.333749  0.186905  1
  S  S29  1  0.200082  0.986025  0.811274  1
  S  S30  1  0.667922  0.575491  0.925198  1
  S  S31  1  0.579873  0.833749  0.313095  1
  S  S32  1  0.472419  0.369563  0.569544  1
  S  S33  1  0.023264  0.583052  0.424321  1
  S  S34  1  0.350225  0.941867  0.427505  1
  S  S35  1  0.799918  0.013975  0.188726  1
  S  S36  1  0.920127  0.666251  0.813095  1
  S  S37  1  0.976736  0.416948  0.575679  1
  S  S38  1  0.700082  0.486025  0.688726  1
  S  S39  1  0.282923  0.317104  0.418651  1
  S  S40  1  0.527581  0.630437  0.430456  1
  S  S41  1  0.332078  0.424509  0.074802  1
  S  S42  1  0.420714  0.692919  0.796631  1
  S  S43  1  0.649775  0.058133  0.572495  1
  S  S44  1  0.872817  0.197215  0.299327  1
  S  S45  1  0.850225  0.441867  0.072495  1
  S  S46  1  0.217077  0.182896  0.918651  1
  S  S47  1  0.627183  0.302785  0.799327  1
  S  S48  1  0.372817  0.697215  0.200673  1
  S  S49  1  0.149775  0.558133  0.927505  1
  S  S50  1  0.127183  0.802785  0.700673  1
  S  S51  1  0.782923  0.817104  0.081349  1
  S  S52  1  0.027581  0.130437  0.069544  1
  S  S53  1  0.167922  0.075491  0.574802  1
  S  S54  1  0.299918  0.513975  0.311274  1
  S  S55  1  0.972419  0.869563  0.930456  1
  S  S56  1  0.420127  0.166251  0.686905  1
  S  S57  1  0.579286  0.307081  0.203369  1
  S  S58  1  0.476736  0.916948  0.924321  1
  S  S59  1  0.079286  0.807081  0.296631  1
