# generated using pymatgen
data_Zr2P2O9
_symmetry_space_group_name_H-M   'P 1'
_cell_length_a   6.68903858
_cell_length_b   7.73739415
_cell_length_c   8.38117845
_cell_angle_alpha   79.08068906
_cell_angle_beta   66.48112644
_cell_angle_gamma   64.38930767
_symmetry_Int_Tables_number   1
_chemical_formula_structural   Zr2P2O9
_chemical_formula_sum   'Zr4 P4 O18'
_cell_volume   358.58738601
_cell_formula_units_Z   2
loop_
 _symmetry_equiv_pos_site_id
 _symmetry_equiv_pos_as_xyz
  1  'x, y, z'
loop_
 _atom_site_type_symbol
 _atom_site_label
 _atom_site_symmetry_multiplicity
 _atom_site_fract_x
 _atom_site_fract_y
 _atom_site_fract_z
 _atom_site_occupancy
  Zr  Zr0  1  0.943260  0.211795  0.901685  1
  Zr  Zr1  1  0.056740  0.788205  0.098315  1
  Zr  Zr2  1  0.315444  0.733273  0.635839  1
  Zr  Zr3  1  0.684556  0.266727  0.364161  1
  P  P4  1  0.406933  0.351478  0.834657  1
  P  P5  1  0.170247  0.200890  0.458617  1
  P  P6  1  0.593067  0.648522  0.165344  1
  P  P7  1  0.829753  0.799110  0.541383  1
  O  O8  1  0.996520  0.269673  0.360125  1
  O  O9  1  0.758014  0.754177  0.105502  1
  O  O10  1  0.516547  0.601061  0.365844  1
  O  O11  1  0.241986  0.245823  0.894498  1
  O  O12  1  0.373681  0.269673  0.360125  1
  O  O13  1  0.003480  0.730327  0.639875  1
  O  O14  1  0.267483  0.562944  0.902089  1
  O  O15  1  0.732517  0.437056  0.097911  1
  O  O16  1  0.483453  0.398939  0.634156  1
  O  O17  1  0.727913  0.020837  0.523337  1
  O  O18  1  0.034721  0.288301  0.642258  1
  O  O19  1  0.965279  0.711699  0.357742  1
  O  O20  1  0.886370  0.071733  0.155527  1
  O  O21  1  0.626319  0.730327  0.639875  1
  O  O22  1  0.617693  0.245823  0.894498  1
  O  O23  1  0.272087  0.979163  0.476663  1
  O  O24  1  0.382307  0.754177  0.105502  1
  O  O25  1  0.113630  0.928267  0.844473  1
