# generated using pymatgen
data_K2BiPWO8
_symmetry_space_group_name_H-M   'P 1'
_cell_length_a   7.15338584
_cell_length_b   12.37795201
_cell_length_c   12.37795125
_cell_angle_alpha   61.22766095
_cell_angle_beta   73.20449515
_cell_angle_gamma   73.20449044
_symmetry_Int_Tables_number   1
_chemical_formula_structural   K2BiPWO8
_chemical_formula_sum   'K8 Bi4 P4 W4 O32'
_cell_volume   904.91580002
_cell_formula_units_Z   4
loop_
 _symmetry_equiv_pos_site_id
 _symmetry_equiv_pos_as_xyz
  1  'x, y, z'
loop_
 _atom_site_type_symbol
 _atom_site_label
 _atom_site_symmetry_multiplicity
 _atom_site_fract_x
 _atom_site_fract_y
 _atom_site_fract_z
 _atom_site_occupancy
  K  K0  1  0.124179  0.765999  0.422246  1
  K  K1  1  0.687576  0.265999  0.922246  1
  K  K2  1  0.812424  0.577754  0.234001  1
  K  K3  1  0.312424  0.734001  0.077754  1
  K  K4  1  0.375821  0.077754  0.734001  1
  K  K5  1  0.624179  0.922246  0.265999  1
  K  K6  1  0.187576  0.422246  0.765999  1
  K  K7  1  0.875821  0.234001  0.577754  1
  Bi  Bi8  1  0.250000  0.330334  0.169666  1
  Bi  Bi9  1  0.750000  0.669666  0.830334  1
  Bi  Bi10  1  0.750000  0.169666  0.330334  1
  Bi  Bi11  1  0.250000  0.830334  0.669666  1
  P  P12  1  0.750000  0.926839  0.573161  1
  P  P13  1  0.750000  0.426839  0.073161  1
  P  P14  1  0.250000  0.073161  0.426839  1
  P  P15  1  0.250000  0.573161  0.926839  1
  W  W16  1  0.331864  0.418136  0.418136  1
  W  W17  1  0.668136  0.581864  0.581864  1
  W  W18  1  0.831864  0.918136  0.918136  1
  W  W19  1  0.168136  0.081864  0.081864  1
  O  O20  1  0.785324  0.938498  0.438616  1
  O  O21  1  0.337562  0.438616  0.938498  1
  O  O22  1  0.281540  0.918250  0.143918  1
  O  O23  1  0.218460  0.356082  0.581750  1
  O  O24  1  0.662438  0.561384  0.061502  1
  O  O25  1  0.907210  0.359992  0.161836  1
  O  O26  1  0.718460  0.081750  0.856082  1
  O  O27  1  0.678548  0.832870  0.901204  1
  O  O28  1  0.587379  0.332870  0.401204  1
  O  O29  1  0.843708  0.856082  0.081750  1
  O  O30  1  0.092790  0.640008  0.838164  1
  O  O31  1  0.837562  0.438498  0.938616  1
  O  O32  1  0.912621  0.098796  0.167130  1
  O  O33  1  0.412621  0.667130  0.598796  1
  O  O34  1  0.343708  0.581750  0.356082  1
  O  O35  1  0.214676  0.061502  0.561384  1
  O  O36  1  0.087379  0.901204  0.832870  1
  O  O37  1  0.821452  0.598796  0.667130  1
  O  O38  1  0.592790  0.338164  0.140008  1
  O  O39  1  0.570962  0.859992  0.661836  1
  O  O40  1  0.781540  0.643918  0.418250  1
  O  O41  1  0.285324  0.938616  0.438498  1
  O  O42  1  0.178548  0.401204  0.332870  1
  O  O43  1  0.321452  0.167130  0.098796  1
  O  O44  1  0.162438  0.561502  0.061384  1
  O  O45  1  0.156292  0.143918  0.918250  1
  O  O46  1  0.407210  0.661836  0.859992  1
  O  O47  1  0.929038  0.838164  0.640008  1
  O  O48  1  0.656292  0.418250  0.643918  1
  O  O49  1  0.429038  0.140008  0.338164  1
  O  O50  1  0.714676  0.061384  0.561502  1
  O  O51  1  0.070962  0.161836  0.359992  1
