# generated using pymatgen
data_VAs2H4O9
_symmetry_space_group_name_H-M   'P 1'
_cell_length_a   8.25435641
_cell_length_b   9.31698142
_cell_length_c   9.31698142
_cell_angle_alpha   90.00000000
_cell_angle_beta   90.00000000
_cell_angle_gamma   90.00000000
_symmetry_Int_Tables_number   1
_chemical_formula_structural   VAs2H4O9
_chemical_formula_sum   'V4 As8 H16 O36'
_cell_volume   716.52884109
_cell_formula_units_Z   4
loop_
 _symmetry_equiv_pos_site_id
 _symmetry_equiv_pos_as_xyz
  1  'x, y, z'
loop_
 _atom_site_type_symbol
 _atom_site_label
 _atom_site_symmetry_multiplicity
 _atom_site_fract_x
 _atom_site_fract_y
 _atom_site_fract_z
 _atom_site_occupancy
  As  As0  1  0.250000  0.465060  0.534940  1
  As  As1  1  0.250000  0.965060  0.465060  1
  As  As2  1  0.250000  0.534940  0.034940  1
  As  As3  1  0.250000  0.034940  0.965060  1
  As  As4  1  0.750000  0.534940  0.465060  1
  As  As5  1  0.750000  0.034940  0.534940  1
  As  As6  1  0.750000  0.465060  0.965060  1
  As  As7  1  0.750000  0.965060  0.034940  1
  V  V8  1  0.196964  0.250000  0.250000  1
  V  V9  1  0.303036  0.750000  0.750000  1
  V  V10  1  0.803036  0.750000  0.750000  1
  V  V11  1  0.696964  0.250000  0.250000  1
  O  O12  1  0.076953  0.383997  0.611772  1
  O  O13  1  0.076953  0.888228  0.383997  1
  O  O14  1  0.076953  0.611772  0.116003  1
  O  O15  1  0.076953  0.116003  0.888228  1
  O  O16  1  0.423047  0.883997  0.388228  1
  O  O17  1  0.423047  0.616003  0.111772  1
  O  O18  1  0.423047  0.111772  0.883997  1
  O  O19  1  0.423047  0.388228  0.616003  1
  O  O20  1  0.923047  0.616003  0.388228  1
  O  O21  1  0.923047  0.111772  0.616003  1
  O  O22  1  0.923047  0.388228  0.883997  1
  O  O23  1  0.923047  0.883997  0.111772  1
  O  O24  1  0.576953  0.116003  0.611772  1
  O  O25  1  0.576953  0.383997  0.888228  1
  O  O26  1  0.576953  0.888228  0.116003  1
  O  O27  1  0.576953  0.611772  0.383997  1
  O  O28  1  0.243845  0.432975  0.356445  1
  O  O29  1  0.243845  0.143555  0.432975  1
  O  O30  1  0.243845  0.356445  0.067025  1
  O  O31  1  0.243845  0.067025  0.143555  1
  O  O32  1  0.256155  0.932975  0.643555  1
  O  O33  1  0.256155  0.567025  0.856445  1
  O  O34  1  0.256155  0.856445  0.932975  1
  O  O35  1  0.256155  0.643555  0.567025  1
  O  O36  1  0.756155  0.567025  0.643555  1
  O  O37  1  0.756155  0.856445  0.567025  1
  O  O38  1  0.756155  0.643555  0.932975  1
  O  O39  1  0.756155  0.932975  0.856445  1
  O  O40  1  0.743845  0.067025  0.356445  1
  O  O41  1  0.743845  0.432975  0.143555  1
  O  O42  1  0.743845  0.143555  0.067025  1
  O  O43  1  0.743845  0.356445  0.432975  1
  O  O44  1  0.997092  0.250000  0.250000  1
  O  O45  1  0.502908  0.750000  0.750000  1
  O  O46  1  0.002908  0.750000  0.750000  1
  O  O47  1  0.497092  0.250000  0.250000  1
  H  H48  1  0.053078  0.422030  0.708815  1
  H  H49  1  0.053078  0.791185  0.422030  1
  H  H50  1  0.053078  0.708815  0.077970  1
  H  H51  1  0.053078  0.077970  0.791185  1
  H  H52  1  0.446922  0.922030  0.291185  1
  H  H53  1  0.446922  0.577970  0.208815  1
  H  H54  1  0.446922  0.208815  0.922030  1
  H  H55  1  0.446922  0.291185  0.577970  1
  H  H56  1  0.946922  0.577970  0.291185  1
  H  H57  1  0.946922  0.208815  0.577970  1
  H  H58  1  0.946922  0.291185  0.922030  1
  H  H59  1  0.946922  0.922030  0.208815  1
  H  H60  1  0.553078  0.077970  0.708815  1
  H  H61  1  0.553078  0.422030  0.791185  1
  H  H62  1  0.553078  0.791185  0.077970  1
  H  H63  1  0.553078  0.708815  0.422030  1
