# generated using pymatgen
data_NaMnCrF6
_symmetry_space_group_name_H-M   'P 1'
_cell_length_a   9.16719395
_cell_length_b   9.16719395
_cell_length_c   5.08437342
_cell_angle_alpha   90.00000000
_cell_angle_beta   90.00000000
_cell_angle_gamma   119.99999998
_symmetry_Int_Tables_number   1
_chemical_formula_structural   NaMnCrF6
_chemical_formula_sum   'Na3 Mn3 Cr3 F18'
_cell_volume   370.03338693
_cell_formula_units_Z   3
loop_
 _symmetry_equiv_pos_site_id
 _symmetry_equiv_pos_as_xyz
  1  'x, y, z'
loop_
 _atom_site_type_symbol
 _atom_site_label
 _atom_site_symmetry_multiplicity
 _atom_site_fract_x
 _atom_site_fract_y
 _atom_site_fract_z
 _atom_site_occupancy
  F  F0  1  0.774947  0.233874  0.295328  1
  F  F1  1  0.766126  0.541073  0.295328  1
  F  F2  1  0.458927  0.225053  0.295328  1
  F  F3  1  0.541073  0.766126  0.704672  1
  F  F4  1  0.225053  0.458927  0.704672  1
  F  F5  1  0.233874  0.774947  0.704672  1
  F  F6  1  0.408235  0.538330  0.285811  1
  F  F7  1  0.461670  0.869905  0.285811  1
  F  F8  1  0.130095  0.591765  0.285811  1
  F  F9  1  0.900756  0.101818  0.778477  1
  F  F10  1  0.898182  0.798938  0.778477  1
  F  F11  1  0.201062  0.099244  0.778477  1
  F  F12  1  0.798938  0.898182  0.221523  1
  F  F13  1  0.099244  0.201062  0.221523  1
  F  F14  1  0.101818  0.900756  0.221523  1
  F  F15  1  0.538330  0.408235  0.714189  1
  F  F16  1  0.591765  0.130095  0.714189  1
  F  F17  1  0.869905  0.461670  0.714189  1
  Na  Na18  1  0.370246  0.000000  0.000000  1
  Na  Na19  1  0.000000  0.370246  0.000000  1
  Na  Na20  1  0.629754  0.629754  0.000000  1
  Cr  Cr21  1  0.333333  0.666667  0.495885  1
  Cr  Cr22  1  0.666667  0.333333  0.504115  1
  Cr  Cr23  1  0.000000  0.000000  0.000000  1
  Mn  Mn24  1  0.700688  0.000000  0.500000  1
  Mn  Mn25  1  0.299312  0.299312  0.500000  1
  Mn  Mn26  1  0.000000  0.700688  0.500000  1
