# generated using pymatgen
data_PuAl4
_symmetry_space_group_name_H-M   'P 1'
_cell_length_a   4.33528873
_cell_length_b   6.12067463
_cell_length_c   7.90081323
_cell_angle_alpha   112.78936296
_cell_angle_beta   105.92370983
_cell_angle_gamma   89.99999579
_symmetry_Int_Tables_number   1
_chemical_formula_structural   PuAl4
_chemical_formula_sum   'Pu2 Al8'
_cell_volume   184.52438860
_cell_formula_units_Z   2
loop_
 _symmetry_equiv_pos_site_id
 _symmetry_equiv_pos_as_xyz
  1  'x, y, z'
loop_
 _atom_site_type_symbol
 _atom_site_label
 _atom_site_symmetry_multiplicity
 _atom_site_fract_x
 _atom_site_fract_y
 _atom_site_fract_z
 _atom_site_occupancy
  Pu  Pu0  1  0.889616  0.639616  0.779234  1
  Pu  Pu1  1  0.110384  0.360384  0.220766  1
  Al  Al2  1  0.301684  0.813412  0.603367  1
  Al  Al3  1  0.698316  0.186588  0.396633  1
  Al  Al4  1  0.301684  0.289955  0.603367  1
  Al  Al5  1  0.107527  0.857527  0.215055  1
  Al  Al6  1  0.892473  0.142473  0.784945  1
  Al  Al7  1  0.698316  0.710045  0.396633  1
  Al  Al8  1  0.500000  0.000000  -0.000000  1
  Al  Al9  1  0.500000  0.500000  -0.000000  1
