# generated using pymatgen
data_NaAg(NO2)2
_symmetry_space_group_name_H-M   'P 1'
_cell_length_a   6.72292091
_cell_length_b   6.72292060
_cell_length_c   6.92571389
_cell_angle_alpha   110.83275159
_cell_angle_beta   110.83275062
_cell_angle_gamma   105.50141226
_symmetry_Int_Tables_number   1
_chemical_formula_structural   NaAg(NO2)2
_chemical_formula_sum   'Na2 Ag2 N4 O8'
_cell_volume   244.08057848
_cell_formula_units_Z   2
loop_
 _symmetry_equiv_pos_site_id
 _symmetry_equiv_pos_as_xyz
  1  'x, y, z'
loop_
 _atom_site_type_symbol
 _atom_site_label
 _atom_site_symmetry_multiplicity
 _atom_site_fract_x
 _atom_site_fract_y
 _atom_site_fract_z
 _atom_site_occupancy
  Na  Na0  1  0.761593  0.238407  0.500000  1
  Na  Na1  1  0.511593  0.488407  1.000000  1
  Ag  Ag2  1  0.249650  0.750350  0.500000  1
  Ag  Ag3  1  -0.000350  1.000350  1.000000  1
  N  N4  1  0.517502  0.482498  0.500000  1
  N  N5  1  0.267502  0.732498  0.000000  1
  N  N6  1  0.794937  0.205063  0.000000  1
  N  N7  1  0.044937  0.955063  0.500000  1
  O  O8  1  0.781930  0.316428  0.181910  1
  O  O9  1  0.683572  0.218070  0.818090  1
  O  O10  1  0.850020  0.884517  0.318090  1
  O  O11  1  0.405317  0.499602  0.320344  1
  O  O12  1  0.115483  0.149980  0.681910  1
  O  O13  1  0.070742  0.665027  0.820344  1
  O  O14  1  0.500398  0.594683  0.679656  1
  O  O15  1  0.334973  0.929258  0.179656  1
