# generated using pymatgen
data_Ho10Si17
_symmetry_space_group_name_H-M   'P 1'
_cell_length_a   6.67952772
_cell_length_b   8.23263663
_cell_length_c   10.93591345
_cell_angle_alpha   112.11109544
_cell_angle_beta   107.78187922
_cell_angle_gamma   90.00000040
_symmetry_Int_Tables_number   1
_chemical_formula_structural   Ho10Si17
_chemical_formula_sum   'Ho10 Si17'
_cell_volume   526.00031506
_cell_formula_units_Z   1
loop_
 _symmetry_equiv_pos_site_id
 _symmetry_equiv_pos_as_xyz
  1  'x, y, z'
loop_
 _atom_site_type_symbol
 _atom_site_label
 _atom_site_symmetry_multiplicity
 _atom_site_fract_x
 _atom_site_fract_y
 _atom_site_fract_z
 _atom_site_occupancy
  Ho  Ho0  1  0.563846  0.052241  0.600380  1
  Ho  Ho1  1  0.368847  0.352622  0.200825  1
  Ho  Ho2  1  0.168022  0.151798  0.799175  1
  Ho  Ho3  1  0.963466  0.451860  0.399620  1
  Ho  Ho4  1  0.168022  0.647378  0.799175  1
  Ho  Ho5  1  0.963466  0.947759  0.399620  1
  Ho  Ho6  1  0.368847  0.848202  0.200825  1
  Ho  Ho7  1  0.563846  0.548140  0.600380  1
  Ho  Ho8  1  0.761066  0.244591  1.000000  1
  Ho  Ho9  1  0.761066  0.755409  0.000000  1
  Si  Si10  1  0.506197  0.895561  0.791122  1
  Si  Si11  1  0.088445  0.121523  0.243047  1
  Si  Si12  1  0.178765  0.800890  0.601780  1
  Si  Si13  1  0.897598  0.300575  0.601151  1
  Si  Si14  1  0.501860  0.399816  0.799631  1
  Si  Si15  1  0.845398  0.878477  0.756953  1
  Si  Si16  1  0.715075  0.104439  0.208878  1
  Si  Si17  1  0.576986  0.199110  0.398220  1
  Si  Si18  1  0.296447  0.699425  0.398849  1
  Si  Si19  1  0.431795  1.000000  1.000000  1
  Si  Si20  1  0.671842  0.715153  0.430306  1
  Si  Si21  1  0.702229  0.600184  0.200369  1
  Si  Si22  1  0.081086  0.000000  0.000000  1
  Si  Si23  1  0.388224  0.500000  0.000000  1
  Si  Si24  1  0.241536  0.284847  0.569694  1
  Si  Si25  1  0.039308  0.581836  0.163673  1
  Si  Si26  1  0.875635  0.418164  0.836327  1
