# generated using pymatgen
data_FeAg3(CN)6
_symmetry_space_group_name_H-M   'P 1'
_cell_length_a   7.01145825
_cell_length_b   7.01145840
_cell_length_c   7.27486621
_cell_angle_alpha   90.00000000
_cell_angle_beta   90.00000000
_cell_angle_gamma   119.99999924
_symmetry_Int_Tables_number   1
_chemical_formula_structural   FeAg3(CN)6
_chemical_formula_sum   'Fe1 Ag3 C6 N6'
_cell_volume   309.72221742
_cell_formula_units_Z   1
loop_
 _symmetry_equiv_pos_site_id
 _symmetry_equiv_pos_as_xyz
  1  'x, y, z'
loop_
 _atom_site_type_symbol
 _atom_site_label
 _atom_site_symmetry_multiplicity
 _atom_site_fract_x
 _atom_site_fract_y
 _atom_site_fract_z
 _atom_site_occupancy
  Fe  Fe0  1  0.000000  0.000000  0.000000  1
  Ag  Ag1  1  0.000000  0.500000  0.500000  1
  Ag  Ag2  1  0.500000  0.000000  0.500000  1
  Ag  Ag3  1  0.500000  0.500000  0.500000  1
  C  C4  1  0.784736  0.784736  0.158007  1
  C  C5  1  0.000000  0.784736  0.841993  1
  C  C6  1  0.215264  0.215264  0.841993  1
  C  C7  1  1.000000  0.215264  0.158007  1
  C  C8  1  0.784736  0.000000  0.841993  1
  C  C9  1  0.215264  0.000000  0.158007  1
  N  N10  1  0.000000  0.338985  0.266535  1
  N  N11  1  0.661015  0.000000  0.733465  1
  N  N12  1  0.338985  0.338985  0.733465  1
  N  N13  1  0.661015  0.661015  0.266535  1
  N  N14  1  1.000000  0.661015  0.733465  1
  N  N15  1  0.338985  0.000000  0.266535  1
