# generated using pymatgen
data_K3VSO3
_symmetry_space_group_name_H-M   'P 1'
_cell_length_a   5.98865554
_cell_length_b   6.69825179
_cell_length_c   8.86454332
_cell_angle_alpha   102.51418455
_cell_angle_beta   90.00000000
_cell_angle_gamma   90.00000000
_symmetry_Int_Tables_number   1
_chemical_formula_structural   K3VSO3
_chemical_formula_sum   'K6 V2 S2 O6'
_cell_volume   347.14013857
_cell_formula_units_Z   2
loop_
 _symmetry_equiv_pos_site_id
 _symmetry_equiv_pos_as_xyz
  1  'x, y, z'
loop_
 _atom_site_type_symbol
 _atom_site_label
 _atom_site_symmetry_multiplicity
 _atom_site_fract_x
 _atom_site_fract_y
 _atom_site_fract_z
 _atom_site_occupancy
  K  K0  1  0.750000  0.312733  0.468079  1
  K  K1  1  0.250000  0.752052  0.003811  1
  K  K2  1  0.250000  0.687267  0.531921  1
  K  K3  1  0.750000  0.247948  0.996189  1
  K  K4  1  0.250000  0.218133  0.721542  1
  K  K5  1  0.750000  0.781867  0.278458  1
  V  V6  1  0.750000  0.695650  0.790921  1
  V  V7  1  0.250000  0.304350  0.209080  1
  S  S8  1  0.750000  0.941885  0.652292  1
  S  S9  1  0.250000  0.058115  0.347708  1
  O  O10  1  0.250000  0.193380  0.014477  1
  O  O11  1  0.750000  0.806620  0.985523  1
  O  O12  1  0.984089  0.545290  0.742543  1
  O  O13  1  0.015911  0.454710  0.257457  1
  O  O14  1  0.515911  0.545290  0.742543  1
  O  O15  1  0.484089  0.454710  0.257457  1
