# generated using pymatgen
data_SeN
_symmetry_space_group_name_H-M   'P 1'
_cell_length_a   6.79726254
_cell_length_b   7.27940183
_cell_length_c   7.27940181
_cell_angle_alpha   90.15524574
_cell_angle_beta   99.79024614
_cell_angle_gamma   99.79024359
_symmetry_Int_Tables_number   1
_chemical_formula_structural   SeN
_chemical_formula_sum   'Se8 N8'
_cell_volume   349.58487401
_cell_formula_units_Z   8
loop_
 _symmetry_equiv_pos_site_id
 _symmetry_equiv_pos_as_xyz
  1  'x, y, z'
loop_
 _atom_site_type_symbol
 _atom_site_label
 _atom_site_symmetry_multiplicity
 _atom_site_fract_x
 _atom_site_fract_y
 _atom_site_fract_z
 _atom_site_occupancy
  Se  Se0  1  0.571546  0.762817  0.361925  1
  Se  Se1  1  0.411519  0.234610  0.024122  1
  Se  Se2  1  0.071546  0.361925  0.762817  1
  Se  Se3  1  0.588481  0.765390  0.975878  1
  Se  Se4  1  0.428454  0.237183  0.638075  1
  Se  Se5  1  0.911519  0.024122  0.234610  1
  Se  Se6  1  0.928454  0.638075  0.237183  1
  Se  Se7  1  0.088481  0.975878  0.765390  1
  N  N8  1  0.250000  0.396564  0.603436  1
  N  N9  1  0.270041  0.009857  0.607988  1
  N  N10  1  0.750000  0.992124  0.007876  1
  N  N11  1  0.250000  0.007876  0.992124  1
  N  N12  1  0.750000  0.603436  0.396564  1
  N  N13  1  0.229959  0.392012  0.990143  1
  N  N14  1  0.770041  0.607988  0.009857  1
  N  N15  1  0.729959  0.990143  0.392012  1
