# generated using pymatgen
data_SrNi9P5
_symmetry_space_group_name_H-M   'P 1'
_cell_length_a   6.50898578
_cell_length_b   6.50898589
_cell_length_c   10.76869470
_cell_angle_alpha   90.00000000
_cell_angle_beta   90.00000000
_cell_angle_gamma   119.99999942
_symmetry_Int_Tables_number   1
_chemical_formula_structural   SrNi9P5
_chemical_formula_sum   'Sr2 Ni18 P10'
_cell_volume   395.11212012
_cell_formula_units_Z   2
loop_
 _symmetry_equiv_pos_site_id
 _symmetry_equiv_pos_as_xyz
  1  'x, y, z'
loop_
 _atom_site_type_symbol
 _atom_site_label
 _atom_site_symmetry_multiplicity
 _atom_site_fract_x
 _atom_site_fract_y
 _atom_site_fract_z
 _atom_site_occupancy
  Sr  Sr0  1  0.000000  0.000000  0.000000  1
  Sr  Sr1  1  0.000000  0.000000  0.500000  1
  Ni  Ni2  1  0.535894  0.071789  0.107466  1
  Ni  Ni3  1  0.464106  0.535894  0.607466  1
  Ni  Ni4  1  0.071789  0.535894  0.607466  1
  Ni  Ni5  1  0.928211  0.464106  0.107466  1
  Ni  Ni6  1  0.535894  0.464106  0.107466  1
  Ni  Ni7  1  0.464106  0.928211  0.892534  1
  Ni  Ni8  1  0.464106  0.535894  0.892534  1
  Ni  Ni9  1  0.464106  0.928211  0.607466  1
  Ni  Ni10  1  0.071789  0.535894  0.892534  1
  Ni  Ni11  1  0.928211  0.464106  0.392534  1
  Ni  Ni12  1  0.535894  0.071789  0.392534  1
  Ni  Ni13  1  0.535894  0.464106  0.392534  1
  Ni  Ni14  1  0.202585  0.405169  0.250000  1
  Ni  Ni15  1  0.797415  0.202585  0.750000  1
  Ni  Ni16  1  0.405169  0.202585  0.750000  1
  Ni  Ni17  1  0.594831  0.797415  0.250000  1
  Ni  Ni18  1  0.202585  0.797415  0.250000  1
  Ni  Ni19  1  0.797415  0.594831  0.750000  1
  P  P20  1  0.826204  0.652408  0.250000  1
  P  P21  1  0.173796  0.826204  0.750000  1
  P  P22  1  0.652408  0.826204  0.750000  1
  P  P23  1  0.347592  0.173796  0.250000  1
  P  P24  1  0.826204  0.173796  0.250000  1
  P  P25  1  0.173796  0.347592  0.750000  1
  P  P26  1  0.333333  0.666667  0.061656  1
  P  P27  1  0.666667  0.333333  0.561656  1
  P  P28  1  0.666667  0.333333  0.938344  1
  P  P29  1  0.333333  0.666667  0.438344  1
