# generated using pymatgen
data_Ba3EuRu2O9
_symmetry_space_group_name_H-M   'P 1'
_cell_length_a   6.00928301
_cell_length_b   6.00928299
_cell_length_c   14.72075774
_cell_angle_alpha   90.00000000
_cell_angle_beta   90.00000000
_cell_angle_gamma   120.00000008
_symmetry_Int_Tables_number   1
_chemical_formula_structural   Ba3EuRu2O9
_chemical_formula_sum   'Ba6 Eu2 Ru4 O18'
_cell_volume   460.36904136
_cell_formula_units_Z   2
loop_
 _symmetry_equiv_pos_site_id
 _symmetry_equiv_pos_as_xyz
  1  'x, y, z'
loop_
 _atom_site_type_symbol
 _atom_site_label
 _atom_site_symmetry_multiplicity
 _atom_site_fract_x
 _atom_site_fract_y
 _atom_site_fract_z
 _atom_site_occupancy
  Eu  Eu0  1  0.000000  0.000000  0.500000  1
  Eu  Eu1  1  0.000000  0.000000  0.000000  1
  Ba  Ba2  1  0.666667  0.333333  0.401905  1
  Ba  Ba3  1  0.333333  0.666667  0.901905  1
  Ba  Ba4  1  0.666667  0.333333  0.098095  1
  Ba  Ba5  1  0.000000  0.000000  0.250000  1
  Ba  Ba6  1  0.333333  0.666667  0.598095  1
  Ba  Ba7  1  0.000000  0.000000  0.750000  1
  Ru  Ru8  1  0.333333  0.666667  0.165297  1
  Ru  Ru9  1  0.333333  0.666667  0.334703  1
  Ru  Ru10  1  0.666667  0.333333  0.665297  1
  Ru  Ru11  1  0.666667  0.333333  0.834703  1
  O  O12  1  0.357843  0.178921  0.591377  1
  O  O13  1  0.821079  0.642157  0.908623  1
  O  O14  1  0.821079  0.178921  0.908623  1
  O  O15  1  0.982577  0.491289  0.750000  1
  O  O16  1  0.178921  0.821079  0.091377  1
  O  O17  1  0.508711  0.017423  0.750000  1
  O  O18  1  0.178921  0.357843  0.408623  1
  O  O19  1  0.491289  0.982577  0.250000  1
  O  O20  1  0.357843  0.178921  0.908623  1
  O  O21  1  0.017423  0.508711  0.250000  1
  O  O22  1  0.491289  0.508711  0.250000  1
  O  O23  1  0.642157  0.821079  0.408623  1
  O  O24  1  0.642157  0.821079  0.091377  1
  O  O25  1  0.508711  0.491289  0.750000  1
  O  O26  1  0.178921  0.357843  0.091377  1
  O  O27  1  0.821079  0.178921  0.591377  1
  O  O28  1  0.821079  0.642157  0.591377  1
  O  O29  1  0.178921  0.821079  0.408623  1
