# generated using pymatgen
data_CaSeO3
_symmetry_space_group_name_H-M   'P 1'
_cell_length_a   6.53335865
_cell_length_b   6.79547604
_cell_length_c   6.85965805
_cell_angle_alpha   90.00000000
_cell_angle_beta   90.00000000
_cell_angle_gamma   103.23819223
_symmetry_Int_Tables_number   1
_chemical_formula_structural   CaSeO3
_chemical_formula_sum   'Ca4 Se4 O12'
_cell_volume   296.45720135
_cell_formula_units_Z   4
loop_
 _symmetry_equiv_pos_site_id
 _symmetry_equiv_pos_as_xyz
  1  'x, y, z'
loop_
 _atom_site_type_symbol
 _atom_site_label
 _atom_site_symmetry_multiplicity
 _atom_site_fract_x
 _atom_site_fract_y
 _atom_site_fract_z
 _atom_site_occupancy
  Ca  Ca0  1  0.727007  0.876487  0.874138  1
  Ca  Ca1  1  0.227007  0.376487  0.625862  1
  Ca  Ca2  1  0.772993  0.623513  0.374138  1
  Ca  Ca3  1  0.272993  0.123513  0.125862  1
  Se  Se4  1  0.743067  0.095298  0.338526  1
  Se  Se5  1  0.243067  0.595298  0.161474  1
  Se  Se6  1  0.756933  0.404702  0.838526  1
  Se  Se7  1  0.256933  0.904702  0.661474  1
  O  O8  1  0.913656  0.313574  0.418856  1
  O  O9  1  0.586344  0.186426  0.918856  1
  O  O10  1  0.603940  0.519169  0.685933  1
  O  O11  1  0.413656  0.813574  0.081144  1
  O  O12  1  0.781834  0.573139  0.029461  1
  O  O13  1  0.086344  0.686426  0.581144  1
  O  O14  1  0.218166  0.426861  0.970539  1
  O  O15  1  0.103940  0.019169  0.814067  1
  O  O16  1  0.281834  0.073139  0.470539  1
  O  O17  1  0.396060  0.480831  0.314067  1
  O  O18  1  0.896060  0.980831  0.185933  1
  O  O19  1  0.718166  0.926861  0.529461  1
