# generated using pymatgen
data_K2NiP2O7
_symmetry_space_group_name_H-M   'P 1'
_cell_length_a   8.44116229
_cell_length_b   9.37945392
_cell_length_c   17.86631443
_cell_angle_alpha   90.00000000
_cell_angle_beta   90.00000000
_cell_angle_gamma   91.40751375
_symmetry_Int_Tables_number   1
_chemical_formula_structural   K2NiP2O7
_chemical_formula_sum   'K16 Ni8 P16 O56'
_cell_volume   1414.11171732
_cell_formula_units_Z   8
loop_
 _symmetry_equiv_pos_site_id
 _symmetry_equiv_pos_as_xyz
  1  'x, y, z'
loop_
 _atom_site_type_symbol
 _atom_site_label
 _atom_site_symmetry_multiplicity
 _atom_site_fract_x
 _atom_site_fract_y
 _atom_site_fract_z
 _atom_site_occupancy
  K  K0  1  0.060092  0.250296  0.931763  1
  K  K1  1  0.726537  0.004805  0.535854  1
  K  K2  1  0.317329  0.094813  0.774841  1
  K  K3  1  0.939908  0.749704  0.431763  1
  K  K4  1  0.554565  0.751707  0.890056  1
  K  K5  1  0.208377  -0.000297  0.297517  1
  K  K6  1  0.247819  0.502623  0.678642  1
  K  K7  1  0.273463  0.995195  0.035854  1
  K  K8  1  0.801568  0.797081  0.042160  1
  K  K9  1  0.445435  0.248293  0.390056  1
  K  K10  1  0.791623  1.000297  0.797517  1
  K  K11  1  0.693841  0.123421  0.104768  1
  K  K12  1  0.306159  0.876579  0.604768  1
  K  K13  1  0.682671  0.905187  0.274841  1
  K  K14  1  0.752181  0.497377  0.178642  1
  K  K15  1  0.198432  0.202919  0.542160  1
  Ni  Ni16  1  0.116215  0.581202  0.037540  1
  Ni  Ni17  1  0.900654  0.587241  0.791679  1
  Ni  Ni18  1  0.604148  0.420652  0.794384  1
  Ni  Ni19  1  0.402074  0.423672  0.039817  1
  Ni  Ni20  1  0.883785  0.418798  0.537540  1
  Ni  Ni21  1  0.395852  0.579348  0.294384  1
  Ni  Ni22  1  0.099346  0.412759  0.291679  1
  Ni  Ni23  1  0.597926  0.576328  0.539817  1
  P  P24  1  0.422330  0.812282  0.432261  1
  P  P25  1  0.905787  0.276550  0.698867  1
  P  P26  1  0.906838  0.739455  0.628079  1
  P  P27  1  0.094213  0.723450  0.198867  1
  P  P28  1  0.251700  0.540636  0.464230  1
  P  P29  1  0.754383  0.453840  0.366697  1
  P  P30  1  0.598309  0.740447  0.700703  1
  P  P31  1  0.577670  0.187718  0.932261  1
  P  P32  1  0.245617  0.546160  0.866697  1
  P  P33  1  0.748300  0.459364  0.964230  1
  P  P34  1  0.401691  0.259553  0.200703  1
  P  P35  1  0.911624  0.185454  0.399254  1
  P  P36  1  0.414284  0.736487  0.137171  1
  P  P37  1  0.093162  0.260545  0.128079  1
  P  P38  1  0.088376  0.814546  0.899254  1
  P  P39  1  0.585716  0.263513  0.637171  1
  O  O40  1  0.906011  0.490983  0.001165  1
  O  O41  1  0.005966  0.146808  0.082326  1
  O  O42  1  0.008115  0.661350  0.129893  1
  O  O43  1  0.742396  0.503889  0.881404  1
  O  O44  1  0.830719  0.391189  0.748394  1
  O  O45  1  0.345436  0.627370  0.080541  1
  O  O46  1  0.746294  0.184571  0.669168  1
  O  O47  1  0.495586  0.331235  0.136616  1
  O  O48  1  0.492340  0.142248  0.239258  1
  O  O49  1  0.269704  0.715486  0.466128  1
  O  O50  1  0.504414  0.668765  0.636616  1
  O  O51  1  0.610518  0.521135  0.008557  1
  O  O52  1  0.093989  0.509017  0.501165  1
  O  O53  1  0.389482  0.478865  0.508557  1
  O  O54  1  0.625687  0.034243  0.946447  1
  O  O55  1  0.998668  0.319390  0.193877  1
  O  O56  1  0.935946  0.768692  0.857363  1
  O  O57  1  0.515304  0.855941  0.102359  1
  O  O58  1  0.253706  0.815429  0.169168  1
  O  O59  1  0.484696  0.144059  0.602359  1
  O  O60  1  0.566197  0.767073  0.478884  1
  O  O61  1  0.433803  0.232927  0.978884  1
  O  O62  1  0.991885  0.338650  0.629893  1
  O  O63  1  0.007430  0.171305  0.739946  1
  O  O64  1  0.098502  0.486322  0.826992  1
  O  O65  1  0.501817  0.668710  0.202951  1
  O  O66  1  0.137789  0.969848  0.887223  1
  O  O67  1  0.862211  0.030152  0.387223  1
  O  O68  1  0.234949  0.720992  0.864449  1
  O  O69  1  0.257604  0.496111  0.381404  1
  O  O70  1  0.753514  0.823795  0.663609  1
  O  O71  1  0.374313  0.965757  0.446447  1
  O  O72  1  0.901498  0.513678  0.326992  1
  O  O73  1  0.670312  0.633850  0.756148  1
  O  O74  1  0.246486  0.176205  0.163609  1
  O  O75  1  0.169281  0.608811  0.248394  1
  O  O76  1  0.916750  0.224318  0.483161  1
  O  O77  1  0.172593  0.376918  0.078130  1
  O  O78  1  0.397776  0.516545  0.825490  1
  O  O79  1  0.329688  0.366150  0.256148  1
  O  O80  1  0.748474  0.498025  0.449743  1
  O  O81  1  0.602224  0.483455  0.325490  1
  O  O82  1  0.251526  0.501975  0.949743  1
  O  O83  1  0.432337  0.776287  0.348594  1
  O  O84  1  0.507660  0.857752  0.739258  1
  O  O85  1  0.498183  0.331290  0.702951  1
  O  O86  1  0.994034  0.853192  0.582326  1
  O  O87  1  0.827407  0.623082  0.578130  1
  O  O88  1  0.654564  0.372630  0.580541  1
  O  O89  1  0.083250  0.775682  0.983161  1
  O  O90  1  0.567663  0.223713  0.848594  1
  O  O91  1  0.001332  0.680610  0.693877  1
  O  O92  1  0.064054  0.231308  0.357363  1
  O  O93  1  0.992570  0.828695  0.239946  1
  O  O94  1  0.765051  0.279008  0.364449  1
  O  O95  1  0.730296  0.284514  0.966128  1
