# generated using pymatgen
data_TlCuPSe3
_symmetry_space_group_name_H-M   'P 1'
_cell_length_a   7.66687371
_cell_length_b   8.68544264
_cell_length_c   9.43891940
_cell_angle_alpha   90.00000000
_cell_angle_beta   90.00000000
_cell_angle_gamma   91.15858108
_symmetry_Int_Tables_number   1
_chemical_formula_structural   TlCuPSe3
_chemical_formula_sum   'Tl4 Cu4 P4 Se12'
_cell_volume   628.41095610
_cell_formula_units_Z   4
loop_
 _symmetry_equiv_pos_site_id
 _symmetry_equiv_pos_as_xyz
  1  'x, y, z'
loop_
 _atom_site_type_symbol
 _atom_site_label
 _atom_site_symmetry_multiplicity
 _atom_site_fract_x
 _atom_site_fract_y
 _atom_site_fract_z
 _atom_site_occupancy
  Tl  Tl0  1  0.452877  0.743594  0.025298  1
  Tl  Tl1  1  0.547123  0.256406  0.974702  1
  Tl  Tl2  1  0.952877  0.243594  0.474702  1
  Tl  Tl3  1  0.047123  0.756406  0.525298  1
  Cu  Cu4  1  0.819942  0.732542  0.834004  1
  Cu  Cu5  1  0.319942  0.232542  0.665996  1
  Cu  Cu6  1  0.680058  0.767458  0.334004  1
  Cu  Cu7  1  0.180058  0.267458  0.165996  1
  P  P8  1  0.999594  0.069890  0.898621  1
  P  P9  1  0.000406  0.930110  0.101379  1
  P  P10  1  0.499594  0.569890  0.601379  1
  P  P11  1  0.500406  0.430110  0.398621  1
  Se  Se12  1  0.763911  0.992358  0.775925  1
  Se  Se13  1  0.988136  0.310611  0.973089  1
  Se  Se14  1  0.511864  0.189389  0.473089  1
  Se  Se15  1  0.258030  0.497377  0.281480  1
  Se  Se16  1  0.241971  0.002623  0.781480  1
  Se  Se17  1  0.011864  0.689389  0.026911  1
  Se  Se18  1  0.236089  0.007642  0.224075  1
  Se  Se19  1  0.736089  0.507642  0.275925  1
  Se  Se20  1  0.741970  0.502623  0.718520  1
  Se  Se21  1  0.758030  0.997377  0.218520  1
  Se  Se22  1  0.263911  0.492358  0.724075  1
  Se  Se23  1  0.488136  0.810611  0.526911  1
