# generated using pymatgen
data_MgAl2O4
_symmetry_space_group_name_H-M   'P 1'
_cell_length_a   5.77923242
_cell_length_b   5.74914388
_cell_length_c   40.29285649
_cell_angle_alpha   59.99247450
_cell_angle_beta   60.15004955
_cell_angle_gamma   60.09491989
_symmetry_Int_Tables_number   1
_chemical_formula_structural   MgAl2O4
_chemical_formula_sum   'Mg14 Al28 O56'
_cell_volume   948.33757163
_cell_formula_units_Z   14
loop_
 _symmetry_equiv_pos_site_id
 _symmetry_equiv_pos_as_xyz
  1  'x, y, z'
loop_
 _atom_site_type_symbol
 _atom_site_label
 _atom_site_symmetry_multiplicity
 _atom_site_fract_x
 _atom_site_fract_y
 _atom_site_fract_z
 _atom_site_occupancy
  Al  Al0  1  0.134267  0.129655  0.016766  1
  Al  Al1  1  0.499012  0.499078  0.000376  1
  Al  Al2  1  0.498182  0.499275  0.071886  1
  Al  Al3  1  0.496958  0.009543  0.214098  1
  Al  Al4  1  0.498343  0.495887  0.144712  1
  Al  Al5  1  0.496180  0.496509  0.214010  1
  Al  Al6  1  0.496925  0.010256  0.356648  1
  Al  Al7  1  0.862569  0.869005  0.126953  1
  Al  Al8  1  0.496623  0.496051  0.287311  1
  Al  Al9  1  0.496962  0.496384  0.356630  1
  Al  Al10  1  0.496889  0.010744  0.499426  1
  Al  Al11  1  0.496631  0.496495  0.430062  1
  Al  Al12  1  0.858815  0.880106  0.268706  1
  Al  Al13  1  0.496926  0.496442  0.499415  1
  Al  Al14  1  0.496683  0.011769  0.642100  1
  Al  Al15  1  0.495752  0.497102  0.572880  1
  Al  Al16  1  0.858685  0.880201  0.411527  1
  Al  Al17  1  0.496679  0.496893  0.642086  1
  Al  Al18  1  0.496931  0.011149  0.785059  1
  Al  Al19  1  0.496309  0.497442  0.715559  1
  Al  Al20  1  0.858483  0.880441  0.554351  1
  Al  Al21  1  0.497007  0.496390  0.785061  1
  Al  Al22  1  0.497684  0.007136  0.927932  1
  Al  Al23  1  0.859107  0.880575  0.697075  1
  Al  Al24  1  0.495528  0.497161  0.858658  1
  Al  Al25  1  0.498177  0.497664  0.928083  1
  Al  Al26  1  0.860268  0.880531  0.839736  1
  Al  Al27  1  0.860679  0.875331  0.982797  1
  Mg  Mg28  1  1.001012  0.499642  0.071410  1
  Mg  Mg29  1  0.500260  0.999323  0.071545  1
  Mg  Mg30  1  0.137915  0.129077  0.158772  1
  Mg  Mg31  1  0.003777  0.498333  0.214334  1
  Mg  Mg32  1  0.134968  0.121848  0.303141  1
  Mg  Mg33  1  0.135406  0.121965  0.445878  1
  Mg  Mg34  1  0.136586  0.121998  0.588561  1
  Mg  Mg35  1  0.003550  0.498758  0.356998  1
  Mg  Mg36  1  0.136930  0.122461  0.731226  1
  Mg  Mg37  1  0.003822  0.498755  0.499823  1
  Mg  Mg38  1  0.134086  0.120791  0.874904  1
  Mg  Mg39  1  0.004824  0.498815  0.642524  1
  Mg  Mg40  1  0.004048  0.498716  0.785502  1
  Mg  Mg41  1  0.002071  0.498370  0.928416  1
  O  O42  1  0.266884  0.270408  0.031819  1
  O  O43  1  0.280007  0.277096  0.099855  1
  O  O44  1  0.272844  0.742079  0.033474  1
  O  O45  1  0.747298  0.273242  0.032479  1
  O  O46  1  0.284349  0.250997  0.179206  1
  O  O47  1  0.258106  0.731868  0.108121  1
  O  O48  1  0.735494  0.737261  0.037015  1
  O  O49  1  0.733326  0.263080  0.107110  1
  O  O50  1  0.281430  0.714872  0.179020  1
  O  O51  1  0.281889  0.253452  0.244703  1
  O  O52  1  0.720506  0.256716  0.180614  1
  O  O53  1  0.737897  0.732705  0.109574  1
  O  O54  1  0.282468  0.252343  0.321950  1
  O  O55  1  0.260999  0.745276  0.249825  1
  O  O56  1  0.726547  0.269886  0.250480  1
  O  O57  1  0.282300  0.711700  0.321955  1
  O  O58  1  0.725205  0.749163  0.182488  1
  O  O59  1  0.282800  0.252770  0.387408  1
  O  O60  1  0.726196  0.750020  0.250599  1
  O  O61  1  0.720050  0.259382  0.322984  1
  O  O62  1  0.282747  0.252700  0.464664  1
  O  O63  1  0.261696  0.745925  0.392361  1
  O  O64  1  0.726971  0.270412  0.393082  1
  O  O65  1  0.283061  0.252909  0.530181  1
  O  O66  1  0.726705  0.750863  0.324484  1
  O  O67  1  0.282651  0.711981  0.464674  1
  O  O68  1  0.720469  0.259623  0.465717  1
  O  O69  1  0.726977  0.750940  0.393100  1
  O  O70  1  0.282282  0.252505  0.607587  1
  O  O71  1  0.261348  0.745948  0.535259  1
  O  O72  1  0.726824  0.270484  0.535979  1
  O  O73  1  0.726876  0.750950  0.467281  1
  O  O74  1  0.282175  0.712275  0.607589  1
  O  O75  1  0.283208  0.252596  0.673097  1
  O  O76  1  0.720700  0.259204  0.608664  1
  O  O77  1  0.726852  0.750755  0.535994  1
  O  O78  1  0.281752  0.251854  0.750733  1
  O  O79  1  0.260821  0.745110  0.678426  1
  O  O80  1  0.726274  0.270175  0.679107  1
  O  O81  1  0.726453  0.750697  0.610273  1
  O  O82  1  0.281663  0.711381  0.750745  1
  O  O83  1  0.281956  0.251437  0.816456  1
  O  O84  1  0.720006  0.258240  0.751889  1
  O  O85  1  0.726319  0.749663  0.679123  1
  O  O86  1  0.281293  0.251773  0.894037  1
  O  O87  1  0.261296  0.744477  0.821413  1
  O  O88  1  0.725976  0.750509  0.753247  1
  O  O89  1  0.280604  0.708110  0.894243  1
  O  O90  1  0.725726  0.269991  0.822178  1
  O  O91  1  0.271397  0.246712  0.962001  1
  O  O92  1  0.714636  0.258085  0.895517  1
  O  O93  1  0.725540  0.748907  0.822191  1
  O  O94  1  0.266050  0.749243  0.962426  1
  O  O95  1  0.727825  0.269205  0.963873  1
  O  O96  1  0.728514  0.750620  0.895455  1
  O  O97  1  0.725251  0.755355  0.963343  1
