# generated using pymatgen
data_TeC4(BrF3)2
_symmetry_space_group_name_H-M   'P 1'
_cell_length_a   9.36384677
_cell_length_b   11.06013931
_cell_length_c   11.32131640
_cell_angle_alpha   62.62519972
_cell_angle_beta   87.86268200
_cell_angle_gamma   88.64986003
_symmetry_Int_Tables_number   1
_chemical_formula_structural   TeC4(BrF3)2
_chemical_formula_sum   'Te4 C16 Br8 F24'
_cell_volume   1040.44677027
_cell_formula_units_Z   4
loop_
 _symmetry_equiv_pos_site_id
 _symmetry_equiv_pos_as_xyz
  1  'x, y, z'
loop_
 _atom_site_type_symbol
 _atom_site_label
 _atom_site_symmetry_multiplicity
 _atom_site_fract_x
 _atom_site_fract_y
 _atom_site_fract_z
 _atom_site_occupancy
  Te  Te0  1  0.917668  0.110857  0.631058  1
  Te  Te1  1  0.082332  0.889143  0.368942  1
  Te  Te2  1  0.215038  0.330082  0.208177  1
  Te  Te3  1  0.784962  0.669918  0.791823  1
  C  C4  1  0.666019  0.116757  0.821270  1
  C  C5  1  0.654154  0.526832  0.639065  1
  C  C6  1  0.639932  0.549473  0.745363  1
  C  C7  1  0.333981  0.883243  0.178730  1
  C  C8  1  0.484395  0.797828  0.798786  1
  C  C9  1  0.137587  0.220226  0.756737  1
  C  C10  1  0.996361  0.767112  0.285428  1
  C  C11  1  0.389346  0.243846  0.142950  1
  C  C12  1  0.345846  0.473168  0.360935  1
  C  C13  1  0.862413  0.779774  0.243263  1
  C  C14  1  0.515605  0.202172  0.201214  1
  C  C15  1  0.360068  0.450526  0.254637  1
  C  C16  1  0.003639  0.232888  0.714572  1
  C  C17  1  0.704421  0.126636  0.701909  1
  C  C18  1  0.295579  0.873364  0.298091  1
  C  C19  1  0.610654  0.756154  0.857050  1
  Br  Br20  1  0.031055  0.125851  0.137791  1
  Br  Br21  1  0.205086  0.531196  0.966854  1
  Br  Br22  1  0.135337  0.661774  0.590080  1
  Br  Br23  1  0.968945  0.874149  0.862209  1
  Br  Br24  1  0.235431  0.102471  0.463133  1
  Br  Br25  1  0.864663  0.338226  0.409920  1
  Br  Br26  1  0.794914  0.468804  0.033146  1
  Br  Br27  1  0.764569  0.897528  0.536867  1
  F  F28  1  0.399153  0.852465  0.386062  1
  F  F29  1  0.531466  0.126838  0.857735  1
  F  F30  1  0.751254  0.586138  0.541599  1
  F  F31  1  0.446744  0.790283  0.690884  1
  F  F32  1  0.920056  0.334791  0.714253  1
  F  F33  1  0.243838  0.902966  0.083891  1
  F  F34  1  0.571837  0.442146  0.619025  1
  F  F35  1  0.365718  0.231750  0.031796  1
  F  F36  1  0.382363  0.852791  0.843756  1
  F  F37  1  0.464695  0.516743  0.163102  1
  F  F38  1  0.634282  0.768250  0.968204  1
  F  F39  1  0.553256  0.209717  0.309116  1
  F  F40  1  0.805092  0.698514  0.201379  1
  F  F41  1  0.468534  0.873162  0.142265  1
  F  F42  1  0.756162  0.097034  0.916109  1
  F  F43  1  0.248746  0.413862  0.458401  1
  F  F44  1  0.771858  0.875829  0.238704  1
  F  F45  1  0.079944  0.665209  0.285747  1
  F  F46  1  0.228142  0.124171  0.761296  1
  F  F47  1  0.194908  0.301486  0.798621  1
  F  F48  1  0.535305  0.483257  0.836898  1
  F  F49  1  0.428163  0.557854  0.380975  1
  F  F50  1  0.600847  0.147535  0.613938  1
  F  F51  1  0.617637  0.147209  0.156244  1
