# generated using pymatgen
data_Ba13Dy8Zn4Pt4O37
_symmetry_space_group_name_H-M   'P 1'
_cell_length_a   5.77838119
_cell_length_b   13.68853138
_cell_length_c   13.68853150
_cell_angle_alpha   87.44668297
_cell_angle_beta   77.81513851
_cell_angle_gamma   77.81514265
_symmetry_Int_Tables_number   1
_chemical_formula_structural   Ba13Dy8Zn4Pt4O37
_chemical_formula_sum   'Ba13 Dy8 Zn4 Pt4 O37'
_cell_volume   1034.49475111
_cell_formula_units_Z   1
loop_
 _symmetry_equiv_pos_site_id
 _symmetry_equiv_pos_as_xyz
  1  'x, y, z'
loop_
 _atom_site_type_symbol
 _atom_site_label
 _atom_site_symmetry_multiplicity
 _atom_site_fract_x
 _atom_site_fract_y
 _atom_site_fract_z
 _atom_site_occupancy
  Ba  Ba0  1  0.071706  0.132284  0.724305  1
  Ba  Ba1  1  0.608420  0.374910  0.408250  1
  Ba  Ba2  1  0.436028  0.201116  0.926827  1
  Ba  Ba3  1  0.016670  0.591750  0.374910  1
  Ba  Ba4  1  0.391580  0.625090  0.591750  1
  Ba  Ba5  1  0.563972  0.798884  0.073173  1
  Ba  Ba6  1  0.362856  0.073173  0.201116  1
  Ba  Ba7  1  0.637144  0.926827  0.798884  1
  Ba  Ba8  1  0.203989  0.724305  0.867716  1
  Ba  Ba9  1  0.983330  0.408250  0.625090  1
  Ba  Ba10  1  0.000000  0.000000  0.000000  1
  Ba  Ba11  1  0.796011  0.275695  0.132284  1
  Ba  Ba12  1  0.928294  0.867716  0.275695  1
  Dy  Dy13  1  0.237991  0.454892  0.069127  1
  Dy  Dy14  1  0.378479  0.437509  0.805533  1
  Dy  Dy15  1  0.184012  0.194467  0.437509  1
  Dy  Dy16  1  0.762009  0.545108  0.930873  1
  Dy  Dy17  1  0.307118  0.930873  0.454892  1
  Dy  Dy18  1  0.815988  0.805533  0.562491  1
  Dy  Dy19  1  0.621521  0.562491  0.194467  1
  Dy  Dy20  1  0.692882  0.069127  0.545108  1
  Zn  Zn21  1  0.897505  0.320855  0.884135  1
  Zn  Zn22  1  0.218360  0.884135  0.679145  1
  Zn  Zn23  1  0.102495  0.679145  0.115865  1
  Zn  Zn24  1  0.781640  0.115865  0.320855  1
  Pt  Pt25  1  0.799742  0.662574  0.737943  1
  Pt  Pt26  1  0.537684  0.262057  0.662574  1
  Pt  Pt27  1  0.462316  0.737943  0.337426  1
  Pt  Pt28  1  0.200258  0.337426  0.262057  1
  O  O29  1  0.301353  0.281270  0.116023  1
  O  O30  1  0.707001  0.305454  0.765997  1
  O  O31  1  0.516104  0.586447  0.381344  1
  O  O32  1  0.102552  0.381344  0.413553  1
  O  O33  1  0.370227  0.215190  0.560797  1
  O  O34  1  0.925165  0.588966  0.056784  1
  O  O35  1  0.527002  0.765997  0.694546  1
  O  O36  1  0.074835  0.411034  0.943216  1
  O  O37  1  0.483896  0.413553  0.618656  1
  O  O38  1  0.875968  0.061817  0.186246  1
  O  O39  1  0.514131  0.056784  0.411034  1
  O  O40  1  0.292999  0.694546  0.234003  1
  O  O41  1  0.146213  0.784810  0.439203  1
  O  O42  1  0.853787  0.215190  0.560797  1
  O  O43  1  0.897448  0.618656  0.586447  1
  O  O44  1  0.062214  0.813754  0.061817  1
  O  O45  1  0.068976  0.560797  0.784810  1
  O  O46  1  0.987545  0.234003  0.305454  1
  O  O47  1  0.018052  0.056784  0.411034  1
  O  O48  1  0.931024  0.439203  0.215190  1
  O  O49  1  0.472998  0.234003  0.305454  1
  O  O50  1  0.124032  0.938183  0.813754  1
  O  O51  1  0.585416  0.560797  0.784810  1
  O  O52  1  0.698646  0.718730  0.883977  1
  O  O53  1  0.429085  0.588966  0.056784  1
  O  O54  1  0.582624  0.116023  0.718730  1
  O  O55  1  0.414584  0.439203  0.215190  1
  O  O56  1  0.778452  0.694546  0.234003  1
  O  O57  1  0.221548  0.305454  0.765997  1
  O  O58  1  0.981948  0.943216  0.588966  1
  O  O59  1  0.570915  0.411034  0.943216  1
  O  O60  1  0.500000  0.000000  0.000000  1
  O  O61  1  0.629773  0.784810  0.439203  1
  O  O62  1  0.012455  0.765997  0.694546  1
  O  O63  1  0.937786  0.186246  0.938183  1
  O  O64  1  0.485869  0.943216  0.588966  1
  O  O65  1  0.417376  0.883977  0.281270  1
