# generated using pymatgen
data_BaSbClO2
_symmetry_space_group_name_H-M   'P 1'
_cell_length_a   5.59924507
_cell_length_b   5.95254389
_cell_length_c   7.20193496
_cell_angle_alpha   114.40608146
_cell_angle_beta   89.99995954
_cell_angle_gamma   89.99999107
_symmetry_Int_Tables_number   1
_chemical_formula_structural   BaSbClO2
_chemical_formula_sum   'Ba2 Sb2 Cl2 O4'
_cell_volume   218.58880176
_cell_formula_units_Z   2
loop_
 _symmetry_equiv_pos_site_id
 _symmetry_equiv_pos_as_xyz
  1  'x, y, z'
loop_
 _atom_site_type_symbol
 _atom_site_label
 _atom_site_symmetry_multiplicity
 _atom_site_fract_x
 _atom_site_fract_y
 _atom_site_fract_z
 _atom_site_occupancy
  O  O0  1  0.499992  0.716954  1.000012  1
  Sb  Sb1  1  0.250000  0.431459  0.862921  1
  Ba  Ba2  1  0.250000  0.127817  0.255630  1
  Sb  Sb3  1  0.750000  0.568540  0.137079  1
  Cl  Cl4  1  0.749999  0.246978  0.493952  1
  O  O5  1  0.999992  0.283046  -0.000011  1
  O  O6  1  0.000008  0.716954  1.000012  1
  Cl  Cl7  1  0.250000  0.753022  0.506048  1
  Ba  Ba8  1  0.750001  0.872183  0.744370  1
  O  O9  1  0.500008  0.283046  -0.000011  1
