# generated using pymatgen
data_K4CO4
_symmetry_space_group_name_H-M   'P 1'
_cell_length_a   5.40351893
_cell_length_b   6.54559668
_cell_length_c   6.54558210
_cell_angle_alpha   80.19045851
_cell_angle_beta   65.62123445
_cell_angle_gamma   65.62167786
_symmetry_Int_Tables_number   1
_chemical_formula_structural   K4CO4
_chemical_formula_sum   'K4 C1 O4'
_cell_volume   192.06877129
_cell_formula_units_Z   1
loop_
 _symmetry_equiv_pos_site_id
 _symmetry_equiv_pos_as_xyz
  1  'x, y, z'
loop_
 _atom_site_type_symbol
 _atom_site_label
 _atom_site_symmetry_multiplicity
 _atom_site_fract_x
 _atom_site_fract_y
 _atom_site_fract_z
 _atom_site_occupancy
  K  K0  1  0.016446  0.000000  0.649573  1
  O  O1  1  0.449488  0.000000  0.800042  1
  K  K2  1  0.983674  0.350523  -0.000098  1
  K  K3  1  0.334197  0.649477  -0.000098  1
  K  K4  1  0.665716  0.000000  0.350571  1
  C  C5  1  0.500062  0.000000  -0.000044  1
  O  O6  1  0.750446  0.800026  1.000040  1
  O  O7  1  0.550473  0.199974  1.000040  1
  O  O8  1  0.249498  0.000000  0.199974  1
