# generated using pymatgen
data_Cs2V4O9
_symmetry_space_group_name_H-M   'P 1'
_cell_length_a   5.85341926
_cell_length_b   5.85341926
_cell_length_c   15.61548806
_cell_angle_alpha   90.00000000
_cell_angle_beta   90.00000000
_cell_angle_gamma   90.00000000
_symmetry_Int_Tables_number   1
_chemical_formula_structural   Cs2V4O9
_chemical_formula_sum   'Cs4 V8 O18'
_cell_volume   535.02592564
_cell_formula_units_Z   2
loop_
 _symmetry_equiv_pos_site_id
 _symmetry_equiv_pos_as_xyz
  1  'x, y, z'
loop_
 _atom_site_type_symbol
 _atom_site_label
 _atom_site_symmetry_multiplicity
 _atom_site_fract_x
 _atom_site_fract_y
 _atom_site_fract_z
 _atom_site_occupancy
  Cs  Cs0  1  0.732585  0.749589  0.500000  1
  Cs  Cs1  1  0.749589  0.267415  0.000000  1
  Cs  Cs2  1  0.267415  0.250411  0.500000  1
  Cs  Cs3  1  0.250411  0.732585  0.000000  1
  V  V4  1  0.288181  0.145326  0.797273  1
  V  V5  1  0.145326  0.711819  0.702727  1
  V  V6  1  0.711819  0.854674  0.797273  1
  V  V7  1  0.288181  0.145326  0.202727  1
  V  V8  1  0.145326  0.711819  0.297273  1
  V  V9  1  0.854674  0.288181  0.297273  1
  V  V10  1  0.854674  0.288181  0.702727  1
  V  V11  1  0.711819  0.854674  0.202727  1
  O  O12  1  0.763178  0.782082  0.898953  1
  O  O13  1  0.782082  0.236822  0.601047  1
  O  O14  1  0.217918  0.763178  0.601047  1
  O  O15  1  0.180027  0.380482  0.282653  1
  O  O16  1  0.619518  0.180027  0.217347  1
  O  O17  1  0.782082  0.236822  0.398953  1
  O  O18  1  0.819973  0.619518  0.717347  1
  O  O19  1  0.236822  0.217918  0.898953  1
  O  O20  1  0.380482  0.819973  0.217347  1
  O  O21  1  0.236822  0.217918  0.101047  1
  O  O22  1  0.380482  0.819973  0.782653  1
  O  O23  1  0.180027  0.380482  0.717347  1
  O  O24  1  0.000000  0.000000  0.750000  1
  O  O25  1  0.619518  0.180027  0.782653  1
  O  O26  1  0.763178  0.782082  0.101047  1
  O  O27  1  0.819973  0.619518  0.282653  1
  O  O28  1  0.217918  0.763178  0.398953  1
  O  O29  1  0.000000  0.000000  0.250000  1
