# generated using pymatgen
data_KNaCu(Si2O5)2
_symmetry_space_group_name_H-M   'P 1'
_cell_length_a   7.04203270
_cell_length_b   8.16280869
_cell_length_c   9.91792481
_cell_angle_alpha   105.84842761
_cell_angle_beta   99.57985069
_cell_angle_gamma   113.68993031
_symmetry_Int_Tables_number   1
_chemical_formula_structural   KNaCu(Si2O5)2
_chemical_formula_sum   'K2 Na2 Cu2 Si8 O20'
_cell_volume   476.90953446
_cell_formula_units_Z   2
loop_
 _symmetry_equiv_pos_site_id
 _symmetry_equiv_pos_as_xyz
  1  'x, y, z'
loop_
 _atom_site_type_symbol
 _atom_site_label
 _atom_site_symmetry_multiplicity
 _atom_site_fract_x
 _atom_site_fract_y
 _atom_site_fract_z
 _atom_site_occupancy
  Cu  Cu0  1  0.332330  0.863216  0.086981  1
  Cu  Cu1  1  0.667670  0.136784  0.913019  1
  K  K2  1  0.166798  0.798184  0.496180  1
  K  K3  1  0.833202  0.201816  0.503820  1
  Na  Na4  1  0.163740  0.123856  0.908929  1
  Na  Na5  1  0.836260  0.876144  0.091071  1
  Si  Si6  1  0.312454  0.172982  0.356983  1
  Si  Si7  1  0.687546  0.827018  0.643017  1
  Si  Si8  1  0.343871  0.616686  0.776152  1
  Si  Si9  1  0.656129  0.383314  0.223848  1
  Si  Si10  1  0.460936  0.289781  0.710254  1
  Si  Si11  1  0.539064  0.710219  0.289746  1
  Si  Si12  1  0.065941  0.353354  0.221546  1
  Si  Si13  1  0.934059  0.646646  0.778454  1
  O  O14  1  0.466239  0.786195  0.935777  1
  O  O15  1  0.533761  0.213805  0.064223  1
  O  O16  1  0.358991  0.184443  0.528346  1
  O  O17  1  0.641009  0.815557  0.471654  1
  O  O18  1  0.455962  0.671398  0.650347  1
  O  O19  1  0.544038  0.328602  0.349653  1
  O  O20  1  0.053091  0.801811  0.944401  1
  O  O21  1  0.946909  0.198189  0.055599  1
  O  O22  1  0.216099  0.954484  0.245631  1
  O  O23  1  0.783901  0.045516  0.754369  1
  O  O24  1  0.089006  0.567295  0.705024  1
  O  O25  1  0.910994  0.432705  0.294976  1
  O  O26  1  0.580125  0.881407  0.229928  1
  O  O27  1  0.419875  0.118593  0.770072  1
  O  O28  1  0.673207  0.594080  0.230718  1
  O  O29  1  0.326793  0.405920  0.769282  1
  O  O30  1  0.282167  0.551068  0.243820  1
  O  O31  1  0.717833  0.448932  0.756180  1
  O  O32  1  0.866799  0.746227  0.666546  1
  O  O33  1  0.133201  0.253773  0.333454  1
