# generated using pymatgen
data_KVSO6
_symmetry_space_group_name_H-M   'P 1'
_cell_length_a   5.55844953
_cell_length_b   8.64061821
_cell_length_c   11.26552085
_cell_angle_alpha   90.00000000
_cell_angle_beta   90.00000000
_cell_angle_gamma   90.00000000
_symmetry_Int_Tables_number   1
_chemical_formula_structural   KVSO6
_chemical_formula_sum   'K4 V4 S4 O24'
_cell_volume   541.06539478
_cell_formula_units_Z   4
loop_
 _symmetry_equiv_pos_site_id
 _symmetry_equiv_pos_as_xyz
  1  'x, y, z'
loop_
 _atom_site_type_symbol
 _atom_site_label
 _atom_site_symmetry_multiplicity
 _atom_site_fract_x
 _atom_site_fract_y
 _atom_site_fract_z
 _atom_site_occupancy
  K  K0  1  0.277100  0.439524  0.890254  1
  K  K1  1  0.777100  0.560476  0.609746  1
  K  K2  1  0.722900  0.060476  0.390254  1
  K  K3  1  0.222900  0.939524  0.109746  1
  V  V4  1  0.282201  0.904313  0.687422  1
  V  V5  1  0.782201  0.095687  0.812578  1
  V  V6  1  0.217799  0.404313  0.312578  1
  V  V7  1  0.717799  0.595687  0.187422  1
  S  S8  1  0.783298  0.695979  0.960861  1
  S  S9  1  0.716702  0.195979  0.039139  1
  S  S10  1  0.216702  0.804021  0.460861  1
  S  S11  1  0.283298  0.304021  0.539139  1
  O  O12  1  0.958573  0.620305  0.050006  1
  O  O13  1  0.924327  0.466550  0.258870  1
  O  O14  1  0.041427  0.879695  0.550006  1
  O  O15  1  0.738962  0.103500  0.146383  1
  O  O16  1  0.424327  0.533450  0.241130  1
  O  O17  1  0.447694  0.814194  0.535829  1
  O  O18  1  0.757189  0.759291  0.256047  1
  O  O19  1  0.552306  0.685806  0.035829  1
  O  O20  1  0.947694  0.185806  0.964171  1
  O  O21  1  0.261038  0.396500  0.646383  1
  O  O22  1  0.238962  0.896500  0.353617  1
  O  O23  1  0.052306  0.314194  0.464171  1
  O  O24  1  0.257189  0.240709  0.243953  1
  O  O25  1  0.242811  0.740709  0.756047  1
  O  O26  1  0.575673  0.966550  0.741130  1
  O  O27  1  0.075673  0.033450  0.758870  1
  O  O28  1  0.141989  0.644115  0.442117  1
  O  O29  1  0.761038  0.603500  0.853617  1
  O  O30  1  0.358011  0.144115  0.557883  1
  O  O31  1  0.742811  0.259291  0.743953  1
  O  O32  1  0.858011  0.855885  0.942117  1
  O  O33  1  0.541427  0.120305  0.949994  1
  O  O34  1  0.641989  0.355885  0.057883  1
  O  O35  1  0.458573  0.379695  0.449994  1
