# generated using pymatgen
data_Ba3Ti20O40
_symmetry_space_group_name_H-M   'P 1'
_cell_length_a   10.13502697
_cell_length_b   10.34203717
_cell_length_c   10.34203698
_cell_angle_alpha   92.27124433
_cell_angle_beta   118.70659512
_cell_angle_gamma   118.70659635
_symmetry_Int_Tables_number   1
_chemical_formula_structural   Ba3Ti20O40
_chemical_formula_sum   'Ba3 Ti20 O40'
_cell_volume   780.73481384
_cell_formula_units_Z   1
loop_
 _symmetry_equiv_pos_site_id
 _symmetry_equiv_pos_as_xyz
  1  'x, y, z'
loop_
 _atom_site_type_symbol
 _atom_site_label
 _atom_site_symmetry_multiplicity
 _atom_site_fract_x
 _atom_site_fract_y
 _atom_site_fract_z
 _atom_site_occupancy
  Ba  Ba0  1  1.000000  0.366041  0.633959  1
  Ba  Ba1  1  0.000000  0.633959  0.366041  1
  Ba  Ba2  1  -0.000000  -0.000000  -0.000000  1
  Ti  Ti3  1  0.182695  0.934274  0.737354  1
  Ti  Ti4  1  0.182695  0.737354  0.934274  1
  Ti  Ti5  1  0.508736  0.846892  0.846892  1
  Ti  Ti6  1  0.469030  0.942352  0.344699  1
  Ti  Ti7  1  0.469030  0.344699  0.942352  1
  Ti  Ti8  1  0.181992  0.340823  0.340823  1
  Ti  Ti9  1  0.483332  0.747639  0.550580  1
  Ti  Ti10  1  0.483332  0.550580  0.747639  1
  Ti  Ti11  1  0.180764  0.528734  0.126904  1
  Ti  Ti12  1  0.180764  0.126904  0.528734  1
  Ti  Ti13  1  0.819236  0.873096  0.471266  1
  Ti  Ti14  1  0.819236  0.471266  0.873096  1
  Ti  Ti15  1  0.516668  0.449420  0.252361  1
  Ti  Ti16  1  0.516668  0.252361  0.449420  1
  Ti  Ti17  1  0.818008  0.659177  0.659177  1
  Ti  Ti18  1  0.530970  0.655301  0.057648  1
  Ti  Ti19  1  0.530970  0.057648  0.655301  1
  Ti  Ti20  1  0.491264  0.153108  0.153108  1
  Ti  Ti21  1  0.817305  0.262646  0.065726  1
  Ti  Ti22  1  0.817305  0.065726  0.262646  1
  O  O23  1  0.282328  0.961838  0.961838  1
  O  O24  1  0.051015  0.502145  0.902663  1
  O  O25  1  0.051015  0.902663  0.502145  1
  O  O26  1  0.051281  0.697581  0.697581  1
  O  O27  1  0.380773  0.739995  0.942047  1
  O  O28  1  0.380773  0.942047  0.739995  1
  O  O29  1  0.348456  0.654735  0.654735  1
  O  O30  1  0.355967  0.858829  0.458696  1
  O  O31  1  0.355967  0.458696  0.858829  1
  O  O32  1  0.642853  0.742766  0.939488  1
  O  O33  1  0.642853  0.939488  0.742766  1
  O  O34  1  0.279834  0.357211  0.561061  1
  O  O35  1  0.279834  0.561061  0.357211  1
  O  O36  1  0.285010  0.757250  0.158707  1
  O  O37  1  0.285010  0.158707  0.757250  1
  O  O38  1  0.051971  0.301824  0.105883  1
  O  O39  1  0.051971  0.105883  0.301824  1
  O  O40  1  0.615432  0.455514  0.856805  1
  O  O41  1  0.615432  0.856805  0.455514  1
  O  O42  1  0.620740  0.657250  0.657250  1
  O  O43  1  0.379260  0.342750  0.342750  1
  O  O44  1  0.384568  0.143195  0.544486  1
  O  O45  1  0.384568  0.544486  0.143195  1
  O  O46  1  0.948029  0.894117  0.698176  1
  O  O47  1  0.948029  0.698176  0.894117  1
  O  O48  1  0.714990  0.841293  0.242750  1
  O  O49  1  0.714990  0.242750  0.841293  1
  O  O50  1  0.720166  0.642789  0.438939  1
  O  O51  1  0.720166  0.438939  0.642789  1
  O  O52  1  0.357147  0.060512  0.257234  1
  O  O53  1  0.357147  0.257234  0.060512  1
  O  O54  1  0.644033  0.541304  0.141171  1
  O  O55  1  0.644033  0.141171  0.541304  1
  O  O56  1  0.651544  0.345265  0.345265  1
  O  O57  1  0.619227  0.057953  0.260005  1
  O  O58  1  0.619227  0.260005  0.057953  1
  O  O59  1  0.948719  0.302419  0.302419  1
  O  O60  1  0.948985  0.097337  0.497855  1
  O  O61  1  0.948985  0.497855  0.097337  1
  O  O62  1  0.717672  0.038162  0.038162  1
