# generated using pymatgen
data_InGaS3
_symmetry_space_group_name_H-M   'P 1'
_cell_length_a   6.84357785
_cell_length_b   6.84357784
_cell_length_c   18.36269034
_cell_angle_alpha   90.00000000
_cell_angle_beta   90.00000000
_cell_angle_gamma   120.00000009
_symmetry_Int_Tables_number   1
_chemical_formula_structural   InGaS3
_chemical_formula_sum   'In6 Ga6 S18'
_cell_volume   744.78919079
_cell_formula_units_Z   6
loop_
 _symmetry_equiv_pos_site_id
 _symmetry_equiv_pos_as_xyz
  1  'x, y, z'
loop_
 _atom_site_type_symbol
 _atom_site_label
 _atom_site_symmetry_multiplicity
 _atom_site_fract_x
 _atom_site_fract_y
 _atom_site_fract_z
 _atom_site_occupancy
  Ga  Ga0  1  0.659716  0.671570  0.130516  1
  Ga  Ga1  1  0.988146  0.659716  0.297183  1
  Ga  Ga2  1  0.671570  0.011854  0.963849  1
  Ga  Ga3  1  0.328430  0.988146  0.463849  1
  Ga  Ga4  1  0.011854  0.340284  0.797183  1
  Ga  Ga5  1  0.340284  0.328430  0.630516  1
  In  In6  1  0.318781  0.325784  0.991645  1
  In  In7  1  0.992997  0.318781  0.158312  1
  In  In8  1  0.325784  0.007003  0.824978  1
  In  In9  1  0.674216  0.992997  0.324978  1
  In  In10  1  0.007003  0.681219  0.658312  1
  In  In11  1  0.681219  0.674216  0.491645  1
  S  S12  1  0.356121  0.313408  0.137571  1
  S  S13  1  0.042712  0.356121  0.304238  1
  S  S14  1  0.313408  0.957288  0.970904  1
  S  S15  1  0.686592  0.042712  0.470904  1
  S  S16  1  0.957288  0.643879  0.804238  1
  S  S17  1  0.643879  0.686592  0.637571  1
  S  S18  1  0.956601  0.334625  0.012341  1
  S  S19  1  0.621975  0.956601  0.179008  1
  S  S20  1  0.334625  0.378025  0.845674  1
  S  S21  1  0.665375  0.621975  0.345674  1
  S  S22  1  0.378025  0.043399  0.679008  1
  S  S23  1  0.043399  0.665375  0.512341  1
  S  S24  1  0.993840  0.694946  0.169926  1
  S  S25  1  0.298894  0.993840  0.336593  1
  S  S26  1  0.694946  0.701106  0.003259  1
  S  S27  1  0.305054  0.298894  0.503259  1
  S  S28  1  0.701106  0.006160  0.836593  1
  S  S29  1  0.006160  0.305054  0.669926  1
