# generated using pymatgen
data_Ba5Yb8Ni4O21
_symmetry_space_group_name_H-M   'P 1'
_cell_length_a   5.65188273
_cell_length_b   10.02872404
_cell_length_c   10.03000186
_cell_angle_alpha   85.41165961
_cell_angle_beta   73.55983937
_cell_angle_gamma   73.58222783
_symmetry_Int_Tables_number   1
_chemical_formula_structural   Ba5Yb8Ni4O21
_chemical_formula_sum   'Ba5 Yb8 Ni4 O21'
_cell_volume   523.03650217
_cell_formula_units_Z   1
loop_
 _symmetry_equiv_pos_site_id
 _symmetry_equiv_pos_as_xyz
  1  'x, y, z'
loop_
 _atom_site_type_symbol
 _atom_site_label
 _atom_site_symmetry_multiplicity
 _atom_site_fract_x
 _atom_site_fract_y
 _atom_site_fract_z
 _atom_site_occupancy
  Yb  Yb0  1  0.250741  0.917933  0.580191  1
  Yb  Yb1  1  0.831554  0.419801  0.917933  1
  Yb  Yb2  1  0.168446  0.580199  0.082067  1
  Yb  Yb3  1  0.749259  0.082067  0.419809  1
  Yb  Yb4  1  0.408506  0.953588  0.229573  1
  Yb  Yb5  1  0.638180  0.770428  0.953575  1
  Yb  Yb6  1  0.361820  0.229572  0.046425  1
  Yb  Yb7  1  0.591494  0.046412  0.770427  1
  Ba  Ba8  1  0.145253  0.322685  0.386227  1
  Ba  Ba9  1  0.531760  0.613794  0.322678  1
  Ba  Ba10  1  0.468240  0.386206  0.677322  1
  Ba  Ba11  1  0.854747  0.677315  0.613773  1
  Ba  Ba12  1  0.000000  0.000000  0.000000  1
  Ni  Ni13  1  0.041689  0.202759  0.713965  1
  Ni  Ni14  1  0.755476  0.286068  0.202771  1
  Ni  Ni15  1  0.244524  0.713932  0.797229  1
  Ni  Ni16  1  0.958311  0.797241  0.286035  1
  O  O17  1  0.500000  0.000000  0.000000  1
  O  O18  1  0.368258  0.660935  0.603272  1
  O  O19  1  0.971268  0.396726  0.660950  1
  O  O20  1  0.028732  0.603274  0.339050  1
  O  O21  1  0.631742  0.339065  0.396728  1
  O  O22  1  0.367798  0.125339  0.598392  1
  O  O23  1  0.966282  0.402212  0.125681  1
  O  O24  1  0.493714  0.598109  0.874533  1
  O  O25  1  0.092255  0.874189  0.402500  1
  O  O26  1  0.632202  0.874661  0.401608  1
  O  O27  1  0.033718  0.597788  0.874319  1
  O  O28  1  0.506286  0.401891  0.125467  1
  O  O29  1  0.907745  0.125811  0.597500  1
  O  O30  1  0.417805  0.854521  0.776042  1
  O  O31  1  0.194012  0.224277  0.854664  1
  O  O32  1  0.270955  0.776808  0.145729  1
  O  O33  1  0.048059  0.145600  0.223570  1
  O  O34  1  0.582195  0.145479  0.223958  1
  O  O35  1  0.805988  0.775723  0.145336  1
  O  O36  1  0.729045  0.223192  0.854271  1
  O  O37  1  0.951941  0.854400  0.776430  1
