# generated using pymatgen
data_SrLiAlF6
_symmetry_space_group_name_H-M   'P 1'
_cell_length_a   5.15717097
_cell_length_b   8.50670864
_cell_length_c   10.26708446
_cell_angle_alpha   90.00000000
_cell_angle_beta   90.00000000
_cell_angle_gamma   88.93717522
_symmetry_Int_Tables_number   1
_chemical_formula_structural   SrLiAlF6
_chemical_formula_sum   'Sr4 Li4 Al4 F24'
_cell_volume   450.34515874
_cell_formula_units_Z   4
loop_
 _symmetry_equiv_pos_site_id
 _symmetry_equiv_pos_as_xyz
  1  'x, y, z'
loop_
 _atom_site_type_symbol
 _atom_site_label
 _atom_site_symmetry_multiplicity
 _atom_site_fract_x
 _atom_site_fract_y
 _atom_site_fract_z
 _atom_site_occupancy
  Sr  Sr0  1  0.669601  0.474640  0.685649  1
  Sr  Sr1  1  0.669601  0.974640  0.814351  1
  Sr  Sr2  1  0.330399  0.025360  0.185649  1
  Sr  Sr3  1  0.330399  0.525360  0.314351  1
  Li  Li4  1  0.255400  0.667823  0.931357  1
  Li  Li5  1  0.255400  0.167823  0.568643  1
  Li  Li6  1  0.744600  0.832177  0.431357  1
  Li  Li7  1  0.744600  0.332177  0.068643  1
  Al  Al8  1  0.225622  0.260796  0.902951  1
  Al  Al9  1  0.774378  0.739204  0.097049  1
  Al  Al10  1  0.774378  0.239204  0.402951  1
  Al  Al11  1  0.225622  0.760796  0.597049  1
  F  F12  1  0.082456  0.666901  0.154019  1
  F  F13  1  0.475301  0.823890  0.017473  1
  F  F14  1  0.524699  0.676110  0.517473  1
  F  F15  1  0.894599  0.223821  0.571008  1
  F  F16  1  0.359114  0.455073  0.898219  1
  F  F17  1  0.640886  0.044927  0.398219  1
  F  F18  1  0.880341  0.440541  0.382897  1
  F  F19  1  0.394067  0.732344  0.757511  1
  F  F20  1  0.119659  0.559459  0.617103  1
  F  F21  1  0.640886  0.544927  0.101781  1
  F  F22  1  0.105401  0.276179  0.071008  1
  F  F23  1  0.394067  0.232344  0.742489  1
  F  F24  1  0.917544  0.333099  0.845981  1
  F  F25  1  0.917544  0.833099  0.654019  1
  F  F26  1  0.119659  0.059459  0.882897  1
  F  F27  1  0.605933  0.767656  0.257511  1
  F  F28  1  0.894599  0.723821  0.928992  1
  F  F29  1  0.105401  0.776179  0.428992  1
  F  F30  1  0.082456  0.166901  0.345981  1
  F  F31  1  0.475301  0.323890  0.482527  1
  F  F32  1  0.605933  0.267656  0.242489  1
  F  F33  1  0.880341  0.940541  0.117103  1
  F  F34  1  0.359114  0.955073  0.601781  1
  F  F35  1  0.524699  0.176110  0.982527  1
