# generated using pymatgen
data_ZrBrN
_symmetry_space_group_name_H-M   'P 1'
_cell_length_a   10.33453708
_cell_length_b   10.33453704
_cell_length_c   10.33453648
_cell_angle_alpha   20.52399745
_cell_angle_beta   20.52399798
_cell_angle_gamma   20.52399759
_symmetry_Int_Tables_number   1
_chemical_formula_structural   ZrBrN
_chemical_formula_sum   'Zr2 Br2 N2'
_cell_volume   118.75297616
_cell_formula_units_Z   2
loop_
 _symmetry_equiv_pos_site_id
 _symmetry_equiv_pos_as_xyz
  1  'x, y, z'
loop_
 _atom_site_type_symbol
 _atom_site_label
 _atom_site_symmetry_multiplicity
 _atom_site_fract_x
 _atom_site_fract_y
 _atom_site_fract_z
 _atom_site_occupancy
  Zr  Zr0  1  0.123542  0.123542  0.123542  1
  Zr  Zr1  1  0.876458  0.876458  0.876458  1
  Br  Br2  1  0.391147  0.391147  0.391147  1
  Br  Br3  1  0.608853  0.608853  0.608853  1
  N  N4  1  0.195530  0.195530  0.195530  1
  N  N5  1  0.804470  0.804470  0.804470  1
