# generated using pymatgen
data_Pr5O9
_symmetry_space_group_name_H-M   'P 1'
_cell_length_a   6.94847320
_cell_length_b   13.41515949
_cell_length_c   20.29862930
_cell_angle_alpha   90.00000000
_cell_angle_beta   90.00000000
_cell_angle_gamma   101.01889181
_symmetry_Int_Tables_number   1
_chemical_formula_structural   Pr5O9
_chemical_formula_sum   'Pr40 O72'
_cell_volume   1857.25123784
_cell_formula_units_Z   8
loop_
 _symmetry_equiv_pos_site_id
 _symmetry_equiv_pos_as_xyz
  1  'x, y, z'
loop_
 _atom_site_type_symbol
 _atom_site_label
 _atom_site_symmetry_multiplicity
 _atom_site_fract_x
 _atom_site_fract_y
 _atom_site_fract_z
 _atom_site_occupancy
  Pr  Pr0  1  0.129167  0.877088  0.105597  1
  Pr  Pr1  1  0.878440  0.129803  0.505974  1
  Pr  Pr2  1  0.910325  0.618769  0.397872  1
  Pr  Pr3  1  0.089675  0.881231  0.897872  1
  Pr  Pr4  1  0.383992  0.621150  0.704573  1
  Pr  Pr5  1  0.360916  0.616949  0.508959  1
  Pr  Pr6  1  0.089675  0.381231  0.602128  1
  Pr  Pr7  1  0.884603  0.642951  0.801655  1
  Pr  Pr8  1  0.360916  0.116949  0.991041  1
  Pr  Pr9  1  0.129167  0.377088  0.394403  1
  Pr  Pr10  1  0.163658  0.369080  0.800035  1
  Pr  Pr11  1  0.639084  0.883051  0.008959  1
  Pr  Pr12  1  0.612898  0.865640  0.587888  1
  Pr  Pr13  1  0.612898  0.365640  0.912112  1
  Pr  Pr14  1  0.910325  0.118769  0.102128  1
  Pr  Pr15  1  0.121560  0.870197  0.494026  1
  Pr  Pr16  1  0.836342  0.130920  0.300035  1
  Pr  Pr17  1  0.632894  0.893016  0.398382  1
  Pr  Pr18  1  0.121560  0.370197  0.005974  1
  Pr  Pr19  1  0.383992  0.121150  0.795427  1
  Pr  Pr20  1  0.632894  0.393016  0.101618  1
  Pr  Pr21  1  0.884603  0.142951  0.698345  1
  Pr  Pr22  1  0.870833  0.122912  0.894403  1
  Pr  Pr23  1  0.115397  0.357049  0.198345  1
  Pr  Pr24  1  0.387102  0.134360  0.412112  1
  Pr  Pr25  1  0.367106  0.106984  0.601618  1
  Pr  Pr26  1  0.639084  0.383051  0.491041  1
  Pr  Pr27  1  0.115397  0.857049  0.301655  1
  Pr  Pr28  1  0.870833  0.622912  0.605597  1
  Pr  Pr29  1  0.367106  0.606984  0.898382  1
  Pr  Pr30  1  0.372017  0.123063  0.199730  1
  Pr  Pr31  1  0.836342  0.630920  0.199965  1
  Pr  Pr32  1  0.387102  0.634360  0.087888  1
  Pr  Pr33  1  0.372017  0.623063  0.300270  1
  Pr  Pr34  1  0.163658  0.869080  0.699965  1
  Pr  Pr35  1  0.616008  0.878850  0.204573  1
  Pr  Pr36  1  0.627983  0.876937  0.800270  1
  Pr  Pr37  1  0.616008  0.378850  0.295427  1
  Pr  Pr38  1  0.878440  0.629803  0.994026  1
  Pr  Pr39  1  0.627983  0.376937  0.699730  1
  O  O40  1  0.178960  0.562310  0.605313  1
  O  O41  1  0.069975  0.180237  0.391765  1
  O  O42  1  0.067401  0.674493  0.290631  1
  O  O43  1  0.051591  0.684471  0.504124  1
  O  O44  1  0.179113  0.560752  0.998085  1
  O  O45  1  0.681390  0.574100  0.489408  1
  O  O46  1  0.435233  0.818027  0.103607  1
  O  O47  1  0.222569  0.066124  0.097022  1
  O  O48  1  0.179113  0.060752  0.501915  1
  O  O49  1  0.519882  0.679798  0.197477  1
  O  O50  1  0.450576  0.305428  0.189675  1
  O  O51  1  0.932599  0.325507  0.709369  1
  O  O52  1  0.051591  0.184471  0.995876  1
  O  O53  1  0.920775  0.311886  0.298497  1
  O  O54  1  0.296495  0.948925  0.394164  1
  O  O55  1  0.676754  0.071747  0.192811  1
  O  O56  1  0.160704  0.547866  0.799570  1
  O  O57  1  0.069975  0.680237  0.108235  1
  O  O58  1  0.699378  0.557763  0.713000  1
  O  O59  1  0.932599  0.825507  0.790631  1
  O  O60  1  0.693234  0.574026  0.093801  1
  O  O61  1  0.435233  0.318027  0.396393  1
  O  O62  1  0.777431  0.933876  0.902978  1
  O  O63  1  0.839296  0.952134  0.299570  1
  O  O64  1  0.703505  0.551075  0.894164  1
  O  O65  1  0.300622  0.942237  0.213000  1
  O  O66  1  0.948409  0.315529  0.495876  1
  O  O67  1  0.905092  0.798628  0.396998  1
  O  O68  1  0.549424  0.694572  0.810325  1
  O  O69  1  0.318610  0.925900  0.989408  1
  O  O70  1  0.296495  0.448925  0.105836  1
  O  O71  1  0.443058  0.299755  0.012047  1
  O  O72  1  0.676754  0.571747  0.307189  1
  O  O73  1  0.821040  0.437690  0.394687  1
  O  O74  1  0.930025  0.319763  0.891765  1
  O  O75  1  0.699378  0.057763  0.787000  1
  O  O76  1  0.905092  0.298629  0.103002  1
  O  O77  1  0.323246  0.928253  0.807189  1
  O  O78  1  0.556942  0.700245  0.987953  1
  O  O79  1  0.820887  0.939248  0.498085  1
  O  O80  1  0.549424  0.194572  0.689675  1
  O  O81  1  0.948409  0.815529  0.004124  1
  O  O82  1  0.820887  0.439248  0.001915  1
  O  O83  1  0.564767  0.681973  0.603607  1
  O  O84  1  0.556942  0.200245  0.512047  1
  O  O85  1  0.564767  0.181973  0.896393  1
  O  O86  1  0.839296  0.452134  0.200430  1
  O  O87  1  0.480118  0.320202  0.802523  1
  O  O88  1  0.450576  0.805428  0.310325  1
  O  O89  1  0.777431  0.433876  0.597022  1
  O  O90  1  0.703505  0.051075  0.605836  1
  O  O91  1  0.318610  0.425900  0.510592  1
  O  O92  1  0.094909  0.201372  0.603002  1
  O  O93  1  0.693234  0.074026  0.406199  1
  O  O94  1  0.821040  0.937690  0.105313  1
  O  O95  1  0.079225  0.688114  0.701503  1
  O  O96  1  0.930025  0.819763  0.608235  1
  O  O97  1  0.480118  0.820202  0.697477  1
  O  O98  1  0.306766  0.425974  0.906199  1
  O  O99  1  0.178960  0.062310  0.894687  1
  O  O100  1  0.681390  0.074100  0.010592  1
  O  O101  1  0.222569  0.566124  0.402978  1
  O  O102  1  0.920775  0.811886  0.201503  1
  O  O103  1  0.300622  0.442237  0.287000  1
  O  O104  1  0.094909  0.701372  0.896998  1
  O  O105  1  0.306766  0.925974  0.593801  1
  O  O106  1  0.079225  0.188114  0.798497  1
  O  O107  1  0.519882  0.179798  0.302523  1
  O  O108  1  0.443058  0.799755  0.487953  1
  O  O109  1  0.067401  0.174493  0.209369  1
  O  O110  1  0.323246  0.428253  0.692811  1
  O  O111  1  0.160704  0.047866  0.700430  1
