# generated using pymatgen
data_MnCrF5
_symmetry_space_group_name_H-M   'P 1'
_cell_length_a   5.42991713
_cell_length_b   5.42991713
_cell_length_c   7.52542353
_cell_angle_alpha   69.71288645
_cell_angle_beta   69.71288648
_cell_angle_gamma   72.35266914
_symmetry_Int_Tables_number   1
_chemical_formula_structural   MnCrF5
_chemical_formula_sum   'Mn2 Cr2 F10'
_cell_volume   190.93890308
_cell_formula_units_Z   2
loop_
 _symmetry_equiv_pos_site_id
 _symmetry_equiv_pos_as_xyz
  1  'x, y, z'
loop_
 _atom_site_type_symbol
 _atom_site_label
 _atom_site_symmetry_multiplicity
 _atom_site_fract_x
 _atom_site_fract_y
 _atom_site_fract_z
 _atom_site_occupancy
  F  F0  1  0.210334  0.272839  0.372312  1
  F  F1  1  0.727161  0.789666  0.127688  1
  F  F2  1  0.789666  0.727161  0.627688  1
  F  F3  1  0.272839  0.210334  0.872312  1
  F  F4  1  0.907326  0.092674  0.750000  1
  F  F5  1  0.092674  0.907326  0.250000  1
  F  F6  1  0.717727  0.316415  0.033620  1
  F  F7  1  0.683585  0.282273  0.466380  1
  F  F8  1  0.282273  0.683585  0.966380  1
  F  F9  1  0.316415  0.717727  0.533620  1
  Cr  Cr10  1  0.000000  0.000000  0.000000  1
  Cr  Cr11  1  0.000000  0.000000  0.500000  1
  Mn  Mn12  1  0.533788  0.466212  0.750000  1
  Mn  Mn13  1  0.466212  0.533788  0.250000  1
