# generated using pymatgen
data_CsYbCoSe3
_symmetry_space_group_name_H-M   'P 1'
_cell_length_a   4.12096355
_cell_length_b   8.35501475
_cell_length_c   11.34034369
_cell_angle_alpha   90.00000000
_cell_angle_beta   90.00000000
_cell_angle_gamma   104.27736479
_symmetry_Int_Tables_number   1
_chemical_formula_structural   CsYbCoSe3
_chemical_formula_sum   'Cs2 Yb2 Co2 Se6'
_cell_volume   378.39617310
_cell_formula_units_Z   2
loop_
 _symmetry_equiv_pos_site_id
 _symmetry_equiv_pos_as_xyz
  1  'x, y, z'
loop_
 _atom_site_type_symbol
 _atom_site_label
 _atom_site_symmetry_multiplicity
 _atom_site_fract_x
 _atom_site_fract_y
 _atom_site_fract_z
 _atom_site_occupancy
  Yb  Yb0  1  0.000000  0.000000  0.000000  1
  Yb  Yb1  1  0.000000  0.000000  0.500000  1
  Cs  Cs2  1  0.738669  0.477338  0.750000  1
  Cs  Cs3  1  0.261331  0.522662  0.250000  1
  Co  Co4  1  0.539371  0.078742  0.250000  1
  Co  Co5  1  0.460629  0.921258  0.750000  1
  Se  Se6  1  0.616993  0.233986  0.422491  1
  Se  Se7  1  0.383007  0.766014  0.577509  1
  Se  Se8  1  0.616993  0.233986  0.077509  1
  Se  Se9  1  0.044911  0.089822  0.750000  1
  Se  Se10  1  0.383007  0.766014  0.922491  1
  Se  Se11  1  0.955089  0.910178  0.250000  1
