# generated using pymatgen
data_Na6Si8O19
_symmetry_space_group_name_H-M   'P 1'
_cell_length_a   4.96282508
_cell_length_b   15.58733927
_cell_length_c   23.76076085
_cell_angle_alpha   90.00000000
_cell_angle_beta   90.00000000
_cell_angle_gamma   90.11526719
_symmetry_Int_Tables_number   1
_chemical_formula_structural   Na6Si8O19
_chemical_formula_sum   'Na24 Si32 O76'
_cell_volume   1838.06312069
_cell_formula_units_Z   4
loop_
 _symmetry_equiv_pos_site_id
 _symmetry_equiv_pos_as_xyz
  1  'x, y, z'
loop_
 _atom_site_type_symbol
 _atom_site_label
 _atom_site_symmetry_multiplicity
 _atom_site_fract_x
 _atom_site_fract_y
 _atom_site_fract_z
 _atom_site_occupancy
  Na  Na0  1  0.739589  0.507612  0.229062  1
  Na  Na1  1  0.233970  0.572418  0.483368  1
  Na  Na2  1  0.739258  0.472092  0.049943  1
  Na  Na3  1  0.762801  0.605295  0.400423  1
  Na  Na4  1  0.735569  0.043171  0.638867  1
  Na  Na5  1  0.766030  0.927582  0.983368  1
  Na  Na6  1  0.260742  0.027908  0.549943  1
  Na  Na7  1  0.260411  0.992388  0.729062  1
  Na  Na8  1  0.734939  0.967971  0.819942  1
  Na  Na9  1  0.739258  0.972092  0.450057  1
  Na  Na10  1  0.237199  0.894705  0.900423  1
  Na  Na11  1  0.739589  0.007612  0.270938  1
  Na  Na12  1  0.237199  0.394705  0.599577  1
  Na  Na13  1  0.735569  0.543171  0.861133  1
  Na  Na14  1  0.260742  0.527908  0.950057  1
  Na  Na15  1  0.762801  0.105295  0.099577  1
  Na  Na16  1  0.766030  0.427582  0.516632  1
  Na  Na17  1  0.265061  0.032029  0.180058  1
  Na  Na18  1  0.260411  0.492388  0.770938  1
  Na  Na19  1  0.734939  0.467971  0.680058  1
  Na  Na20  1  0.265061  0.532029  0.319942  1
  Na  Na21  1  0.233970  0.072418  0.016632  1
  Na  Na22  1  0.264431  0.956829  0.361133  1
  Na  Na23  1  0.264431  0.456829  0.138867  1
  Si  Si24  1  0.704823  0.252152  0.284000  1
  Si  Si25  1  0.797389  0.361923  0.805896  1
  Si  Si26  1  0.301339  0.733813  0.394949  1
  Si  Si27  1  0.295177  0.747848  0.716000  1
  Si  Si28  1  0.196901  0.588509  0.635439  1
  Si  Si29  1  0.210118  0.856628  0.493142  1
  Si  Si30  1  0.210118  0.356628  0.006858  1
  Si  Si31  1  0.700414  0.825826  0.565990  1
  Si  Si32  1  0.299586  0.674174  0.065990  1
  Si  Si33  1  0.302571  0.879892  0.061645  1
  Si  Si34  1  0.700414  0.325826  0.934010  1
  Si  Si35  1  0.198241  0.177131  0.658551  1
  Si  Si36  1  0.803099  0.411491  0.364561  1
  Si  Si37  1  0.789882  0.643372  0.993142  1
  Si  Si38  1  0.789882  0.143372  0.506858  1
  Si  Si39  1  0.797389  0.861923  0.694104  1
  Si  Si40  1  0.697429  0.120108  0.938355  1
  Si  Si41  1  0.202611  0.138077  0.305896  1
  Si  Si42  1  0.698661  0.766187  0.894949  1
  Si  Si43  1  0.697429  0.620108  0.561645  1
  Si  Si44  1  0.302571  0.379892  0.438355  1
  Si  Si45  1  0.698661  0.266187  0.605051  1
  Si  Si46  1  0.801759  0.822869  0.341449  1
  Si  Si47  1  0.196901  0.088509  0.864561  1
  Si  Si48  1  0.198241  0.677131  0.841449  1
  Si  Si49  1  0.803099  0.911491  0.135439  1
  Si  Si50  1  0.801759  0.322869  0.158551  1
  Si  Si51  1  0.299586  0.174174  0.434010  1
  Si  Si52  1  0.202611  0.638077  0.194104  1
  Si  Si53  1  0.704823  0.752152  0.216000  1
  Si  Si54  1  0.301339  0.233813  0.105051  1
  Si  Si55  1  0.295177  0.247848  0.784000  1
  O  O56  1  0.735319  0.992973  0.173689  1
  O  O57  1  0.270844  0.776664  0.071082  1
  O  O58  1  0.891467  0.859865  0.514531  1
  O  O59  1  0.733456  0.558448  0.957830  1
  O  O60  1  0.879112  0.702194  0.854271  1
  O  O61  1  0.735319  0.492973  0.326311  1
  O  O62  1  0.738976  0.735368  0.961114  1
  O  O63  1  0.270234  0.547403  0.221994  1
  O  O64  1  0.270844  0.276664  0.428918  1
  O  O65  1  0.108533  0.640135  0.014531  1
  O  O66  1  0.777564  0.316700  0.335202  1
  O  O67  1  0.758416  0.366808  0.608945  1
  O  O68  1  0.270234  0.047403  0.278006  1
  O  O69  1  0.378700  0.747493  0.877911  1
  O  O70  1  0.617454  0.407125  0.422586  1
  O  O71  1  0.729156  0.723336  0.571082  1
  O  O72  1  0.729766  0.452597  0.778006  1
  O  O73  1  0.251688  0.578027  0.854808  1
  O  O74  1  0.378700  0.247493  0.622089  1
  O  O75  1  0.264681  0.507027  0.673689  1
  O  O76  1  0.607459  0.779882  0.712196  1
  O  O77  1  0.222436  0.183300  0.835202  1
  O  O78  1  0.390812  0.855249  0.552167  1
  O  O79  1  0.382546  0.592875  0.577414  1
  O  O80  1  0.251688  0.078027  0.645192  1
  O  O81  1  0.729156  0.223336  0.928918  1
  O  O82  1  0.738976  0.235368  0.538886  1
  O  O83  1  0.750121  0.803701  0.274298  1
  O  O84  1  0.787555  0.873125  0.624587  1
  O  O85  1  0.109640  0.834716  0.711642  1
  O  O86  1  0.264681  0.007027  0.826311  1
  O  O87  1  0.222436  0.683300  0.664798  1
  O  O88  1  0.116378  0.923776  0.112143  1
  O  O89  1  0.392541  0.220118  0.287804  1
  O  O90  1  0.261024  0.764632  0.461114  1
  O  O91  1  0.761993  0.083738  -0.000325  1
  O  O92  1  0.241584  0.633192  0.391055  1
  O  O93  1  0.621300  0.752507  0.377911  1
  O  O94  1  0.249879  0.696299  0.774298  1
  O  O95  1  0.120888  0.797806  0.354271  1
  O  O96  1  0.621300  0.252507  0.122089  1
  O  O97  1  0.116378  0.423776  0.387857  1
  O  O98  1  0.238007  0.916262  1.000325  1
  O  O99  1  0.761993  0.583738  0.500325  1
  O  O100  1  0.249879  0.196299  0.725702  1
  O  O101  1  0.120888  0.297806  0.145729  1
  O  O102  1  0.390812  0.355249  0.947833  1
  O  O103  1  0.729766  0.952597  0.721994  1
  O  O104  1  0.883622  0.076224  0.887857  1
  O  O105  1  0.109640  0.334716  0.788358  1
  O  O106  1  0.777564  0.816700  0.164798  1
  O  O107  1  0.266544  0.941552  0.457830  1
  O  O108  1  0.617454  0.907125  0.077414  1
  O  O109  1  0.879112  0.202194  0.645729  1
  O  O110  1  0.241584  0.133192  0.108945  1
  O  O111  1  0.891467  0.359865  0.985469  1
  O  O112  1  0.748312  0.421973  0.145192  1
  O  O113  1  0.890360  0.665284  0.211642  1
  O  O114  1  0.787555  0.373125  0.875413  1
  O  O115  1  0.607459  0.279882  0.787804  1
  O  O116  1  0.212445  0.626875  0.124587  1
  O  O117  1  0.212445  0.126875  0.375413  1
  O  O118  1  0.733456  0.058448  0.542170  1
  O  O119  1  0.266544  0.441552  0.042170  1
  O  O120  1  0.748312  0.921973  0.354808  1
  O  O121  1  0.238007  0.416262  0.499675  1
  O  O122  1  0.750121  0.303701  0.225702  1
  O  O123  1  0.609188  0.144751  0.447833  1
  O  O124  1  0.758416  0.866808  0.891055  1
  O  O125  1  0.883622  0.576224  0.612143  1
  O  O126  1  0.108533  0.140135  0.485469  1
  O  O127  1  0.890360  0.165284  0.288358  1
  O  O128  1  0.392541  0.720118  0.212196  1
  O  O129  1  0.609188  0.644751  0.052167  1
  O  O130  1  0.382546  0.092875  0.922586  1
  O  O131  1  0.261024  0.264632  0.038886  1
