# generated using pymatgen
data_CsU2O6
_symmetry_space_group_name_H-M   'P 1'
_cell_length_a   11.04877315
_cell_length_b   11.04877408
_cell_length_c   11.04877377
_cell_angle_alpha   89.36702862
_cell_angle_beta   89.36702856
_cell_angle_gamma   89.36702864
_symmetry_Int_Tables_number   1
_chemical_formula_structural   CsU2O6
_chemical_formula_sum   'Cs8 U16 O48'
_cell_volume   1348.53834674
_cell_formula_units_Z   8
loop_
 _symmetry_equiv_pos_site_id
 _symmetry_equiv_pos_as_xyz
  1  'x, y, z'
loop_
 _atom_site_type_symbol
 _atom_site_label
 _atom_site_symmetry_multiplicity
 _atom_site_fract_x
 _atom_site_fract_y
 _atom_site_fract_z
 _atom_site_occupancy
  Cs  Cs0  1  0.125087  0.626423  0.613366  1
  Cs  Cs1  1  0.145298  0.145298  0.145298  1
  Cs  Cs2  1  0.874913  0.373577  0.386634  1
  Cs  Cs3  1  0.626423  0.613366  0.125087  1
  Cs  Cs4  1  0.854702  0.854702  0.854702  1
  Cs  Cs5  1  0.373577  0.386634  0.874913  1
  Cs  Cs6  1  0.613366  0.125087  0.626423  1
  Cs  Cs7  1  0.386634  0.874913  0.373577  1
  U  U8  1  0.215375  0.997219  0.745808  1
  U  U9  1  0.761942  0.741015  0.493554  1
  U  U10  1  0.745808  0.215375  0.997219  1
  U  U11  1  0.506446  0.238058  0.258985  1
  U  U12  1  0.741015  0.493554  0.761942  1
  U  U13  1  0.254192  0.784625  0.002781  1
  U  U14  1  0.000000  0.500000  0.000000  1
  U  U15  1  0.238058  0.258985  0.506446  1
  U  U16  1  0.493554  0.761942  0.741015  1
  U  U17  1  0.997219  0.745808  0.215375  1
  U  U18  1  0.002781  0.254192  0.784625  1
  U  U19  1  0.000000  0.000000  0.500000  1
  U  U20  1  0.258985  0.506446  0.238058  1
  U  U21  1  0.784625  0.002781  0.254192  1
  U  U22  1  0.500000  0.000000  0.000000  1
  U  U23  1  0.500000  0.500000  0.500000  1
  O  O24  1  0.853623  0.570330  0.891907  1
  O  O25  1  0.918223  0.560008  0.149699  1
  O  O26  1  0.866113  0.831844  0.135296  1
  O  O27  1  0.115259  0.323184  0.624481  1
  O  O28  1  0.340953  0.700976  0.871088  1
  O  O29  1  0.603755  0.633320  0.814815  1
  O  O30  1  0.128912  0.659047  0.299024  1
  O  O31  1  0.168156  0.864704  0.133887  1
  O  O32  1  0.020070  0.082023  0.677954  1
  O  O33  1  0.429670  0.108093  0.146377  1
  O  O34  1  0.082023  0.677954  0.020070  1
  O  O35  1  0.135296  0.866113  0.831844  1
  O  O36  1  0.814815  0.603755  0.633320  1
  O  O37  1  0.383832  0.571225  0.364123  1
  O  O38  1  0.149699  0.918223  0.560008  1
  O  O39  1  0.185185  0.396245  0.366680  1
  O  O40  1  0.831844  0.135296  0.866113  1
  O  O41  1  0.884741  0.676816  0.375519  1
  O  O42  1  0.891907  0.853623  0.570330  1
  O  O43  1  0.364123  0.383832  0.571225  1
  O  O44  1  0.871088  0.340953  0.700976  1
  O  O45  1  0.081777  0.439992  0.850301  1
  O  O46  1  0.108093  0.146377  0.429670  1
  O  O47  1  0.635877  0.616168  0.428775  1
  O  O48  1  0.616168  0.428775  0.635877  1
  O  O49  1  0.700976  0.871088  0.340953  1
  O  O50  1  0.133887  0.168156  0.864704  1
  O  O51  1  0.396245  0.366680  0.185185  1
  O  O52  1  0.917977  0.322046  0.979930  1
  O  O53  1  0.677954  0.020070  0.082023  1
  O  O54  1  0.864704  0.133887  0.168156  1
  O  O55  1  0.571225  0.364123  0.383832  1
  O  O56  1  0.659047  0.299024  0.128912  1
  O  O57  1  0.375519  0.884741  0.676816  1
  O  O58  1  0.323184  0.624481  0.115259  1
  O  O59  1  0.979930  0.917977  0.322046  1
  O  O60  1  0.850301  0.081777  0.439992  1
  O  O61  1  0.560008  0.149699  0.918223  1
  O  O62  1  0.439992  0.850301  0.081777  1
  O  O63  1  0.624481  0.115259  0.323184  1
  O  O64  1  0.633320  0.814815  0.603755  1
  O  O65  1  0.299024  0.128912  0.659047  1
  O  O66  1  0.146377  0.429670  0.108093  1
  O  O67  1  0.322046  0.979930  0.917977  1
  O  O68  1  0.428775  0.635877  0.616168  1
  O  O69  1  0.366680  0.185185  0.396245  1
  O  O70  1  0.676816  0.375519  0.884741  1
  O  O71  1  0.570330  0.891907  0.853623  1
