# generated using pymatgen
data_Lu5(Si5Ir2)2
_symmetry_space_group_name_H-M   'P 1'
_cell_length_a   4.20477934
_cell_length_b   12.54886777
_cell_length_c   12.54886777
_cell_angle_alpha   90.00000000
_cell_angle_beta   90.00000000
_cell_angle_gamma   90.00000000
_symmetry_Int_Tables_number   1
_chemical_formula_structural   Lu5(Si5Ir2)2
_chemical_formula_sum   'Lu10 Si20 Ir8'
_cell_volume   662.14376788
_cell_formula_units_Z   2
loop_
 _symmetry_equiv_pos_site_id
 _symmetry_equiv_pos_as_xyz
  1  'x, y, z'
loop_
 _atom_site_type_symbol
 _atom_site_label
 _atom_site_symmetry_multiplicity
 _atom_site_fract_x
 _atom_site_fract_y
 _atom_site_fract_z
 _atom_site_occupancy
  Lu  Lu0  1  0.000000  0.000000  0.000000  1
  Lu  Lu1  1  0.000000  0.500000  0.500000  1
  Lu  Lu2  1  0.500000  0.174271  0.325729  1
  Lu  Lu3  1  0.500000  0.674271  0.174271  1
  Lu  Lu4  1  0.500000  0.325729  0.825729  1
  Lu  Lu5  1  0.500000  0.825729  0.674271  1
  Lu  Lu6  1  0.500000  0.884340  0.384340  1
  Lu  Lu7  1  0.500000  0.615660  0.884340  1
  Lu  Lu8  1  0.500000  0.384340  0.115660  1
  Lu  Lu9  1  0.500000  0.115660  0.615660  1
  Ir  Ir10  1  0.000000  0.019022  0.245820  1
  Ir  Ir11  1  0.000000  0.754180  0.019022  1
  Ir  Ir12  1  0.000000  0.245820  0.980978  1
  Ir  Ir13  1  0.000000  0.980978  0.754180  1
  Ir  Ir14  1  0.000000  0.519022  0.254180  1
  Ir  Ir15  1  0.000000  0.480978  0.745820  1
  Ir  Ir16  1  0.000000  0.745820  0.519022  1
  Ir  Ir17  1  0.000000  0.254180  0.480978  1
  Si  Si18  1  0.000000  0.066071  0.433929  1
  Si  Si19  1  0.000000  0.566071  0.066071  1
  Si  Si20  1  0.000000  0.433929  0.933929  1
  Si  Si21  1  0.000000  0.933929  0.566071  1
  Si  Si22  1  0.000000  0.200334  0.164977  1
  Si  Si23  1  0.000000  0.835023  0.200334  1
  Si  Si24  1  0.000000  0.164977  0.799666  1
  Si  Si25  1  0.000000  0.799666  0.835023  1
  Si  Si26  1  0.000000  0.700334  0.335023  1
  Si  Si27  1  0.000000  0.299666  0.664977  1
  Si  Si28  1  0.000000  0.664977  0.700334  1
  Si  Si29  1  0.000000  0.335023  0.299666  1
  Si  Si30  1  0.500000  0.003713  0.154688  1
  Si  Si31  1  0.500000  0.845312  0.003713  1
  Si  Si32  1  0.500000  0.154688  0.996287  1
  Si  Si33  1  0.500000  0.996287  0.845312  1
  Si  Si34  1  0.500000  0.503713  0.345312  1
  Si  Si35  1  0.500000  0.496287  0.654688  1
  Si  Si36  1  0.500000  0.654688  0.503713  1
  Si  Si37  1  0.500000  0.345312  0.496287  1
