# generated using pymatgen
data_In2Si2Pb2O9
_symmetry_space_group_name_H-M   'P 1'
_cell_length_a   7.12648254
_cell_length_b   10.72244420
_cell_length_c   11.61452614
_cell_angle_alpha   90.00000000
_cell_angle_beta   90.00000000
_cell_angle_gamma   90.00000000
_symmetry_Int_Tables_number   1
_chemical_formula_structural   In2Si2Pb2O9
_chemical_formula_sum   'In8 Si8 Pb8 O36'
_cell_volume   887.50440244
_cell_formula_units_Z   4
loop_
 _symmetry_equiv_pos_site_id
 _symmetry_equiv_pos_as_xyz
  1  'x, y, z'
loop_
 _atom_site_type_symbol
 _atom_site_label
 _atom_site_symmetry_multiplicity
 _atom_site_fract_x
 _atom_site_fract_y
 _atom_site_fract_z
 _atom_site_occupancy
  Pb  Pb0  1  0.266851  0.456594  0.565173  1
  Pb  Pb1  1  0.766851  0.543406  0.434827  1
  Pb  Pb2  1  0.766851  0.043406  0.065173  1
  Pb  Pb3  1  0.266851  0.956594  0.934827  1
  Pb  Pb4  1  0.253763  0.058097  0.544941  1
  Pb  Pb5  1  0.753763  0.941903  0.455059  1
  Pb  Pb6  1  0.753763  0.441903  0.044941  1
  Pb  Pb7  1  0.253763  0.558097  0.955059  1
  In  In8  1  0.210186  0.498968  0.250585  1
  In  In9  1  0.710186  0.501032  0.749415  1
  In  In10  1  0.710186  0.001032  0.750585  1
  In  In11  1  0.210186  0.998968  0.249415  1
  In  In12  1  0.232486  0.249497  0.088601  1
  In  In13  1  0.732486  0.750503  0.911399  1
  In  In14  1  0.732486  0.250503  0.588601  1
  In  In15  1  0.232486  0.749497  0.411399  1
  Si  Si16  1  0.492182  0.249553  0.340828  1
  Si  Si17  1  0.992182  0.750447  0.659172  1
  Si  Si18  1  0.992182  0.250447  0.840828  1
  Si  Si19  1  0.492182  0.749553  0.159172  1
  Si  Si20  1  0.922831  0.244313  0.330729  1
  Si  Si21  1  0.422831  0.755687  0.669271  1
  Si  Si22  1  0.422831  0.255687  0.830729  1
  Si  Si23  1  0.922831  0.744313  0.169271  1
  O  O24  1  0.339286  0.066417  0.096789  1
  O  O25  1  0.839286  0.933583  0.903211  1
  O  O26  1  0.839286  0.433583  0.596789  1
  O  O27  1  0.339286  0.566417  0.403211  1
  O  O28  1  0.381290  0.329811  0.241933  1
  O  O29  1  0.881290  0.670189  0.758067  1
  O  O30  1  0.881290  0.170189  0.741933  1
  O  O31  1  0.381290  0.829811  0.258067  1
  O  O32  1  0.110249  0.429883  0.088382  1
  O  O33  1  0.610249  0.570117  0.911618  1
  O  O34  1  0.610249  0.070117  0.588382  1
  O  O35  1  0.110249  0.929883  0.411618  1
  O  O36  1  0.518905  0.326439  0.462956  1
  O  O37  1  0.018905  0.673561  0.537044  1
  O  O38  1  0.018905  0.173561  0.962956  1
  O  O39  1  0.518905  0.826439  0.037044  1
  O  O40  1  0.041693  0.171098  0.230040  1
  O  O41  1  0.541693  0.828902  0.769960  1
  O  O42  1  0.541693  0.328902  0.730040  1
  O  O43  1  0.041693  0.671098  0.269960  1
  O  O44  1  0.703105  0.224775  0.285947  1
  O  O45  1  0.203105  0.775225  0.714053  1
  O  O46  1  0.203105  0.275225  0.785947  1
  O  O47  1  0.703105  0.724775  0.214053  1
  O  O48  1  0.390797  0.114225  0.366928  1
  O  O49  1  0.890797  0.885775  0.633072  1
  O  O50  1  0.890797  0.385775  0.866928  1
  O  O51  1  0.390797  0.614225  0.133072  1
  O  O52  1  0.974196  0.394680  0.339183  1
  O  O53  1  0.474196  0.605320  0.660817  1
  O  O54  1  0.474196  0.105320  0.839183  1
  O  O55  1  0.974196  0.894680  0.160817  1
  O  O56  1  0.937718  0.178710  0.459071  1
  O  O57  1  0.437718  0.821290  0.540929  1
  O  O58  1  0.437718  0.321290  0.959071  1
  O  O59  1  0.937718  0.678710  0.040929  1
