# generated using pymatgen
data_Tm10In20Rh9
_symmetry_space_group_name_H-M   'P 1'
_cell_length_a   9.36372498
_cell_length_b   13.48987936
_cell_length_c   13.48987936
_cell_angle_alpha   90.00000000
_cell_angle_beta   90.00000000
_cell_angle_gamma   90.00000000
_symmetry_Int_Tables_number   1
_chemical_formula_structural   Tm10In20Rh9
_chemical_formula_sum   'Tm20 In40 Rh18'
_cell_volume   1703.98113069
_cell_formula_units_Z   2
loop_
 _symmetry_equiv_pos_site_id
 _symmetry_equiv_pos_as_xyz
  1  'x, y, z'
loop_
 _atom_site_type_symbol
 _atom_site_label
 _atom_site_symmetry_multiplicity
 _atom_site_fract_x
 _atom_site_fract_y
 _atom_site_fract_z
 _atom_site_occupancy
  Tm  Tm0  1  0.730166  0.046446  0.046446  1
  Tm  Tm1  1  0.635424  0.250000  0.250000  1
  Tm  Tm2  1  0.231719  0.250000  0.524981  1
  Tm  Tm3  1  0.269834  0.953554  0.953554  1
  Tm  Tm4  1  0.730166  0.453554  0.046446  1
  Tm  Tm5  1  0.843481  0.750000  0.750000  1
  Tm  Tm6  1  0.768281  0.750000  0.475019  1
  Tm  Tm7  1  0.768281  0.750000  0.024981  1
  Tm  Tm8  1  0.269834  0.546446  0.953554  1
  Tm  Tm9  1  0.364576  0.750000  0.750000  1
  Tm  Tm10  1  0.269834  0.546446  0.546446  1
  Tm  Tm11  1  0.730166  0.453554  0.453554  1
  Tm  Tm12  1  0.768281  0.475019  0.750000  1
  Tm  Tm13  1  0.231719  0.524981  0.250000  1
  Tm  Tm14  1  0.269834  0.953554  0.546446  1
  Tm  Tm15  1  0.231719  0.975019  0.250000  1
  Tm  Tm16  1  0.730166  0.046446  0.453554  1
  Tm  Tm17  1  0.156519  0.250000  0.250000  1
  Tm  Tm18  1  0.231719  0.250000  0.975019  1
  Tm  Tm19  1  0.768281  0.024981  0.750000  1
  In  In20  1  0.500000  0.881465  0.381465  1
  In  In21  1  0.500000  0.118535  0.881465  1
  In  In22  1  0.240862  0.362786  0.750000  1
  In  In23  1  0.099941  0.917596  0.750000  1
  In  In24  1  0.759138  0.862786  0.250000  1
  In  In25  1  0.900059  0.250000  0.417596  1
  In  In26  1  0.099941  0.750000  0.582404  1
  In  In27  1  0.500000  0.381465  0.881465  1
  In  In28  1  0.240862  0.750000  0.137214  1
  In  In29  1  0.406753  0.119617  0.119617  1
  In  In30  1  0.500000  0.618535  0.381465  1
  In  In31  1  0.593247  0.619617  0.619617  1
  In  In32  1  0.900059  0.250000  0.082404  1
  In  In33  1  0.593247  0.880383  0.880383  1
  In  In34  1  0.500000  0.618535  0.118535  1
  In  In35  1  0.099941  0.582404  0.750000  1
  In  In36  1  0.000000  0.099802  0.900198  1
  In  In37  1  0.900059  0.082404  0.250000  1
  In  In38  1  0.240862  0.750000  0.362786  1
  In  In39  1  0.593247  0.619617  0.880383  1
  In  In40  1  0.500000  0.881465  0.118535  1
  In  In41  1  0.000000  0.400198  0.900198  1
  In  In42  1  0.000000  0.400198  0.599802  1
  In  In43  1  0.500000  0.381465  0.618535  1
  In  In44  1  0.759138  0.250000  0.862786  1
  In  In45  1  0.759138  0.637214  0.250000  1
  In  In46  1  0.406753  0.380383  0.380383  1
  In  In47  1  0.500000  0.118535  0.618535  1
  In  In48  1  0.406753  0.380383  0.119617  1
  In  In49  1  0.099941  0.750000  0.917596  1
  In  In50  1  0.406753  0.119617  0.380383  1
  In  In51  1  0.900059  0.417596  0.250000  1
  In  In52  1  0.000000  0.599802  0.400198  1
  In  In53  1  0.000000  0.900198  0.400198  1
  In  In54  1  0.759138  0.250000  0.637214  1
  In  In55  1  0.240862  0.137214  0.750000  1
  In  In56  1  0.000000  0.599802  0.099802  1
  In  In57  1  0.000000  0.900198  0.099802  1
  In  In58  1  0.593247  0.880383  0.619617  1
  In  In59  1  0.000000  0.099802  0.599802  1
  Rh  Rh60  1  0.402893  0.528926  0.750000  1
  Rh  Rh61  1  0.402893  0.750000  0.971074  1
  Rh  Rh62  1  0.103860  0.407041  0.092959  1
  Rh  Rh63  1  0.597107  0.250000  0.028926  1
  Rh  Rh64  1  0.103860  0.407041  0.407041  1
  Rh  Rh65  1  0.103860  0.092959  0.407041  1
  Rh  Rh66  1  0.896140  0.907041  0.907041  1
  Rh  Rh67  1  0.896140  0.592959  0.907041  1
  Rh  Rh68  1  0.597107  0.028926  0.250000  1
  Rh  Rh69  1  0.103860  0.092959  0.092959  1
  Rh  Rh70  1  0.896140  0.592959  0.592959  1
  Rh  Rh71  1  0.402893  0.971074  0.750000  1
  Rh  Rh72  1  0.000000  0.250000  0.750000  1
  Rh  Rh73  1  0.896140  0.907041  0.592959  1
  Rh  Rh74  1  0.597107  0.250000  0.471074  1
  Rh  Rh75  1  0.000000  0.750000  0.250000  1
  Rh  Rh76  1  0.402893  0.750000  0.528926  1
  Rh  Rh77  1  0.597107  0.471074  0.250000  1
