# generated using pymatgen
data_K2NaBP2
_symmetry_space_group_name_H-M   'P 1'
_cell_length_a   5.02098366
_cell_length_b   6.79602510
_cell_length_c   10.71796926
_cell_angle_alpha   84.60917897
_cell_angle_beta   76.45356950
_cell_angle_gamma   68.32266589
_symmetry_Int_Tables_number   1
_chemical_formula_structural   K2NaBP2
_chemical_formula_sum   'K4 Na2 B2 P4'
_cell_volume   330.39578384
_cell_formula_units_Z   2
loop_
 _symmetry_equiv_pos_site_id
 _symmetry_equiv_pos_as_xyz
  1  'x, y, z'
loop_
 _atom_site_type_symbol
 _atom_site_label
 _atom_site_symmetry_multiplicity
 _atom_site_fract_x
 _atom_site_fract_y
 _atom_site_fract_z
 _atom_site_occupancy
  K  K0  1  0.982712  0.854829  0.179712  1
  K  K1  1  0.177050  0.237239  0.408643  1
  K  K2  1  0.017288  0.145171  0.820288  1
  K  K3  1  0.822950  0.762761  0.591357  1
  Na  Na4  1  0.297111  0.539259  0.866503  1
  Na  Na5  1  0.702889  0.460741  0.133497  1
  B  B6  1  0.500000  0.500000  0.500000  1
  B  B7  1  0.500000  0.000000  0.000000  1
  P  P8  1  0.335763  0.240098  0.088425  1
  P  P9  1  0.466864  0.692366  0.373869  1
  P  P10  1  0.664237  0.759902  0.911575  1
  P  P11  1  0.533136  0.307634  0.626131  1
