# generated using pymatgen
data_CSe2S2N2(OF)3
_symmetry_space_group_name_H-M   'P 1'
_cell_length_a   8.96555743
_cell_length_b   9.05973322
_cell_length_c   11.05781232
_cell_angle_alpha   90.00033387
_cell_angle_beta   90.00098180
_cell_angle_gamma   89.64408161
_symmetry_Int_Tables_number   1
_chemical_formula_structural   CSe2S2N2(OF)3
_chemical_formula_sum   'C4 Se8 S8 N8 O12 F12'
_cell_volume   898.15965247
_cell_formula_units_Z   4
loop_
 _symmetry_equiv_pos_site_id
 _symmetry_equiv_pos_as_xyz
  1  'x, y, z'
loop_
 _atom_site_type_symbol
 _atom_site_label
 _atom_site_symmetry_multiplicity
 _atom_site_fract_x
 _atom_site_fract_y
 _atom_site_fract_z
 _atom_site_occupancy
  C  C0  1  0.562137  0.772862  0.012286  1
  Se  Se1  1  0.601070  0.160321  0.411498  1
  Se  Se2  1  0.898930  0.339680  0.911500  1
  C  C3  1  0.062137  0.272861  0.487715  1
  Se  Se4  1  0.173650  0.544716  0.899029  1
  Se  Se5  1  0.326352  0.955286  0.399030  1
  C  C6  1  0.437864  0.227138  0.987714  1
  C  C7  1  0.937863  0.727139  0.512285  1
  Se  Se8  1  0.398930  0.839679  0.588501  1
  Se  Se9  1  0.673648  0.044714  0.600970  1
  Se  Se10  1  0.101069  0.660321  0.088500  1
  Se  Se11  1  0.826349  0.455284  0.100971  1
  S  S12  1  0.061165  0.847390  0.875588  1
  S  S13  1  0.659777  0.731586  0.866043  1
  S  S14  1  0.561166  0.347389  0.624413  1
  S  S15  1  0.840239  0.768431  0.366039  1
  S  S16  1  0.438834  0.652611  0.375586  1
  S  S17  1  0.340226  0.268419  0.133957  1
  S  S18  1  0.938835  0.152610  0.124412  1
  S  S19  1  0.159761  0.231568  0.633962  1
  N  N20  1  0.871786  0.292984  0.187914  1
  N  N21  1  0.050958  0.831380  0.016613  1
  N  N22  1  0.550959  0.331378  0.483387  1
  N  N23  1  0.949041  0.168621  0.983387  1
  N  N24  1  0.128214  0.707016  0.812086  1
  N  N25  1  0.628214  0.207016  0.687914  1
  N  N26  1  0.449041  0.668622  0.516613  1
  N  N27  1  0.371786  0.792983  0.312086  1
  O  O28  1  0.543975  0.665993  0.791306  1
  O  O29  1  0.715754  0.874274  0.825916  1
  O  O30  1  0.784246  0.625717  0.325909  1
  O  O31  1  0.956016  0.834005  0.291315  1
  O  O32  1  0.456024  0.334007  0.208692  1
  O  O33  1  0.215754  0.374283  0.674091  1
  O  O34  1  0.284246  0.125724  0.174086  1
  O  O35  1  0.221099  0.371941  0.095362  1
  O  O36  1  0.778902  0.628059  0.904638  1
  O  O37  1  0.721103  0.871945  0.404637  1
  O  O38  1  0.043984  0.165995  0.708685  1
  O  O39  1  0.278897  0.128055  0.595363  1
  F  F40  1  0.562881  0.145846  0.007645  1
  F  F41  1  0.847937  0.652276  0.589000  1
  F  F42  1  0.979452  0.854616  0.567817  1
  F  F43  1  0.347935  0.152275  0.910999  1
  F  F44  1  0.937121  0.354152  0.507646  1
  F  F45  1  0.520546  0.645386  0.067818  1
  F  F46  1  0.020547  0.145384  0.432183  1
  F  F47  1  0.479454  0.354614  0.932183  1
  F  F48  1  0.437119  0.854154  0.992355  1
  F  F49  1  0.062879  0.645848  0.492354  1
  F  F50  1  0.152063  0.347723  0.411000  1
  F  F51  1  0.652066  0.847725  0.089001  1
