# generated using pymatgen
data_AsSeS2N2ClF6
_symmetry_space_group_name_H-M   'P 1'
_cell_length_a   9.54553560
_cell_length_b   10.92929652
_cell_length_c   19.99068716
_cell_angle_alpha   90.00000000
_cell_angle_beta   90.00000000
_cell_angle_gamma   105.11814939
_symmetry_Int_Tables_number   1
_chemical_formula_structural   AsSeS2N2ClF6
_chemical_formula_sum   'As8 Se8 S16 N16 Cl8 F48'
_cell_volume   2013.36751860
_cell_formula_units_Z   8
loop_
 _symmetry_equiv_pos_site_id
 _symmetry_equiv_pos_as_xyz
  1  'x, y, z'
loop_
 _atom_site_type_symbol
 _atom_site_label
 _atom_site_symmetry_multiplicity
 _atom_site_fract_x
 _atom_site_fract_y
 _atom_site_fract_z
 _atom_site_occupancy
  As  As0  1  0.252373  0.752083  0.034967  1
  As  As1  1  0.570177  0.599722  0.792290  1
  As  As2  1  0.929823  0.900278  0.292290  1
  As  As3  1  0.752373  0.252083  0.465033  1
  As  As4  1  0.747627  0.247917  0.965033  1
  As  As5  1  0.070177  0.099722  0.707710  1
  As  As6  1  0.247627  0.747917  0.534967  1
  As  As7  1  0.429823  0.400278  0.207710  1
  Se  Se8  1  0.137935  0.530854  0.721694  1
  Se  Se9  1  0.182470  0.323865  0.515238  1
  Se  Se10  1  0.317530  0.176135  0.015238  1
  Se  Se11  1  0.637935  0.030854  0.778306  1
  Se  Se12  1  0.817530  0.676135  0.484762  1
  Se  Se13  1  0.362065  0.969146  0.221694  1
  Se  Se14  1  0.862065  0.469146  0.278306  1
  Se  Se15  1  0.682470  0.823865  0.984762  1
  S  S16  1  0.461281  0.899079  0.350441  1
  S  S17  1  0.196480  0.112737  0.507330  1
  S  S18  1  0.178149  0.245930  0.896863  1
  S  S19  1  0.868027  0.256699  0.264231  1
  S  S20  1  0.368027  0.756699  0.235769  1
  S  S21  1  0.631973  0.243301  0.764231  1
  S  S22  1  0.821851  0.754070  0.103137  1
  S  S23  1  0.803520  0.887263  0.492670  1
  S  S24  1  0.321851  0.254070  0.396863  1
  S  S25  1  0.696480  0.612737  0.992670  1
  S  S26  1  0.303520  0.387263  0.007330  1
  S  S27  1  0.678149  0.745930  0.603137  1
  S  S28  1  0.131973  0.743301  0.735769  1
  S  S29  1  0.538719  0.100921  0.649559  1
  S  S30  1  0.961281  0.399079  0.149559  1
  S  S31  1  0.038719  0.600921  0.850441  1
  N  N32  1  0.916665  0.504140  0.194264  1
  N  N33  1  0.931037  0.272498  0.190112  1
  N  N34  1  0.759592  0.857369  0.065405  1
  N  N35  1  0.259592  0.357369  0.434595  1
  N  N36  1  0.583335  0.995860  0.694264  1
  N  N37  1  0.416665  0.004140  0.305736  1
  N  N38  1  0.740408  0.642631  0.565405  1
  N  N39  1  0.240408  0.142631  0.934595  1
  N  N40  1  0.782116  0.627897  0.061906  1
  N  N41  1  0.568963  0.227502  0.690112  1
  N  N42  1  0.217884  0.372103  0.938094  1
  N  N43  1  0.717884  0.872103  0.561906  1
  N  N44  1  0.083335  0.495860  0.805736  1
  N  N45  1  0.068963  0.727502  0.809888  1
  N  N46  1  0.431037  0.772498  0.309888  1
  N  N47  1  0.282116  0.127897  0.438094  1
  Cl  Cl48  1  0.635117  0.597636  0.413426  1
  Cl  Cl49  1  0.063513  0.541253  0.339694  1
  Cl  Cl50  1  0.135117  0.097636  0.086574  1
  Cl  Cl51  1  0.563513  0.041253  0.160306  1
  Cl  Cl52  1  0.936487  0.458747  0.660306  1
  Cl  Cl53  1  0.436487  0.958747  0.839694  1
  Cl  Cl54  1  0.864883  0.902364  0.913426  1
  Cl  Cl55  1  0.364883  0.402364  0.586574  1
  F  F56  1  0.646307  0.092087  0.985930  1
  F  F57  1  0.580218  0.341894  0.232388  1
  F  F58  1  0.593452  0.283942  0.497717  1
  F  F59  1  0.715010  0.308034  0.384201  1
  F  F60  1  0.793512  0.195564  0.543677  1
  F  F61  1  0.219296  0.042551  0.682077  1
  F  F62  1  0.419782  0.658106  0.767612  1
  F  F63  1  0.689299  0.746553  0.768288  1
  F  F64  1  0.293512  0.695564  0.956323  1
  F  F65  1  0.448210  0.455717  0.817164  1
  F  F66  1  0.051790  0.044283  0.317164  1
  F  F67  1  0.310701  0.253447  0.231712  1
  F  F68  1  0.348480  0.902662  0.557651  1
  F  F69  1  0.913016  0.221315  0.431329  1
  F  F70  1  0.151520  0.597338  0.057651  1
  F  F71  1  0.580015  0.539014  0.710731  1
  F  F72  1  0.280704  0.457449  0.182077  1
  F  F73  1  0.551790  0.544283  0.182836  1
  F  F74  1  0.093452  0.783942  0.002283  1
  F  F75  1  0.948210  0.955717  0.682836  1
  F  F76  1  0.784990  0.191966  0.884201  1
  F  F77  1  0.439449  0.337690  0.125247  1
  F  F78  1  0.919985  0.960986  0.210731  1
  F  F79  1  0.719296  0.542551  0.817923  1
  F  F80  1  0.560551  0.662310  0.874753  1
  F  F81  1  0.146307  0.592087  0.514070  1
  F  F82  1  0.906548  0.216058  0.997717  1
  F  F83  1  0.919782  0.158106  0.732388  1
  F  F84  1  0.413016  0.721315  0.068671  1
  F  F85  1  0.651520  0.097338  0.442349  1
  F  F86  1  0.810701  0.753447  0.268288  1
  F  F87  1  0.086984  0.778685  0.568671  1
  F  F88  1  0.080218  0.841894  0.267612  1
  F  F89  1  0.939449  0.837690  0.374753  1
  F  F90  1  0.080015  0.039014  0.789269  1
  F  F91  1  0.853693  0.407913  0.485930  1
  F  F92  1  0.419985  0.460986  0.289269  1
  F  F93  1  0.215010  0.808034  0.115799  1
  F  F94  1  0.586984  0.278685  0.931329  1
  F  F95  1  0.406548  0.716058  0.502283  1
  F  F96  1  0.706488  0.304436  0.043677  1
  F  F97  1  0.060551  0.162310  0.625247  1
  F  F98  1  0.206488  0.804436  0.456323  1
  F  F99  1  0.189299  0.246553  0.731712  1
  F  F100  1  0.284990  0.691966  0.615799  1
  F  F101  1  0.353693  0.907913  0.014070  1
  F  F102  1  0.848480  0.402662  0.942349  1
  F  F103  1  0.780704  0.957449  0.317923  1
