# generated using pymatgen
data_VSnPO5
_symmetry_space_group_name_H-M   'P 1'
_cell_length_a   5.35542513
_cell_length_b   6.61015155
_cell_length_c   6.96581516
_cell_angle_alpha   113.04211955
_cell_angle_beta   107.33132479
_cell_angle_gamma   95.12521443
_symmetry_Int_Tables_number   1
_chemical_formula_structural   VSnPO5
_chemical_formula_sum   'V2 Sn2 P2 O10'
_cell_volume   210.57850325
_cell_formula_units_Z   2
loop_
 _symmetry_equiv_pos_site_id
 _symmetry_equiv_pos_as_xyz
  1  'x, y, z'
loop_
 _atom_site_type_symbol
 _atom_site_label
 _atom_site_symmetry_multiplicity
 _atom_site_fract_x
 _atom_site_fract_y
 _atom_site_fract_z
 _atom_site_occupancy
  V  V0  1  0.839576  0.365516  0.239252  1
  V  V1  1  0.160424  0.634484  0.760748  1
  Sn  Sn2  1  0.403042  0.219557  0.458147  1
  Sn  Sn3  1  0.596958  0.780443  0.541853  1
  P  P4  1  0.824854  0.808005  0.103585  1
  P  P5  1  0.175146  0.191995  0.896415  1
  O  O6  1  0.223693  0.501546  0.464181  1
  O  O7  1  0.899191  0.064850  0.268833  1
  O  O8  1  0.931030  0.252309  0.963916  1
  O  O9  1  0.068970  0.747691  0.036084  1
  O  O10  1  0.100809  0.935150  0.731167  1
  O  O11  1  0.763053  0.666685  0.224035  1
  O  O12  1  0.236947  0.333315  0.775965  1
  O  O13  1  0.574837  0.761005  0.894192  1
  O  O14  1  0.776307  0.498454  0.535819  1
  O  O15  1  0.425163  0.238995  0.105808  1
