# generated using pymatgen
data_TaPO5
_symmetry_space_group_name_H-M   'P 1'
_cell_length_a   5.40742527
_cell_length_b   13.26001720
_cell_length_c   13.30397490
_cell_angle_alpha   118.64802847
_cell_angle_beta   90.00000000
_cell_angle_gamma   90.00000000
_symmetry_Int_Tables_number   1
_chemical_formula_structural   TaPO5
_chemical_formula_sum   'Ta8 P8 O40'
_cell_volume   837.15030720
_cell_formula_units_Z   8
loop_
 _symmetry_equiv_pos_site_id
 _symmetry_equiv_pos_as_xyz
  1  'x, y, z'
loop_
 _atom_site_type_symbol
 _atom_site_label
 _atom_site_symmetry_multiplicity
 _atom_site_fract_x
 _atom_site_fract_y
 _atom_site_fract_z
 _atom_site_occupancy
  Ta  Ta0  1  0.249911  0.865897  0.303997  1
  Ta  Ta1  1  0.749911  0.634103  0.196003  1
  Ta  Ta2  1  0.750089  0.134103  0.696003  1
  Ta  Ta3  1  0.250089  0.365897  0.803997  1
  Ta  Ta4  1  0.250063  0.197908  0.134154  1
  Ta  Ta5  1  0.750063  0.302092  0.365846  1
  Ta  Ta6  1  0.749937  0.802092  0.865846  1
  Ta  Ta7  1  0.249937  0.697908  0.634154  1
  P  P8  1  0.249815  0.908150  0.062893  1
  P  P9  1  0.749815  0.591850  0.437107  1
  P  P10  1  0.750185  0.091850  0.937107  1
  P  P11  1  0.250185  0.408150  0.562893  1
  P  P12  1  0.250016  0.436186  0.089201  1
  P  P13  1  0.750016  0.063814  0.410799  1
  P  P14  1  0.749984  0.563814  0.910799  1
  P  P15  1  0.249984  0.936186  0.589201  1
  O  O16  1  0.999386  0.249680  0.249673  1
  O  O17  1  0.499386  0.250320  0.250327  1
  O  O18  1  0.000614  0.750320  0.750327  1
  O  O19  1  0.500614  0.749680  0.749673  1
  O  O20  1  0.499598  0.749850  0.249940  1
  O  O21  1  0.999598  0.750150  0.250060  1
  O  O22  1  0.500402  0.250150  0.750060  1
  O  O23  1  0.000402  0.249850  0.749940  1
  O  O24  1  0.985094  0.140233  0.008754  1
  O  O25  1  0.485094  0.359767  0.491246  1
  O  O26  1  0.014906  0.859767  0.991246  1
  O  O27  1  0.514906  0.640233  0.508754  1
  O  O28  1  0.516473  0.141044  0.009460  1
  O  O29  1  0.016473  0.358956  0.490540  1
  O  O30  1  0.483527  0.858956  0.990540  1
  O  O31  1  0.983527  0.641044  0.509460  1
  O  O32  1  0.515679  0.990639  0.366504  1
  O  O33  1  0.015679  0.509361  0.133496  1
  O  O34  1  0.484321  0.009361  0.633496  1
  O  O35  1  0.984321  0.490639  0.866504  1
  O  O36  1  0.984759  0.990952  0.366465  1
  O  O37  1  0.484759  0.509048  0.133535  1
  O  O38  1  0.015241  0.009048  0.633535  1
  O  O39  1  0.515241  0.490952  0.866465  1
  O  O40  1  0.249445  0.345289  0.130363  1
  O  O41  1  0.749445  0.154711  0.369637  1
  O  O42  1  0.750555  0.654711  0.869637  1
  O  O43  1  0.250555  0.845289  0.630363  1
  O  O44  1  0.250059  0.876564  0.160584  1
  O  O45  1  0.750059  0.623436  0.339416  1
  O  O46  1  0.749941  0.123436  0.839416  1
  O  O47  1  0.249941  0.376564  0.660584  1
  O  O48  1  0.249852  0.872426  0.457044  1
  O  O49  1  0.749852  0.627574  0.042956  1
  O  O50  1  0.750148  0.127574  0.542956  1
  O  O51  1  0.250148  0.372426  0.957044  1
  O  O52  1  0.250852  0.040646  0.118138  1
  O  O53  1  0.750852  0.459354  0.381862  1
  O  O54  1  0.749148  0.959354  0.881862  1
  O  O55  1  0.249148  0.540646  0.618138  1
