# generated using pymatgen
data_CaGeO3
_symmetry_space_group_name_H-M   'P 1'
_cell_length_a   10.93251335
_cell_length_b   10.93251279
_cell_length_c   10.93251332
_cell_angle_alpha   109.13940604
_cell_angle_beta   109.13940508
_cell_angle_gamma   110.13690869
_symmetry_Int_Tables_number   1
_chemical_formula_structural   CaGeO3
_chemical_formula_sum   'Ca16 Ge16 O48'
_cell_volume   1005.75941067
_cell_formula_units_Z   16
loop_
 _symmetry_equiv_pos_site_id
 _symmetry_equiv_pos_as_xyz
  1  'x, y, z'
loop_
 _atom_site_type_symbol
 _atom_site_label
 _atom_site_symmetry_multiplicity
 _atom_site_fract_x
 _atom_site_fract_y
 _atom_site_fract_z
 _atom_site_occupancy
  Ca  Ca0  1  0.748715  0.628229  0.871506  1
  Ca  Ca1  1  0.251285  0.371771  0.128494  1
  Ca  Ca2  1  0.500000  0.500000  0.500000  1
  Ca  Ca3  1  0.000000  0.000000  0.000000  1
  Ca  Ca4  1  0.377055  0.627055  0.750000  1
  Ca  Ca5  1  0.128229  0.756723  0.879514  1
  Ca  Ca6  1  0.622945  0.372945  0.250000  1
  Ca  Ca7  1  0.377208  0.248715  0.620486  1
  Ca  Ca8  1  0.127055  0.877055  0.250000  1
  Ca  Ca9  1  0.500000  0.000000  0.500000  1
  Ca  Ca10  1  0.622792  0.751285  0.379514  1
  Ca  Ca11  1  0.256723  0.877208  0.628494  1
  Ca  Ca12  1  0.871771  0.243277  0.120486  1
  Ca  Ca13  1  0.743277  0.122792  0.371506  1
  Ca  Ca14  1  0.872945  0.122945  0.750000  1
  Ca  Ca15  1  0.500000  0.000000  0.000000  1
  Ge  Ge16  1  0.882908  0.741647  0.611471  1
  Ge  Ge17  1  0.000000  0.500000  0.500000  1
  Ge  Ge18  1  0.241647  0.130176  0.858739  1
  Ge  Ge19  1  0.228564  0.617092  0.358739  1
  Ge  Ge20  1  0.125000  0.375000  0.750000  1
  Ge  Ge21  1  0.875000  0.625000  0.250000  1
  Ge  Ge22  1  0.771436  0.382908  0.641261  1
  Ge  Ge23  1  0.630176  0.271436  0.888529  1
  Ge  Ge24  1  0.369824  0.728564  0.111471  1
  Ge  Ge25  1  0.375000  0.125000  0.250000  1
  Ge  Ge26  1  0.625000  0.875000  0.750000  1
  Ge  Ge27  1  0.117092  0.258353  0.388529  1
  Ge  Ge28  1  0.000000  0.500000  0.000000  1
  Ge  Ge29  1  0.758353  0.869824  0.141261  1
  Ge  Ge30  1  0.000000  0.000000  0.500000  1
  Ge  Ge31  1  0.500000  0.500000  0.000000  1
  O  O32  1  0.199313  0.965720  0.099493  1
  O  O33  1  0.992874  0.181347  0.606592  1
  O  O34  1  0.633773  0.900181  0.599493  1
  O  O35  1  0.465720  0.866227  0.766408  1
  O  O36  1  0.640669  0.236356  0.035864  1
  O  O37  1  0.104805  0.140669  0.904313  1
  O  O38  1  0.074755  0.386282  0.893408  1
  O  O39  1  0.031013  0.696187  0.613856  1
  O  O40  1  0.511375  0.877963  0.290124  1
  O  O41  1  0.700492  0.604805  0.464136  1
  O  O42  1  0.968987  0.303813  0.386144  1
  O  O43  1  0.488625  0.122037  0.709876  1
  O  O44  1  0.299508  0.395195  0.535864  1
  O  O45  1  0.596475  0.681667  0.998262  1
  O  O46  1  0.318653  0.425245  0.811527  1
  O  O47  1  0.113718  0.507126  0.688473  1
  O  O48  1  0.681347  0.574755  0.188473  1
  O  O49  1  0.895195  0.859331  0.095687  1
  O  O50  1  0.800687  0.034280  0.900507  1
  O  O51  1  0.181667  0.683406  0.085192  1
  O  O52  1  0.736356  0.200492  0.595687  1
  O  O53  1  0.007125  0.818653  0.393408  1
  O  O54  1  0.622037  0.412162  0.633412  1
  O  O55  1  0.917157  0.531013  0.834826  1
  O  O56  1  0.400181  0.300687  0.266408  1
  O  O57  1  0.818333  0.316594  0.914808  1
  O  O58  1  0.263644  0.799508  0.404313  1
  O  O59  1  0.901786  0.903525  0.585192  1
  O  O60  1  0.087838  0.221250  0.209876  1
  O  O61  1  0.098214  0.096475  0.414808  1
  O  O62  1  0.582331  0.417157  0.886144  1
  O  O63  1  0.377963  0.587838  0.366588  1
  O  O64  1  0.721250  0.011375  0.133412  1
  O  O65  1  0.359331  0.763644  0.964136  1
  O  O66  1  0.912162  0.778750  0.790124  1
  O  O67  1  0.599819  0.699313  0.733592  1
  O  O68  1  0.403525  0.318333  0.001738  1
  O  O69  1  0.816594  0.401786  0.498262  1
  O  O70  1  0.925245  0.613718  0.106592  1
  O  O71  1  0.183406  0.598214  0.501738  1
  O  O72  1  0.803813  0.917669  0.334826  1
  O  O73  1  0.366227  0.099819  0.400507  1
  O  O74  1  0.886282  0.492874  0.311527  1
  O  O75  1  0.534280  0.133773  0.233592  1
  O  O76  1  0.417669  0.582843  0.113856  1
  O  O77  1  0.082843  0.468987  0.165174  1
  O  O78  1  0.196187  0.082331  0.665174  1
  O  O79  1  0.278750  0.988625  0.866588  1
