# generated using pymatgen
data_Sr3In11
_symmetry_space_group_name_H-M   'P 1'
_cell_length_a   5.10525701
_cell_length_b   9.47792687
_cell_length_c   9.47792655
_cell_angle_alpha   73.34553749
_cell_angle_beta   74.37598563
_cell_angle_gamma   74.37598564
_symmetry_Int_Tables_number   1
_chemical_formula_structural   Sr3In11
_chemical_formula_sum   'Sr3 In11'
_cell_volume   413.86105506
_cell_formula_units_Z   1
loop_
 _symmetry_equiv_pos_site_id
 _symmetry_equiv_pos_as_xyz
  1  'x, y, z'
loop_
 _atom_site_type_symbol
 _atom_site_label
 _atom_site_symmetry_multiplicity
 _atom_site_fract_x
 _atom_site_fract_y
 _atom_site_fract_z
 _atom_site_occupancy
  Sr  Sr0  1  0.308746  0.691254  0.691254  1
  Sr  Sr1  1  0.691254  0.308746  0.308746  1
  Sr  Sr2  1  0.000000  0.000000  0.000000  1
  In  In3  1  0.146311  0.579674  0.127704  1
  In  In4  1  0.146311  0.127704  0.579674  1
  In  In5  1  0.342886  0.028885  0.285343  1
  In  In6  1  0.853689  0.420326  0.872296  1
  In  In7  1  0.657114  0.971115  0.714657  1
  In  In8  1  0.500000  0.690728  0.309272  1
  In  In9  1  0.500000  0.309272  0.690728  1
  In  In10  1  0.853689  0.872296  0.420326  1
  In  In11  1  0.657114  0.714657  0.971115  1
  In  In12  1  0.000000  0.500000  0.500000  1
  In  In13  1  0.342886  0.285343  0.028885  1
