# generated using pymatgen
data_Li4Be3As3ClO12
_symmetry_space_group_name_H-M   'P 1'
_cell_length_a   8.35570463
_cell_length_b   8.35570463
_cell_length_c   8.35570463
_cell_angle_alpha   90.00000000
_cell_angle_beta   90.00000000
_cell_angle_gamma   90.00000000
_symmetry_Int_Tables_number   1
_chemical_formula_structural   Li4Be3As3ClO12
_chemical_formula_sum   'Li8 Be6 As6 Cl2 O24'
_cell_volume   583.37691358
_cell_formula_units_Z   2
loop_
 _symmetry_equiv_pos_site_id
 _symmetry_equiv_pos_as_xyz
  1  'x, y, z'
loop_
 _atom_site_type_symbol
 _atom_site_label
 _atom_site_symmetry_multiplicity
 _atom_site_fract_x
 _atom_site_fract_y
 _atom_site_fract_z
 _atom_site_occupancy
  Li  Li0  1  0.829181  0.829181  0.170819  1
  Li  Li1  1  0.329181  0.329181  0.670819  1
  Li  Li2  1  0.170819  0.170819  0.170819  1
  Li  Li3  1  0.670819  0.670819  0.670819  1
  Li  Li4  1  0.829181  0.170819  0.829181  1
  Li  Li5  1  0.329181  0.670819  0.329181  1
  Li  Li6  1  0.170819  0.829181  0.829181  1
  Li  Li7  1  0.670819  0.329181  0.329181  1
  Be  Be8  1  0.500000  0.750000  0.000000  1
  Be  Be9  1  0.250000  0.000000  0.500000  1
  Be  Be10  1  0.000000  0.500000  0.250000  1
  Be  Be11  1  0.500000  0.250000  0.000000  1
  Be  Be12  1  0.000000  0.500000  0.750000  1
  Be  Be13  1  0.750000  0.000000  0.500000  1
  As  As14  1  0.500000  0.000000  0.250000  1
  As  As15  1  0.000000  0.250000  0.500000  1
  As  As16  1  0.250000  0.500000  0.000000  1
  As  As17  1  0.000000  0.750000  0.500000  1
  As  As18  1  0.500000  0.000000  0.750000  1
  As  As19  1  0.750000  0.500000  0.000000  1
  Cl  Cl20  1  0.500000  0.500000  0.500000  1
  Cl  Cl21  1  0.000000  0.000000  0.000000  1
  O  O22  1  0.093772  0.364438  0.642864  1
  O  O23  1  0.593772  0.857136  0.135562  1
  O  O24  1  0.135562  0.406228  0.142864  1
  O  O25  1  0.142864  0.135562  0.406228  1
  O  O26  1  0.357136  0.906228  0.364438  1
  O  O27  1  0.864438  0.593772  0.142864  1
  O  O28  1  0.864438  0.406228  0.857136  1
  O  O29  1  0.357136  0.093772  0.635562  1
  O  O30  1  0.857136  0.864438  0.406228  1
  O  O31  1  0.906228  0.364438  0.357136  1
  O  O32  1  0.135562  0.593772  0.857136  1
  O  O33  1  0.364438  0.357136  0.906228  1
  O  O34  1  0.406228  0.142864  0.135562  1
  O  O35  1  0.906228  0.635562  0.642864  1
  O  O36  1  0.406228  0.857136  0.864438  1
  O  O37  1  0.642864  0.093772  0.364438  1
  O  O38  1  0.635562  0.357136  0.093772  1
  O  O39  1  0.857136  0.135562  0.593772  1
  O  O40  1  0.642864  0.906228  0.635562  1
  O  O41  1  0.635562  0.642864  0.906228  1
  O  O42  1  0.593772  0.142864  0.864438  1
  O  O43  1  0.093772  0.635562  0.357136  1
  O  O44  1  0.364438  0.642864  0.093772  1
  O  O45  1  0.142864  0.864438  0.593772  1
