# generated using pymatgen
data_Ag2Se
_symmetry_space_group_name_H-M   'P 1'
_cell_length_a   4.58580255
_cell_length_b   7.34184074
_cell_length_c   7.92836964
_cell_angle_alpha   90.00000000
_cell_angle_beta   90.00000000
_cell_angle_gamma   90.00000000
_symmetry_Int_Tables_number   1
_chemical_formula_structural   Ag2Se
_chemical_formula_sum   'Ag8 Se4'
_cell_volume   266.93418832
_cell_formula_units_Z   4
loop_
 _symmetry_equiv_pos_site_id
 _symmetry_equiv_pos_as_xyz
  1  'x, y, z'
loop_
 _atom_site_type_symbol
 _atom_site_label
 _atom_site_symmetry_multiplicity
 _atom_site_fract_x
 _atom_site_fract_y
 _atom_site_fract_z
 _atom_site_occupancy
  Ag  Ag0  1  0.005505  0.102509  0.242430  1
  Ag  Ag1  1  0.994495  0.102509  0.757570  1
  Ag  Ag2  1  0.500000  0.607455  0.000000  1
  Ag  Ag3  1  0.494495  0.897491  0.242430  1
  Ag  Ag4  1  0.000000  0.392545  0.000000  1
  Ag  Ag5  1  0.000000  0.385320  0.500000  1
  Ag  Ag6  1  0.505505  0.897491  0.757570  1
  Ag  Ag7  1  0.500000  0.614680  0.500000  1
  Se  Se8  1  0.520221  0.294073  0.251499  1
  Se  Se9  1  0.479779  0.294073  0.748501  1
  Se  Se10  1  0.020221  0.705927  0.748501  1
  Se  Se11  1  0.979779  0.705927  0.251499  1
