# generated using pymatgen
data_Sm3CuSe6
_symmetry_space_group_name_H-M   'P 1'
_cell_length_a   7.23385718
_cell_length_b   7.95462507
_cell_length_c   17.03508087
_cell_angle_alpha   90.00000000
_cell_angle_beta   90.00000000
_cell_angle_gamma   90.58666656
_symmetry_Int_Tables_number   1
_chemical_formula_structural   Sm3CuSe6
_chemical_formula_sum   'Sm12 Cu4 Se24'
_cell_volume   980.19182914
_cell_formula_units_Z   4
loop_
 _symmetry_equiv_pos_site_id
 _symmetry_equiv_pos_as_xyz
  1  'x, y, z'
loop_
 _atom_site_type_symbol
 _atom_site_label
 _atom_site_symmetry_multiplicity
 _atom_site_fract_x
 _atom_site_fract_y
 _atom_site_fract_z
 _atom_site_occupancy
  Sm  Sm0  1  0.238650  0.442881  0.750000  1
  Sm  Sm1  1  0.744432  0.559011  0.587393  1
  Sm  Sm2  1  0.728086  0.942348  0.409556  1
  Sm  Sm3  1  0.728086  0.942348  0.090444  1
  Sm  Sm4  1  0.271914  0.057652  0.909556  1
  Sm  Sm5  1  0.763534  0.945258  0.750000  1
  Sm  Sm6  1  0.255568  0.440989  0.412607  1
  Sm  Sm7  1  0.255568  0.440989  0.087393  1
  Sm  Sm8  1  0.271914  0.057652  0.590444  1
  Sm  Sm9  1  0.761350  0.557119  0.250000  1
  Sm  Sm10  1  0.236466  0.054742  0.250000  1
  Sm  Sm11  1  0.744432  0.559011  0.912607  1
  Cu  Cu12  1  0.103417  0.795551  0.471277  1
  Cu  Cu13  1  0.896583  0.204450  0.971277  1
  Cu  Cu14  1  0.896583  0.204450  0.528723  1
  Cu  Cu15  1  0.103417  0.795551  0.028723  1
  Se  Se16  1  0.891204  0.910035  0.581242  1
  Se  Se17  1  0.108796  0.089965  0.081242  1
  Se  Se18  1  0.114995  0.397133  0.250000  1
  Se  Se19  1  0.568765  0.250225  0.173994  1
  Se  Se20  1  0.108796  0.089965  0.418758  1
  Se  Se21  1  0.578618  0.255302  0.825230  1
  Se  Se22  1  0.426792  0.747199  0.999828  1
  Se  Se23  1  0.431235  0.749775  0.673994  1
  Se  Se24  1  0.431235  0.749775  0.826006  1
  Se  Se25  1  0.125996  0.096390  0.750000  1
  Se  Se26  1  0.883851  0.597480  0.418616  1
  Se  Se27  1  0.573208  0.252801  0.499828  1
  Se  Se28  1  0.116149  0.402520  0.918616  1
  Se  Se29  1  0.421382  0.744698  0.174770  1
  Se  Se30  1  0.885005  0.602867  0.750000  1
  Se  Se31  1  0.426792  0.747199  0.500172  1
  Se  Se32  1  0.578618  0.255302  0.674770  1
  Se  Se33  1  0.116149  0.402520  0.581384  1
  Se  Se34  1  0.568765  0.250225  0.326006  1
  Se  Se35  1  0.421382  0.744698  0.325230  1
  Se  Se36  1  0.573208  0.252801  0.000172  1
  Se  Se37  1  0.883851  0.597480  0.081384  1
  Se  Se38  1  0.874004  0.903610  0.250000  1
  Se  Se39  1  0.891204  0.910035  0.918758  1
