# generated using pymatgen
data_Ti(PO3)3
_symmetry_space_group_name_H-M   'P 1'
_cell_length_a   9.71099540
_cell_length_b   10.89599605
_cell_length_c   11.90711447
_cell_angle_alpha   113.54861659
_cell_angle_beta   110.04070518
_cell_angle_gamma   98.17912017
_symmetry_Int_Tables_number   1
_chemical_formula_structural   Ti(PO3)3
_chemical_formula_sum   'Ti6 P18 O54'
_cell_volume   1026.45112162
_cell_formula_units_Z   6
loop_
 _symmetry_equiv_pos_site_id
 _symmetry_equiv_pos_as_xyz
  1  'x, y, z'
loop_
 _atom_site_type_symbol
 _atom_site_label
 _atom_site_symmetry_multiplicity
 _atom_site_fract_x
 _atom_site_fract_y
 _atom_site_fract_z
 _atom_site_occupancy
  Ti  Ti0  1  0.575212  0.749580  0.659128  1
  Ti  Ti1  1  0.916084  0.590452  0.340872  1
  Ti  Ti2  1  0.582791  0.255950  0.676248  1
  Ti  Ti3  1  0.906543  0.079702  0.323752  1
  Ti  Ti4  1  0.224813  0.934093  0.989856  1
  Ti  Ti5  1  0.234957  0.444236  0.010144  1
  P  P6  1  0.215457  0.050015  0.556198  1
  P  P7  1  0.659259  0.993817  0.443802  1
  P  P8  1  0.278442  0.776860  0.436342  1
  P  P9  1  0.842100  0.840517  0.563658  1
  P  P10  1  0.482377  0.385145  0.456150  1
  P  P11  1  0.026226  0.428994  0.543850  1
  P  P12  1  0.866369  0.736424  0.894494  1
  P  P13  1  0.971875  0.341930  0.105506  1
  P  P14  1  0.313424  0.674664  0.772650  1
  P  P15  1  0.540774  0.402013  0.227350  1
  P  P16  1  0.335359  0.801670  0.213200  1
  P  P17  1  0.122159  0.088470  0.786800  1
  P  P18  1  0.936933  0.462807  0.772410  1
  P  P19  1  0.164523  0.190397  0.227590  1
  P  P20  1  0.493391  0.517828  0.896058  1
  P  P21  1  0.597333  0.121770  0.103942  1
  P  P22  1  0.685219  0.104766  0.876110  1
  P  P23  1  0.809109  0.728655  0.123890  1
  O  O24  1  0.492487  0.537129  0.529941  1
  O  O25  1  0.962546  0.507188  0.470059  1
  O  O26  1  0.439754  0.772277  0.497416  1
  O  O27  1  0.942338  0.774861  0.502584  1
  O  O28  1  0.763977  0.762818  0.616151  1
  O  O29  1  0.147826  0.646667  0.383849  1
  O  O30  1  0.702786  0.734068  0.827904  1
  O  O31  1  0.874881  0.406163  0.172096  1
  O  O32  1  0.393655  0.739125  0.712033  1
  O  O33  1  0.681622  0.527092  0.287967  1
  O  O34  1  0.672469  0.963065  0.771997  1
  O  O35  1  0.900472  0.691069  0.228003  1
  O  O36  1  0.354067  0.154317  0.577487  1
  O  O37  1  0.776580  0.076831  0.422513  1
  O  O38  1  0.567404  0.320962  0.536146  1
  O  O39  1  0.031259  0.284817  0.463854  1
  O  O40  1  0.619055  0.073070  0.556653  1
  O  O41  1  0.062403  0.016417  0.443347  1
  O  O42  1  0.538107  0.437754  0.786328  1
  O  O43  1  0.751779  0.151426  0.213672  1
  O  O44  1  0.617790  0.200440  0.827749  1
  O  O45  1  0.790042  0.872691  0.172251  1
  O  O46  1  0.812439  0.355563  0.764018  1
  O  O47  1  0.048421  0.091546  0.235982  1
  O  O48  1  0.190676  0.004108  0.850854  1
  O  O49  1  0.339823  0.653254  0.149146  1
  O  O50  1  0.225858  0.753636  0.840843  1
  O  O51  1  0.385015  0.412793  0.159157  1
  O  O52  1  0.226814  0.125056  0.127217  1
  O  O53  1  0.099597  0.497840  0.872783  1
  O  O54  1  0.248659  0.854997  0.122159  1
  O  O55  1  0.126500  0.232838  0.877841  1
  O  O56  1  0.993297  0.864979  0.937602  1
  O  O57  1  0.055695  0.427377  0.062398  1
  O  O58  1  0.460610  0.012221  0.077770  1
  O  O59  1  0.382840  0.434451  0.922230  1
  O  O60  1  0.257271  0.909593  0.544477  1
  O  O61  1  0.712795  0.865116  0.455523  1
  O  O62  1  0.263035  0.822009  0.319712  1
  O  O63  1  0.943323  0.002297  0.680288  1
  O  O64  1  0.207975  0.107826  0.699294  1
  O  O65  1  0.508681  0.908533  0.300706  1
  O  O66  1  0.543107  0.359025  0.342341  1
  O  O67  1  0.200766  0.516683  0.657659  1
  O  O68  1  0.889770  0.601711  0.792712  1
  O  O69  1  0.097058  0.309000  0.207288  1
  O  O70  1  0.435601  0.642576  0.878211  1
  O  O71  1  0.557390  0.264366  0.121789  1
  O  O72  1  0.604628  0.071276  0.961057  1
  O  O73  1  0.643571  0.610219  0.038943  1
  O  O74  1  0.886099  0.704540  0.019608  1
  O  O75  1  0.866490  0.184931  0.980392  1
  O  O76  1  0.303803  0.289337  0.376637  1
  O  O77  1  0.927166  0.412700  0.623363  1
