# generated using pymatgen
data_Na2Hg3S4
_symmetry_space_group_name_H-M   'P 1'
_cell_length_a   7.55227082
_cell_length_b   8.43400718
_cell_length_c   14.26317912
_cell_angle_alpha   90.00000000
_cell_angle_beta   90.00000000
_cell_angle_gamma   90.00000000
_symmetry_Int_Tables_number   1
_chemical_formula_structural   Na2Hg3S4
_chemical_formula_sum   'Na8 Hg12 S16'
_cell_volume   908.50612107
_cell_formula_units_Z   4
loop_
 _symmetry_equiv_pos_site_id
 _symmetry_equiv_pos_as_xyz
  1  'x, y, z'
loop_
 _atom_site_type_symbol
 _atom_site_label
 _atom_site_symmetry_multiplicity
 _atom_site_fract_x
 _atom_site_fract_y
 _atom_site_fract_z
 _atom_site_occupancy
  Na  Na0  1  0.565381  0.382100  0.607049  1
  Na  Na1  1  0.065381  0.117900  0.607049  1
  Na  Na2  1  0.434619  0.617900  0.392951  1
  Na  Na3  1  0.434619  0.117900  0.107049  1
  Na  Na4  1  0.565381  0.882100  0.892951  1
  Na  Na5  1  0.065381  0.617900  0.892951  1
  Na  Na6  1  0.934619  0.882100  0.392951  1
  Na  Na7  1  0.934619  0.382100  0.107049  1
  Hg  Hg8  1  0.769857  0.221898  0.806118  1
  Hg  Hg9  1  0.769857  0.721898  0.693882  1
  Hg  Hg10  1  0.269856  0.278102  0.806118  1
  Hg  Hg11  1  0.269856  0.778102  0.693882  1
  Hg  Hg12  1  0.500000  0.500000  0.000000  1
  Hg  Hg13  1  0.730143  0.221898  0.306118  1
  Hg  Hg14  1  0.230144  0.778102  0.193882  1
  Hg  Hg15  1  0.500000  0.000000  0.500000  1
  Hg  Hg16  1  0.230144  0.278102  0.306118  1
  Hg  Hg17  1  0.730143  0.721898  0.193882  1
  Hg  Hg18  1  0.000000  0.500000  0.500000  1
  Hg  Hg19  1  0.000000  0.000000  0.000000  1
  S  S20  1  0.739193  0.654689  0.517784  1
  S  S21  1  0.010098  0.105240  0.231013  1
  S  S22  1  0.489902  0.105240  0.731013  1
  S  S23  1  0.989902  0.894760  0.768987  1
  S  S24  1  0.260807  0.845311  0.017785  1
  S  S25  1  0.510098  0.894760  0.268987  1
  S  S26  1  0.760807  0.654689  0.017785  1
  S  S27  1  0.489902  0.605240  0.768987  1
  S  S28  1  0.989902  0.394760  0.731013  1
  S  S29  1  0.010098  0.605240  0.268987  1
  S  S30  1  0.239193  0.345311  0.982216  1
  S  S31  1  0.260807  0.345311  0.482216  1
  S  S32  1  0.760807  0.154689  0.482216  1
  S  S33  1  0.510098  0.394760  0.231013  1
  S  S34  1  0.739193  0.154689  0.982216  1
  S  S35  1  0.239193  0.845311  0.517784  1
