# generated using pymatgen
data_KAuN12
_symmetry_space_group_name_H-M   'P 1'
_cell_length_a   7.61204413
_cell_length_b   7.61204415
_cell_length_c   8.03130649
_cell_angle_alpha   91.30475585
_cell_angle_beta   91.30475584
_cell_angle_gamma   89.54160861
_symmetry_Int_Tables_number   1
_chemical_formula_structural   KAuN12
_chemical_formula_sum   'K2 Au2 N24'
_cell_volume   465.10541161
_cell_formula_units_Z   2
loop_
 _symmetry_equiv_pos_site_id
 _symmetry_equiv_pos_as_xyz
  1  'x, y, z'
loop_
 _atom_site_type_symbol
 _atom_site_label
 _atom_site_symmetry_multiplicity
 _atom_site_fract_x
 _atom_site_fract_y
 _atom_site_fract_z
 _atom_site_occupancy
  K  K0  1  0.086211  0.913789  0.250000  1
  K  K1  1  0.913789  0.086211  0.750000  1
  Au  Au2  1  0.493744  0.506256  0.250000  1
  Au  Au3  1  0.506256  0.493744  0.750000  1
  N  N4  1  0.485158  0.243988  0.180875  1
  N  N5  1  0.756012  0.514842  0.319125  1
  N  N6  1  0.092435  0.284591  0.043180  1
  N  N7  1  0.615240  0.169937  0.128180  1
  N  N8  1  0.907565  0.715409  0.956820  1
  N  N9  1  0.243988  0.485158  0.680875  1
  N  N10  1  0.715409  0.907565  0.456819  1
  N  N11  1  0.598019  0.836501  0.390722  1
  N  N12  1  0.229227  0.529991  0.178394  1
  N  N13  1  0.401981  0.163499  0.609278  1
  N  N14  1  0.770773  0.470009  0.821606  1
  N  N15  1  0.529991  0.229227  0.678394  1
  N  N16  1  0.730275  0.085030  0.076871  1
  N  N17  1  0.169937  0.615240  0.628180  1
  N  N18  1  0.085030  0.730275  0.576871  1
  N  N19  1  0.163499  0.401981  0.109278  1
  N  N20  1  0.514842  0.756012  0.819125  1
  N  N21  1  0.284591  0.092435  0.543180  1
  N  N22  1  0.470009  0.770773  0.321606  1
  N  N23  1  0.269725  0.914970  0.923129  1
  N  N24  1  0.830063  0.384760  0.371820  1
  N  N25  1  0.384760  0.830063  0.871820  1
  N  N26  1  0.914970  0.269725  0.423129  1
  N  N27  1  0.836501  0.598019  0.890722  1
