# generated using pymatgen
data_Nd5Si3
_symmetry_space_group_name_H-M   'P 1'
_cell_length_a   7.82317967
_cell_length_b   7.82317098
_cell_length_c   8.89050055
_cell_angle_alpha   116.11593969
_cell_angle_beta   116.11708706
_cell_angle_gamma   89.96963428
_symmetry_Int_Tables_number   1
_chemical_formula_structural   Nd5Si3
_chemical_formula_sum   'Nd10 Si6'
_cell_volume   425.89338779
_cell_formula_units_Z   2
loop_
 _symmetry_equiv_pos_site_id
 _symmetry_equiv_pos_as_xyz
  1  'x, y, z'
loop_
 _atom_site_type_symbol
 _atom_site_label
 _atom_site_symmetry_multiplicity
 _atom_site_fract_x
 _atom_site_fract_y
 _atom_site_fract_z
 _atom_site_occupancy
  Nd  Nd0  1  0.676371  0.176365  0.708349  1
  Nd  Nd1  1  0.176387  0.032139  0.708451  1
  Nd  Nd2  1  0.031927  0.531937  0.708476  1
  Nd  Nd3  1  0.467860  0.323604  0.291549  1
  Nd  Nd4  1  0.323629  0.823635  0.291651  1
  Nd  Nd5  1  0.532140  0.676396  0.708451  1
  Nd  Nd6  1  0.823613  0.967861  0.291549  1
  Nd  Nd7  1  0.000000  0.000000  -0.000000  1
  Nd  Nd8  1  0.968073  0.468063  0.291524  1
  Nd  Nd9  1  0.500000  0.500000  -0.000000  1
  Si  Si10  1  0.115087  0.384906  0.999999  1
  Si  Si11  1  0.615072  0.115065  0.000034  1
  Si  Si12  1  0.384928  0.884935  0.999966  1
  Si  Si13  1  0.884913  0.615094  0.000001  1
  Si  Si14  1  0.249968  0.250027  0.499995  1
  Si  Si15  1  0.750032  0.749973  0.500005  1
