# generated using pymatgen
data_Ca3(Cu2Sn)4
_symmetry_space_group_name_H-M   'P 1'
_cell_length_a   9.14353325
_cell_length_b   9.14353341
_cell_length_c   7.75314245
_cell_angle_alpha   90.00000000
_cell_angle_beta   90.00000000
_cell_angle_gamma   119.99999939
_symmetry_Int_Tables_number   1
_chemical_formula_structural   Ca3(Cu2Sn)4
_chemical_formula_sum   'Ca6 Cu16 Sn8'
_cell_volume   561.35358728
_cell_formula_units_Z   2
loop_
 _symmetry_equiv_pos_site_id
 _symmetry_equiv_pos_as_xyz
  1  'x, y, z'
loop_
 _atom_site_type_symbol
 _atom_site_label
 _atom_site_symmetry_multiplicity
 _atom_site_fract_x
 _atom_site_fract_y
 _atom_site_fract_z
 _atom_site_occupancy
  Ca  Ca0  1  0.475721  0.524279  0.498860  1
  Ca  Ca1  1  0.951442  0.475721  0.998860  1
  Ca  Ca2  1  0.524279  0.048558  0.998860  1
  Ca  Ca3  1  0.048558  0.524279  0.498860  1
  Ca  Ca4  1  0.475721  0.951442  0.498860  1
  Ca  Ca5  1  0.524279  0.475721  0.998860  1
  Cu  Cu6  1  0.794238  0.897119  0.470436  1
  Cu  Cu7  1  0.000000  0.000000  0.718576  1
  Cu  Cu8  1  0.672888  0.836444  0.160411  1
  Cu  Cu9  1  0.897119  0.794238  0.970436  1
  Cu  Cu10  1  0.836444  0.163556  0.660411  1
  Cu  Cu11  1  0.163556  0.836444  0.160411  1
  Cu  Cu12  1  0.205762  0.102881  0.970436  1
  Cu  Cu13  1  0.163556  0.327112  0.160411  1
  Cu  Cu14  1  0.000000  0.000000  0.218576  1
  Cu  Cu15  1  0.333333  0.666667  0.838682  1
  Cu  Cu16  1  0.836444  0.672888  0.660411  1
  Cu  Cu17  1  0.897119  0.102881  0.970436  1
  Cu  Cu18  1  0.102881  0.205762  0.470436  1
  Cu  Cu19  1  0.102881  0.897119  0.470436  1
  Cu  Cu20  1  0.327112  0.163556  0.660411  1
  Cu  Cu21  1  0.666667  0.333333  0.338682  1
  Sn  Sn22  1  0.333333  0.666667  0.196262  1
  Sn  Sn23  1  0.168998  0.337996  0.788420  1
  Sn  Sn24  1  0.662004  0.831002  0.788420  1
  Sn  Sn25  1  0.337996  0.168998  0.288420  1
  Sn  Sn26  1  0.831002  0.662004  0.288420  1
  Sn  Sn27  1  0.666667  0.333333  0.696262  1
  Sn  Sn28  1  0.168998  0.831002  0.788420  1
  Sn  Sn29  1  0.831002  0.168998  0.288420  1
