# generated using pymatgen
data_CsAsOF4
_symmetry_space_group_name_H-M   'P 1'
_cell_length_a   5.32989756
_cell_length_b   6.67879236
_cell_length_c   14.30704266
_cell_angle_alpha   90.00000000
_cell_angle_beta   95.98086741
_cell_angle_gamma   90.00000000
_symmetry_Int_Tables_number   1
_chemical_formula_structural   CsAsOF4
_chemical_formula_sum   'Cs4 As4 O4 F16'
_cell_volume   506.51958531
_cell_formula_units_Z   4
loop_
 _symmetry_equiv_pos_site_id
 _symmetry_equiv_pos_as_xyz
  1  'x, y, z'
loop_
 _atom_site_type_symbol
 _atom_site_label
 _atom_site_symmetry_multiplicity
 _atom_site_fract_x
 _atom_site_fract_y
 _atom_site_fract_z
 _atom_site_occupancy
  Cs  Cs0  1  0.593577  0.877035  0.654135  1
  Cs  Cs1  1  0.593577  0.622965  0.154135  1
  Cs  Cs2  1  0.406423  0.377035  0.845865  1
  Cs  Cs3  1  0.406423  0.122965  0.345865  1
  As  As4  1  0.027476  0.892717  0.920937  1
  As  As5  1  0.972524  0.392717  0.579063  1
  As  As6  1  0.972524  0.107283  0.079063  1
  As  As7  1  0.027476  0.607283  0.420937  1
  O  O8  1  0.798809  0.914686  0.007283  1
  O  O9  1  0.201191  0.414686  0.492717  1
  O  O10  1  0.798809  0.585314  0.507283  1
  O  O11  1  0.201191  0.085314  0.992717  1
  F  F12  1  0.806758  0.313764  0.018771  1
  F  F13  1  0.155832  0.293167  0.146469  1
  F  F14  1  0.844168  0.706833  0.853531  1
  F  F15  1  0.867760  0.423186  0.342151  1
  F  F16  1  0.132240  0.923186  0.157849  1
  F  F17  1  0.263229  0.885245  0.839797  1
  F  F18  1  0.263229  0.614755  0.339797  1
  F  F19  1  0.844168  0.793167  0.353531  1
  F  F20  1  0.193242  0.813764  0.481229  1
  F  F21  1  0.193242  0.686236  0.981229  1
  F  F22  1  0.736771  0.114755  0.160203  1
  F  F23  1  0.132240  0.576814  0.657849  1
  F  F24  1  0.867760  0.076814  0.842151  1
  F  F25  1  0.806758  0.186236  0.518771  1
  F  F26  1  0.736771  0.385245  0.660203  1
  F  F27  1  0.155832  0.206833  0.646469  1
