# generated using pymatgen
data_RbC8
_symmetry_space_group_name_H-M   'P 1'
_cell_length_a   4.97534861
_cell_length_b   4.97533455
_cell_length_c   11.75262698
_cell_angle_alpha   96.02477986
_cell_angle_beta   96.02958922
_cell_angle_gamma   120.02732017
_symmetry_Int_Tables_number   1
_chemical_formula_structural   RbC8
_chemical_formula_sum   'Rb2 C16'
_cell_volume   246.25760655
_cell_formula_units_Z   2
loop_
 _symmetry_equiv_pos_site_id
 _symmetry_equiv_pos_as_xyz
  1  'x, y, z'
loop_
 _atom_site_type_symbol
 _atom_site_label
 _atom_site_symmetry_multiplicity
 _atom_site_fract_x
 _atom_site_fract_y
 _atom_site_fract_z
 _atom_site_occupancy
  Rb  Rb0  1  0.875025  0.125043  0.250063  1
  Rb  Rb1  1  0.124975  0.874957  0.749937  1
  C  C2  1  0.833330  0.416481  0.500029  1
  C  C3  1  0.583525  0.166653  0.999965  1
  C  C4  1  0.166690  0.083544  0.500021  1
  C  C5  1  0.833310  0.916456  0.499979  1
  C  C6  1  0.665726  0.582482  0.497920  1
  C  C7  1  0.084566  0.667786  0.002079  1
  C  C8  1  0.416475  0.833347  0.000035  1
  C  C9  1  0.334274  0.417518  0.502080  1
  C  C10  1  0.667794  0.084561  0.502084  1
  C  C11  1  0.915434  0.332214  0.997921  1
  C  C12  1  0.083529  0.166657  0.000020  1
  C  C13  1  0.166670  0.583519  0.499971  1
  C  C14  1  0.916471  0.833343  0.999980  1
  C  C15  1  0.332206  0.915439  0.497916  1
  C  C16  1  0.582480  0.665698  0.997928  1
  C  C17  1  0.417520  0.334302  0.002072  1
