# generated using pymatgen
data_MnP3H12NO7
_symmetry_space_group_name_H-M   'P 1'
_cell_length_a   7.56123179
_cell_length_b   9.41478569
_cell_length_c   15.46833723
_cell_angle_alpha   90.00000000
_cell_angle_beta   90.00000000
_cell_angle_gamma   108.35619965
_symmetry_Int_Tables_number   1
_chemical_formula_structural   MnP3H12NO7
_chemical_formula_sum   'Mn4 P12 H48 N4 O28'
_cell_volume   1045.12055793
_cell_formula_units_Z   4
loop_
 _symmetry_equiv_pos_site_id
 _symmetry_equiv_pos_as_xyz
  1  'x, y, z'
loop_
 _atom_site_type_symbol
 _atom_site_label
 _atom_site_symmetry_multiplicity
 _atom_site_fract_x
 _atom_site_fract_y
 _atom_site_fract_z
 _atom_site_occupancy
  Mn  Mn0  1  0.600279  0.592825  0.671612  1
  Mn  Mn1  1  0.100279  0.092825  0.828388  1
  Mn  Mn2  1  0.899721  0.907175  0.171612  1
  Mn  Mn3  1  0.399721  0.407175  0.328388  1
  P  P4  1  0.850353  0.954334  0.650869  1
  P  P5  1  0.149647  0.045666  0.349131  1
  P  P6  1  0.933846  0.688511  0.829468  1
  P  P7  1  0.566154  0.811489  0.329468  1
  P  P8  1  0.298481  0.729560  0.570019  1
  P  P9  1  0.066154  0.311489  0.170532  1
  P  P10  1  0.649647  0.545666  0.150869  1
  P  P11  1  0.350353  0.454334  0.849131  1
  P  P12  1  0.701519  0.270440  0.429981  1
  P  P13  1  0.201519  0.770440  0.070019  1
  P  P14  1  0.433846  0.188511  0.670532  1
  P  P15  1  0.798481  0.229560  0.929981  1
  H  H16  1  0.791964  0.955983  0.000432  1
  H  H17  1  0.893539  0.654138  0.540587  1
  H  H18  1  0.178517  0.987187  0.430757  1
  H  H19  1  0.625100  0.946678  0.854706  1
  H  H20  1  0.678517  0.487187  0.069243  1
  H  H21  1  0.451506  0.888318  0.367882  1
  H  H22  1  0.291964  0.455983  0.499568  1
  H  H23  1  0.548494  0.111682  0.632118  1
  H  H24  1  0.283614  0.163962  0.611106  1
  H  H25  1  0.578794  0.137592  0.095258  1
  H  H26  1  0.927459  0.456126  0.691505  1
  H  H27  1  0.044071  0.665907  0.030838  1
  H  H28  1  0.511658  0.614837  0.133672  1
  H  H29  1  0.277077  0.799955  0.648699  1
  H  H30  1  0.106461  0.345862  0.459413  1
  H  H31  1  0.393539  0.154138  0.959413  1
  H  H32  1  0.078794  0.637592  0.404742  1
  H  H33  1  0.821483  0.012813  0.569243  1
  H  H34  1  0.427459  0.956126  0.808495  1
  H  H35  1  0.027152  0.711811  0.312555  1
  H  H36  1  0.374900  0.053322  0.145294  1
  H  H37  1  0.488342  0.385163  0.866328  1
  H  H38  1  0.421206  0.862408  0.904742  1
  H  H39  1  0.955929  0.334093  0.969162  1
  H  H40  1  0.988342  0.885163  0.633672  1
  H  H41  1  0.125100  0.446678  0.645294  1
  H  H42  1  0.208036  0.044017  0.999568  1
  H  H43  1  0.783614  0.663962  0.888894  1
  H  H44  1  0.722923  0.200045  0.351301  1
  H  H45  1  0.708036  0.544017  0.500432  1
  H  H46  1  0.472848  0.788189  0.812555  1
  H  H47  1  0.222923  0.700045  0.148699  1
  H  H48  1  0.572541  0.043874  0.191505  1
  H  H49  1  0.972848  0.288189  0.687445  1
  H  H50  1  0.921206  0.362408  0.595258  1
  H  H51  1  0.048494  0.611682  0.867882  1
  H  H52  1  0.455929  0.834093  0.530838  1
  H  H53  1  0.321483  0.512813  0.930757  1
  H  H54  1  0.951506  0.388318  0.132118  1
  H  H55  1  0.777077  0.299955  0.851301  1
  H  H56  1  0.716386  0.836038  0.388894  1
  H  H57  1  0.606461  0.845862  0.040587  1
  H  H58  1  0.527152  0.211811  0.187445  1
  H  H59  1  0.216386  0.336038  0.111106  1
  H  H60  1  0.072541  0.543874  0.308495  1
  H  H61  1  0.011658  0.114837  0.366328  1
  H  H62  1  0.544071  0.165907  0.469162  1
  H  H63  1  0.874900  0.553322  0.354706  1
  N  N64  1  0.485565  0.888341  0.844439  1
  N  N65  1  0.014435  0.611659  0.344439  1
  N  N66  1  0.985565  0.388341  0.655561  1
  N  N67  1  0.514435  0.111659  0.155561  1
  O  O68  1  0.244766  0.380935  0.453321  1
  O  O69  1  0.755234  0.619065  0.546679  1
  O  O70  1  0.872238  0.289784  0.486284  1
  O  O71  1  0.127762  0.710216  0.513716  1
  O  O72  1  0.372238  0.789784  0.013716  1
  O  O73  1  0.859366  0.607828  0.744914  1
  O  O74  1  0.066613  0.912174  0.288923  1
  O  O75  1  0.652936  0.413548  0.408648  1
  O  O76  1  0.255234  0.119065  0.953321  1
  O  O77  1  0.566613  0.412174  0.211077  1
  O  O78  1  0.458079  0.646123  0.327536  1
  O  O79  1  0.347064  0.586452  0.591352  1
  O  O80  1  0.152936  0.913548  0.091352  1
  O  O81  1  0.829111  0.663425  0.179231  1
  O  O82  1  0.329111  0.163425  0.320769  1
  O  O83  1  0.744766  0.880935  0.046679  1
  O  O84  1  0.627762  0.210216  0.986284  1
  O  O85  1  0.670889  0.836575  0.679231  1
  O  O86  1  0.433387  0.587826  0.788923  1
  O  O87  1  0.359366  0.107828  0.755086  1
  O  O88  1  0.170889  0.336575  0.820769  1
  O  O89  1  0.958079  0.146123  0.172464  1
  O  O90  1  0.041921  0.853877  0.827536  1
  O  O91  1  0.640634  0.892172  0.244914  1
  O  O92  1  0.541921  0.353877  0.672464  1
  O  O93  1  0.933387  0.087826  0.711077  1
  O  O94  1  0.140634  0.392172  0.255086  1
  O  O95  1  0.847064  0.086452  0.908648  1
