# generated using pymatgen
data_La5C2I9
_symmetry_space_group_name_H-M   'P 1'
_cell_length_a   8.10768449
_cell_length_b   17.33485501
_cell_length_c   36.82546167
_cell_angle_alpha   90.00000000
_cell_angle_beta   90.00000000
_cell_angle_gamma   90.00000000
_symmetry_Int_Tables_number   1
_chemical_formula_structural   La5C2I9
_chemical_formula_sum   'La40 C16 I72'
_cell_volume   5175.65421575
_cell_formula_units_Z   8
loop_
 _symmetry_equiv_pos_site_id
 _symmetry_equiv_pos_as_xyz
  1  'x, y, z'
loop_
 _atom_site_type_symbol
 _atom_site_label
 _atom_site_symmetry_multiplicity
 _atom_site_fract_x
 _atom_site_fract_y
 _atom_site_fract_z
 _atom_site_occupancy
  La  La0  1  0.984284  0.803514  0.604314  1
  La  La1  1  0.874342  0.568009  0.361824  1
  La  La2  1  0.515716  0.196486  0.104314  1
  La  La3  1  0.984284  0.696486  0.104314  1
  La  La4  1  0.874342  0.931991  0.861824  1
  La  La5  1  0.125658  0.068009  0.138176  1
  La  La6  1  0.595022  0.672215  0.291735  1
  La  La7  1  0.895901  0.805716  0.349026  1
  La  La8  1  0.104099  0.194284  0.650974  1
  La  La9  1  0.897833  0.800856  0.944457  1
  La  La10  1  0.104099  0.305716  0.150974  1
  La  La11  1  0.125658  0.431991  0.638176  1
  La  La12  1  0.102167  0.199144  0.055543  1
  La  La13  1  0.602167  0.199144  0.444457  1
  La  La14  1  0.595022  0.827785  0.791735  1
  La  La15  1  0.374342  0.568009  0.138176  1
  La  La16  1  0.397833  0.800856  0.555543  1
  La  La17  1  0.404978  0.327785  0.708265  1
  La  La18  1  0.395901  0.805716  0.150974  1
  La  La19  1  0.904978  0.327785  0.791735  1
  La  La20  1  0.625658  0.431991  0.861824  1
  La  La21  1  0.895901  0.694284  0.849026  1
  La  La22  1  0.395901  0.694284  0.650974  1
  La  La23  1  0.602167  0.300856  0.944457  1
  La  La24  1  0.015716  0.196486  0.395686  1
  La  La25  1  0.484284  0.803514  0.895686  1
  La  La26  1  0.897833  0.699144  0.444457  1
  La  La27  1  0.015716  0.303514  0.895686  1
  La  La28  1  0.095022  0.827785  0.708265  1
  La  La29  1  0.625658  0.068009  0.361824  1
  La  La30  1  0.404978  0.172215  0.208265  1
  La  La31  1  0.397833  0.699144  0.055543  1
  La  La32  1  0.374342  0.931991  0.638176  1
  La  La33  1  0.102167  0.300856  0.555543  1
  La  La34  1  0.095022  0.672215  0.208265  1
  La  La35  1  0.604099  0.194284  0.849026  1
  La  La36  1  0.904978  0.172215  0.291735  1
  La  La37  1  0.515716  0.303514  0.604314  1
  La  La38  1  0.604099  0.305716  0.349026  1
  La  La39  1  0.484284  0.696486  0.395686  1
  C  C40  1  0.788778  0.801641  0.885415  1
  C  C41  1  0.214608  0.688238  0.150637  1
  C  C42  1  0.288778  0.801641  0.614585  1
  C  C43  1  0.288778  0.698359  0.114585  1
  C  C44  1  0.211222  0.301641  0.614585  1
  C  C45  1  0.211222  0.198359  0.114585  1
  C  C46  1  0.285392  0.188238  0.150637  1
  C  C47  1  0.214608  0.811762  0.650637  1
  C  C48  1  0.785392  0.311762  0.849363  1
  C  C49  1  0.714608  0.811762  0.849363  1
  C  C50  1  0.714608  0.688238  0.349363  1
  C  C51  1  0.788778  0.698359  0.385415  1
  C  C52  1  0.785392  0.188238  0.349363  1
  C  C53  1  0.711222  0.198359  0.385415  1
  C  C54  1  0.711222  0.301641  0.885415  1
  C  C55  1  0.285392  0.311762  0.650637  1
  I  I56  1  0.355762  0.330021  0.419146  1
  I  I57  1  0.325361  0.427744  0.925118  1
  I  I58  1  0.335491  0.047109  0.056911  1
  I  I59  1  0.144238  0.830021  0.419146  1
  I  I60  1  0.027170  0.877632  0.144916  1
  I  I61  1  0.919096  0.297121  0.469893  1
  I  I62  1  0.614291  0.446411  0.770515  1
  I  I63  1  0.080904  0.797121  0.030107  1
  I  I64  1  0.789886  0.183593  0.171917  1
  I  I65  1  0.855762  0.330021  0.080854  1
  I  I66  1  0.710114  0.683593  0.171917  1
  I  I67  1  0.580904  0.702879  0.969893  1
  I  I68  1  0.289886  0.316407  0.828083  1
  I  I69  1  0.355404  0.800649  0.238796  1
  I  I70  1  0.174639  0.927744  0.925118  1
  I  I71  1  0.664509  0.952891  0.943089  1
  I  I72  1  0.164509  0.952891  0.556911  1
  I  I73  1  0.614291  0.053589  0.270515  1
  I  I74  1  0.385709  0.946411  0.729485  1
  I  I75  1  0.114291  0.446411  0.729485  1
  I  I76  1  0.644238  0.669979  0.580854  1
  I  I77  1  0.335491  0.452891  0.556911  1
  I  I78  1  0.885709  0.946411  0.770515  1
  I  I79  1  0.825361  0.072256  0.074882  1
  I  I80  1  0.210114  0.816407  0.828083  1
  I  I81  1  0.527170  0.622368  0.855084  1
  I  I82  1  0.355762  0.169979  0.919146  1
  I  I83  1  0.490176  -0.002158  0.161661  1
  I  I84  1  0.644596  0.300649  0.261204  1
  I  I85  1  0.210114  0.683593  0.328083  1
  I  I86  1  0.835491  0.047109  0.443089  1
  I  I87  1  0.289886  0.183593  0.328083  1
  I  I88  1  0.644596  0.199351  0.761204  1
  I  I89  1  0.855762  0.169979  0.580854  1
  I  I90  1  0.144238  0.669979  0.919146  1
  I  I91  1  0.174639  0.572256  0.425118  1
  I  I92  1  0.919096  0.202879  0.969893  1
  I  I93  1  0.835491  0.452891  0.943089  1
  I  I94  1  0.355404  0.699351  0.738796  1
  I  I95  1  0.419096  0.297121  0.030107  1
  I  I96  1  0.490176  0.502158  0.661661  1
  I  I97  1  0.027170  0.622368  0.644916  1
  I  I98  1  0.164509  0.547109  0.056911  1
  I  I99  1  0.990176  -0.002158  0.338339  1
  I  I100  1  0.472830  0.377632  0.144916  1
  I  I101  1  0.009824  1.002158  0.661661  1
  I  I102  1  0.825361  0.427744  0.574882  1
  I  I103  1  0.855404  0.699351  0.761204  1
  I  I104  1  0.509824  0.497842  0.338339  1
  I  I105  1  0.710114  0.816407  0.671917  1
  I  I106  1  0.527170  0.877632  0.355084  1
  I  I107  1  0.674639  0.927744  0.574882  1
  I  I108  1  0.580904  0.797121  0.469893  1
  I  I109  1  0.419096  0.202879  0.530107  1
  I  I110  1  0.509824  1.002158  0.838339  1
  I  I111  1  0.472830  0.122368  0.644916  1
  I  I112  1  0.855404  0.800649  0.261204  1
  I  I113  1  0.325361  0.072256  0.425118  1
  I  I114  1  0.972830  0.122368  0.855084  1
  I  I115  1  0.990176  0.502158  0.838339  1
  I  I116  1  0.080904  0.702879  0.530107  1
  I  I117  1  0.972830  0.377632  0.355084  1
  I  I118  1  0.789886  0.316407  0.671917  1
  I  I119  1  0.009824  0.497842  0.161661  1
  I  I120  1  0.144596  0.199351  0.738796  1
  I  I121  1  0.385709  0.553589  0.229485  1
  I  I122  1  0.644238  0.830021  0.080854  1
  I  I123  1  0.885709  0.553589  0.270515  1
  I  I124  1  0.144596  0.300649  0.238796  1
  I  I125  1  0.114291  0.053589  0.229485  1
  I  I126  1  0.674639  0.572256  0.074882  1
  I  I127  1  0.664509  0.547109  0.443089  1
