# generated using pymatgen
data_Ba3SiI2
_symmetry_space_group_name_H-M   'P 1'
_cell_length_a   8.77070701
_cell_length_b   8.77070161
_cell_length_c   15.77754167
_cell_angle_alpha   100.88776585
_cell_angle_beta   100.88779625
_cell_angle_gamma   108.70015821
_symmetry_Int_Tables_number   1
_chemical_formula_structural   Ba3SiI2
_chemical_formula_sum   'Ba12 Si4 I8'
_cell_volume   1087.57312586
_cell_formula_units_Z   4
loop_
 _symmetry_equiv_pos_site_id
 _symmetry_equiv_pos_as_xyz
  1  'x, y, z'
loop_
 _atom_site_type_symbol
 _atom_site_label
 _atom_site_symmetry_multiplicity
 _atom_site_fract_x
 _atom_site_fract_y
 _atom_site_fract_z
 _atom_site_occupancy
  Ba  Ba0  1  0.319960  0.530336  0.567140  1
  Ba  Ba1  1  0.469664  0.680039  0.932860  1
  Ba  Ba2  1  0.252826  0.963227  0.432881  1
  Ba  Ba3  1  0.747174  0.036773  0.567119  1
  Ba  Ba4  1  0.417995  0.168017  0.749986  1
  Ba  Ba5  1  0.680040  0.469664  0.432860  1
  Ba  Ba6  1  0.963227  0.252826  0.932881  1
  Ba  Ba7  1  0.530336  0.319961  0.067140  1
  Ba  Ba8  1  0.582005  0.831983  0.250014  1
  Ba  Ba9  1  0.168017  0.417995  0.249985  1
  Ba  Ba10  1  0.036773  0.747174  0.067119  1
  Ba  Ba11  1  0.831983  0.582005  0.750015  1
  Si  Si12  1  0.459097  0.709112  0.418285  1
  Si  Si13  1  0.290888  0.540903  0.081715  1
  Si  Si14  1  0.540903  0.290888  0.581715  1
  Si  Si15  1  0.709112  0.459097  0.918285  1
  I  I16  1  0.047653  0.797510  0.595237  1
  I  I17  1  0.120899  0.370882  0.741953  1
  I  I18  1  0.629118  0.879101  0.758047  1
  I  I19  1  0.952347  0.202490  0.404763  1
  I  I20  1  0.370882  0.120899  0.241953  1
  I  I21  1  0.202490  0.952347  0.904763  1
  I  I22  1  0.797510  0.047653  0.095237  1
  I  I23  1  0.879101  0.629118  0.258047  1
