# generated using pymatgen
data_SiO2
_symmetry_space_group_name_H-M   'P 1'
_cell_length_a   10.09109211
_cell_length_b   10.09109167
_cell_length_c   10.29627857
_cell_angle_alpha   90.00000000
_cell_angle_beta   90.00000000
_cell_angle_gamma   120.00000147
_symmetry_Int_Tables_number   1
_chemical_formula_structural   SiO2
_chemical_formula_sum   'Si12 O24'
_cell_volume   908.00289083
_cell_formula_units_Z   12
loop_
 _symmetry_equiv_pos_site_id
 _symmetry_equiv_pos_as_xyz
  1  'x, y, z'
loop_
 _atom_site_type_symbol
 _atom_site_label
 _atom_site_symmetry_multiplicity
 _atom_site_fract_x
 _atom_site_fract_y
 _atom_site_fract_z
 _atom_site_occupancy
  Si  Si0  1  0.568639  0.137277  0.603545  1
  Si  Si1  1  0.431361  0.568639  0.103545  1
  Si  Si2  1  0.568639  0.431361  0.603545  1
  Si  Si3  1  0.862723  0.431361  0.603545  1
  Si  Si4  1  0.431361  0.568639  0.396455  1
  Si  Si5  1  0.137277  0.568639  0.396455  1
  Si  Si6  1  0.862723  0.431361  0.896455  1
  Si  Si7  1  0.431361  0.862723  0.396455  1
  Si  Si8  1  0.431361  0.862723  0.103545  1
  Si  Si9  1  0.568639  0.137277  0.896455  1
  Si  Si10  1  0.568639  0.431361  0.896455  1
  Si  Si11  1  0.137277  0.568639  0.103545  1
  O  O12  1  0.245767  0.491534  0.083499  1
  O  O13  1  0.532432  0.467568  0.750000  1
  O  O14  1  0.754233  0.508466  0.916501  1
  O  O15  1  0.508466  0.754233  0.083499  1
  O  O16  1  0.754233  0.245767  0.583499  1
  O  O17  1  0.500000  0.500000  0.500000  1
  O  O18  1  0.532432  0.064865  0.750000  1
  O  O19  1  0.245767  0.491534  0.416501  1
  O  O20  1  0.245767  0.754233  0.083499  1
  O  O21  1  0.491534  0.245767  0.583499  1
  O  O22  1  0.467568  0.935135  0.250000  1
  O  O23  1  0.508466  0.754233  0.416501  1
  O  O24  1  0.064865  0.532432  0.250000  1
  O  O25  1  0.000000  0.500000  0.000000  1
  O  O26  1  0.935135  0.467568  0.750000  1
  O  O27  1  0.500000  0.000000  0.000000  1
  O  O28  1  0.491534  0.245767  0.916501  1
  O  O29  1  0.754233  0.245767  0.916501  1
  O  O30  1  0.467568  0.532432  0.250000  1
  O  O31  1  0.245767  0.754233  0.416501  1
  O  O32  1  0.754233  0.508466  0.583499  1
  O  O33  1  0.500000  0.000000  0.500000  1
  O  O34  1  0.500000  0.500000  0.000000  1
  O  O35  1  0.000000  0.500000  0.500000  1
