# generated using pymatgen
data_Ba7Al10
_symmetry_space_group_name_H-M   'P 1'
_cell_length_a   6.04155760
_cell_length_b   6.04155760
_cell_length_c   16.90071431
_cell_angle_alpha   79.70381037
_cell_angle_beta   79.70381037
_cell_angle_gamma   60.00000280
_symmetry_Int_Tables_number   1
_chemical_formula_structural   Ba7Al10
_chemical_formula_sum   'Ba7 Al10'
_cell_volume   522.73455961
_cell_formula_units_Z   1
loop_
 _symmetry_equiv_pos_site_id
 _symmetry_equiv_pos_as_xyz
  1  'x, y, z'
loop_
 _atom_site_type_symbol
 _atom_site_label
 _atom_site_symmetry_multiplicity
 _atom_site_fract_x
 _atom_site_fract_y
 _atom_site_fract_z
 _atom_site_occupancy
  Ba  Ba0  1  0.129229  0.129229  0.612312  1
  Ba  Ba1  1  0.870771  0.870771  0.387688  1
  Ba  Ba2  1  0.052406  0.052406  0.842783  1
  Ba  Ba3  1  0.947594  0.947594  0.157217  1
  Ba  Ba4  1  0.500000  0.500000  0.500000  1
  Ba  Ba5  1  0.359284  0.359284  0.922147  1
  Ba  Ba6  1  0.640716  0.640716  0.077853  1
  Al  Al7  1  0.283949  0.283949  0.148152  1
  Al  Al8  1  0.716051  0.716051  0.851848  1
  Al  Al9  1  0.200976  0.200976  0.397072  1
  Al  Al10  1  0.799024  0.799024  0.602928  1
  Al  Al11  1  0.106326  0.583532  0.726610  1
  Al  Al12  1  0.583532  0.583532  0.726610  1
  Al  Al13  1  0.583532  0.106326  0.726610  1
  Al  Al14  1  0.893674  0.416468  0.273390  1
  Al  Al15  1  0.416468  0.416468  0.273390  1
  Al  Al16  1  0.416468  0.893674  0.273390  1
