# generated using pymatgen
data_Cu2H2CO5
_symmetry_space_group_name_H-M   'P 1'
_cell_length_a   3.33239612
_cell_length_b   9.92325925
_cell_length_c   12.04485391
_cell_angle_alpha   90.00000000
_cell_angle_beta   90.00000000
_cell_angle_gamma   103.14699246
_symmetry_Int_Tables_number   1
_chemical_formula_structural   Cu2H2CO5
_chemical_formula_sum   'Cu8 H8 C4 O20'
_cell_volume   387.86241012
_cell_formula_units_Z   4
loop_
 _symmetry_equiv_pos_site_id
 _symmetry_equiv_pos_as_xyz
  1  'x, y, z'
loop_
 _atom_site_type_symbol
 _atom_site_label
 _atom_site_symmetry_multiplicity
 _atom_site_fract_x
 _atom_site_fract_y
 _atom_site_fract_z
 _atom_site_occupancy
  Cu  Cu0  1  0.891895  0.494974  0.288726  1
  Cu  Cu1  1  0.108105  0.005026  0.788726  1
  Cu  Cu2  1  0.108105  0.505026  0.711274  1
  Cu  Cu3  1  0.891895  0.994974  0.211274  1
  Cu  Cu4  1  0.376576  0.227936  0.390230  1
  Cu  Cu5  1  0.623424  0.272064  0.890230  1
  Cu  Cu6  1  0.623424  0.772064  0.609770  1
  Cu  Cu7  1  0.376576  0.727936  0.109770  1
  O  O8  1  0.304464  0.134491  0.125790  1
  O  O9  1  0.695536  0.365509  0.625790  1
  O  O10  1  0.695536  0.865509  0.874210  1
  O  O11  1  0.304464  0.634491  0.374210  1
  O  O12  1  0.458576  0.325754  0.232696  1
  O  O13  1  0.541424  0.174246  0.732696  1
  O  O14  1  0.541424  0.674246  0.767304  1
  O  O15  1  0.458576  0.825754  0.267304  1
  O  O16  1  0.644293  0.337627  0.053614  1
  O  O17  1  0.355707  0.162373  0.553614  1
  O  O18  1  0.355707  0.662373  0.946386  1
  O  O19  1  0.644293  0.837627  0.446386  1
  O  O20  1  0.885219  0.092682  0.348204  1
  O  O21  1  0.114781  0.407318  0.848204  1
  O  O22  1  0.114781  0.907318  0.651796  1
  O  O23  1  0.885219  0.592682  0.151796  1
  O  O24  1  0.875568  0.369028  0.411835  1
  O  O25  1  0.124432  0.130972  0.911835  1
  O  O26  1  0.124432  0.630972  0.588165  1
  O  O27  1  0.875568  0.869028  0.088165  1
  C  C28  1  0.467957  0.265581  0.136297  1
  C  C29  1  0.532043  0.234419  0.636297  1
  C  C30  1  0.532043  0.734419  0.863703  1
  C  C31  1  0.467957  0.765581  0.363703  1
  H  H32  1  0.813875  0.014750  0.401786  1
  H  H33  1  0.186125  0.485250  0.901786  1
  H  H34  1  0.186125  0.985250  0.598214  1
  H  H35  1  0.813875  0.514750  0.098214  1
  H  H36  1  0.846106  0.397907  0.489804  1
  H  H37  1  0.153894  0.102093  0.989804  1
  H  H38  1  0.153894  0.602093  0.510196  1
  H  H39  1  0.846106  0.897907  0.010196  1
