# generated using pymatgen
data_KTiCl3
_symmetry_space_group_name_H-M   'P 1'
_cell_length_a   12.63125701
_cell_length_b   12.63125674
_cell_length_c   5.63352477
_cell_angle_alpha   90.00000000
_cell_angle_beta   90.00000000
_cell_angle_gamma   120.00000070
_symmetry_Int_Tables_number   1
_chemical_formula_structural   KTiCl3
_chemical_formula_sum   'K6 Ti6 Cl18'
_cell_volume   778.40205078
_cell_formula_units_Z   6
loop_
 _symmetry_equiv_pos_site_id
 _symmetry_equiv_pos_as_xyz
  1  'x, y, z'
loop_
 _atom_site_type_symbol
 _atom_site_label
 _atom_site_symmetry_multiplicity
 _atom_site_fract_x
 _atom_site_fract_y
 _atom_site_fract_z
 _atom_site_occupancy
  K  K0  1  0.662103  -0.004030  0.676817  1
  K  K1  1  1.004030  0.666133  0.676817  1
  K  K2  1  0.337897  1.004030  0.176817  1
  K  K3  1  0.666133  0.662103  0.176817  1
  K  K4  1  0.333867  0.337897  0.676817  1
  K  K5  1  -0.004030  0.333867  0.176817  1
  Ti  Ti6  1  0.000000  0.000000  0.512107  1
  Ti  Ti7  1  0.666667  0.333333  0.855619  1
  Ti  Ti8  1  0.666667  0.333333  0.407692  1
  Ti  Ti9  1  0.000000  0.000000  0.012107  1
  Ti  Ti10  1  0.333333  0.666667  0.355619  1
  Ti  Ti11  1  0.333333  0.666667  0.907692  1
  Cl  Cl12  1  0.516209  0.820074  0.132379  1
  Cl  Cl13  1  0.483791  0.179926  0.632379  1
  Cl  Cl14  1  0.839128  0.479038  0.130528  1
  Cl  Cl15  1  0.303865  0.483791  0.132379  1
  Cl  Cl16  1  0.639910  0.160872  0.130528  1
  Cl  Cl17  1  0.180770  0.144647  0.262071  1
  Cl  Cl18  1  0.160872  0.520962  0.630528  1
  Cl  Cl19  1  0.855353  0.036122  0.262071  1
  Cl  Cl20  1  0.144647  0.963878  0.762071  1
  Cl  Cl21  1  0.963878  0.819230  0.262071  1
  Cl  Cl22  1  0.819230  0.855353  0.762071  1
  Cl  Cl23  1  0.820074  0.303865  0.632379  1
  Cl  Cl24  1  0.036122  0.180770  0.762071  1
  Cl  Cl25  1  0.179926  0.696135  0.132379  1
  Cl  Cl26  1  0.696135  0.516209  0.632379  1
  Cl  Cl27  1  0.360090  0.839128  0.630528  1
  Cl  Cl28  1  0.479038  0.639910  0.630528  1
  Cl  Cl29  1  0.520962  0.360090  0.130528  1
