# generated using pymatgen
data_La3(SiPd)4
_symmetry_space_group_name_H-M   'P 1'
_cell_length_a   4.25311349
_cell_length_b   4.30830724
_cell_length_c   12.76117486
_cell_angle_alpha   99.71949024
_cell_angle_beta   99.59371912
_cell_angle_gamma   89.99810114
_symmetry_Int_Tables_number   1
_chemical_formula_structural   La3(SiPd)4
_chemical_formula_sum   'La3 Si4 Pd4'
_cell_volume   227.15739080
_cell_formula_units_Z   1
loop_
 _symmetry_equiv_pos_site_id
 _symmetry_equiv_pos_as_xyz
  1  'x, y, z'
loop_
 _atom_site_type_symbol
 _atom_site_label
 _atom_site_symmetry_multiplicity
 _atom_site_fract_x
 _atom_site_fract_y
 _atom_site_fract_z
 _atom_site_occupancy
  La  La0  1  0.146878  0.646906  0.293784  1
  La  La1  1  0.853122  0.353094  0.706216  1
  La  La2  1  0.000000  0.000000  0.000000  1
  Si  Si3  1  0.697757  0.197755  0.395497  1
  Si  Si4  1  0.548193  0.548249  0.096506  1
  Si  Si5  1  0.451807  0.451751  0.903494  1
  Si  Si6  1  0.302243  0.802245  0.604503  1
  Pd  Pd7  1  0.751580  0.751606  0.503172  1
  Pd  Pd8  1  0.402217  0.902204  0.804408  1
  Pd  Pd9  1  0.597783  0.097796  0.195592  1
  Pd  Pd10  1  0.248420  0.248394  0.496828  1
