# generated using pymatgen
data_SiO2
_symmetry_space_group_name_H-M   'P 1'
_cell_length_a   8.02559759
_cell_length_b   8.89932565
_cell_length_c   8.90286867
_cell_angle_alpha   90.31726058
_cell_angle_beta   90.00000000
_cell_angle_gamma   90.00000000
_symmetry_Int_Tables_number   1
_chemical_formula_structural   SiO2
_chemical_formula_sum   'Si16 O32'
_cell_volume   635.85455712
_cell_formula_units_Z   16
loop_
 _symmetry_equiv_pos_site_id
 _symmetry_equiv_pos_as_xyz
  1  'x, y, z'
loop_
 _atom_site_type_symbol
 _atom_site_label
 _atom_site_symmetry_multiplicity
 _atom_site_fract_x
 _atom_site_fract_y
 _atom_site_fract_z
 _atom_site_occupancy
  Si  Si0  1  0.128600  0.160775  0.354220  1
  Si  Si1  1  0.627803  0.104019  0.595381  1
  Si  Si2  1  0.140489  0.594995  0.090533  1
  Si  Si3  1  0.872197  0.104019  0.095381  1
  Si  Si4  1  0.871400  0.839225  0.645780  1
  Si  Si5  1  0.640489  0.405005  0.409467  1
  Si  Si6  1  0.859511  0.405005  0.909467  1
  Si  Si7  1  0.607012  0.657365  0.841955  1
  Si  Si8  1  0.372197  0.895981  0.404619  1
  Si  Si9  1  0.127803  0.895981  0.904619  1
  Si  Si10  1  0.392988  0.342635  0.158045  1
  Si  Si11  1  0.359511  0.594995  0.590533  1
  Si  Si12  1  0.892988  0.657365  0.341955  1
  Si  Si13  1  0.371400  0.160775  0.854220  1
  Si  Si14  1  0.628600  0.839225  0.145780  1
  Si  Si15  1  0.107012  0.342635  0.658045  1
  O  O16  1  0.814545  0.498789  0.400216  1
  O  O17  1  0.177574  0.750788  0.003585  1
  O  O18  1  0.685455  0.498789  0.900216  1
  O  O19  1  0.267339  0.271275  0.281701  1
  O  O20  1  0.427808  0.627651  0.760775  1
  O  O21  1  0.767339  0.728725  0.218299  1
  O  O22  1  0.704259  0.008861  0.133428  1
  O  O23  1  0.582063  0.774550  0.980318  1
  O  O24  1  0.204259  0.991139  0.366572  1
  O  O25  1  0.795741  0.008861  0.633428  1
  O  O26  1  0.232661  0.271275  0.781701  1
  O  O27  1  0.961176  0.156807  0.251553  1
  O  O28  1  0.038824  0.843193  0.748447  1
  O  O29  1  0.538824  0.156807  0.751553  1
  O  O30  1  0.314545  0.501211  0.099784  1
  O  O31  1  0.322426  0.750788  0.503585  1
  O  O32  1  0.822426  0.249212  0.996415  1
  O  O33  1  0.185455  0.501211  0.599784  1
  O  O34  1  0.732661  0.728725  0.718299  1
  O  O35  1  0.295741  0.991139  0.866572  1
  O  O36  1  0.082063  0.225450  0.519682  1
  O  O37  1  0.500000  0.500000  0.500000  1
  O  O38  1  0.572192  0.372349  0.239225  1
  O  O39  1  0.072192  0.627651  0.260775  1
  O  O40  1  0.461176  0.843193  0.248447  1
  O  O41  1  0.677574  0.249212  0.496415  1
  O  O42  1  0.417937  0.225450  0.019682  1
  O  O43  1  0.927808  0.372349  0.739225  1
  O  O44  1  0.000000  0.500000  0.000000  1
  O  O45  1  0.000000  0.000000  0.000000  1
  O  O46  1  0.917937  0.774550  0.480318  1
  O  O47  1  0.500000  0.000000  0.500000  1
