# generated using pymatgen
data_Na4Sc2Si4O13
_symmetry_space_group_name_H-M   'P 1'
_cell_length_a   5.35112653
_cell_length_b   14.57948708
_cell_length_c   14.35385613
_cell_angle_alpha   90.00000000
_cell_angle_beta   90.00000000
_cell_angle_gamma   90.00000000
_symmetry_Int_Tables_number   1
_chemical_formula_structural   Na4Sc2Si4O13
_chemical_formula_sum   'Na16 Sc8 Si16 O52'
_cell_volume   1119.84020200
_cell_formula_units_Z   4
loop_
 _symmetry_equiv_pos_site_id
 _symmetry_equiv_pos_as_xyz
  1  'x, y, z'
loop_
 _atom_site_type_symbol
 _atom_site_label
 _atom_site_symmetry_multiplicity
 _atom_site_fract_x
 _atom_site_fract_y
 _atom_site_fract_z
 _atom_site_occupancy
  Na  Na0  1  0.192757  0.211533  0.051152  1
  Na  Na1  1  0.823780  0.914949  0.577658  1
  Na  Na2  1  0.219834  0.835238  0.698286  1
  Na  Na3  1  0.780166  0.335238  0.301714  1
  Na  Na4  1  0.173964  0.622197  0.329520  1
  Na  Na5  1  0.307243  0.211533  0.551152  1
  Na  Na6  1  0.826036  0.122197  0.670480  1
  Na  Na7  1  0.692757  0.711533  0.448848  1
  Na  Na8  1  0.323780  0.414949  0.922342  1
  Na  Na9  1  0.676220  0.914949  0.077658  1
  Na  Na10  1  0.176220  0.414949  0.422342  1
  Na  Na11  1  0.719834  0.335238  0.801714  1
  Na  Na12  1  0.280166  0.835238  0.198286  1
  Na  Na13  1  0.807243  0.711533  0.948848  1
  Na  Na14  1  0.326036  0.622197  0.829520  1
  Na  Na15  1  0.673964  0.122197  0.170480  1
  Sc  Sc16  1  0.310020  0.420583  0.669762  1
  Sc  Sc17  1  0.189980  0.420583  0.169762  1
  Sc  Sc18  1  0.650080  0.127145  0.920735  1
  Sc  Sc19  1  0.810020  0.920583  0.830238  1
  Sc  Sc20  1  0.849920  0.127145  0.420735  1
  Sc  Sc21  1  0.349920  0.627145  0.079265  1
  Sc  Sc22  1  0.150080  0.627145  0.579265  1
  Sc  Sc23  1  0.689980  0.920583  0.330238  1
  Si  Si24  1  0.649258  0.500046  0.477493  1
  Si  Si25  1  0.701099  0.320027  0.058469  1
  Si  Si26  1  0.672695  0.545880  0.273134  1
  Si  Si27  1  0.298901  0.820027  0.941531  1
  Si  Si28  1  0.850742  0.500046  0.977493  1
  Si  Si29  1  0.350742  1.000046  0.522507  1
  Si  Si30  1  0.327305  0.045880  0.726866  1
  Si  Si31  1  0.827305  0.545880  0.773134  1
  Si  Si32  1  0.174652  0.227784  0.806387  1
  Si  Si33  1  0.172695  0.045880  0.226866  1
  Si  Si34  1  0.798901  0.320027  0.558469  1
  Si  Si35  1  0.325348  0.227784  0.306387  1
  Si  Si36  1  0.201099  0.820027  0.441531  1
  Si  Si37  1  0.825348  0.727784  0.193613  1
  Si  Si38  1  0.674652  0.727784  0.693613  1
  Si  Si39  1  0.149258  1.000046  0.022507  1
  O  O40  1  0.112966  0.841135  0.855130  1
  O  O41  1  0.518578  0.524184  0.373425  1
  O  O42  1  0.432466  0.989075  0.228989  1
  O  O43  1  0.207524  0.887314  0.032486  1
  O  O44  1  0.316870  0.336107  0.275625  1
  O  O45  1  0.683130  0.836107  0.724375  1
  O  O46  1  0.792476  0.387314  0.967514  1
  O  O47  1  0.292476  0.887314  0.532486  1
  O  O48  1  0.889108  0.193927  0.826509  1
  O  O49  1  0.366375  0.216558  0.893028  1
  O  O50  1  0.244712  0.711937  0.468631  1
  O  O51  1  0.037356  0.530736  0.691906  1
  O  O52  1  0.567534  0.489075  0.771011  1
  O  O53  1  0.067534  0.989075  0.728989  1
  O  O54  1  0.408652  0.347051  0.074614  1
  O  O55  1  0.925548  0.015553  0.946513  1
  O  O56  1  0.074452  0.515553  0.053487  1
  O  O57  1  0.908652  0.847051  0.425386  1
  O  O58  1  0.270808  0.159007  0.717440  1
  O  O59  1  0.932466  0.489075  0.271011  1
  O  O60  1  0.610892  0.193927  0.326509  1
  O  O61  1  0.537356  0.030736  0.808094  1
  O  O62  1  0.425548  0.515553  0.553487  1
  O  O63  1  0.755288  0.211937  0.531369  1
  O  O64  1  0.403845  0.058133  0.014758  1
  O  O65  1  0.981422  0.524184  0.873425  1
  O  O66  1  0.110892  0.693927  0.173491  1
  O  O67  1  0.574452  0.015553  0.446513  1
  O  O68  1  0.096155  0.058133  0.514758  1
  O  O69  1  0.887034  0.341135  0.144870  1
  O  O70  1  0.633625  0.716558  0.106972  1
  O  O71  1  0.591348  0.847051  0.925386  1
  O  O72  1  0.729192  0.659007  0.282560  1
  O  O73  1  0.091348  0.347051  0.574614  1
  O  O74  1  0.903845  0.558133  0.485242  1
  O  O75  1  0.389108  0.693927  0.673491  1
  O  O76  1  0.255288  0.711937  0.968631  1
  O  O77  1  0.816870  0.836107  0.224375  1
  O  O78  1  0.229192  0.159007  0.217440  1
  O  O79  1  0.770808  0.659007  0.782560  1
  O  O80  1  0.612966  0.341135  0.644870  1
  O  O81  1  0.744712  0.211937  0.031369  1
  O  O82  1  0.183130  0.336107  0.775625  1
  O  O83  1  0.133625  0.216558  0.393028  1
  O  O84  1  0.018578  0.024184  0.126575  1
  O  O85  1  0.866375  0.716558  0.606972  1
  O  O86  1  0.462644  0.530736  0.191906  1
  O  O87  1  0.962644  0.030736  0.308094  1
  O  O88  1  0.596155  0.558133  0.985242  1
  O  O89  1  0.387034  0.841135  0.355130  1
  O  O90  1  0.481422  0.024184  0.626575  1
  O  O91  1  0.707524  0.387314  0.467514  1
