# generated using pymatgen
data_Ba5Hf4S13
_symmetry_space_group_name_H-M   'P 1'
_cell_length_a   5.00408290
_cell_length_b   5.00408391
_cell_length_c   23.15329376
_cell_angle_alpha   96.20448655
_cell_angle_beta   96.20449581
_cell_angle_gamma   90.00015166
_symmetry_Int_Tables_number   1
_chemical_formula_structural   Ba5Hf4S13
_chemical_formula_sum   'Ba5 Hf4 S13'
_cell_volume   572.96591982
_cell_formula_units_Z   1
loop_
 _symmetry_equiv_pos_site_id
 _symmetry_equiv_pos_as_xyz
  1  'x, y, z'
loop_
 _atom_site_type_symbol
 _atom_site_label
 _atom_site_symmetry_multiplicity
 _atom_site_fract_x
 _atom_site_fract_y
 _atom_site_fract_z
 _atom_site_occupancy
  Ba  Ba0  1  0.710995  0.710995  0.421970  1
  Ba  Ba1  1  0.607425  0.607425  0.214830  1
  Ba  Ba2  1  0.289005  0.289005  0.578030  1
  Ba  Ba3  1  0.500000  0.500000  0.000000  1
  Ba  Ba4  1  0.392575  0.392575  0.785170  1
  Hf  Hf5  1  0.833767  0.833767  0.667605  1
  Hf  Hf6  1  0.055158  0.055158  0.110459  1
  Hf  Hf7  1  0.166233  0.166233  0.332395  1
  Hf  Hf8  1  0.944842  0.944842  0.889541  1
  S  S9  1  0.890115  0.890115  0.780394  1
  S  S10  1  0.836498  0.336490  0.673080  1
  S  S11  1  0.945349  0.445279  0.890408  1
  S  S12  1  0.554721  0.054651  0.109592  1
  S  S13  1  0.109885  0.109885  0.219606  1
  S  S14  1  0.779391  0.779391  0.558872  1
  S  S15  1  0.220609  0.220609  0.441128  1
  S  S16  1  0.336490  0.836498  0.673080  1
  S  S17  1  0.663510  0.163502  0.326920  1
  S  S18  1  0.445279  0.945349  0.890408  1
  S  S19  1  0.163502  0.663510  0.326920  1
  S  S20  1  0.000000  0.000000  0.000000  1
  S  S21  1  0.054651  0.554721  0.109592  1
