# generated using pymatgen
data_Rb2Ag(AsSe2)3
_symmetry_space_group_name_H-M   'P 1'
_cell_length_a   8.03455123
_cell_length_b   13.08547029
_cell_length_c   14.83747808
_cell_angle_alpha   96.69544254
_cell_angle_beta   90.00000000
_cell_angle_gamma   90.00000000
_symmetry_Int_Tables_number   1
_chemical_formula_structural   Rb2Ag(AsSe2)3
_chemical_formula_sum   'Rb8 Ag4 As12 Se24'
_cell_volume   1549.31235350
_cell_formula_units_Z   4
loop_
 _symmetry_equiv_pos_site_id
 _symmetry_equiv_pos_as_xyz
  1  'x, y, z'
loop_
 _atom_site_type_symbol
 _atom_site_label
 _atom_site_symmetry_multiplicity
 _atom_site_fract_x
 _atom_site_fract_y
 _atom_site_fract_z
 _atom_site_occupancy
  Rb  Rb0  1  0.100920  0.651371  0.236742  1
  Rb  Rb1  1  0.600920  0.848629  0.263258  1
  Rb  Rb2  1  0.899080  0.348629  0.763258  1
  Rb  Rb3  1  0.399080  0.151371  0.736742  1
  Rb  Rb4  1  0.628142  0.829773  0.610657  1
  Rb  Rb5  1  0.128142  0.670227  0.889343  1
  Rb  Rb6  1  0.371858  0.170227  0.389343  1
  Rb  Rb7  1  0.871858  0.329773  0.110657  1
  Ag  Ag8  1  0.006788  0.899342  0.426967  1
  Ag  Ag9  1  0.506787  0.600658  0.073033  1
  Ag  Ag10  1  0.993213  0.100658  0.573033  1
  Ag  Ag11  1  0.493212  0.399342  0.926967  1
  As  As12  1  0.910185  0.126309  0.348078  1
  As  As13  1  0.410185  0.373691  0.151922  1
  As  As14  1  0.089815  0.873691  0.651922  1
  As  As15  1  0.589815  0.626309  0.848078  1
  As  As16  1  0.041581  0.971122  0.137218  1
  As  As17  1  0.541581  0.528878  0.362782  1
  As  As18  1  0.958419  0.028878  0.862782  1
  As  As19  1  0.458419  0.471122  0.637218  1
  As  As20  1  0.667515  0.878452  0.993834  1
  As  As21  1  0.167515  0.621548  0.506166  1
  As  As22  1  0.332485  0.121548  0.006166  1
  As  As23  1  0.832485  0.378452  0.493834  1
  Se  Se24  1  0.761351  0.290167  0.342212  1
  Se  Se25  1  0.261351  0.209833  0.157788  1
  Se  Se26  1  0.238649  0.709833  0.657788  1
  Se  Se27  1  0.738649  0.790167  0.842212  1
  Se  Se28  1  0.257525  0.965757  0.553739  1
  Se  Se29  1  0.757525  0.534243  0.946261  1
  Se  Se30  1  0.742475  0.034243  0.446261  1
  Se  Se31  1  0.242475  0.465757  0.053739  1
  Se  Se32  1  0.795248  0.076159  0.195471  1
  Se  Se33  1  0.295248  0.423841  0.304529  1
  Se  Se34  1  0.204752  0.923841  0.804529  1
  Se  Se35  1  0.704752  0.576159  0.695471  1
  Se  Se36  1  0.169902  0.926103  0.270927  1
  Se  Se37  1  0.669902  0.573897  0.229073  1
  Se  Se38  1  0.830098  0.073898  0.729073  1
  Se  Se39  1  0.330098  0.426102  0.770927  1
  Se  Se40  1  0.893978  0.808463  0.084371  1
  Se  Se41  1  0.393978  0.691537  0.415629  1
  Se  Se42  1  0.106022  0.191537  0.915629  1
  Se  Se43  1  0.606022  0.308463  0.584371  1
  Se  Se44  1  0.930932  0.708935  0.459918  1
  Se  Se45  1  0.430932  0.791065  0.040082  1
  Se  Se46  1  0.069068  0.291065  0.540082  1
  Se  Se47  1  0.569068  0.208935  0.959918  1
