# generated using pymatgen
data_NaGa(TeO3)2
_symmetry_space_group_name_H-M   'P 1'
_cell_length_a   7.92105890
_cell_length_b   10.48827741
_cell_length_c   13.59140622
_cell_angle_alpha   90.00000000
_cell_angle_beta   90.00000000
_cell_angle_gamma   90.00000000
_symmetry_Int_Tables_number   1
_chemical_formula_structural   NaGa(TeO3)2
_chemical_formula_sum   'Na8 Ga8 Te16 O48'
_cell_volume   1129.15042217
_cell_formula_units_Z   8
loop_
 _symmetry_equiv_pos_site_id
 _symmetry_equiv_pos_as_xyz
  1  'x, y, z'
loop_
 _atom_site_type_symbol
 _atom_site_label
 _atom_site_symmetry_multiplicity
 _atom_site_fract_x
 _atom_site_fract_y
 _atom_site_fract_z
 _atom_site_occupancy
  Na  Na0  1  0.326496  0.756535  0.142957  1
  Na  Na1  1  0.826496  0.243465  0.357043  1
  Na  Na2  1  0.673504  0.243465  0.857043  1
  Na  Na3  1  0.673504  0.743465  0.642957  1
  Na  Na4  1  0.826496  0.743465  0.142957  1
  Na  Na5  1  0.326496  0.256535  0.357043  1
  Na  Na6  1  0.173504  0.756535  0.642957  1
  Na  Na7  1  0.173504  0.256535  0.857043  1
  Ga  Ga8  1  0.694393  0.502445  0.980093  1
  Ga  Ga9  1  0.305607  0.497555  0.019907  1
  Ga  Ga10  1  0.805607  0.002445  0.019907  1
  Ga  Ga11  1  0.305607  0.997555  0.480093  1
  Ga  Ga12  1  0.694393  0.002445  0.519907  1
  Ga  Ga13  1  0.194393  0.497555  0.519907  1
  Ga  Ga14  1  0.805607  0.502445  0.480093  1
  Ga  Ga15  1  0.194393  0.997555  0.980093  1
  Te  Te16  1  0.450445  0.711446  0.425610  1
  Te  Te17  1  0.079877  0.010056  0.232614  1
  Te  Te18  1  0.920123  0.489944  0.732614  1
  Te  Te19  1  0.579877  0.989944  0.267386  1
  Te  Te20  1  0.420123  0.510056  0.767386  1
  Te  Te21  1  0.579877  0.489944  0.232614  1
  Te  Te22  1  0.049555  0.211446  0.574390  1
  Te  Te23  1  0.049555  0.711446  0.925610  1
  Te  Te24  1  0.920123  0.989944  0.767386  1
  Te  Te25  1  0.950445  0.788554  0.425610  1
  Te  Te26  1  0.079877  0.510056  0.267386  1
  Te  Te27  1  0.450445  0.211446  0.074390  1
  Te  Te28  1  0.549555  0.288554  0.574390  1
  Te  Te29  1  0.420123  0.010056  0.732614  1
  Te  Te30  1  0.549555  0.788554  0.925610  1
  Te  Te31  1  0.950445  0.288554  0.074390  1
  O  O32  1  0.131787  0.124273  0.458646  1
  O  O33  1  0.569861  0.310827  0.233621  1
  O  O34  1  0.498338  0.872195  0.492041  1
  O  O35  1  0.262470  0.480533  0.872900  1
  O  O36  1  0.819105  0.160851  0.548043  1
  O  O37  1  0.870741  0.973004  0.163291  1
  O  O38  1  0.737530  0.519467  0.127100  1
  O  O39  1  0.762470  0.519467  0.627100  1
  O  O40  1  0.870741  0.473004  0.336709  1
  O  O41  1  0.368213  0.124273  0.958646  1
  O  O42  1  0.131787  0.624273  0.041354  1
  O  O43  1  0.930139  0.810827  0.766379  1
  O  O44  1  0.631787  0.375727  0.458646  1
  O  O45  1  0.819105  0.660851  0.951957  1
  O  O46  1  0.680895  0.660851  0.451957  1
  O  O47  1  0.319105  0.339149  0.548043  1
  O  O48  1  0.680895  0.160851  0.048043  1
  O  O49  1  0.868213  0.375727  0.958646  1
  O  O50  1  0.001662  0.872195  0.992041  1
  O  O51  1  0.368213  0.624273  0.541354  1
  O  O52  1  0.180895  0.839149  0.451957  1
  O  O53  1  0.370741  0.526996  0.163291  1
  O  O54  1  0.129259  0.026996  0.836709  1
  O  O55  1  0.998338  0.127805  0.007959  1
  O  O56  1  0.237530  0.980533  0.127100  1
  O  O57  1  0.631787  0.875727  0.041354  1
  O  O58  1  0.498338  0.372195  0.007959  1
  O  O59  1  0.262470  0.980533  0.627100  1
  O  O60  1  0.319105  0.839149  0.951957  1
  O  O61  1  0.930139  0.310827  0.733621  1
  O  O62  1  0.569861  0.810827  0.266379  1
  O  O63  1  0.430139  0.689173  0.766379  1
  O  O64  1  0.237530  0.480533  0.372900  1
  O  O65  1  0.998338  0.627805  0.492041  1
  O  O66  1  0.370741  0.026996  0.336709  1
  O  O67  1  0.629259  0.473004  0.836709  1
  O  O68  1  0.501662  0.627805  0.992041  1
  O  O69  1  0.069861  0.189173  0.233621  1
  O  O70  1  0.001662  0.372195  0.507959  1
  O  O71  1  0.737530  0.019467  0.372900  1
  O  O72  1  0.501662  0.127805  0.507959  1
  O  O73  1  0.069861  0.689173  0.266379  1
  O  O74  1  0.129259  0.526996  0.663291  1
  O  O75  1  0.868213  0.875727  0.541354  1
  O  O76  1  0.629259  0.973004  0.663291  1
  O  O77  1  0.430139  0.189173  0.733621  1
  O  O78  1  0.762470  0.019467  0.872900  1
  O  O79  1  0.180895  0.339149  0.048043  1
