# generated using pymatgen
data_Eu4Al2O9
_symmetry_space_group_name_H-M   'P 1'
_cell_length_a   7.71747965
_cell_length_b   10.82154438
_cell_length_c   11.33374368
_cell_angle_alpha   90.00000000
_cell_angle_beta   109.15141211
_cell_angle_gamma   90.00000000
_symmetry_Int_Tables_number   1
_chemical_formula_structural   Eu4Al2O9
_chemical_formula_sum   'Eu16 Al8 O36'
_cell_volume   894.15191952
_cell_formula_units_Z   4
loop_
 _symmetry_equiv_pos_site_id
 _symmetry_equiv_pos_as_xyz
  1  'x, y, z'
loop_
 _atom_site_type_symbol
 _atom_site_label
 _atom_site_symmetry_multiplicity
 _atom_site_fract_x
 _atom_site_fract_y
 _atom_site_fract_z
 _atom_site_occupancy
  Eu  Eu0  1  0.666647  0.627928  0.068924  1
  Eu  Eu1  1  0.160993  0.875280  0.582183  1
  Eu  Eu2  1  0.026248  0.410716  0.307814  1
  Eu  Eu3  1  0.525928  0.398019  0.288575  1
  Eu  Eu4  1  0.666647  0.872072  0.568924  1
  Eu  Eu5  1  0.839007  0.124720  0.417817  1
  Eu  Eu6  1  0.026248  0.089284  0.807814  1
  Eu  Eu7  1  0.333353  0.127928  0.431076  1
  Eu  Eu8  1  0.839007  0.375280  0.917817  1
  Eu  Eu9  1  0.474072  0.898019  0.211425  1
  Eu  Eu10  1  0.474072  0.601981  0.711425  1
  Eu  Eu11  1  0.973752  0.589284  0.692186  1
  Eu  Eu12  1  0.333353  0.372072  0.931076  1
  Eu  Eu13  1  0.160993  0.624720  0.082183  1
  Eu  Eu14  1  0.973752  0.910716  0.192186  1
  Eu  Eu15  1  0.525928  0.101981  0.788575  1
  Al  Al16  1  0.652120  0.184606  0.118347  1
  Al  Al17  1  0.223120  0.187413  0.129529  1
  Al  Al18  1  0.776880  0.687413  0.370471  1
  Al  Al19  1  0.223120  0.312587  0.629529  1
  Al  Al20  1  0.776880  0.812587  0.870471  1
  Al  Al21  1  0.347880  0.815394  0.881653  1
  Al  Al22  1  0.347880  0.684606  0.381653  1
  Al  Al23  1  0.652120  0.315394  0.618347  1
  O  O24  1  0.359877  0.770287  0.034735  1
  O  O25  1  0.701030  0.469631  0.667805  1
  O  O26  1  0.076500  0.996649  0.397558  1
  O  O27  1  0.923500  0.003351  0.602442  1
  O  O28  1  0.433941  0.236853  0.116040  1
  O  O29  1  0.921141  0.765236  0.018644  1
  O  O30  1  0.923500  0.496649  0.102442  1
  O  O31  1  0.233527  0.271583  0.266496  1
  O  O32  1  0.431162  0.506324  0.103170  1
  O  O33  1  0.566059  0.736853  0.383960  1
  O  O34  1  0.433941  0.263147  0.616040  1
  O  O35  1  0.078859  0.234764  0.981356  1
  O  O36  1  0.078859  0.265236  0.481356  1
  O  O37  1  0.215460  0.726662  0.752246  1
  O  O38  1  0.215460  0.773338  0.252246  1
  O  O39  1  0.640123  0.229713  0.965265  1
  O  O40  1  0.766473  0.771583  0.233504  1
  O  O41  1  0.701030  0.030369  0.167805  1
  O  O42  1  0.568838  0.006324  0.396830  1
  O  O43  1  0.566059  0.763147  0.883960  1
  O  O44  1  0.784540  0.226662  0.747754  1
  O  O45  1  0.640123  0.270287  0.465265  1
  O  O46  1  0.785208  0.969334  0.833637  1
  O  O47  1  0.921141  0.734764  0.518644  1
  O  O48  1  0.784540  0.273338  0.247754  1
  O  O49  1  0.568838  0.493676  0.896830  1
  O  O50  1  0.214792  0.030666  0.166363  1
  O  O51  1  0.214792  0.469334  0.666363  1
  O  O52  1  0.233527  0.228417  0.766496  1
  O  O53  1  0.431162  0.993676  0.603170  1
  O  O54  1  0.076500  0.503351  0.897558  1
  O  O55  1  0.766473  0.728417  0.733504  1
  O  O56  1  0.359877  0.729713  0.534735  1
  O  O57  1  0.298970  0.969631  0.832195  1
  O  O58  1  0.298970  0.530369  0.332195  1
  O  O59  1  0.785208  0.530666  0.333637  1
