# generated using pymatgen
data_BaP4(W2O7)8
_symmetry_space_group_name_H-M   'P 1'
_cell_length_a   7.69998386
_cell_length_b   9.50944925
_cell_length_c   17.05587882
_cell_angle_alpha   81.61980350
_cell_angle_beta   76.95361925
_cell_angle_gamma   66.10449044
_symmetry_Int_Tables_number   1
_chemical_formula_structural   BaP4(W2O7)8
_chemical_formula_sum   'Ba1 P4 W16 O56'
_cell_volume   1110.28698009
_cell_formula_units_Z   1
loop_
 _symmetry_equiv_pos_site_id
 _symmetry_equiv_pos_as_xyz
  1  'x, y, z'
loop_
 _atom_site_type_symbol
 _atom_site_label
 _atom_site_symmetry_multiplicity
 _atom_site_fract_x
 _atom_site_fract_y
 _atom_site_fract_z
 _atom_site_occupancy
  Ba  Ba0  1  0.000000  0.500000  0.500000  1
  P  P1  1  0.470118  0.222875  0.435505  1
  P  P2  1  0.529882  0.777125  0.564495  1
  P  P3  1  0.131305  0.775006  0.563907  1
  P  P4  1  0.868695  0.224994  0.436093  1
  W  W5  1  0.878583  0.690459  0.052725  1
  W  W6  1  0.109729  0.540066  0.741642  1
  W  W7  1  0.890271  0.459934  0.258358  1
  W  W8  1  0.621491  0.310625  0.947318  1
  W  W9  1  0.145348  0.853423  0.358758  1
  W  W10  1  0.134878  0.078836  0.150705  1
  W  W11  1  0.378509  0.689375  0.052682  1
  W  W12  1  0.865122  0.921164  0.849295  1
  W  W13  1  0.365937  0.918379  0.848519  1
  W  W14  1  0.610818  0.535364  0.739878  1
  W  W15  1  0.121417  0.309541  0.947275  1
  W  W16  1  0.389182  0.464636  0.260122  1
  W  W17  1  0.355224  0.151488  0.642323  1
  W  W18  1  0.854652  0.146577  0.641242  1
  W  W19  1  0.644776  0.848512  0.357677  1
  W  W20  1  0.634063  0.081621  0.151481  1
  O  O21  1  0.103676  0.166907  0.638015  1
  O  O22  1  0.658695  0.751438  0.480080  1
  O  O23  1  0.843984  0.042792  0.739383  1
  O  O24  1  0.885975  0.249569  0.521083  1
  O  O25  1  0.500000  0.500000  0.000000  1
  O  O26  1  0.454710  0.941087  0.587656  1
  O  O27  1  0.396485  0.575327  0.162726  1
  O  O28  1  0.372353  0.044057  0.739439  1
  O  O29  1  0.876784  0.082188  0.165083  1
  O  O30  1  0.114025  0.750431  0.478917  1
  O  O31  1  0.123216  0.917812  0.834917  1
  O  O32  1  0.627647  0.955943  0.260561  1
  O  O33  1  0.647078  0.653696  0.621560  1
  O  O34  1  0.865280  0.574945  0.162458  1
  O  O35  1  0.352922  0.346304  0.378440  1
  O  O36  1  0.354955  0.730646  0.561060  1
  O  O37  1  0.746300  0.648961  0.322429  1
  O  O38  1  0.616471  0.918317  0.849078  1
  O  O39  1  0.241121  0.110985  0.895091  1
  O  O40  1  0.383529  0.081683  0.150921  1
  O  O41  1  0.871767  0.317018  0.939648  1
  O  O42  1  0.918992  0.349170  0.379267  1
  O  O43  1  0.502289  0.731592  0.784633  1
  O  O44  1  0.872340  0.523866  0.735082  1
  O  O45  1  0.362104  0.803270  0.946744  1
  O  O46  1  0.128233  0.682982  0.060352  1
  O  O47  1  0.247577  0.888198  0.104415  1
  O  O48  1  0.019806  0.267503  0.214691  1
  O  O49  1  0.341305  0.248562  0.519920  1
  O  O50  1  0.281760  0.643350  0.323316  1
  O  O51  1  0.081008  0.650830  0.620733  1
  O  O52  1  0.758879  0.889015  0.104909  1
  O  O53  1  0.253700  0.351039  0.677571  1
  O  O54  1  0.134720  0.425055  0.837542  1
  O  O55  1  0.545290  0.058913  0.412344  1
  O  O56  1  0.637896  0.196730  0.053256  1
  O  O57  1  0.896324  0.833093  0.361985  1
  O  O58  1  0.386839  0.859931  0.382034  1
  O  O59  1  0.112736  0.196012  0.052917  1
  O  O60  1  0.613161  0.140069  0.617966  1
  O  O61  1  0.718240  0.356650  0.676684  1
  O  O62  1  0.887264  0.803988  0.947083  1
  O  O63  1  0.980194  0.732497  0.785309  1
  O  O64  1  0.603515  0.424673  0.837274  1
  O  O65  1  0.624972  0.698943  0.050779  1
  O  O66  1  0.156016  0.957208  0.260617  1
  O  O67  1  0.645653  0.437599  0.273773  1
  O  O68  1  0.497711  0.268408  0.215367  1
  O  O69  1  0.016524  0.938476  0.586590  1
  O  O70  1  0.752423  0.111802  0.895585  1
  O  O71  1  0.127660  0.476134  0.264918  1
  O  O72  1  0.645045  0.269354  0.438940  1
  O  O73  1  0.354347  0.562401  0.726227  1
  O  O74  1  0.983476  0.061524  0.413410  1
  O  O75  1  0.000000  0.500000  0.000000  1
  O  O76  1  0.375028  0.301057  0.949221  1
