# generated using pymatgen
data_Li2ZrF6
_symmetry_space_group_name_H-M   'P 1'
_cell_length_a   5.18887743
_cell_length_b   6.50415035
_cell_length_c   6.50414939
_cell_angle_alpha   75.35894006
_cell_angle_beta   71.24150854
_cell_angle_gamma   71.24151559
_symmetry_Int_Tables_number   1
_chemical_formula_structural   Li2ZrF6
_chemical_formula_sum   'Li4 Zr2 F12'
_cell_volume   194.06009372
_cell_formula_units_Z   2
loop_
 _symmetry_equiv_pos_site_id
 _symmetry_equiv_pos_as_xyz
  1  'x, y, z'
loop_
 _atom_site_type_symbol
 _atom_site_label
 _atom_site_symmetry_multiplicity
 _atom_site_fract_x
 _atom_site_fract_y
 _atom_site_fract_z
 _atom_site_occupancy
  Li  Li0  1  0.090163  0.296431  0.134822  1
  Li  Li1  1  0.409837  0.865178  0.703569  1
  Li  Li2  1  0.909837  0.703569  0.865178  1
  Li  Li3  1  0.590163  0.134822  0.296431  1
  Zr  Zr4  1  0.750000  0.317251  0.682749  1
  Zr  Zr5  1  0.250000  0.682749  0.317251  1
  F  F6  1  0.003474  0.999604  0.749923  1
  F  F7  1  0.557294  0.113402  0.629911  1
  F  F8  1  0.057294  0.629911  0.113402  1
  F  F9  1  0.442706  0.886598  0.370089  1
  F  F10  1  0.503474  0.749923  0.999604  1
  F  F11  1  0.647775  0.428643  0.329930  1
  F  F12  1  0.942706  0.370089  0.886598  1
  F  F13  1  0.852225  0.670070  0.571357  1
  F  F14  1  0.996526  0.000396  0.250077  1
  F  F15  1  0.496526  0.250077  0.000396  1
  F  F16  1  0.352225  0.571357  0.670070  1
  F  F17  1  0.147775  0.329930  0.428643  1
