# generated using pymatgen
data_Rb2YGa(SiO3)4
_symmetry_space_group_name_H-M   'P 1'
_cell_length_a   7.36339381
_cell_length_b   14.12240628
_cell_length_c   14.17242144
_cell_angle_alpha   64.24729573
_cell_angle_beta   74.94305329
_cell_angle_gamma   74.88845926
_symmetry_Int_Tables_number   1
_chemical_formula_structural   Rb2YGa(SiO3)4
_chemical_formula_sum   'Rb8 Y4 Ga4 Si16 O48'
_cell_volume   1263.17268607
_cell_formula_units_Z   4
loop_
 _symmetry_equiv_pos_site_id
 _symmetry_equiv_pos_as_xyz
  1  'x, y, z'
loop_
 _atom_site_type_symbol
 _atom_site_label
 _atom_site_symmetry_multiplicity
 _atom_site_fract_x
 _atom_site_fract_y
 _atom_site_fract_z
 _atom_site_occupancy
  Rb  Rb0  1  0.729213  0.117387  0.451462  1
  Rb  Rb1  1  0.195798  0.083151  0.034226  1
  Rb  Rb2  1  0.186825  0.583151  0.534226  1
  Rb  Rb3  1  0.798062  0.382613  0.048538  1
  Rb  Rb4  1  0.270787  0.882613  0.548538  1
  Rb  Rb5  1  0.201938  0.617387  0.951462  1
  Rb  Rb6  1  0.813175  0.416849  0.465774  1
  Rb  Rb7  1  0.804202  0.916849  0.965774  1
  Y  Y8  1  0.449051  0.787029  0.250092  1
  Y  Y9  1  0.550949  0.212971  0.749908  1
  Y  Y10  1  0.986172  0.712971  0.249908  1
  Y  Y11  1  0.013828  0.287029  0.750092  1
  Ga  Ga12  1  0.131691  0.413767  0.225694  1
  Ga  Ga13  1  0.728848  0.913767  0.725694  1
  Ga  Ga14  1  0.868309  0.586233  0.774306  1
  Ga  Ga15  1  0.271152  0.086233  0.274306  1
  Si  Si16  1  0.313128  0.029608  0.796702  1
  Si  Si17  1  0.360562  0.529608  0.296702  1
  Si  Si18  1  0.696435  0.173355  0.989334  1
  Si  Si19  1  0.019713  0.078276  0.661236  1
  Si  Si20  1  0.980287  0.921724  0.338764  1
  Si  Si21  1  0.359124  0.326645  0.510666  1
  Si  Si22  1  0.665049  0.702240  0.922554  1
  Si  Si23  1  0.259226  0.421724  0.838764  1
  Si  Si24  1  0.740774  0.578276  0.161236  1
  Si  Si25  1  0.789843  0.797760  0.577446  1
  Si  Si26  1  0.210157  0.202240  0.422554  1
  Si  Si27  1  0.640876  0.673355  0.489334  1
  Si  Si28  1  0.303565  0.826645  0.010666  1
  Si  Si29  1  0.639438  0.470392  0.703298  1
  Si  Si30  1  0.334951  0.297760  0.077446  1
  Si  Si31  1  0.686872  0.970392  0.203298  1
  O  O32  1  0.665579  0.889554  0.621079  1
  O  O33  1  0.703920  0.351431  0.703136  1
  O  O34  1  0.936423  0.849359  0.467428  1
  O  O35  1  0.547597  0.011121  0.771280  1
  O  O36  1  0.425278  0.848473  0.076939  1
  O  O37  1  0.071265  0.293565  0.341898  1
  O  O38  1  0.928735  0.706435  0.658102  1
  O  O39  1  0.082368  0.519941  0.834836  1
  O  O40  1  0.206728  0.206435  0.158102  1
  O  O41  1  0.770645  0.057548  0.086900  1
  O  O42  1  0.937145  0.980059  0.665164  1
  O  O43  1  0.793272  0.793565  0.841898  1
  O  O44  1  0.771898  0.976290  0.296684  1
  O  O45  1  0.296080  0.648569  0.296864  1
  O  O46  1  0.634846  0.747226  0.556461  1
  O  O47  1  0.258488  0.148569  0.796864  1
  O  O48  1  0.062855  0.019941  0.334836  1
  O  O49  1  0.228102  0.023710  0.703316  1
  O  O50  1  0.467727  0.729631  0.422133  1
  O  O51  1  0.170002  0.511121  0.271280  1
  O  O52  1  0.741512  0.851431  0.203136  1
  O  O53  1  0.113822  0.850801  0.274193  1
  O  O54  1  0.574722  0.151527  0.923061  1
  O  O55  1  0.246790  0.349359  0.967428  1
  O  O56  1  0.365154  0.252774  0.443539  1
  O  O57  1  0.415093  0.442452  0.413100  1
  O  O58  1  0.455127  0.476290  0.796684  1
  O  O59  1  0.438533  0.752774  0.943539  1
  O  O60  1  0.850690  0.651527  0.423061  1
  O  O61  1  0.532273  0.270369  0.577867  1
  O  O62  1  0.886178  0.149199  0.725807  1
  O  O63  1  0.753210  0.650641  0.032572  1
  O  O64  1  0.829998  0.488879  0.728720  1
  O  O65  1  0.544873  0.523710  0.203316  1
  O  O66  1  0.063577  0.150641  0.532572  1
  O  O67  1  0.880509  0.229631  0.922133  1
  O  O68  1  0.917632  0.480059  0.165164  1
  O  O69  1  0.738816  0.649199  0.225807  1
  O  O70  1  0.452403  0.988879  0.228720  1
  O  O71  1  0.149310  0.348473  0.576939  1
  O  O72  1  0.561467  0.247226  0.056461  1
  O  O73  1  0.676212  0.610446  0.878921  1
  O  O74  1  0.584907  0.557548  0.586900  1
  O  O75  1  0.229355  0.942452  0.913100  1
  O  O76  1  0.119491  0.770369  0.077867  1
  O  O77  1  0.261184  0.350801  0.774193  1
  O  O78  1  0.334421  0.110446  0.378921  1
  O  O79  1  0.323788  0.389554  0.121079  1
