# generated using pymatgen
data_Ba11Sb10
_symmetry_space_group_name_H-M   'P 1'
_cell_length_a   12.84344191
_cell_length_b   13.37461044
_cell_length_c   13.57689687
_cell_angle_alpha   119.50834868
_cell_angle_beta   118.22848601
_cell_angle_gamma   89.99999905
_symmetry_Int_Tables_number   1
_chemical_formula_structural   Ba11Sb10
_chemical_formula_sum   'Ba22 Sb20'
_cell_volume   1703.73398344
_cell_formula_units_Z   2
loop_
 _symmetry_equiv_pos_site_id
 _symmetry_equiv_pos_as_xyz
  1  'x, y, z'
loop_
 _atom_site_type_symbol
 _atom_site_label
 _atom_site_symmetry_multiplicity
 _atom_site_fract_x
 _atom_site_fract_y
 _atom_site_fract_z
 _atom_site_occupancy
  Sb  Sb0  1  0.385752  0.385752  0.771503  1
  Sb  Sb1  1  0.614248  0.614248  0.228497  1
  Sb  Sb2  1  0.744897  0.244897  0.489794  1
  Sb  Sb3  1  0.255103  0.755103  0.510206  1
  Sb  Sb4  1  0.500000  0.848838  1.000000  1
  Sb  Sb5  1  0.500000  0.151162  0.000000  1
  Sb  Sb6  1  0.114820  0.500000  1.000000  1
  Sb  Sb7  1  0.885180  0.500000  0.000000  1
  Sb  Sb8  1  0.398275  0.395215  0.369100  1
  Sb  Sb9  1  0.029174  0.604785  0.630900  1
  Sb  Sb10  1  0.601725  0.026115  0.630900  1
  Sb  Sb11  1  0.970826  0.973885  0.369100  1
  Sb  Sb12  1  0.601725  0.604785  0.630900  1
  Sb  Sb13  1  0.970826  0.395215  0.369100  1
  Sb  Sb14  1  0.398275  0.973885  0.369100  1
  Sb  Sb15  1  0.029174  0.026115  0.630900  1
  Sb  Sb16  1  0.109533  0.129902  1.000000  1
  Sb  Sb17  1  0.109533  0.870098  0.000000  1
  Sb  Sb18  1  0.890467  0.129902  1.000000  1
  Sb  Sb19  1  0.890467  0.870098  0.000000  1
  Ba  Ba20  1  0.110060  0.432897  0.220120  1
  Ba  Ba21  1  0.889940  0.567103  0.779880  1
  Ba  Ba22  1  0.889940  0.212777  0.779880  1
  Ba  Ba23  1  0.110060  0.787223  0.220120  1
  Ba  Ba24  1  0.148896  0.148896  0.297792  1
  Ba  Ba25  1  0.851104  0.851104  0.702208  1
  Ba  Ba26  1  0.313154  0.565322  0.626309  1
  Ba  Ba27  1  0.686846  0.434678  0.373691  1
  Ba  Ba28  1  0.686846  0.939013  0.373691  1
  Ba  Ba29  1  0.313154  0.060987  0.626309  1
  Ba  Ba30  1  0.428295  0.100182  0.200364  1
  Ba  Ba31  1  0.227931  0.899818  0.799636  1
  Ba  Ba32  1  0.571705  0.899818  0.799636  1
  Ba  Ba33  1  0.772069  0.100182  0.200364  1
  Ba  Ba34  1  0.553676  0.304088  0.608177  1
  Ba  Ba35  1  0.945499  0.695912  0.391823  1
  Ba  Ba36  1  0.446324  0.695912  0.391823  1
  Ba  Ba37  1  0.054501  0.304088  0.608177  1
  Ba  Ba38  1  0.326020  0.335238  1.000000  1
  Ba  Ba39  1  0.326020  0.664762  0.000000  1
  Ba  Ba40  1  0.673980  0.335238  1.000000  1
  Ba  Ba41  1  0.673980  0.664762  0.000000  1
