# generated using pymatgen
data_Fe7SiO10
_symmetry_space_group_name_H-M   'P 1'
_cell_length_a   3.04971939
_cell_length_b   6.05642319
_cell_length_c   21.93851553
_cell_angle_alpha   98.07395518
_cell_angle_beta   90.00000000
_cell_angle_gamma   90.00000000
_symmetry_Int_Tables_number   1
_chemical_formula_structural   Fe7SiO10
_chemical_formula_sum   'Fe14 Si2 O20'
_cell_volume   401.19633372
_cell_formula_units_Z   2
loop_
 _symmetry_equiv_pos_site_id
 _symmetry_equiv_pos_as_xyz
  1  'x, y, z'
loop_
 _atom_site_type_symbol
 _atom_site_label
 _atom_site_symmetry_multiplicity
 _atom_site_fract_x
 _atom_site_fract_y
 _atom_site_fract_z
 _atom_site_occupancy
  O  O0  1  0.749999  0.336776  0.953847  1
  O  O1  1  0.249999  0.663224  0.046153  1
  O  O2  1  0.749999  0.866351  0.955835  1
  O  O3  1  0.249999  0.133649  0.044165  1
  O  O4  1  0.249999  0.066026  0.853815  1
  O  O5  1  0.749999  0.933974  0.146185  1
  O  O6  1  0.249999  0.533467  0.850494  1
  O  O7  1  0.749999  0.466533  0.149506  1
  O  O8  1  0.749999  0.758485  0.753096  1
  O  O9  1  0.249999  0.241516  0.246904  1
  O  O10  1  0.749999  0.239543  0.730951  1
  O  O11  1  0.249999  0.760457  0.269049  1
  O  O12  1  0.249999  0.974077  0.650618  1
  O  O13  1  0.749999  0.025923  0.349382  1
  O  O14  1  0.249999  0.437781  0.653857  1
  O  O15  1  0.749999  0.562219  0.346143  1
  O  O16  1  0.749999  0.655170  0.561293  1
  O  O17  1  0.249999  0.344830  0.438707  1
  O  O18  1  0.249999  0.841547  0.459293  1
  O  O19  1  0.749999  0.158451  0.540707  1
  Si  Si20  1  0.749999  0.777118  0.309477  1
  Si  Si21  1  0.249999  0.222882  0.690523  1
  Fe  Fe22  1  0.249999  0.398403  0.552271  1
  Fe  Fe23  1  0.749999  0.399043  0.054754  1
  Fe  Fe24  1  0.749999  0.293919  0.839323  1
  Fe  Fe25  1  0.249999  0.706081  0.160677  1
  Fe  Fe26  1  0.249999  0.913795  0.553650  1
  Fe  Fe27  1  0.749999  0.086206  0.446350  1
  Fe  Fe28  1  0.249999  0.600955  0.945246  1
  Fe  Fe29  1  0.749999  0.601597  0.447729  1
  Fe  Fe30  1  0.249999  0.777701  0.803851  1
  Fe  Fe31  1  0.749999  0.222299  0.196149  1
  Fe  Fe32  1  0.749999  0.702901  0.658733  1
  Fe  Fe33  1  0.249999  0.297099  0.341267  1
  Fe  Fe34  1  0.749999  0.905152  0.052609  1
  Fe  Fe35  1  0.249999  0.094848  0.947391  1
