# generated using pymatgen
data_IClOF
_symmetry_space_group_name_H-M   'P 1'
_cell_length_a   7.27602059
_cell_length_b   8.08811475
_cell_length_c   13.08189188
_cell_angle_alpha   94.61369452
_cell_angle_beta   90.00000000
_cell_angle_gamma   90.00000000
_symmetry_Int_Tables_number   1
_chemical_formula_structural   IClOF
_chemical_formula_sum   'I8 Cl8 O8 F8'
_cell_volume   767.36544979
_cell_formula_units_Z   8
loop_
 _symmetry_equiv_pos_site_id
 _symmetry_equiv_pos_as_xyz
  1  'x, y, z'
loop_
 _atom_site_type_symbol
 _atom_site_label
 _atom_site_symmetry_multiplicity
 _atom_site_fract_x
 _atom_site_fract_y
 _atom_site_fract_z
 _atom_site_occupancy
  I  I0  1  0.603497  0.678935  0.588346  1
  I  I1  1  0.548922  0.355642  0.776877  1
  I  I2  1  0.451078  0.644358  0.223123  1
  I  I3  1  0.951078  0.855642  0.776877  1
  I  I4  1  0.103497  0.821065  0.411654  1
  I  I5  1  0.048922  0.144358  0.223123  1
  I  I6  1  0.396503  0.321065  0.411654  1
  I  I7  1  0.896503  0.178935  0.588346  1
  Cl  Cl8  1  0.762966  0.040180  0.157267  1
  Cl  Cl9  1  0.879609  0.714735  0.924406  1
  Cl  Cl10  1  0.620391  0.214735  0.924406  1
  Cl  Cl11  1  0.379609  0.785265  0.075594  1
  Cl  Cl12  1  0.737034  0.540180  0.157267  1
  Cl  Cl13  1  0.262966  0.459820  0.842733  1
  Cl  Cl14  1  0.120391  0.285265  0.075594  1
  Cl  Cl15  1  0.237034  0.959820  0.842733  1
  O  O16  1  0.025116  0.032402  0.389954  1
  O  O17  1  0.525116  0.467598  0.610046  1
  O  O18  1  0.655622  0.764389  0.718572  1
  O  O19  1  0.844378  0.264389  0.718572  1
  O  O20  1  0.974884  0.967598  0.610046  1
  O  O21  1  0.474884  0.532402  0.389954  1
  O  O22  1  0.155622  0.735611  0.281428  1
  O  O23  1  0.344378  0.235611  0.281428  1
  F  F24  1  0.142609  0.414719  0.424128  1
  F  F25  1  0.357391  0.914719  0.424128  1
  F  F26  1  0.152714  0.252292  0.609036  1
  F  F27  1  0.847286  0.747708  0.390964  1
  F  F28  1  0.642609  0.085281  0.575872  1
  F  F29  1  0.652714  0.247708  0.390964  1
  F  F30  1  0.857391  0.585281  0.575872  1
  F  F31  1  0.347286  0.752292  0.609036  1
