# generated using pymatgen
data_KPr6OsI10
_symmetry_space_group_name_H-M   'P 1'
_cell_length_a   13.86001790
_cell_length_b   14.33486276
_cell_length_c   15.82894102
_cell_angle_alpha   90.00000000
_cell_angle_beta   90.00000000
_cell_angle_gamma   90.00000000
_symmetry_Int_Tables_number   1
_chemical_formula_structural   KPr6OsI10
_chemical_formula_sum   'K4 Pr24 Os4 I40'
_cell_volume   3144.91702422
_cell_formula_units_Z   4
loop_
 _symmetry_equiv_pos_site_id
 _symmetry_equiv_pos_as_xyz
  1  'x, y, z'
loop_
 _atom_site_type_symbol
 _atom_site_label
 _atom_site_symmetry_multiplicity
 _atom_site_fract_x
 _atom_site_fract_y
 _atom_site_fract_z
 _atom_site_occupancy
  K  K0  1  0.750000  0.485427  0.441032  1
  K  K1  1  0.250000  0.985427  0.058968  1
  K  K2  1  0.250000  0.514573  0.558968  1
  K  K3  1  0.750000  0.014573  0.941032  1
  Pr  Pr4  1  0.106446  0.380702  0.058073  1
  Pr  Pr5  1  0.893554  0.880702  0.441927  1
  Pr  Pr6  1  0.250000  0.612588  0.984950  1
  Pr  Pr7  1  0.106446  0.119298  0.558073  1
  Pr  Pr8  1  0.750000  0.387412  0.015050  1
  Pr  Pr9  1  0.392201  0.615698  0.203154  1
  Pr  Pr10  1  0.893554  0.619298  0.941927  1
  Pr  Pr11  1  0.607799  0.384302  0.796846  1
  Pr  Pr12  1  0.892201  0.115698  0.296846  1
  Pr  Pr13  1  0.750000  0.611585  0.723957  1
  Pr  Pr14  1  0.107799  0.884302  0.703154  1
  Pr  Pr15  1  0.750000  0.112588  0.515050  1
  Pr  Pr16  1  0.606446  0.619298  0.941927  1
  Pr  Pr17  1  0.250000  0.111585  0.776043  1
  Pr  Pr18  1  0.392201  0.884302  0.703154  1
  Pr  Pr19  1  0.393554  0.380702  0.058073  1
  Pr  Pr20  1  0.107799  0.615698  0.203154  1
  Pr  Pr21  1  0.393554  0.119298  0.558073  1
  Pr  Pr22  1  0.892201  0.384302  0.796846  1
  Pr  Pr23  1  0.250000  0.388415  0.276043  1
  Pr  Pr24  1  0.750000  0.888415  0.223957  1
  Pr  Pr25  1  0.250000  0.887412  0.484950  1
  Pr  Pr26  1  0.606446  0.880702  0.441927  1
  Pr  Pr27  1  0.607799  0.115698  0.296846  1
  Os  Os28  1  0.750000  0.501176  0.871168  1
  Os  Os29  1  0.250000  0.001176  0.628832  1
  Os  Os30  1  0.250000  0.498824  0.128832  1
  Os  Os31  1  0.750000  0.998824  0.371168  1
  I  I32  1  0.417099  0.497100  0.877068  1
  I  I33  1  0.910776  0.763784  0.787488  1
  I  I34  1  0.076751  0.750786  0.038345  1
  I  I35  1  0.250000  0.231999  0.967958  1
  I  I36  1  0.423249  0.750786  0.038345  1
  I  I37  1  0.250000  0.774853  0.280787  1
  I  I38  1  0.082901  0.497100  0.877068  1
  I  I39  1  0.750000  0.225147  0.719213  1
  I  I40  1  0.750000  0.274853  0.219213  1
  I  I41  1  0.250000  0.268001  0.467958  1
  I  I42  1  0.910776  0.736216  0.287488  1
  I  I43  1  0.410776  0.236216  0.212512  1
  I  I44  1  0.914413  0.496957  0.621662  1
  I  I45  1  0.417099  0.002900  0.377068  1
  I  I46  1  0.582901  0.997100  0.622932  1
  I  I47  1  0.082901  0.002900  0.377068  1
  I  I48  1  0.585587  0.003043  0.121662  1
  I  I49  1  0.089224  0.236216  0.212512  1
  I  I50  1  0.576751  0.249214  0.961655  1
  I  I51  1  0.750000  0.731999  0.532042  1
  I  I52  1  0.914413  0.003043  0.121662  1
  I  I53  1  0.414413  0.503043  0.378338  1
  I  I54  1  0.410776  0.263784  0.712512  1
  I  I55  1  0.917099  0.502900  0.122932  1
  I  I56  1  0.414413  0.996957  0.878338  1
  I  I57  1  0.585587  0.496957  0.621662  1
  I  I58  1  0.750000  0.768001  0.032042  1
  I  I59  1  0.589224  0.763784  0.787488  1
  I  I60  1  0.589224  0.736216  0.287488  1
  I  I61  1  0.076751  0.749214  0.538345  1
  I  I62  1  0.923249  0.249214  0.961655  1
  I  I63  1  0.423249  0.749214  0.538345  1
  I  I64  1  0.917099  0.997100  0.622932  1
  I  I65  1  0.085587  0.996957  0.878338  1
  I  I66  1  0.089224  0.263784  0.712512  1
  I  I67  1  0.250000  0.725147  0.780787  1
  I  I68  1  0.923249  0.250786  0.461655  1
  I  I69  1  0.085587  0.503043  0.378338  1
  I  I70  1  0.582901  0.502900  0.122932  1
  I  I71  1  0.576751  0.250786  0.461655  1
