# generated using pymatgen
data_Rb2V2Cu(PO6)2
_symmetry_space_group_name_H-M   'P 1'
_cell_length_a   5.06289151
_cell_length_b   9.64014947
_cell_length_c   11.63820756
_cell_angle_alpha   90.00000000
_cell_angle_beta   90.00000000
_cell_angle_gamma   93.77155749
_symmetry_Int_Tables_number   1
_chemical_formula_structural   Rb2V2Cu(PO6)2
_chemical_formula_sum   'Rb4 V4 Cu2 P4 O24'
_cell_volume   566.79615062
_cell_formula_units_Z   2
loop_
 _symmetry_equiv_pos_site_id
 _symmetry_equiv_pos_as_xyz
  1  'x, y, z'
loop_
 _atom_site_type_symbol
 _atom_site_label
 _atom_site_symmetry_multiplicity
 _atom_site_fract_x
 _atom_site_fract_y
 _atom_site_fract_z
 _atom_site_occupancy
  Rb  Rb0  1  0.441720  0.105500  0.364387  1
  Rb  Rb1  1  0.558280  0.894500  0.635613  1
  Rb  Rb2  1  0.558280  0.394500  0.864387  1
  Rb  Rb3  1  0.441720  0.605500  0.135613  1
  V  V4  1  0.054416  0.749408  0.885235  1
  V  V5  1  0.945584  0.250592  0.114765  1
  V  V6  1  0.945584  0.750592  0.385235  1
  V  V7  1  0.054416  0.249408  0.614765  1
  Cu  Cu8  1  0.500000  0.000000  0.000000  1
  Cu  Cu9  1  0.500000  0.500000  0.500000  1
  P  P10  1  0.010594  0.082634  0.862677  1
  P  P11  1  0.989406  0.917366  0.137323  1
  P  P12  1  0.989406  0.417366  0.362677  1
  P  P13  1  0.010594  0.582634  0.637323  1
  O  O14  1  0.069633  0.070110  0.171704  1
  O  O15  1  0.068519  0.320311  0.264631  1
  O  O16  1  0.100768  0.864837  0.472039  1
  O  O17  1  0.631292  0.285423  0.126596  1
  O  O18  1  0.899232  0.135163  0.527961  1
  O  O19  1  0.899232  0.635163  0.972039  1
  O  O20  1  0.835633  0.118963  0.969726  1
  O  O21  1  0.930367  0.429890  0.671704  1
  O  O22  1  0.931481  0.679689  0.735369  1
  O  O23  1  0.835633  0.618963  0.530274  1
  O  O24  1  0.691832  0.394191  0.389528  1
  O  O25  1  0.164367  0.381037  0.469726  1
  O  O26  1  0.068519  0.820311  0.235369  1
  O  O27  1  0.164367  0.881037  0.030274  1
  O  O28  1  0.631292  0.785423  0.373404  1
  O  O29  1  0.308168  0.105809  0.889528  1
  O  O30  1  0.100768  0.364837  0.027961  1
  O  O31  1  0.691832  0.894191  0.110472  1
  O  O32  1  0.368708  0.214577  0.626596  1
  O  O33  1  0.368708  0.714577  0.873404  1
  O  O34  1  0.930367  0.929890  0.828296  1
  O  O35  1  0.308168  0.605809  0.610472  1
  O  O36  1  0.069633  0.570110  0.328296  1
  O  O37  1  0.931481  0.179689  0.764631  1
