# generated using pymatgen
data_SrMgF4
_symmetry_space_group_name_H-M   'P 1'
_cell_length_a   7.78929860
_cell_length_b   8.15280088
_cell_length_c   16.80398630
_cell_angle_alpha   90.00000000
_cell_angle_beta   90.00000000
_cell_angle_gamma   105.18642335
_symmetry_Int_Tables_number   1
_chemical_formula_structural   SrMgF4
_chemical_formula_sum   'Sr12 Mg12 F48'
_cell_volume   1029.86474190
_cell_formula_units_Z   12
loop_
 _symmetry_equiv_pos_site_id
 _symmetry_equiv_pos_as_xyz
  1  'x, y, z'
loop_
 _atom_site_type_symbol
 _atom_site_label
 _atom_site_symmetry_multiplicity
 _atom_site_fract_x
 _atom_site_fract_y
 _atom_site_fract_z
 _atom_site_occupancy
  Sr  Sr0  1  0.839413  0.835014  0.081962  1
  Sr  Sr1  1  0.160587  0.164986  0.581962  1
  Sr  Sr2  1  0.836257  0.833555  0.750000  1
  Sr  Sr3  1  0.164156  0.666345  0.915329  1
  Sr  Sr4  1  0.843853  0.336316  0.750000  1
  Sr  Sr5  1  0.835844  0.333655  0.415329  1
  Sr  Sr6  1  0.163743  0.166445  0.250000  1
  Sr  Sr7  1  0.164156  0.666345  0.584671  1
  Sr  Sr8  1  0.839413  0.835014  0.418038  1
  Sr  Sr9  1  0.835844  0.333655  0.084671  1
  Sr  Sr10  1  0.156147  0.663684  0.250000  1
  Sr  Sr11  1  0.160587  0.164986  0.918038  1
  Mg  Mg12  1  0.675798  0.043774  0.250000  1
  Mg  Mg13  1  0.679003  0.544759  0.917238  1
  Mg  Mg14  1  0.677137  0.044416  0.583295  1
  Mg  Mg15  1  0.322863  0.955584  0.083295  1
  Mg  Mg16  1  0.328339  0.457167  0.750000  1
  Mg  Mg17  1  0.671661  0.542833  0.250000  1
  Mg  Mg18  1  0.320997  0.455241  0.417238  1
  Mg  Mg19  1  0.322863  0.955584  0.416705  1
  Mg  Mg20  1  0.320997  0.455241  0.082762  1
  Mg  Mg21  1  0.677137  0.044416  0.916705  1
  Mg  Mg22  1  0.679003  0.544759  0.582762  1
  Mg  Mg23  1  0.324202  0.956226  0.750000  1
  F  F24  1  0.127494  0.408987  0.499920  1
  F  F25  1  0.299539  0.699901  0.415416  1
  F  F26  1  0.506683  0.509722  0.667544  1
  F  F27  1  0.308306  0.202286  0.750000  1
  F  F28  1  0.124192  0.406265  0.334559  1
  F  F29  1  0.872506  0.591013  0.999920  1
  F  F30  1  0.127494  0.408987  0.000080  1
  F  F31  1  0.872362  0.093319  0.834013  1
  F  F32  1  0.292743  0.198007  0.419066  1
  F  F33  1  0.691694  0.797714  0.250000  1
  F  F34  1  0.499277  0.007254  0.166541  1
  F  F35  1  0.707257  0.801993  0.919066  1
  F  F36  1  0.500723  0.992746  0.666541  1
  F  F37  1  0.875808  0.593735  0.665441  1
  F  F38  1  0.700461  0.300099  0.584584  1
  F  F39  1  0.128519  0.909476  0.832401  1
  F  F40  1  0.872309  0.095151  0.500501  1
  F  F41  1  0.493317  0.490278  0.332456  1
  F  F42  1  0.127638  0.906681  0.165987  1
  F  F43  1  0.127638  0.906681  0.334013  1
  F  F44  1  0.132841  0.405969  0.832553  1
  F  F45  1  0.867159  0.594031  0.167447  1
  F  F46  1  0.700461  0.300099  0.915416  1
  F  F47  1  0.706447  0.301651  0.250000  1
  F  F48  1  0.871481  0.090524  0.167599  1
  F  F49  1  0.500000  0.500000  0.000000  1
  F  F50  1  0.875808  0.593735  0.834559  1
  F  F51  1  0.500723  0.992746  0.833459  1
  F  F52  1  0.867159  0.594031  0.332553  1
  F  F53  1  0.707257  0.801993  0.580934  1
  F  F54  1  0.128519  0.909476  0.667599  1
  F  F55  1  0.132841  0.405969  0.667447  1
  F  F56  1  0.871481  0.090524  0.332401  1
  F  F57  1  0.127691  0.904849  0.499499  1
  F  F58  1  0.872309  0.095151  0.999499  1
  F  F59  1  0.299539  0.699901  0.084584  1
  F  F60  1  0.292743  0.198007  0.080934  1
  F  F61  1  0.127691  0.904849  0.000501  1
  F  F62  1  0.499277  0.007254  0.333459  1
  F  F63  1  0.500000  0.500000  0.500000  1
  F  F64  1  0.506683  0.509722  0.832456  1
  F  F65  1  0.124192  0.406265  0.165441  1
  F  F66  1  0.493317  0.490278  0.167544  1
  F  F67  1  0.872362  0.093319  0.665987  1
  F  F68  1  0.293553  0.698349  0.750000  1
  F  F69  1  0.500000  0.000000  0.500000  1
  F  F70  1  0.872506  0.591013  0.500080  1
  F  F71  1  0.500000  0.000000  0.000000  1
