# generated using pymatgen
data_NaY(PO3)4
_symmetry_space_group_name_H-M   'P 1'
_cell_length_a   7.26931370
_cell_length_b   9.82634663
_cell_length_c   13.20484278
_cell_angle_alpha   90.00000000
_cell_angle_beta   90.00000000
_cell_angle_gamma   90.45133133
_symmetry_Int_Tables_number   1
_chemical_formula_structural   NaY(PO3)4
_chemical_formula_sum   'Na4 Y4 P16 O48'
_cell_volume   943.20316915
_cell_formula_units_Z   4
loop_
 _symmetry_equiv_pos_site_id
 _symmetry_equiv_pos_as_xyz
  1  'x, y, z'
loop_
 _atom_site_type_symbol
 _atom_site_label
 _atom_site_symmetry_multiplicity
 _atom_site_fract_x
 _atom_site_fract_y
 _atom_site_fract_z
 _atom_site_occupancy
  Na  Na0  1  0.000754  0.938371  0.778004  1
  Na  Na1  1  0.499246  0.561629  0.278004  1
  Na  Na2  1  0.500754  0.438371  0.721996  1
  Na  Na3  1  0.999246  0.061629  0.221996  1
  Y  Y4  1  0.987652  0.522745  0.720320  1
  Y  Y5  1  0.512348  0.977255  0.220320  1
  Y  Y6  1  0.012348  0.477255  0.279680  1
  Y  Y7  1  0.487652  0.022745  0.779680  1
  P  P8  1  0.749494  0.755419  0.897054  1
  P  P9  1  0.733008  0.296626  0.907759  1
  P  P10  1  0.266992  0.703374  0.092241  1
  P  P11  1  0.766992  0.203374  0.407759  1
  P  P12  1  0.852943  0.197515  0.627632  1
  P  P13  1  0.374829  0.263233  0.385258  1
  P  P14  1  0.750506  0.744581  0.397054  1
  P  P15  1  0.233008  0.796626  0.592241  1
  P  P16  1  0.625171  0.736767  0.614742  1
  P  P17  1  0.249494  0.255419  0.602946  1
  P  P18  1  0.147057  0.802485  0.372368  1
  P  P19  1  0.647057  0.302485  0.127632  1
  P  P20  1  0.125171  0.236767  0.885258  1
  P  P21  1  0.250506  0.244581  0.102946  1
  P  P22  1  0.352943  0.697515  0.872368  1
  P  P23  1  0.874829  0.763233  0.114742  1
  O  O24  1  0.704379  0.603538  0.648364  1
  O  O25  1  0.631649  0.853636  0.687208  1
  O  O26  1  0.713061  0.905597  0.888432  1
  O  O27  1  0.574668  0.201641  0.886771  1
  O  O28  1  0.368351  0.146364  0.312792  1
  O  O29  1  0.094913  0.298739  0.166695  1
  O  O30  1  0.283571  0.638952  0.979862  1
  O  O31  1  0.237543  0.585427  0.162796  1
  O  O32  1  0.723663  0.393903  0.208636  1
  O  O33  1  0.825887  0.348407  0.633935  1
  O  O34  1  0.584333  0.295197  0.418777  1
  O  O35  1  0.570029  0.663853  0.874512  1
  O  O36  1  0.782770  0.709529  0.012273  1
  O  O37  1  0.174113  0.651593  0.366065  1
  O  O38  1  0.295621  0.396462  0.351636  1
  O  O39  1  0.795621  0.896462  0.148364  1
  O  O40  1  0.783571  0.138952  0.520138  1
  O  O41  1  0.131649  0.353636  0.812792  1
  O  O42  1  0.213061  0.405597  0.611568  1
  O  O43  1  0.325887  0.848407  0.866065  1
  O  O44  1  0.415667  0.704803  0.581223  1
  O  O45  1  0.216429  0.861048  0.479862  1
  O  O46  1  0.262457  0.914573  0.662796  1
  O  O47  1  0.737543  0.085427  0.337204  1
  O  O48  1  0.762457  0.414573  0.837204  1
  O  O49  1  0.074668  0.701641  0.613229  1
  O  O50  1  0.204379  0.103538  0.851636  1
  O  O51  1  0.868351  0.646364  0.187208  1
  O  O52  1  0.425332  0.798359  0.113229  1
  O  O53  1  0.776337  0.106097  0.708636  1
  O  O54  1  0.786939  0.594403  0.388432  1
  O  O55  1  0.286939  0.094403  0.111568  1
  O  O56  1  0.929971  0.836147  0.374512  1
  O  O57  1  0.217230  0.290471  0.987727  1
  O  O58  1  0.674113  0.151593  0.133935  1
  O  O59  1  0.925332  0.298359  0.386771  1
  O  O60  1  0.405087  0.201261  0.666695  1
  O  O61  1  0.070029  0.163853  0.625488  1
  O  O62  1  0.276337  0.606097  0.791364  1
  O  O63  1  0.429971  0.336147  0.125488  1
  O  O64  1  0.915667  0.204803  0.918777  1
  O  O65  1  0.223663  0.893903  0.291364  1
  O  O66  1  0.282770  0.209529  0.487727  1
  O  O67  1  0.594913  0.798739  0.333305  1
  O  O68  1  0.717230  0.790471  0.512273  1
  O  O69  1  0.716429  0.361048  0.020138  1
  O  O70  1  0.084333  0.795197  0.081223  1
  O  O71  1  0.905087  0.701261  0.833305  1
