# generated using pymatgen
data_Zr2(Ni7B2)3
_symmetry_space_group_name_H-M   'P 1'
_cell_length_a   7.48612339
_cell_length_b   7.48612339
_cell_length_c   7.48612339
_cell_angle_alpha   60.00000003
_cell_angle_beta   60.00000003
_cell_angle_gamma   59.99999999
_symmetry_Int_Tables_number   1
_chemical_formula_structural   Zr2(Ni7B2)3
_chemical_formula_sum   'Zr2 Ni21 B6'
_cell_volume   296.65791850
_cell_formula_units_Z   1
loop_
 _symmetry_equiv_pos_site_id
 _symmetry_equiv_pos_as_xyz
  1  'x, y, z'
loop_
 _atom_site_type_symbol
 _atom_site_label
 _atom_site_symmetry_multiplicity
 _atom_site_fract_x
 _atom_site_fract_y
 _atom_site_fract_z
 _atom_site_occupancy
  B  B0  1  0.268517  0.731483  0.731483  1
  B  B1  1  0.268517  0.731483  0.268517  1
  B  B2  1  0.731483  0.731483  0.268517  1
  B  B3  1  0.731483  0.268517  0.268517  1
  B  B4  1  0.731483  0.268517  0.731483  1
  B  B5  1  0.268517  0.268517  0.731483  1
  Ni  Ni6  1  0.158724  0.613759  0.613759  1
  Ni  Ni7  1  0.841276  0.386241  0.386241  1
  Ni  Ni8  1  0.386241  0.841276  0.386241  1
  Ni  Ni9  1  0.386241  0.386241  0.841276  1
  Ni  Ni10  1  0.613759  0.613759  0.613759  1
  Ni  Ni11  1  0.338879  0.000000  0.000000  1
  Ni  Ni12  1  0.000000  0.000000  0.338879  1
  Ni  Ni13  1  0.613759  0.158724  0.613759  1
  Ni  Ni14  1  0.000000  0.338879  0.661121  1
  Ni  Ni15  1  0.000000  0.661121  0.338879  1
  Ni  Ni16  1  0.000000  0.338879  0.000000  1
  Ni  Ni17  1  0.338879  0.000000  0.661121  1
  Ni  Ni18  1  0.661121  0.338879  0.000000  1
  Ni  Ni19  1  0.000000  0.661121  0.000000  1
  Ni  Ni20  1  0.661121  0.000000  0.338879  1
  Ni  Ni21  1  0.000000  0.000000  0.661121  1
  Ni  Ni22  1  0.661121  0.000000  0.000000  1
  Ni  Ni23  1  0.386241  0.386241  0.386241  1
  Ni  Ni24  1  0.000000  0.000000  0.000000  1
  Ni  Ni25  1  0.338879  0.661121  0.000000  1
  Ni  Ni26  1  0.613759  0.613759  0.158724  1
  Zr  Zr27  1  0.750000  0.750000  0.750000  1
  Zr  Zr28  1  0.250000  0.250000  0.250000  1
