# generated using pymatgen
data_Al22Mo5
_symmetry_space_group_name_H-M   'P 1'
_cell_length_a   4.94540840
_cell_length_b   5.21760454
_cell_length_c   37.03889044
_cell_angle_alpha   88.18695133
_cell_angle_beta   86.17210144
_cell_angle_gamma   61.71123193
_symmetry_Int_Tables_number   1
_chemical_formula_structural   Al22Mo5
_chemical_formula_sum   'Al44 Mo10'
_cell_volume   839.70231746
_cell_formula_units_Z   2
loop_
 _symmetry_equiv_pos_site_id
 _symmetry_equiv_pos_as_xyz
  1  'x, y, z'
loop_
 _atom_site_type_symbol
 _atom_site_label
 _atom_site_symmetry_multiplicity
 _atom_site_fract_x
 _atom_site_fract_y
 _atom_site_fract_z
 _atom_site_occupancy
  Al  Al0  1  0.060767  0.042697  0.208655  1
  Al  Al1  1  0.599696  0.949708  0.167594  1
  Al  Al2  1  0.453025  0.455698  0.982568  1
  Al  Al3  1  0.276960  0.664508  0.628445  1
  Al  Al4  1  0.608294  0.147934  0.444411  1
  Al  Al5  1  0.302706  0.647934  0.055589  1
  Al  Al6  1  0.716997  0.050292  0.832406  1
  Al  Al7  1  0.006229  0.352066  0.944411  1
  Al  Al8  1  0.592000  0.254569  0.905706  1
  Al  Al9  1  0.200640  0.852066  0.555589  1
  Al  Al10  1  0.560439  0.920457  0.962327  1
  Al  Al11  1  0.879249  0.413143  0.744423  1
  Al  Al12  1  0.153380  0.506750  0.182853  1
  Al  Al13  1  0.353464  0.457303  0.708655  1
  Al  Al14  1  0.857491  0.210419  0.073396  1
  Al  Al15  1  0.443223  0.079543  0.037673  1
  Al  Al16  1  0.317910  0.289581  0.573395  1
  Al  Al17  1  0.155405  0.164508  0.871555  1
  Al  Al18  1  0.312119  0.957303  0.791345  1
  Al  Al19  1  0.519422  0.542697  0.291345  1
  Al  Al20  1  0.036814  0.586857  0.255577  1
  Al  Al21  1  0.891290  0.544302  0.017432  1
  Al  Al22  1  0.730896  0.579543  0.462327  1
  Al  Al23  1  0.158722  0.044302  0.482568  1
  Al  Al24  1  0.586233  0.006750  0.317147  1
  Al  Al25  1  0.842984  0.493250  0.817147  1
  Al  Al26  1  0.366203  0.133725  0.648696  1
  Al  Al27  1  0.772766  0.420457  0.537673  1
  Al  Al28  1  0.141306  0.789581  0.926605  1
  Al  Al29  1  0.017289  0.449708  0.332406  1
  Al  Al30  1  0.180886  0.710419  0.426604  1
  Al  Al31  1  0.685592  0.955698  0.517432  1
  Al  Al32  1  0.749928  0.366275  0.148696  1
  Al  Al33  1  0.873671  0.913143  0.755577  1
  Al  Al34  1  0.191469  0.835492  0.128445  1
  Al  Al35  1  0.148624  0.866275  0.351304  1
  Al  Al36  1  0.747706  0.754569  0.594294  1
  Al  Al37  1  0.096569  0.245431  0.405706  1
  Al  Al38  1  0.799403  0.550292  0.667594  1
  Al  Al39  1  0.752275  0.745431  0.094294  1
  Al  Al40  1  0.542392  0.086857  0.244423  1
  Al  Al41  1  0.910131  0.993250  0.682853  1
  Al  Al42  1  0.264899  0.633725  0.851304  1
  Al  Al43  1  0.569914  0.335492  0.371555  1
  Mo  Mo44  1  0.057736  0.074349  0.281970  1
  Mo  Mo45  1  0.698238  0.711384  0.890294  1
  Mo  Mo46  1  0.659622  0.788616  0.390294  1
  Mo  Mo47  1  0.382085  0.425651  0.781970  1
  Mo  Mo48  1  0.414054  0.925651  0.718030  1
  Mo  Mo49  1  0.999567  0.000000  0.000000  1
  Mo  Mo50  1  0.589705  0.574349  0.218030  1
  Mo  Mo51  1  0.838532  0.211384  0.609706  1
  Mo  Mo52  1  0.299916  0.288616  0.109706  1
  Mo  Mo53  1  0.249567  0.500000  0.500000  1
