# generated using pymatgen
data_Ta3Si
_symmetry_space_group_name_H-M   'P 1'
_cell_length_a   5.21255919
_cell_length_b   10.22593895
_cell_length_c   10.22593895
_cell_angle_alpha   90.00000000
_cell_angle_beta   90.00000000
_cell_angle_gamma   90.00000000
_symmetry_Int_Tables_number   1
_chemical_formula_structural   Ta3Si
_chemical_formula_sum   'Ta24 Si8'
_cell_volume   545.07641486
_cell_formula_units_Z   8
loop_
 _symmetry_equiv_pos_site_id
 _symmetry_equiv_pos_as_xyz
  1  'x, y, z'
loop_
 _atom_site_type_symbol
 _atom_site_label
 _atom_site_symmetry_multiplicity
 _atom_site_fract_x
 _atom_site_fract_y
 _atom_site_fract_z
 _atom_site_occupancy
  Ta  Ta0  1  0.523317  0.896312  0.767435  1
  Ta  Ta1  1  0.279579  0.335994  0.650268  1
  Ta  Ta2  1  0.763091  0.062016  0.963263  1
  Ta  Ta3  1  0.720421  0.835994  0.150268  1
  Ta  Ta4  1  0.023317  0.267435  0.103688  1
  Ta  Ta5  1  0.476683  0.396312  0.267435  1
  Ta  Ta6  1  0.236909  0.937984  0.036737  1
  Ta  Ta7  1  0.763091  0.437984  0.536737  1
  Ta  Ta8  1  0.263091  0.463263  0.937984  1
  Ta  Ta9  1  0.779579  0.150268  0.664006  1
  Ta  Ta10  1  0.736909  0.536737  0.062016  1
  Ta  Ta11  1  0.976683  0.767435  0.603688  1
  Ta  Ta12  1  0.976683  0.732565  0.896312  1
  Ta  Ta13  1  0.023317  0.232565  0.396312  1
  Ta  Ta14  1  0.236909  0.562016  0.463263  1
  Ta  Ta15  1  0.220421  0.650268  0.164006  1
  Ta  Ta16  1  0.263091  0.036737  0.562016  1
  Ta  Ta17  1  0.279579  0.164006  0.849732  1
  Ta  Ta18  1  0.220421  0.849732  0.335994  1
  Ta  Ta19  1  0.720421  0.664006  0.349732  1
  Ta  Ta20  1  0.476683  0.103688  0.232565  1
  Ta  Ta21  1  0.736909  0.963263  0.437984  1
  Ta  Ta22  1  0.523317  0.603688  0.732565  1
  Ta  Ta23  1  0.779579  0.349732  0.835994  1
  Si  Si24  1  0.970709  0.044811  0.220963  1
  Si  Si25  1  0.529291  0.220963  0.455189  1
  Si  Si26  1  0.529291  0.279037  0.044811  1
  Si  Si27  1  0.029291  0.544811  0.720963  1
  Si  Si28  1  0.470709  0.779037  0.544811  1
  Si  Si29  1  0.970709  0.455189  0.279037  1
  Si  Si30  1  0.470709  0.720963  0.955189  1
  Si  Si31  1  0.029291  0.955189  0.779037  1
