# generated using pymatgen
data_BaLaGaO4
_symmetry_space_group_name_H-M   'P 1'
_cell_length_a   5.96565224
_cell_length_b   7.32680489
_cell_length_c   10.08654203
_cell_angle_alpha   90.00000000
_cell_angle_beta   90.00000000
_cell_angle_gamma   90.00000000
_symmetry_Int_Tables_number   1
_chemical_formula_structural   BaLaGaO4
_chemical_formula_sum   'Ba4 La4 Ga4 O16'
_cell_volume   440.87438034
_cell_formula_units_Z   4
loop_
 _symmetry_equiv_pos_site_id
 _symmetry_equiv_pos_as_xyz
  1  'x, y, z'
loop_
 _atom_site_type_symbol
 _atom_site_label
 _atom_site_symmetry_multiplicity
 _atom_site_fract_x
 _atom_site_fract_y
 _atom_site_fract_z
 _atom_site_occupancy
  Ba  Ba0  1  0.760072  0.667893  0.329526  1
  Ba  Ba1  1  0.260072  0.332107  0.170474  1
  Ba  Ba2  1  0.739928  0.167893  0.670474  1
  Ba  Ba3  1  0.239928  0.832107  0.829526  1
  La  La4  1  0.763235  0.503753  0.950508  1
  La  La5  1  0.263235  0.496247  0.549492  1
  La  La6  1  0.736765  0.003753  0.049492  1
  La  La7  1  0.236765  0.996247  0.450508  1
  Ga  Ga8  1  0.735651  0.717615  0.666098  1
  Ga  Ga9  1  0.235651  0.282385  0.833902  1
  Ga  Ga10  1  0.764349  0.217615  0.333902  1
  Ga  Ga11  1  0.264349  0.782385  0.166098  1
  O  O12  1  0.747250  0.848843  0.826200  1
  O  O13  1  0.247250  0.151157  0.673800  1
  O  O14  1  0.752750  0.348843  0.173800  1
  O  O15  1  0.252750  0.651157  0.326200  1
  O  O16  1  0.506994  0.808349  0.554391  1
  O  O17  1  0.006994  0.191651  0.945609  1
  O  O18  1  0.993006  0.308349  0.445609  1
  O  O19  1  0.493006  0.691651  0.054391  1
  O  O20  1  0.601068  0.497897  0.713654  1
  O  O21  1  0.101068  0.502103  0.786346  1
  O  O22  1  0.898932  0.997897  0.286346  1
  O  O23  1  0.398932  0.002103  0.213654  1
  O  O24  1  0.997546  0.761683  0.569797  1
  O  O25  1  0.497546  0.238317  0.930203  1
  O  O26  1  0.502454  0.261683  0.430203  1
  O  O27  1  0.002454  0.738317  0.069797  1
