# generated using pymatgen
data_UV2PbO9
_symmetry_space_group_name_H-M   'P 1'
_cell_length_a   7.02373132
_cell_length_b   9.91282848
_cell_length_c   12.05696966
_cell_angle_alpha   90.00000000
_cell_angle_beta   92.65001438
_cell_angle_gamma   90.00000000
_symmetry_Int_Tables_number   1
_chemical_formula_structural   UV2PbO9
_chemical_formula_sum   'U4 V8 Pb4 O36'
_cell_volume   838.56930801
_cell_formula_units_Z   4
loop_
 _symmetry_equiv_pos_site_id
 _symmetry_equiv_pos_as_xyz
  1  'x, y, z'
loop_
 _atom_site_type_symbol
 _atom_site_label
 _atom_site_symmetry_multiplicity
 _atom_site_fract_x
 _atom_site_fract_y
 _atom_site_fract_z
 _atom_site_occupancy
  U  U0  1  0.453593  -0.000063  0.728891  1
  U  U1  1  0.546407  1.000063  0.271109  1
  U  U2  1  0.953593  0.500063  0.228891  1
  U  U3  1  0.046407  0.499937  0.771109  1
  V  V4  1  0.779116  0.727481  0.461740  1
  V  V5  1  0.279116  0.772519  0.961740  1
  V  V6  1  0.095573  0.042025  0.330152  1
  V  V7  1  0.404427  0.542025  0.169848  1
  V  V8  1  0.720884  0.227481  0.038260  1
  V  V9  1  0.595573  0.457975  0.830152  1
  V  V10  1  0.904427  0.957975  0.669848  1
  V  V11  1  0.220884  0.272519  0.538260  1
  Pb  Pb12  1  0.311651  0.693361  0.463616  1
  Pb  Pb13  1  0.811651  0.806639  0.963616  1
  Pb  Pb14  1  0.688349  0.306639  0.536384  1
  Pb  Pb15  1  0.188349  0.193361  0.036384  1
  O  O16  1  0.409129  0.649647  0.049065  1
  O  O17  1  0.909129  0.850353  0.549065  1
  O  O18  1  0.062971  0.343389  0.628798  1
  O  O19  1  0.062996  0.376631  0.884629  1
  O  O20  1  0.727572  0.387416  0.727903  1
  O  O21  1  0.272428  0.612584  0.272097  1
  O  O22  1  0.403084  0.187842  0.613356  1
  O  O23  1  0.042313  0.620313  0.657150  1
  O  O24  1  0.132179  0.001789  0.718941  1
  O  O25  1  0.090871  0.149647  0.450935  1
  O  O26  1  0.596916  0.812158  0.386644  1
  O  O27  1  0.756102  0.091156  0.638171  1
  O  O28  1  0.937029  0.656611  0.371202  1
  O  O29  1  0.957687  0.379687  0.342850  1
  O  O30  1  0.256102  0.408844  0.138171  1
  O  O31  1  0.227572  0.112584  0.227903  1
  O  O32  1  0.158890  0.894363  0.026257  1
  O  O33  1  0.096916  0.687842  0.886644  1
  O  O34  1  0.937004  0.623369  0.115371  1
  O  O35  1  0.542313  0.879687  0.157150  1
  O  O36  1  0.590871  0.350353  0.950935  1
  O  O37  1  0.562996  0.123369  0.384629  1
  O  O38  1  0.341110  0.394363  0.473743  1
  O  O39  1  0.437029  0.843389  0.871202  1
  O  O40  1  0.243898  0.908844  0.361829  1
  O  O41  1  0.743898  0.591156  0.861829  1
  O  O42  1  0.658890  0.605637  0.526257  1
  O  O43  1  0.772428  0.887416  0.772097  1
  O  O44  1  0.867821  0.998211  0.281059  1
  O  O45  1  0.903084  0.312158  0.113356  1
  O  O46  1  0.437004  0.876631  0.615371  1
  O  O47  1  0.457687  0.120313  0.842850  1
  O  O48  1  0.367821  0.501789  0.781059  1
  O  O49  1  0.562971  0.156611  0.128798  1
  O  O50  1  0.632179  0.498211  0.218941  1
  O  O51  1  0.841110  0.105637  0.973743  1
