# generated using pymatgen
data_RbCO2
_symmetry_space_group_name_H-M   'P 1'
_cell_length_a   6.47876929
_cell_length_b   8.34540706
_cell_length_c   10.65006215
_cell_angle_alpha   90.00000000
_cell_angle_beta   90.00000000
_cell_angle_gamma   97.66291770
_symmetry_Int_Tables_number   1
_chemical_formula_structural   RbCO2
_chemical_formula_sum   'Rb8 C8 O16'
_cell_volume   570.68490429
_cell_formula_units_Z   8
loop_
 _symmetry_equiv_pos_site_id
 _symmetry_equiv_pos_as_xyz
  1  'x, y, z'
loop_
 _atom_site_type_symbol
 _atom_site_label
 _atom_site_symmetry_multiplicity
 _atom_site_fract_x
 _atom_site_fract_y
 _atom_site_fract_z
 _atom_site_occupancy
  Rb  Rb0  1  0.230734  0.334065  0.584134  1
  Rb  Rb1  1  0.716413  0.019957  0.705396  1
  Rb  Rb2  1  0.230734  0.834065  0.915866  1
  Rb  Rb3  1  0.769266  0.165935  0.084134  1
  Rb  Rb4  1  0.283587  0.480043  0.205396  1
  Rb  Rb5  1  0.769266  0.665935  0.415866  1
  Rb  Rb6  1  0.283587  0.980043  0.294604  1
  Rb  Rb7  1  0.716413  0.519957  0.794604  1
  C  C8  1  0.833072  0.658478  0.106570  1
  C  C9  1  0.687040  0.272906  0.445392  1
  C  C10  1  0.312960  0.727094  0.554608  1
  C  C11  1  0.166928  0.841522  0.606570  1
  C  C12  1  0.166928  0.341522  0.893430  1
  C  C13  1  0.312960  0.227094  0.945392  1
  C  C14  1  0.687040  0.772906  0.054608  1
  C  C15  1  0.833072  0.158478  0.393430  1
  O  O16  1  0.275341  0.670295  0.444303  1
  O  O17  1  0.724659  0.329705  0.555697  1
  O  O18  1  0.540560  0.804775  0.126213  1
  O  O19  1  0.001709  0.725960  0.156478  1
  O  O20  1  0.540560  0.304775  0.373787  1
  O  O21  1  0.774372  0.507588  0.097671  1
  O  O22  1  0.001709  0.225960  0.343522  1
  O  O23  1  0.998291  0.274040  0.843522  1
  O  O24  1  0.225628  0.992412  0.597671  1
  O  O25  1  0.225628  0.492412  0.902329  1
  O  O26  1  0.459440  0.695225  0.626213  1
  O  O27  1  0.998291  0.774040  0.656478  1
  O  O28  1  0.459440  0.195225  0.873787  1
  O  O29  1  0.724659  0.829705  0.944303  1
  O  O30  1  0.275341  0.170295  0.055697  1
  O  O31  1  0.774372  0.007588  0.402329  1
