# generated using pymatgen
data_PW5O17
_symmetry_space_group_name_H-M   'P 1'
_cell_length_a   5.43588232
_cell_length_b   6.71155324
_cell_length_c   36.75418301
_cell_angle_alpha   90.00000000
_cell_angle_beta   90.00000000
_cell_angle_gamma   90.00720405
_symmetry_Int_Tables_number   1
_chemical_formula_structural   PW5O17
_chemical_formula_sum   'P4 W20 O68'
_cell_volume   1340.91069749
_cell_formula_units_Z   4
loop_
 _symmetry_equiv_pos_site_id
 _symmetry_equiv_pos_as_xyz
  1  'x, y, z'
loop_
 _atom_site_type_symbol
 _atom_site_label
 _atom_site_symmetry_multiplicity
 _atom_site_fract_x
 _atom_site_fract_y
 _atom_site_fract_z
 _atom_site_occupancy
  P  P0  1  0.995073  0.444550  0.199887  1
  P  P1  1  0.004927  0.555450  0.699887  1
  P  P2  1  0.504371  0.944545  0.260956  1
  P  P3  1  0.495629  0.055455  0.760956  1
  W  W4  1  0.496137  0.750478  0.171791  1
  W  W5  1  0.503863  0.249522  0.671791  1
  W  W6  1  0.003095  0.250444  0.289054  1
  W  W7  1  0.996905  0.749556  0.789054  1
  W  W8  1  0.995186  0.088798  0.129575  1
  W  W9  1  0.004814  0.911202  0.629575  1
  W  W10  1  0.504345  0.588729  0.331248  1
  W  W11  1  0.495655  0.411271  0.831248  1
  W  W12  1  0.495387  0.419660  0.085882  1
  W  W13  1  0.504613  0.580340  0.585882  1
  W  W14  1  0.004099  0.919463  0.374940  1
  W  W15  1  0.995901  0.080537  0.874940  1
  W  W16  1  0.994735  0.753301  0.043792  1
  W  W17  1  0.005265  0.246699  0.543792  1
  W  W18  1  0.504974  0.253057  0.417021  1
  W  W19  1  0.495026  0.746943  0.917021  1
  W  W20  1  0.495008  0.083779  0.001302  1
  W  W21  1  0.504992  0.916221  0.501302  1
  W  W22  1  0.004956  0.583497  0.459496  1
  W  W23  1  0.995044  0.416503  0.959496  1
  O  O24  1  0.996112  0.256005  0.176113  1
  O  O25  1  0.003888  0.743995  0.676113  1
  O  O26  1  0.502635  0.755903  0.284703  1
  O  O27  1  0.497365  0.244097  0.784703  1
  O  O28  1  0.995495  0.917324  0.089946  1
  O  O29  1  0.004505  0.082676  0.589946  1
  O  O30  1  0.504154  0.417215  0.370879  1
  O  O31  1  0.495846  0.582785  0.870879  1
  O  O32  1  0.748903  0.915907  0.155516  1
  O  O33  1  0.251097  0.084093  0.655516  1
  O  O34  1  0.749466  0.415218  0.305225  1
  O  O35  1  0.250534  0.584782  0.805225  1
  O  O36  1  0.740180  0.247691  0.111363  1
  O  O37  1  0.259820  0.752309  0.611363  1
  O  O38  1  0.760648  0.746906  0.349310  1
  O  O39  1  0.239352  0.253094  0.849310  1
  O  O40  1  0.242715  0.253219  0.110676  1
  O  O41  1  0.757285  0.746781  0.610676  1
  O  O42  1  0.258165  0.753943  0.350260  1
  O  O43  1  0.741835  0.246057  0.850260  1
  O  O44  1  0.251133  0.921383  0.154890  1
  O  O45  1  0.748867  0.078618  0.654890  1
  O  O46  1  0.247238  0.422038  0.306022  1
  O  O47  1  0.752762  0.577962  0.806022  1
  O  O48  1  0.994689  0.586370  0.001985  1
  O  O49  1  0.005311  0.413630  0.501985  1
  O  O50  1  0.505282  0.086220  0.458847  1
  O  O51  1  0.494718  0.913780  0.958847  1
  O  O52  1  0.240468  0.921130  0.023837  1
  O  O53  1  0.759532  0.078870  0.523837  1
  O  O54  1  0.259989  0.421251  0.437040  1
  O  O55  1  0.740011  0.578749  0.937040  1
  O  O56  1  0.750772  0.579809  0.067414  1
  O  O57  1  0.249228  0.420191  0.567414  1
  O  O58  1  0.747784  0.078843  0.393331  1
  O  O59  1  0.252216  0.921157  0.893331  1
  O  O60  1  0.248209  0.585536  0.066709  1
  O  O61  1  0.751791  0.414464  0.566709  1
  O  O62  1  0.250333  0.085943  0.394239  1
  O  O63  1  0.749667  0.914057  0.894239  1
  O  O64  1  0.740197  0.915120  0.024647  1
  O  O65  1  0.259803  0.084880  0.524647  1
  O  O66  1  0.760258  0.414439  0.436131  1
  O  O67  1  0.239742  0.585561  0.936131  1
  O  O68  1  0.495067  0.250793  0.045500  1
  O  O69  1  0.504933  0.749207  0.545500  1
  O  O70  1  0.004563  0.750341  0.415284  1
  O  O71  1  0.995437  0.249659  0.915284  1
  O  O72  1  0.749616  0.246835  0.980752  1
  O  O73  1  0.250384  0.753165  0.480752  1
  O  O74  1  0.750401  0.746683  0.480033  1
  O  O75  1  0.249599  0.253317  0.980033  1
  O  O76  1  0.496332  0.589403  0.131053  1
  O  O77  1  0.503668  0.410597  0.631053  1
  O  O78  1  0.003237  0.089492  0.329805  1
  O  O79  1  0.996763  0.910508  0.829805  1
  O  O80  1  0.226488  0.571072  0.192825  1
  O  O81  1  0.773512  0.428928  0.692825  1
  O  O82  1  0.273657  0.071787  0.268066  1
  O  O83  1  0.726343  0.928213  0.768066  1
  O  O84  1  0.001831  0.380488  0.240225  1
  O  O85  1  0.998169  0.619512  0.740225  1
  O  O86  1  0.497058  0.880657  0.220609  1
  O  O87  1  0.502942  0.119343  0.720609  1
  O  O88  1  0.757356  0.564732  0.193815  1
  O  O89  1  0.242644  0.435268  0.693815  1
  O  O90  1  0.742767  0.063930  0.267006  1
  O  O91  1  0.257233  0.936070  0.767006  1
