# generated using pymatgen
data_Cs2MoS4
_symmetry_space_group_name_H-M   'P 1'
_cell_length_a   7.39571061
_cell_length_b   10.32629955
_cell_length_c   13.14450649
_cell_angle_alpha   90.00000000
_cell_angle_beta   90.00000000
_cell_angle_gamma   90.00000000
_symmetry_Int_Tables_number   1
_chemical_formula_structural   Cs2MoS4
_chemical_formula_sum   'Cs8 Mo4 S16'
_cell_volume   1003.85020821
_cell_formula_units_Z   4
loop_
 _symmetry_equiv_pos_site_id
 _symmetry_equiv_pos_as_xyz
  1  'x, y, z'
loop_
 _atom_site_type_symbol
 _atom_site_label
 _atom_site_symmetry_multiplicity
 _atom_site_fract_x
 _atom_site_fract_y
 _atom_site_fract_z
 _atom_site_occupancy
  Cs  Cs0  1  0.750000  0.343857  0.101268  1
  Cs  Cs1  1  0.250000  0.156143  0.601268  1
  Cs  Cs2  1  0.250000  0.966165  0.168918  1
  Cs  Cs3  1  0.750000  0.843857  0.398732  1
  Cs  Cs4  1  0.750000  0.533835  0.668918  1
  Cs  Cs5  1  0.250000  0.656143  0.898732  1
  Cs  Cs6  1  0.250000  0.466165  0.331081  1
  Cs  Cs7  1  0.750000  0.033835  0.831082  1
  Mo  Mo8  1  0.750000  0.752685  0.078922  1
  Mo  Mo9  1  0.250000  0.747315  0.578922  1
  Mo  Mo10  1  0.250000  0.247315  0.921078  1
  Mo  Mo11  1  0.750000  0.252685  0.421078  1
  S  S12  1  0.992120  0.166823  0.351206  1
  S  S13  1  0.007880  0.833177  0.648794  1
  S  S14  1  0.750000  0.463969  0.395737  1
  S  S15  1  0.007880  0.333177  0.851206  1
  S  S16  1  0.750000  0.709114  0.914710  1
  S  S17  1  0.250000  0.290886  0.085290  1
  S  S18  1  0.250000  0.790886  0.414710  1
  S  S19  1  0.992120  0.666823  0.148794  1
  S  S20  1  0.492120  0.833177  0.648794  1
  S  S21  1  0.250000  0.536031  0.604263  1
  S  S22  1  0.750000  0.963969  0.104263  1
  S  S23  1  0.507880  0.166823  0.351206  1
  S  S24  1  0.750000  0.209114  0.585290  1
  S  S25  1  0.507880  0.666823  0.148794  1
  S  S26  1  0.492120  0.333177  0.851206  1
  S  S27  1  0.250000  0.036031  0.895737  1
