# generated using pymatgen
data_CuGeO3
_symmetry_space_group_name_H-M   'P 1'
_cell_length_a   4.92689780
_cell_length_b   6.30641893
_cell_length_c   6.85573575
_cell_angle_alpha   90.00000000
_cell_angle_beta   90.00000000
_cell_angle_gamma   93.62409826
_symmetry_Int_Tables_number   1
_chemical_formula_structural   CuGeO3
_chemical_formula_sum   'Cu4 Ge4 O12'
_cell_volume   212.58914315
_cell_formula_units_Z   4
loop_
 _symmetry_equiv_pos_site_id
 _symmetry_equiv_pos_as_xyz
  1  'x, y, z'
loop_
 _atom_site_type_symbol
 _atom_site_label
 _atom_site_symmetry_multiplicity
 _atom_site_fract_x
 _atom_site_fract_y
 _atom_site_fract_z
 _atom_site_occupancy
  Cu  Cu0  1  0.000000  0.000000  0.000000  1
  Cu  Cu1  1  0.000000  0.500000  0.500000  1
  Cu  Cu2  1  0.000000  0.000000  0.500000  1
  Cu  Cu3  1  0.000000  0.500000  0.000000  1
  Ge  Ge4  1  0.494170  0.253132  0.201979  1
  Ge  Ge5  1  0.494170  0.753132  0.298021  1
  Ge  Ge6  1  0.505830  0.246868  0.701979  1
  Ge  Ge7  1  0.505830  0.746868  0.798021  1
  O  O8  1  0.853260  0.746442  0.881038  1
  O  O9  1  0.670096  0.998902  0.196253  1
  O  O10  1  0.329904  0.001098  0.803747  1
  O  O11  1  0.146740  0.753558  0.381038  1
  O  O12  1  0.656197  0.317868  0.955842  1
  O  O13  1  0.853260  0.246442  0.618962  1
  O  O14  1  0.329904  0.501098  0.696253  1
  O  O15  1  0.656197  0.817868  0.544158  1
  O  O16  1  0.343803  0.182132  0.455842  1
  O  O17  1  0.343803  0.682132  0.044158  1
  O  O18  1  0.146740  0.253558  0.118962  1
  O  O19  1  0.670096  0.498902  0.303747  1
