# generated using pymatgen
data_Ca2MnFeO5
_symmetry_space_group_name_H-M   'P 1'
_cell_length_a   5.45226169
_cell_length_b   5.62790175
_cell_length_c   15.15667056
_cell_angle_alpha   90.00000000
_cell_angle_beta   90.00000000
_cell_angle_gamma   90.00000000
_symmetry_Int_Tables_number   1
_chemical_formula_structural   Ca2MnFeO5
_chemical_formula_sum   'Ca8 Mn4 Fe4 O20'
_cell_volume   465.07930032
_cell_formula_units_Z   4
loop_
 _symmetry_equiv_pos_site_id
 _symmetry_equiv_pos_as_xyz
  1  'x, y, z'
loop_
 _atom_site_type_symbol
 _atom_site_label
 _atom_site_symmetry_multiplicity
 _atom_site_fract_x
 _atom_site_fract_y
 _atom_site_fract_z
 _atom_site_occupancy
  Ca  Ca0  1  0.025670  0.524117  0.890596  1
  Ca  Ca1  1  0.525670  0.975883  0.609404  1
  Ca  Ca2  1  0.474330  0.024117  0.109404  1
  Ca  Ca3  1  0.974330  0.475883  0.390596  1
  Ca  Ca4  1  0.974330  0.475883  0.109404  1
  Ca  Ca5  1  0.474330  0.024117  0.390596  1
  Ca  Ca6  1  0.525670  0.975883  0.890596  1
  Ca  Ca7  1  0.025670  0.524117  0.609404  1
  Fe  Fe8  1  0.050606  0.063987  0.750000  1
  Fe  Fe9  1  0.550606  0.436013  0.750000  1
  Fe  Fe10  1  0.449394  0.563987  0.250000  1
  Fe  Fe11  1  0.949394  0.936013  0.250000  1
  Mn  Mn12  1  0.000000  0.000000  0.000000  1
  Mn  Mn13  1  0.500000  0.500000  0.500000  1
  Mn  Mn14  1  0.500000  0.500000  0.000000  1
  Mn  Mn15  1  0.000000  0.000000  0.500000  1
  O  O16  1  0.731157  0.772017  0.016874  1
  O  O17  1  0.231157  0.727983  0.483126  1
  O  O18  1  0.768843  0.272017  0.983126  1
  O  O19  1  0.268843  0.227983  0.516874  1
  O  O20  1  0.268843  0.227983  0.983126  1
  O  O21  1  0.768843  0.272017  0.516874  1
  O  O22  1  0.231157  0.727983  0.016874  1
  O  O23  1  0.731157  0.772017  0.483126  1
  O  O24  1  0.963414  0.922658  0.856875  1
  O  O25  1  0.463414  0.577342  0.643125  1
  O  O26  1  0.536586  0.422658  0.143125  1
  O  O27  1  0.036586  0.077342  0.356875  1
  O  O28  1  0.036586  0.077342  0.143125  1
  O  O29  1  0.536586  0.422658  0.356875  1
  O  O30  1  0.463414  0.577342  0.856875  1
  O  O31  1  0.963414  0.922658  0.643125  1
  O  O32  1  0.906347  0.380796  0.750000  1
  O  O33  1  0.406347  0.119204  0.750000  1
  O  O34  1  0.593653  0.880796  0.250000  1
  O  O35  1  0.093653  0.619204  0.250000  1
