# generated using pymatgen
data_NaW2(Br3O)2
_symmetry_space_group_name_H-M   'P 1'
_cell_length_a   3.87424423
_cell_length_b   9.21203609
_cell_length_c   9.33112356
_cell_angle_alpha   74.85769437
_cell_angle_beta   78.01838842
_cell_angle_gamma   77.86114685
_symmetry_Int_Tables_number   1
_chemical_formula_structural   NaW2(Br3O)2
_chemical_formula_sum   'Na1 W2 Br6 O2'
_cell_volume   310.13472660
_cell_formula_units_Z   1
loop_
 _symmetry_equiv_pos_site_id
 _symmetry_equiv_pos_as_xyz
  1  'x, y, z'
loop_
 _atom_site_type_symbol
 _atom_site_label
 _atom_site_symmetry_multiplicity
 _atom_site_fract_x
 _atom_site_fract_y
 _atom_site_fract_z
 _atom_site_occupancy
  Na  Na0  1  0.500454  0.499603  0.499489  1
  W  W1  1  0.999781  0.175087  0.825350  1
  W  W2  1  1.000112  0.825032  0.174744  1
  Br  Br3  1  0.126007  0.210932  0.537054  1
  Br  Br4  1  0.871948  0.127045  0.129060  1
  Br  Br5  1  0.869849  0.462436  0.797867  1
  Br  Br6  1  0.873757  0.789566  0.462919  1
  Br  Br7  1  0.130110  0.537584  0.202195  1
  Br  Br8  1  0.127949  0.873024  0.871077  1
  O  O9  1  0.499202  0.830661  0.170935  1
  O  O10  1  0.500829  0.169031  0.829310  1
