# generated using pymatgen
data_Sr2NF
_symmetry_space_group_name_H-M   'P 1'
_cell_length_a   7.60611805
_cell_length_b   15.27932966
_cell_length_c   15.27932912
_cell_angle_alpha   60.32160396
_cell_angle_beta   60.14514998
_cell_angle_gamma   60.14514936
_symmetry_Int_Tables_number   1
_chemical_formula_structural   Sr2NF
_chemical_formula_sum   'Sr32 N16 F16'
_cell_volume   1261.40654234
_cell_formula_units_Z   16
loop_
 _symmetry_equiv_pos_site_id
 _symmetry_equiv_pos_as_xyz
  1  'x, y, z'
loop_
 _atom_site_type_symbol
 _atom_site_label
 _atom_site_symmetry_multiplicity
 _atom_site_fract_x
 _atom_site_fract_y
 _atom_site_fract_z
 _atom_site_occupancy
  F  F0  1  0.524834  0.964205  0.260961  1
  F  F1  1  0.524834  0.260961  0.964205  1
  F  F2  1  0.348667  0.200667  0.200667  1
  F  F3  1  0.651333  0.299333  0.299333  1
  F  F4  1  0.475166  0.535795  0.239039  1
  F  F5  1  0.500012  0.997258  0.752730  1
  F  F6  1  0.475166  0.239039  0.535795  1
  F  F7  1  0.500012  0.752730  0.997258  1
  F  F8  1  0.500000  0.250000  0.750000  1
  F  F9  1  0.500000  0.750000  0.250000  1
  F  F10  1  0.499988  0.502742  0.747270  1
  F  F11  1  0.499988  0.747270  0.502742  1
  F  F12  1  0.000000  0.750000  0.250000  1
  F  F13  1  0.000000  0.250000  0.750000  1
  F  F14  1  0.500000  0.750000  0.750000  1
  F  F15  1  0.000000  0.750000  0.750000  1
  N  N16  1  -0.000489  0.000487  0.000487  1
  N  N17  1  0.498541  0.000487  0.000487  1
  N  N18  1  0.500000  0.997129  0.502871  1
  N  N19  1  0.500000  0.502871  0.997129  1
  N  N20  1  0.997227  0.002343  0.250430  1
  N  N21  1  0.997227  0.250430  0.002343  1
  N  N22  1  0.000000  0.997129  0.502871  1
  N  N23  1  1.000000  0.502871  0.997129  1
  N  N24  1  0.501459  0.499513  0.499513  1
  N  N25  1  0.000785  0.998512  0.750703  1
  N  N26  1  0.002773  0.249570  0.497657  1
  N  N27  1  0.002773  0.497657  0.249570  1
  N  N28  1  0.000785  0.750703  0.998512  1
  N  N29  1  1.000489  0.499513  0.499513  1
  N  N30  1  0.999215  0.749297  0.501488  1
  N  N31  1  0.999215  0.501488  0.749297  1
  Sr  Sr32  1  0.246801  0.119043  0.119043  1
  Sr  Sr33  1  0.241013  0.397870  0.111117  1
  Sr  Sr34  1  0.241013  0.111117  0.397870  1
  Sr  Sr35  1  0.222972  0.380957  0.380957  1
  Sr  Sr36  1  0.239883  0.119887  0.622345  1
  Sr  Sr37  1  0.239883  0.622345  0.119887  1
  Sr  Sr38  1  0.777028  0.119043  0.119043  1
  Sr  Sr39  1  0.758987  0.102130  0.388883  1
  Sr  Sr40  1  0.239160  0.120540  0.890301  1
  Sr  Sr41  1  0.240037  0.389173  0.620790  1
  Sr  Sr42  1  0.240037  0.620790  0.389173  1
  Sr  Sr43  1  0.239160  0.890301  0.120540  1
  Sr  Sr44  1  0.758987  0.388883  0.102130  1
  Sr  Sr45  1  0.224346  0.380113  0.877655  1
  Sr  Sr46  1  0.224346  0.877655  0.380113  1
  Sr  Sr47  1  0.242784  0.619469  0.619469  1
  Sr  Sr48  1  0.753199  0.380957  0.380957  1
  Sr  Sr49  1  0.775654  0.119887  0.622345  1
  Sr  Sr50  1  0.775654  0.622345  0.119887  1
  Sr  Sr51  1  0.759963  0.110827  0.879210  1
  Sr  Sr52  1  0.760840  0.379460  0.609699  1
  Sr  Sr53  1  0.759963  0.879210  0.110827  1
  Sr  Sr54  1  0.239297  0.623522  0.887181  1
  Sr  Sr55  1  0.239297  0.887181  0.623522  1
  Sr  Sr56  1  0.760840  0.609699  0.379460  1
  Sr  Sr57  1  0.220662  0.880531  0.880531  1
  Sr  Sr58  1  0.760117  0.380113  0.877655  1
  Sr  Sr59  1  0.760117  0.877655  0.380113  1
  Sr  Sr60  1  0.779338  0.619469  0.619469  1
  Sr  Sr61  1  0.760703  0.612819  0.876478  1
  Sr  Sr62  1  0.760703  0.876478  0.612819  1
  Sr  Sr63  1  0.757216  0.880531  0.880531  1
