# generated using pymatgen
data_ScH3(CO2)3
_symmetry_space_group_name_H-M   'P 1'
_cell_length_a   6.77082997
_cell_length_b   9.19388188
_cell_length_c   10.54948097
_cell_angle_alpha   98.23337537
_cell_angle_beta   90.00000000
_cell_angle_gamma   90.00000000
_symmetry_Int_Tables_number   1
_chemical_formula_structural   ScH3(CO2)3
_chemical_formula_sum   'Sc4 H12 C12 O24'
_cell_volume   649.93872013
_cell_formula_units_Z   4
loop_
 _symmetry_equiv_pos_site_id
 _symmetry_equiv_pos_as_xyz
  1  'x, y, z'
loop_
 _atom_site_type_symbol
 _atom_site_label
 _atom_site_symmetry_multiplicity
 _atom_site_fract_x
 _atom_site_fract_y
 _atom_site_fract_z
 _atom_site_occupancy
  Sc  Sc0  1  0.500000  0.500000  0.000000  1
  Sc  Sc1  1  0.000000  0.000000  0.000000  1
  Sc  Sc2  1  0.500000  0.000000  0.500000  1
  Sc  Sc3  1  0.000000  0.500000  0.500000  1
  H  H4  1  0.654593  0.206157  0.261886  1
  H  H5  1  0.962766  0.631240  0.872032  1
  H  H6  1  0.462766  0.868760  0.127968  1
  H  H7  1  0.703604  0.292244  0.676213  1
  H  H8  1  0.796396  0.792244  0.676213  1
  H  H9  1  0.296396  0.707756  0.323787  1
  H  H10  1  0.154593  0.293843  0.738114  1
  H  H11  1  0.203604  0.207756  0.323787  1
  H  H12  1  0.845407  0.706157  0.261886  1
  H  H13  1  0.037234  0.368760  0.127968  1
  H  H14  1  0.345407  0.793843  0.738114  1
  H  H15  1  0.537234  0.131240  0.872032  1
  C  C16  1  0.594019  0.844289  0.066499  1
  C  C17  1  0.800220  0.911064  0.712908  1
  C  C18  1  0.905981  0.344289  0.066499  1
  C  C19  1  0.094019  0.655711  0.933501  1
  C  C20  1  0.199780  0.088936  0.287092  1
  C  C21  1  0.405981  0.155711  0.933501  1
  C  C22  1  0.699780  0.411064  0.712908  1
  C  C23  1  0.708384  0.248165  0.359462  1
  C  C24  1  0.291616  0.751835  0.640538  1
  C  C25  1  0.208384  0.251835  0.640538  1
  C  C26  1  0.300220  0.588936  0.287092  1
  C  C27  1  0.791616  0.748165  0.359462  1
  O  O28  1  0.800133  0.497415  0.654264  1
  O  O29  1  0.678904  0.858966  0.371039  1
  O  O30  1  0.178904  0.641034  0.628961  1
  O  O31  1  0.154387  0.317826  0.548677  1
  O  O32  1  0.218084  0.552382  0.935152  1
  O  O33  1  0.699867  0.997415  0.654264  1
  O  O34  1  0.654387  0.182174  0.451323  1
  O  O35  1  0.781916  0.447618  0.064848  1
  O  O36  1  0.300133  0.002585  0.345736  1
  O  O37  1  0.718084  0.947618  0.064848  1
  O  O38  1  0.199867  0.502585  0.345736  1
  O  O39  1  0.845613  0.682174  0.451323  1
  O  O40  1  0.611451  0.717311  0.002735  1
  O  O41  1  0.388549  0.282689  0.997265  1
  O  O42  1  0.405787  0.546851  0.190006  1
  O  O43  1  0.905787  0.953149  0.809994  1
  O  O44  1  0.111451  0.782689  0.997265  1
  O  O45  1  0.888549  0.217311  0.002735  1
  O  O46  1  0.821096  0.358966  0.371039  1
  O  O47  1  0.321096  0.141034  0.628961  1
  O  O48  1  0.594213  0.453149  0.809994  1
  O  O49  1  0.281916  0.052382  0.935152  1
  O  O50  1  0.345613  0.817826  0.548677  1
  O  O51  1  0.094213  0.046851  0.190006  1
