# generated using pymatgen
data_Ce2Al16Pt9
_symmetry_space_group_name_H-M   'P 1'
_cell_length_a   4.19157251
_cell_length_b   11.13364957
_cell_length_c   11.13364964
_cell_angle_alpha   64.96656947
_cell_angle_beta   79.14996881
_cell_angle_gamma   79.14997123
_symmetry_Int_Tables_number   1
_chemical_formula_structural   Ce2Al16Pt9
_chemical_formula_sum   'Ce2 Al16 Pt9'
_cell_volume   458.89977216
_cell_formula_units_Z   1
loop_
 _symmetry_equiv_pos_site_id
 _symmetry_equiv_pos_as_xyz
  1  'x, y, z'
loop_
 _atom_site_type_symbol
 _atom_site_label
 _atom_site_symmetry_multiplicity
 _atom_site_fract_x
 _atom_site_fract_y
 _atom_site_fract_z
 _atom_site_occupancy
  Ce  Ce0  1  0.772055  0.227945  0.227945  1
  Ce  Ce1  1  0.227945  0.772055  0.772055  1
  Al  Al2  1  0.607586  0.274494  0.510334  1
  Al  Al3  1  0.079865  0.091473  0.748797  1
  Al  Al4  1  0.796610  0.511550  0.895229  1
  Al  Al5  1  0.920135  0.251203  0.908527  1
  Al  Al6  1  0.586665  0.913335  0.913335  1
  Al  Al7  1  0.392414  0.725506  0.489666  1
  Al  Al8  1  0.796610  0.895229  0.511550  1
  Al  Al9  1  0.203390  0.488450  0.104771  1
  Al  Al10  1  1.000000  0.385548  0.614452  1
  Al  Al11  1  0.000000  0.614452  0.385548  1
  Al  Al12  1  0.392414  0.489666  0.725506  1
  Al  Al13  1  0.203390  0.104771  0.488450  1
  Al  Al14  1  0.920135  0.908527  0.251203  1
  Al  Al15  1  0.079865  0.748797  0.091473  1
  Al  Al16  1  0.607586  0.510334  0.274494  1
  Al  Al17  1  0.413335  0.086665  0.086665  1
  Pt  Pt18  1  0.500000  0.750571  0.249429  1
  Pt  Pt19  1  0.660563  0.024276  0.654598  1
  Pt  Pt20  1  0.874792  0.625208  0.625208  1
  Pt  Pt21  1  0.500000  0.249429  0.750571  1
  Pt  Pt22  1  0.125208  0.374792  0.374792  1
  Pt  Pt23  1  0.000000  0.000000  0.000000  1
  Pt  Pt24  1  0.660563  0.654598  0.024276  1
  Pt  Pt25  1  0.339437  0.345402  0.975724  1
  Pt  Pt26  1  0.339437  0.975724  0.345402  1
