# generated using pymatgen
data_ZnAs2C12(NF)12
_symmetry_space_group_name_H-M   'P 1'
_cell_length_a   9.72399447
_cell_length_b   9.72399482
_cell_length_c   9.72399482
_cell_angle_alpha   59.21553939
_cell_angle_beta   59.21553814
_cell_angle_gamma   59.21553585
_symmetry_Int_Tables_number   1
_chemical_formula_structural   ZnAs2C12(NF)12
_chemical_formula_sum   'Zn1 As2 C12 N12 F12'
_cell_volume   638.53919917
_cell_formula_units_Z   1
loop_
 _symmetry_equiv_pos_site_id
 _symmetry_equiv_pos_as_xyz
  1  'x, y, z'
loop_
 _atom_site_type_symbol
 _atom_site_label
 _atom_site_symmetry_multiplicity
 _atom_site_fract_x
 _atom_site_fract_y
 _atom_site_fract_z
 _atom_site_occupancy
  Zn  Zn0  1  0.000000  0.000000  0.000000  1
  As  As1  1  0.364191  0.364191  0.364191  1
  As  As2  1  0.635809  0.635809  0.635809  1
  C  C3  1  0.958514  0.458689  0.242018  1
  C  C4  1  0.025288  0.384687  0.827189  1
  C  C5  1  0.615313  0.172811  0.974712  1
  C  C6  1  0.242018  0.958514  0.458689  1
  C  C7  1  0.172811  0.974712  0.615313  1
  C  C8  1  0.041486  0.541311  0.757982  1
  C  C9  1  0.541311  0.757982  0.041486  1
  C  C10  1  0.757982  0.041486  0.541311  1
  C  C11  1  0.458689  0.242018  0.958514  1
  C  C12  1  0.384687  0.827189  0.025288  1
  C  C13  1  0.827189  0.025288  0.384687  1
  C  C14  1  0.974712  0.615313  0.172811  1
  N  N15  1  0.674043  0.705999  0.053517  1
  N  N16  1  0.107688  0.989699  0.747984  1
  N  N17  1  0.252016  0.892312  0.010301  1
  N  N18  1  0.325957  0.294001  0.946483  1
  N  N19  1  0.010301  0.252016  0.892312  1
  N  N20  1  0.946483  0.325957  0.294001  1
  N  N21  1  0.053517  0.674043  0.705999  1
  N  N22  1  0.747984  0.107688  0.989699  1
  N  N23  1  0.892312  0.010301  0.252016  1
  N  N24  1  0.989699  0.747984  0.107688  1
  N  N25  1  0.705999  0.053517  0.674043  1
  N  N26  1  0.294001  0.946483  0.325957  1
  F  F27  1  0.363733  0.281403  0.574735  1
  F  F28  1  0.359867  0.448010  0.154783  1
  F  F29  1  0.636267  0.718597  0.425265  1
  F  F30  1  0.448010  0.154783  0.359867  1
  F  F31  1  0.845217  0.640133  0.551990  1
  F  F32  1  0.574735  0.363733  0.281403  1
  F  F33  1  0.281403  0.574735  0.363733  1
  F  F34  1  0.154783  0.359867  0.448010  1
  F  F35  1  0.640133  0.551990  0.845217  1
  F  F36  1  0.718597  0.425265  0.636267  1
  F  F37  1  0.425265  0.636267  0.718597  1
  F  F38  1  0.551990  0.845217  0.640133  1
