# generated using pymatgen
data_CaH2(CO2)2
_symmetry_space_group_name_H-M   'P 1'
_cell_length_a   6.88376194
_cell_length_b   6.88376194
_cell_length_c   9.49941234
_cell_angle_alpha   90.00000000
_cell_angle_beta   90.00000000
_cell_angle_gamma   90.00000000
_symmetry_Int_Tables_number   1
_chemical_formula_structural   CaH2(CO2)2
_chemical_formula_sum   'Ca4 H8 C8 O16'
_cell_volume   450.14084828
_cell_formula_units_Z   4
loop_
 _symmetry_equiv_pos_site_id
 _symmetry_equiv_pos_as_xyz
  1  'x, y, z'
loop_
 _atom_site_type_symbol
 _atom_site_label
 _atom_site_symmetry_multiplicity
 _atom_site_fract_x
 _atom_site_fract_y
 _atom_site_fract_z
 _atom_site_occupancy
  Ca  Ca0  1  0.786323  0.786323  0.000000  1
  Ca  Ca1  1  0.713677  0.286323  0.750000  1
  Ca  Ca2  1  0.213677  0.213677  0.500000  1
  Ca  Ca3  1  0.286323  0.713677  0.250000  1
  H  H4  1  0.129945  0.671541  0.674498  1
  H  H5  1  0.370055  0.171541  0.075502  1
  H  H6  1  0.171541  0.370055  0.924498  1
  H  H7  1  0.629945  0.828459  0.575502  1
  H  H8  1  0.328459  0.870055  0.825502  1
  H  H9  1  0.828459  0.629945  0.424498  1
  H  H10  1  0.671541  0.129945  0.325502  1
  H  H11  1  0.870055  0.328459  0.174498  1
  C  C12  1  0.296298  0.810372  0.931396  1
  C  C13  1  0.810372  0.296298  0.068604  1
  C  C14  1  0.796298  0.689628  0.318604  1
  C  C15  1  0.689628  0.796298  0.681396  1
  C  C16  1  0.310372  0.203702  0.181396  1
  C  C17  1  0.703702  0.189628  0.431396  1
  C  C18  1  0.203702  0.310372  0.818604  1
  C  C19  1  0.189628  0.703702  0.568604  1
  O  O20  1  0.378496  0.281100  0.784921  1
  O  O21  1  0.061018  0.277225  0.736536  1
  O  O22  1  0.777225  0.438982  0.986536  1
  O  O23  1  0.281100  0.378496  0.215079  1
  O  O24  1  0.218900  0.878496  0.534921  1
  O  O25  1  0.561018  0.222775  0.513464  1
  O  O26  1  0.878496  0.218900  0.465079  1
  O  O27  1  0.277225  0.061018  0.263464  1
  O  O28  1  0.621504  0.718900  0.284921  1
  O  O29  1  0.222775  0.561018  0.486536  1
  O  O30  1  0.121504  0.781100  0.965079  1
  O  O31  1  0.722775  0.938982  0.763464  1
  O  O32  1  0.781100  0.121504  0.034921  1
  O  O33  1  0.718900  0.621504  0.715079  1
  O  O34  1  0.438982  0.777225  0.013464  1
  O  O35  1  0.938982  0.722775  0.236536  1
