# generated using pymatgen
data_Ca14GaAs11
_symmetry_space_group_name_H-M   'P 1'
_cell_length_a   15.38141504
_cell_length_b   15.38141081
_cell_length_c   15.38141072
_cell_angle_alpha   92.50852438
_cell_angle_beta   118.56242485
_cell_angle_gamma   118.56242541
_symmetry_Int_Tables_number   1
_chemical_formula_structural   Ca14GaAs11
_chemical_formula_sum   'Ca56 Ga4 As44'
_cell_volume   2626.39031616
_cell_formula_units_Z   4
loop_
 _symmetry_equiv_pos_site_id
 _symmetry_equiv_pos_as_xyz
  1  'x, y, z'
loop_
 _atom_site_type_symbol
 _atom_site_label
 _atom_site_symmetry_multiplicity
 _atom_site_fract_x
 _atom_site_fract_y
 _atom_site_fract_z
 _atom_site_occupancy
  Ca  Ca0  1  0.853707  0.370521  0.469382  1
  Ca  Ca1  1  0.353707  0.884324  0.483186  1
  Ca  Ca2  1  0.914634  0.937645  0.663220  1
  Ca  Ca3  1  0.146293  0.629479  0.530618  1
  Ca  Ca4  1  0.414633  0.751413  0.976988  1
  Ca  Ca5  1  0.382659  0.285352  0.255844  1
  Ca  Ca6  1  0.648095  0.750000  0.398095  1
  Ca  Ca7  1  0.851905  0.101905  0.750000  1
  Ca  Ca8  1  0.585366  0.836780  0.562355  1
  Ca  Ca9  1  0.529509  0.902693  0.285352  1
  Ca  Ca10  1  0.470491  0.097307  0.714648  1
  Ca  Ca11  1  0.646293  0.030618  0.129479  1
  Ca  Ca12  1  0.225575  0.976989  0.062355  1
  Ca  Ca13  1  0.882659  0.626815  0.097306  1
  Ca  Ca14  1  0.725575  0.663220  0.248587  1
  Ca  Ca15  1  0.882659  0.755844  0.785352  1
  Ca  Ca16  1  0.148095  0.750000  0.898095  1
  Ca  Ca17  1  0.029509  0.785352  0.402693  1
  Ca  Ca18  1  0.098861  0.129479  0.983186  1
  Ca  Ca19  1  0.146293  0.016814  0.615676  1
  Ca  Ca20  1  0.598862  0.615676  0.969383  1
  Ca  Ca21  1  0.351905  0.601905  0.750000  1
  Ca  Ca22  1  0.148095  0.898095  0.250000  1
  Ca  Ca23  1  0.585367  0.248587  0.023012  1
  Ca  Ca24  1  0.098862  0.469383  0.115676  1
  Ca  Ca25  1  0.914633  0.476988  0.251413  1
  Ca  Ca26  1  0.646293  0.115676  0.516814  1
  Ca  Ca27  1  0.414634  0.163220  0.437645  1
  Ca  Ca28  1  0.351905  0.250000  0.601905  1
  Ca  Ca29  1  0.085366  0.062355  0.336780  1
  Ca  Ca30  1  0.617341  0.402694  0.873185  1
  Ca  Ca31  1  0.970491  0.255844  0.373185  1
  Ca  Ca32  1  0.725575  0.562355  0.476988  1
  Ca  Ca33  1  0.774425  0.251413  0.836780  1
  Ca  Ca34  1  0.617341  0.714648  0.744156  1
  Ca  Ca35  1  0.117341  0.244156  0.214648  1
  Ca  Ca36  1  0.274425  0.437645  0.523011  1
  Ca  Ca37  1  0.382659  0.597306  0.126815  1
  Ca  Ca38  1  0.529509  0.126815  0.244156  1
  Ca  Ca39  1  0.117341  0.373185  0.902694  1
  Ca  Ca40  1  0.353707  0.969382  0.870521  1
  Ca  Ca41  1  0.401138  0.384324  0.030617  1
  Ca  Ca42  1  0.085367  0.523012  0.748587  1
  Ca  Ca43  1  0.598861  0.483186  0.629479  1
  Ca  Ca44  1  0.401139  0.516814  0.370521  1
  Ca  Ca45  1  0.851905  0.250000  0.101905  1
  Ca  Ca46  1  0.225575  0.748587  0.163220  1
  Ca  Ca47  1  0.901139  0.870521  0.016814  1
  Ca  Ca48  1  0.970491  0.214648  0.597307  1
  Ca  Ca49  1  0.901138  0.530617  0.884324  1
  Ca  Ca50  1  0.853707  0.983186  0.384324  1
  Ca  Ca51  1  0.470491  0.873185  0.755844  1
  Ca  Ca52  1  0.774425  0.023012  0.937645  1
  Ca  Ca53  1  0.274425  0.336780  0.751413  1
  Ca  Ca54  1  0.029509  0.744156  0.626815  1
  Ca  Ca55  1  0.648095  0.398095  0.250000  1
  Ga  Ga56  1  0.750000  0.875000  0.125000  1
  Ga  Ga57  1  0.750000  0.375000  0.625000  1
  Ga  Ga58  1  0.250000  0.625000  0.375000  1
  Ga  Ga59  1  0.250000  0.125000  0.875000  1
  As  As60  1  0.895357  0.823361  0.478046  1
  As  As61  1  0.345315  0.521954  0.917311  1
  As  As62  1  0.654685  0.478046  0.082689  1
  As  As63  1  0.882580  0.078119  0.187912  1
  As  As64  1  0.390207  0.195539  0.078119  1
  As  As65  1  0.845315  0.417311  0.021954  1
  As  As66  1  0.750000  0.125000  0.375000  1
  As  As67  1  0.617420  0.312088  0.421881  1
  As  As68  1  0.395357  0.917311  0.071996  1
  As  As69  1  0.109793  0.421881  0.304461  1
  As  As70  1  0.750000  0.258692  0.241308  1
  As  As71  1  0.345315  0.323361  0.428004  1
  As  As72  1  0.104643  0.428004  0.582689  1
  As  As73  1  0.609793  0.305332  0.687912  1
  As  As74  1  0.382580  0.687912  0.578119  1
  As  As75  1  0.117420  0.695539  0.305332  1
  As  As76  1  0.154685  0.071996  0.176639  1
  As  As77  1  0.750000  0.991308  0.508692  1
  As  As78  1  0.882580  0.304461  0.694668  1
  As  As79  1  0.982616  0.241308  0.991308  1
  As  As80  1  0.109793  0.187912  0.805332  1
  As  As81  1  0.250000  0.875000  0.625000  1
  As  As82  1  0.390207  0.694668  0.312088  1
  As  As83  1  0.154685  0.582689  0.978046  1
  As  As84  1  0.890207  0.578119  0.695539  1
  As  As85  1  0.382580  0.194668  0.804461  1
  As  As86  1  0.395357  0.978046  0.323361  1
  As  As87  1  0.895357  0.571996  0.417311  1
  As  As88  1  0.250000  0.008692  0.491308  1
  As  As89  1  0.617420  0.805332  0.195539  1
  As  As90  1  0.654685  0.676639  0.571996  1
  As  As91  1  0.750000  0.625000  0.875000  1
  As  As92  1  0.482616  0.491308  0.741308  1
  As  As93  1  0.017384  0.758692  0.008692  1
  As  As94  1  0.604643  0.082689  0.928004  1
  As  As95  1  0.250000  0.375000  0.125000  1
  As  As96  1  0.517384  0.508692  0.258692  1
  As  As97  1  0.845315  0.928004  0.823361  1
  As  As98  1  0.604643  0.021954  0.676639  1
  As  As99  1  0.250000  0.741308  0.758692  1
  As  As100  1  0.104643  0.176639  0.521954  1
  As  As101  1  0.890207  0.812088  0.194668  1
  As  As102  1  0.117420  0.921881  0.812088  1
  As  As103  1  0.609793  0.804461  0.921881  1
