# generated using pymatgen
data_Na2Si2O5
_symmetry_space_group_name_H-M   'P 1'
_cell_length_a   4.90594171
_cell_length_b   8.22170849
_cell_length_c   24.26300957
_cell_angle_alpha   90.00000000
_cell_angle_beta   90.00000000
_cell_angle_gamma   90.16007028
_symmetry_Int_Tables_number   1
_chemical_formula_structural   Na2Si2O5
_chemical_formula_sum   'Na16 Si16 O40'
_cell_volume   978.65007205
_cell_formula_units_Z   8
loop_
 _symmetry_equiv_pos_site_id
 _symmetry_equiv_pos_as_xyz
  1  'x, y, z'
loop_
 _atom_site_type_symbol
 _atom_site_label
 _atom_site_symmetry_multiplicity
 _atom_site_fract_x
 _atom_site_fract_y
 _atom_site_fract_z
 _atom_site_occupancy
  Na  Na0  1  0.273707  0.355569  0.514408  1
  Na  Na1  1  0.754519  0.777473  0.218535  1
  Na  Na2  1  0.245481  0.722527  0.718535  1
  Na  Na3  1  0.245481  0.222527  0.781465  1
  Na  Na4  1  0.770072  0.973793  0.762234  1
  Na  Na5  1  0.746507  0.101522  0.527565  1
  Na  Na6  1  0.726293  0.144431  0.014408  1
  Na  Na7  1  0.253493  0.398478  0.027565  1
  Na  Na8  1  0.253493  0.898478  0.472435  1
  Na  Na9  1  0.746507  0.601522  0.972435  1
  Na  Na10  1  0.726293  0.644431  0.485592  1
  Na  Na11  1  0.770072  0.473793  0.737766  1
  Na  Na12  1  0.273707  0.855569  0.985592  1
  Na  Na13  1  0.229928  0.026207  0.237766  1
  Na  Na14  1  0.754519  0.277473  0.281465  1
  Na  Na15  1  0.229928  0.526207  0.262234  1
  Si  Si16  1  0.793192  0.981592  0.389719  1
  Si  Si17  1  0.294423  0.196423  0.363095  1
  Si  Si18  1  0.705577  0.803577  0.636905  1
  Si  Si19  1  0.294423  0.696423  0.136905  1
  Si  Si20  1  0.313852  0.856914  0.840873  1
  Si  Si21  1  0.686148  0.643086  0.340873  1
  Si  Si22  1  0.185193  0.537527  0.408120  1
  Si  Si23  1  0.686148  0.143086  0.159127  1
  Si  Si24  1  0.793192  0.481592  0.110281  1
  Si  Si25  1  0.206808  0.018408  0.610281  1
  Si  Si26  1  0.705577  0.303577  0.863095  1
  Si  Si27  1  0.814807  0.962473  0.908120  1
  Si  Si28  1  0.206808  0.518408  0.889719  1
  Si  Si29  1  0.185193  0.037527  0.091880  1
  Si  Si30  1  0.814807  0.462473  0.591880  1
  Si  Si31  1  0.313852  0.356914  0.659127  1
  O  O32  1  0.755390  0.161181  0.910519  1
  O  O33  1  0.141507  0.440311  0.607880  1
  O  O34  1  0.267064  0.076362  0.548404  1
  O  O35  1  0.380633  0.357322  0.868842  1
  O  O36  1  0.233297  0.751898  0.198941  1
  O  O37  1  0.766703  0.248102  0.801059  1
  O  O38  1  0.358212  0.615870  0.355818  1
  O  O39  1  0.233297  0.251898  0.301059  1
  O  O40  1  0.244610  0.338819  0.410519  1
  O  O41  1  0.619367  0.142678  0.368842  1
  O  O42  1  0.256406  0.658736  0.841585  1
  O  O43  1  0.246647  0.116489  0.033178  1
  O  O44  1  0.743594  0.341264  0.158415  1
  O  O45  1  0.380633  0.857322  0.631158  1
  O  O46  1  0.858493  0.559689  0.392120  1
  O  O47  1  0.747180  0.065679  0.218212  1
  O  O48  1  0.880486  0.464321  0.884637  1
  O  O49  1  0.641788  0.884130  0.855818  1
  O  O50  1  0.880486  0.964321  0.615363  1
  O  O51  1  0.753353  0.383511  0.533178  1
  O  O52  1  0.732936  0.923638  0.451596  1
  O  O53  1  0.244610  0.838819  0.089481  1
  O  O54  1  0.619367  0.642678  0.131158  1
  O  O55  1  0.119514  0.535679  0.115363  1
  O  O56  1  0.753353  0.883511  0.966822  1
  O  O57  1  0.766703  0.748102  0.698941  1
  O  O58  1  0.252820  0.434321  0.718212  1
  O  O59  1  0.256406  0.158736  0.658415  1
  O  O60  1  0.141507  0.940311  0.892120  1
  O  O61  1  0.252820  0.934321  0.781788  1
  O  O62  1  0.747180  0.565679  0.281788  1
  O  O63  1  0.858493  0.059689  0.107880  1
  O  O64  1  0.246647  0.616489  0.466822  1
  O  O65  1  0.119514  0.035679  0.384637  1
  O  O66  1  0.358212  0.115870  0.144182  1
  O  O67  1  0.743594  0.841264  0.341585  1
  O  O68  1  0.755390  0.661181  0.589481  1
  O  O69  1  0.732936  0.423638  0.048404  1
  O  O70  1  0.267064  0.576362  0.951596  1
  O  O71  1  0.641788  0.384130  0.644182  1
