# generated using pymatgen
data_KCa5Mg5Al(SiO3)12
_symmetry_space_group_name_H-M   'P 1'
_cell_length_a   15.96367423
_cell_length_b   6.65837026
_cell_length_c   6.65837003
_cell_angle_alpha   85.11003852
_cell_angle_beta   78.30032600
_cell_angle_gamma   78.30032622
_symmetry_Int_Tables_number   1
_chemical_formula_structural   KCa5Mg5Al(SiO3)12
_chemical_formula_sum   'K1 Ca5 Mg5 Al1 Si12 O36'
_cell_volume   677.91078135
_cell_formula_units_Z   1
loop_
 _symmetry_equiv_pos_site_id
 _symmetry_equiv_pos_as_xyz
  1  'x, y, z'
loop_
 _atom_site_type_symbol
 _atom_site_label
 _atom_site_symmetry_multiplicity
 _atom_site_fract_x
 _atom_site_fract_y
 _atom_site_fract_z
 _atom_site_occupancy
  Al  Al0  1  0.083333  0.096339  0.903661  1
  Ca  Ca1  1  0.251621  0.308685  0.704279  1
  Ca  Ca2  1  0.415462  0.700507  0.304097  1
  Ca  Ca3  1  0.583333  0.299554  0.700446  1
  Ca  Ca4  1  0.751205  0.695903  0.299493  1
  Ca  Ca5  1  0.915046  0.295721  0.691315  1
  K  K6  1  0.083333  0.696363  0.303637  1
  Mg  Mg7  1  0.249333  0.904987  0.093962  1
  Mg  Mg8  1  0.417469  0.090073  0.909691  1
  Mg  Mg9  1  0.583333  0.905246  0.094754  1
  Mg  Mg10  1  0.749198  0.090309  0.909927  1
  Mg  Mg11  1  0.917334  0.906038  0.095013  1
  O  O12  1  0.998999  0.358109  0.344262  1
  O  O13  1  0.065026  0.116589  0.615664  1
  O  O14  1  0.118041  0.054894  0.177058  1
  O  O15  1  0.048626  0.822942  0.945106  1
  O  O16  1  0.101641  0.384336  0.883411  1
  O  O17  1  0.173369  0.324672  0.369115  1
  O  O18  1  0.167668  0.655738  0.641891  1
  O  O19  1  0.236440  0.603047  0.090546  1
  O  O20  1  0.287577  0.195222  0.028105  1
  O  O21  1  0.204645  0.981033  0.799236  1
  O  O22  1  0.268459  0.887494  0.390534  1
  O  O23  1  0.336527  0.369180  0.333348  1
  O  O24  1  0.331482  0.644062  0.668433  1
  O  O25  1  0.391214  0.111509  0.614568  1
  O  O26  1  0.453020  0.025629  0.206528  1
  O  O27  1  0.381363  0.798316  0.975872  1
  O  O28  1  0.439548  0.387740  0.885331  1
  O  O29  1  0.502060  0.328980  0.373934  1
  O  O30  1  0.498392  0.667389  0.633470  1
  O  O31  1  0.558046  0.610343  0.116856  1
  O  O32  1  0.618784  0.202054  0.028829  1
  O  O33  1  0.547883  0.971171  0.797946  1
  O  O34  1  0.608621  0.883144  0.389657  1
  O  O35  1  0.668274  0.366530  0.332611  1
  O  O36  1  0.664607  0.626066  0.671020  1
  O  O37  1  0.727119  0.114669  0.612260  1
  O  O38  1  0.785304  0.024128  0.201684  1
  O  O39  1  0.713646  0.793472  0.974371  1
  O  O40  1  0.775452  0.385432  0.888491  1
  O  O41  1  0.835185  0.331567  0.355938  1
  O  O42  1  0.830140  0.666652  0.630820  1
  O  O43  1  0.898207  0.609466  0.112506  1
  O  O44  1  0.962021  0.200764  0.018967  1
  O  O45  1  0.879090  0.971895  0.804778  1
  O  O46  1  0.930227  0.909454  0.396953  1
  O  O47  1  0.993297  0.630885  0.675328  1
  Si  Si48  1  0.092482  0.197734  0.376817  1
  Si  Si49  1  0.074185  0.623183  0.802266  1
  Si  Si50  1  0.259608  0.376827  0.190083  1
  Si  Si51  1  0.240392  0.808370  0.623368  1
  Si  Si52  1  0.423457  0.191903  0.383093  1
  Si  Si53  1  0.409834  0.621676  0.809910  1
  Si  Si54  1  0.589358  0.378285  0.195823  1
  Si  Si55  1  0.577309  0.804177  0.621715  1
  Si  Si56  1  0.756832  0.190090  0.378324  1
  Si  Si57  1  0.743210  0.616907  0.808097  1
  Si  Si58  1  0.926275  0.376632  0.191630  1
  Si  Si59  1  0.907058  0.809917  0.623173  1
