# generated using pymatgen
data_K3Fe5(PO4)6
_symmetry_space_group_name_H-M   'P 1'
_cell_length_a   6.54473243
_cell_length_b   10.85277434
_cell_length_c   16.05915129
_cell_angle_alpha   89.95520558
_cell_angle_beta   78.24373891
_cell_angle_gamma   89.77232390
_symmetry_Int_Tables_number   1
_chemical_formula_structural   K3Fe5(PO4)6
_chemical_formula_sum   'K6 Fe10 P12 O48'
_cell_volume   1116.72134836
_cell_formula_units_Z   2
loop_
 _symmetry_equiv_pos_site_id
 _symmetry_equiv_pos_as_xyz
  1  'x, y, z'
loop_
 _atom_site_type_symbol
 _atom_site_label
 _atom_site_symmetry_multiplicity
 _atom_site_fract_x
 _atom_site_fract_y
 _atom_site_fract_z
 _atom_site_occupancy
  K  K0  1  0.939769  0.750010  0.120415  1
  K  K1  1  0.785634  0.987729  0.723384  1
  K  K2  1  0.060232  0.249990  0.879585  1
  K  K3  1  0.509056  0.487704  0.276604  1
  K  K4  1  0.490944  0.512296  0.723396  1
  K  K5  1  0.214366  0.012271  0.276616  1
  Fe  Fe6  1  0.703272  0.077609  0.099665  1
  Fe  Fe7  1  0.802909  0.577598  0.900335  1
  Fe  Fe8  1  0.806640  0.249983  0.386581  1
  Fe  Fe9  1  0.197091  0.422402  0.099665  1
  Fe  Fe10  1  0.810489  0.749988  0.379066  1
  Fe  Fe11  1  0.000000  0.500000  0.500000  1
  Fe  Fe12  1  0.296728  0.922391  0.900335  1
  Fe  Fe13  1  0.189511  0.250012  0.620934  1
  Fe  Fe14  1  0.500000  0.000000  0.500000  1
  Fe  Fe15  1  0.193360  0.750017  0.613419  1
  P  P16  1  0.294791  0.997546  0.701950  1
  P  P17  1  0.216889  0.122888  0.060593  1
  P  P18  1  0.783111  0.877112  0.939407  1
  P  P19  1  0.003272  0.502486  0.701943  1
  P  P20  1  0.722546  0.377144  0.060610  1
  P  P21  1  0.718157  0.249979  0.563721  1
  P  P22  1  0.277454  0.622856  0.939390  1
  P  P23  1  0.705209  0.002454  0.298050  1
  P  P24  1  0.996728  0.497514  0.298057  1
  P  P25  1  0.281843  0.750021  0.436279  1
  P  P26  1  0.721590  0.750016  0.556924  1
  P  P27  1  0.278410  0.249984  0.443076  1
  O  O28  1  0.839031  0.882652  0.294037  1
  O  O29  1  0.768388  0.432092  0.969001  1
  O  O30  1  0.836013  0.511261  0.784298  1
  O  O31  1  0.163987  0.488739  0.215702  1
  O  O32  1  0.119977  0.571986  0.887949  1
  O  O33  1  0.501051  0.409856  0.109208  1
  O  O34  1  0.713793  0.141558  0.497231  1
  O  O35  1  0.788949  0.358410  0.497239  1
  O  O36  1  0.794311  0.735630  0.954756  1
  O  O37  1  0.211051  0.641590  0.502761  1
  O  O38  1  0.205689  0.264370  0.045244  1
  O  O39  1  0.379639  0.988817  0.784324  1
  O  O40  1  0.519936  0.997971  0.375230  1
  O  O41  1  0.262662  0.067930  0.968984  1
  O  O42  1  0.749097  0.235659  0.045268  1
  O  O43  1  0.156715  0.885524  0.693381  1
  O  O44  1  0.880023  0.428014  0.112051  1
  O  O45  1  0.498949  0.590144  0.890792  1
  O  O46  1  0.389782  0.090195  0.109201  1
  O  O47  1  0.895208  0.497936  0.624755  1
  O  O48  1  0.497479  0.722492  0.381444  1
  O  O49  1  0.502521  0.277508  0.618556  1
  O  O50  1  0.133041  0.382670  0.705992  1
  O  O51  1  0.118093  0.224618  0.388212  1
  O  O52  1  0.881907  0.775382  0.611788  1
  O  O53  1  0.866959  0.617330  0.294008  1
  O  O54  1  0.878986  0.222419  0.618532  1
  O  O55  1  0.992028  0.927983  0.887977  1
  O  O56  1  0.850053  0.385513  0.306643  1
  O  O57  1  0.208236  0.358843  0.509336  1
  O  O58  1  0.160969  0.117348  0.705963  1
  O  O59  1  0.480064  0.002029  0.624770  1
  O  O60  1  0.737338  0.932070  0.031016  1
  O  O61  1  0.717579  0.858864  0.490671  1
  O  O62  1  0.791764  0.641157  0.490664  1
  O  O63  1  0.250903  0.764341  0.954732  1
  O  O64  1  0.843285  0.114476  0.306619  1
  O  O65  1  0.620361  0.011183  0.215676  1
  O  O66  1  0.104792  0.502064  0.375245  1
  O  O67  1  0.282421  0.141136  0.509329  1
  O  O68  1  0.007972  0.072017  0.112023  1
  O  O69  1  0.286207  0.858442  0.502769  1
  O  O70  1  0.149947  0.614487  0.693357  1
  O  O71  1  0.231612  0.567908  0.030999  1
  O  O72  1  0.610218  0.909805  0.890799  1
  O  O73  1  0.121014  0.777581  0.381468  1
  O  O74  1  0.493592  0.275370  0.388211  1
  O  O75  1  0.506408  0.724630  0.611789  1
