# generated using pymatgen
data_AsS4N5F6
_symmetry_space_group_name_H-M   'P 1'
_cell_length_a   6.75544372
_cell_length_b   12.22720687
_cell_length_c   12.94470742
_cell_angle_alpha   95.58971173
_cell_angle_beta   90.00000000
_cell_angle_gamma   90.00000000
_symmetry_Int_Tables_number   1
_chemical_formula_structural   AsS4N5F6
_chemical_formula_sum   'As4 S16 N20 F24'
_cell_volume   1064.15120872
_cell_formula_units_Z   4
loop_
 _symmetry_equiv_pos_site_id
 _symmetry_equiv_pos_as_xyz
  1  'x, y, z'
loop_
 _atom_site_type_symbol
 _atom_site_label
 _atom_site_symmetry_multiplicity
 _atom_site_fract_x
 _atom_site_fract_y
 _atom_site_fract_z
 _atom_site_occupancy
  As  As0  1  0.155291  0.000000  0.250000  1
  As  As1  1  0.927857  0.500000  0.250000  1
  As  As2  1  0.072143  0.500000  0.750000  1
  As  As3  1  0.844709  0.000000  0.750000  1
  S  S4  1  0.193457  0.195085  0.548076  1
  S  S5  1  0.642451  0.638438  0.565166  1
  S  S6  1  0.586852  0.728456  0.916723  1
  S  S7  1  0.357549  0.361562  0.434834  1
  S  S8  1  0.806543  0.804915  0.451924  1
  S  S9  1  0.806543  0.195085  0.048076  1
  S  S10  1  0.328576  0.215797  0.869354  1
  S  S11  1  0.193457  0.804915  0.951924  1
  S  S12  1  0.328576  0.784203  0.630646  1
  S  S13  1  0.413148  0.271544  0.083277  1
  S  S14  1  0.586852  0.271544  0.583277  1
  S  S15  1  0.357549  0.638438  0.065166  1
  S  S16  1  0.413148  0.728456  0.416723  1
  S  S17  1  0.671424  0.215797  0.369354  1
  S  S18  1  0.671424  0.784203  0.130646  1
  S  S19  1  0.642451  0.361562  0.934834  1
  N  N20  1  0.397197  0.815679  0.896288  1
  N  N21  1  0.823504  0.270687  0.957905  1
  N  N22  1  0.708379  0.803875  0.014389  1
  N  N23  1  0.823504  0.729313  0.542095  1
  N  N24  1  0.176496  0.270687  0.457905  1
  N  N25  1  0.708379  0.196125  0.485611  1
  N  N26  1  0.489264  0.285983  0.341374  1
  N  N27  1  0.510736  0.714017  0.658626  1
  N  N28  1  0.503062  0.379654  0.037393  1
  N  N29  1  0.176496  0.729313  0.042095  1
  N  N30  1  0.291621  0.803875  0.514389  1
  N  N31  1  0.602803  0.815679  0.396288  1
  N  N32  1  0.496938  0.379654  0.537393  1
  N  N33  1  0.496938  0.620346  0.962607  1
  N  N34  1  0.489264  0.714017  0.158626  1
  N  N35  1  0.397197  0.184321  0.603712  1
  N  N36  1  0.291621  0.196125  0.985611  1
  N  N37  1  0.503062  0.620346  0.462607  1
  N  N38  1  0.510736  0.285983  0.841374  1
  N  N39  1  0.602803  0.184321  0.103712  1
  F  F40  1  0.968747  0.029700  0.345912  1
  F  F41  1  0.659050  0.030937  0.845961  1
  F  F42  1  0.659050  0.969063  0.654039  1
  F  F43  1  0.929102  0.354386  0.218630  1
  F  F44  1  0.928001  0.480647  0.384170  1
  F  F45  1  0.070898  0.354386  0.718630  1
  F  F46  1  0.154599  0.139141  0.222171  1
  F  F47  1  0.968747  0.970300  0.154088  1
  F  F48  1  0.340950  0.030937  0.345961  1
  F  F49  1  0.031253  0.029700  0.845912  1
  F  F50  1  0.809381  0.500000  0.750000  1
  F  F51  1  0.154599  0.860859  0.277829  1
  F  F52  1  0.071999  0.480647  0.884170  1
  F  F53  1  0.190619  0.500000  0.250000  1
  F  F54  1  0.845401  0.860859  0.777829  1
  F  F55  1  0.071999  0.519353  0.615830  1
  F  F56  1  0.666388  0.500000  0.250000  1
  F  F57  1  0.333612  0.500000  0.750000  1
  F  F58  1  0.845401  0.139141  0.722171  1
  F  F59  1  0.929102  0.645614  0.281370  1
  F  F60  1  0.031253  0.970300  0.654088  1
  F  F61  1  0.070898  0.645614  0.781370  1
  F  F62  1  0.340950  0.969063  0.154039  1
  F  F63  1  0.928001  0.519353  0.115830  1
