# generated using pymatgen
data_Ce11O20
_symmetry_space_group_name_H-M   'P 1'
_cell_length_a   6.76431974
_cell_length_b   6.77660898
_cell_length_c   10.28204984
_cell_angle_alpha   96.12245334
_cell_angle_beta   90.17614887
_cell_angle_gamma   99.72038151
_symmetry_Int_Tables_number   1
_chemical_formula_structural   Ce11O20
_chemical_formula_sum   'Ce11 O20'
_cell_volume   461.79730316
_cell_formula_units_Z   1
loop_
 _symmetry_equiv_pos_site_id
 _symmetry_equiv_pos_as_xyz
  1  'x, y, z'
loop_
 _atom_site_type_symbol
 _atom_site_label
 _atom_site_symmetry_multiplicity
 _atom_site_fract_x
 _atom_site_fract_y
 _atom_site_fract_z
 _atom_site_occupancy
  Ce  Ce0  1  0.000000  0.000000  0.000000  1
  Ce  Ce1  1  0.178298  0.100144  0.364063  1
  Ce  Ce2  1  0.821702  0.899856  0.635937  1
  Ce  Ce3  1  0.117911  0.553882  0.172106  1
  Ce  Ce4  1  0.882089  0.446118  0.827894  1
  Ce  Ce5  1  0.271910  0.639796  0.525564  1
  Ce  Ce6  1  0.728090  0.360204  0.474436  1
  Ce  Ce7  1  0.358668  0.145102  0.724288  1
  Ce  Ce8  1  0.641332  0.854898  0.275712  1
  Ce  Ce9  1  0.472007  0.735907  0.918110  1
  Ce  Ce10  1  0.527993  0.264093  0.081890  1
  O  O11  1  0.138012  0.653696  0.959924  1
  O  O12  1  0.861988  0.346304  0.040076  1
  O  O13  1  0.034235  0.160326  0.799883  1
  O  O14  1  0.965765  0.839674  0.200117  1
  O  O15  1  0.044724  0.432578  0.370272  1
  O  O16  1  0.955276  0.567422  0.629728  1
  O  O17  1  0.152402  0.942425  0.564639  1
  O  O18  1  0.847598  0.057575  0.435361  1
  O  O19  1  0.339866  0.034042  0.930775  1
  O  O20  1  0.660134  0.965958  0.069225  1
  O  O21  1  0.197958  0.222996  0.154051  1
  O  O22  1  0.802042  0.777004  0.845949  1
  O  O23  1  0.309896  0.799353  0.335676  1
  O  O24  1  0.690104  0.200647  0.664324  1
  O  O25  1  0.362349  0.329965  0.540845  1
  O  O26  1  0.637651  0.670035  0.459155  1
  O  O27  1  0.459597  0.818202  0.701835  1
  O  O28  1  0.540403  0.181798  0.298165  1
  O  O29  1  0.466061  0.590022  0.126893  1
  O  O30  1  0.533939  0.409978  0.873107  1
