# generated using pymatgen
data_Nd2Fe12P7
_symmetry_space_group_name_H-M   'P 1'
_cell_length_a   9.04888573
_cell_length_b   9.04888593
_cell_length_c   3.68310606
_cell_angle_alpha   90.00000000
_cell_angle_beta   90.00000000
_cell_angle_gamma   119.99999927
_symmetry_Int_Tables_number   1
_chemical_formula_structural   Nd2Fe12P7
_chemical_formula_sum   'Nd2 Fe12 P7'
_cell_volume   261.17708931
_cell_formula_units_Z   1
loop_
 _symmetry_equiv_pos_site_id
 _symmetry_equiv_pos_as_xyz
  1  'x, y, z'
loop_
 _atom_site_type_symbol
 _atom_site_label
 _atom_site_symmetry_multiplicity
 _atom_site_fract_x
 _atom_site_fract_y
 _atom_site_fract_z
 _atom_site_occupancy
  Nd  Nd0  1  0.333333  0.666667  0.000000  1
  Nd  Nd1  1  0.666667  0.333333  0.500000  1
  Fe  Fe2  1  0.424774  0.055060  0.000000  1
  Fe  Fe3  1  0.630286  0.575226  0.000000  1
  Fe  Fe4  1  0.944940  0.369714  0.000000  1
  Fe  Fe5  1  0.152390  0.272349  0.000000  1
  Fe  Fe6  1  0.119958  0.847610  0.000000  1
  Fe  Fe7  1  0.727651  0.880042  0.000000  1
  Fe  Fe8  1  0.382451  0.430515  0.500000  1
  Fe  Fe9  1  0.048064  0.617549  0.500000  1
  Fe  Fe10  1  0.569485  0.951936  0.500000  1
  Fe  Fe11  1  0.214007  0.096707  0.500000  1
  Fe  Fe12  1  0.882700  0.785993  0.500000  1
  Fe  Fe13  1  0.903293  0.117300  0.500000  1
  P  P14  1  0.406738  0.299002  0.000000  1
  P  P15  1  0.892264  0.593262  0.000000  1
  P  P16  1  0.700998  0.107736  0.000000  1
  P  P17  1  0.106937  0.396413  0.500000  1
  P  P18  1  0.289476  0.893063  0.500000  1
  P  P19  1  0.603587  0.710524  0.500000  1
  P  P20  1  0.000000  0.000000  0.000000  1
