# generated using pymatgen
data_NaCa4(BO3)3
_symmetry_space_group_name_H-M   'P 1'
_cell_length_a   6.52106923
_cell_length_b   6.55071029
_cell_length_c   10.78217997
_cell_angle_alpha   90.00000000
_cell_angle_beta   90.00000000
_cell_angle_gamma   119.85043138
_symmetry_Int_Tables_number   1
_chemical_formula_structural   NaCa4(BO3)3
_chemical_formula_sum   'Na2 Ca8 B6 O18'
_cell_volume   399.48179136
_cell_formula_units_Z   2
loop_
 _symmetry_equiv_pos_site_id
 _symmetry_equiv_pos_as_xyz
  1  'x, y, z'
loop_
 _atom_site_type_symbol
 _atom_site_label
 _atom_site_symmetry_multiplicity
 _atom_site_fract_x
 _atom_site_fract_y
 _atom_site_fract_z
 _atom_site_occupancy
  Na  Na0  1  0.225551  0.153026  0.250000  1
  Na  Na1  1  0.072525  0.846974  0.750000  1
  Ca  Ca2  1  0.718546  0.000000  0.000000  1
  Ca  Ca3  1  0.295388  0.701623  0.250000  1
  Ca  Ca4  1  0.593765  0.298377  0.750000  1
  Ca  Ca5  1  0.864377  0.572381  0.028517  1
  Ca  Ca6  1  0.718546  0.000000  0.500000  1
  Ca  Ca7  1  0.864377  0.572381  0.471483  1
  Ca  Ca8  1  0.291996  0.427619  0.971483  1
  Ca  Ca9  1  0.291996  0.427619  0.528517  1
  B  B10  1  0.854012  0.243167  0.250000  1
  B  B11  1  0.293823  0.000000  0.000000  1
  B  B12  1  0.293823  0.000000  0.500000  1
  B  B13  1  0.043363  0.346086  0.750000  1
  B  B14  1  0.697277  0.653914  0.250000  1
  B  B15  1  0.610845  0.756833  0.750000  1
  O  O16  1  0.082530  0.000000  0.500000  1
  O  O17  1  0.296509  0.794395  0.471031  1
  O  O18  1  0.572576  0.615689  0.360956  1
  O  O19  1  0.956887  0.384311  0.639044  1
  O  O20  1  0.662208  0.676791  0.860896  1
  O  O21  1  0.502114  0.205605  0.971031  1
  O  O22  1  0.985417  0.323209  0.139104  1
  O  O23  1  0.082530  0.000000  0.000000  1
  O  O24  1  0.985417  0.323209  0.360896  1
  O  O25  1  0.934234  0.720859  0.250000  1
  O  O26  1  0.213374  0.279141  0.750000  1
  O  O27  1  0.296509  0.794395  0.028969  1
  O  O28  1  0.615845  0.088194  0.250000  1
  O  O29  1  0.572576  0.615689  0.139044  1
  O  O30  1  0.502114  0.205605  0.528969  1
  O  O31  1  0.662208  0.676791  0.639104  1
  O  O32  1  0.956887  0.384311  0.860956  1
  O  O33  1  0.527651  0.911806  0.750000  1
