# generated using pymatgen
data_CsYbZnSe3
_symmetry_space_group_name_H-M   'P 1'
_cell_length_a   4.08785869
_cell_length_b   8.50875651
_cell_length_c   11.13381909
_cell_angle_alpha   90.00000000
_cell_angle_beta   90.00000000
_cell_angle_gamma   103.89921905
_symmetry_Int_Tables_number   1
_chemical_formula_structural   CsYbZnSe3
_chemical_formula_sum   'Cs2 Yb2 Zn2 Se6'
_cell_volume   375.92395320
_cell_formula_units_Z   2
loop_
 _symmetry_equiv_pos_site_id
 _symmetry_equiv_pos_as_xyz
  1  'x, y, z'
loop_
 _atom_site_type_symbol
 _atom_site_label
 _atom_site_symmetry_multiplicity
 _atom_site_fract_x
 _atom_site_fract_y
 _atom_site_fract_z
 _atom_site_occupancy
  Yb  Yb0  1  0.000000  0.000000  0.000000  1
  Yb  Yb1  1  0.000000  0.000000  0.500000  1
  Cs  Cs2  1  0.260507  0.521013  0.250000  1
  Cs  Cs3  1  0.739493  0.478987  0.750000  1
  Zn  Zn4  1  0.460955  0.921910  0.750000  1
  Zn  Zn5  1  0.539045  0.078090  0.250000  1
  Se  Se6  1  0.052743  0.105486  0.750000  1
  Se  Se7  1  0.947257  0.894514  0.250000  1
  Se  Se8  1  0.380859  0.761719  0.564122  1
  Se  Se9  1  0.619141  0.238281  0.064122  1
  Se  Se10  1  0.619141  0.238281  0.435878  1
  Se  Se11  1  0.380859  0.761719  0.935878  1
