# generated using pymatgen
data_MnAsO4
_symmetry_space_group_name_H-M   'P 1'
_cell_length_a   4.91252897
_cell_length_b   6.87832087
_cell_length_c   9.09682530
_cell_angle_alpha   90.00000000
_cell_angle_beta   90.00000000
_cell_angle_gamma   94.45224199
_symmetry_Int_Tables_number   1
_chemical_formula_structural   MnAsO4
_chemical_formula_sum   'Mn4 As4 O16'
_cell_volume   306.45371922
_cell_formula_units_Z   4
loop_
 _symmetry_equiv_pos_site_id
 _symmetry_equiv_pos_as_xyz
  1  'x, y, z'
loop_
 _atom_site_type_symbol
 _atom_site_label
 _atom_site_symmetry_multiplicity
 _atom_site_fract_x
 _atom_site_fract_y
 _atom_site_fract_z
 _atom_site_occupancy
  Mn  Mn0  1  0.500000  0.500000  0.500000  1
  Mn  Mn1  1  0.000000  0.000000  0.000000  1
  Mn  Mn2  1  0.000000  0.500000  0.000000  1
  Mn  Mn3  1  0.500000  0.000000  0.500000  1
  As  As4  1  0.962642  0.783212  0.320820  1
  As  As5  1  0.462642  0.283212  0.179180  1
  As  As6  1  0.037358  0.216788  0.679180  1
  As  As7  1  0.537358  0.716788  0.820820  1
  O  O8  1  0.308339  0.064219  0.122438  1
  O  O9  1  0.686846  0.512232  0.875790  1
  O  O10  1  0.191661  0.435781  0.622438  1
  O  O11  1  0.702740  0.212226  0.620307  1
  O  O12  1  0.797260  0.287774  0.120307  1
  O  O13  1  0.581726  0.727588  0.629924  1
  O  O14  1  0.081726  0.227588  0.870076  1
  O  O15  1  0.918274  0.772412  0.129924  1
  O  O16  1  0.691661  0.935781  0.877562  1
  O  O17  1  0.186846  0.012232  0.624210  1
  O  O18  1  0.808339  0.564219  0.377562  1
  O  O19  1  0.202740  0.712226  0.879693  1
  O  O20  1  0.813154  0.987768  0.375790  1
  O  O21  1  0.297260  0.787774  0.379693  1
  O  O22  1  0.418274  0.272412  0.370076  1
  O  O23  1  0.313154  0.487768  0.124210  1
