# generated using pymatgen
data_ZrMn2Ag4(MoO4)6
_symmetry_space_group_name_H-M   'P 1'
_cell_length_a   5.48775738
_cell_length_b   19.32220276
_cell_length_c   21.81078210
_cell_angle_alpha   90.00000000
_cell_angle_beta   90.00000000
_cell_angle_gamma   90.00000000
_symmetry_Int_Tables_number   1
_chemical_formula_structural   ZrMn2Ag4(MoO4)6
_chemical_formula_sum   'Zr4 Mn8 Ag16 Mo24 O96'
_cell_volume   2312.71851133
_cell_formula_units_Z   4
loop_
 _symmetry_equiv_pos_site_id
 _symmetry_equiv_pos_as_xyz
  1  'x, y, z'
loop_
 _atom_site_type_symbol
 _atom_site_label
 _atom_site_symmetry_multiplicity
 _atom_site_fract_x
 _atom_site_fract_y
 _atom_site_fract_z
 _atom_site_occupancy
  Zr  Zr0  1  0.649345  0.000267  0.632130  1
  Zr  Zr1  1  0.850655  0.999733  0.132130  1
  Zr  Zr2  1  0.350655  0.500267  0.867870  1
  Zr  Zr3  1  0.149345  0.499733  0.367870  1
  Mn  Mn4  1  0.483643  0.962433  0.882942  1
  Mn  Mn5  1  0.521680  0.266961  0.220032  1
  Mn  Mn6  1  0.478320  0.766961  0.279968  1
  Mn  Mn7  1  0.016357  0.037567  0.382942  1
  Mn  Mn8  1  0.021680  0.233039  0.779968  1
  Mn  Mn9  1  0.983643  0.537567  0.117058  1
  Mn  Mn10  1  0.978320  0.733039  0.720032  1
  Mn  Mn11  1  0.516357  0.462433  0.617058  1
  Ag  Ag12  1  0.487447  0.787342  0.810477  1
  Ag  Ag13  1  0.006837  0.220943  0.458852  1
  Ag  Ag14  1  0.010140  0.223485  0.957126  1
  Ag  Ag15  1  0.498495  0.921097  0.383886  1
  Ag  Ag16  1  0.501505  0.421097  0.116114  1
  Ag  Ag17  1  0.989860  0.723485  0.542874  1
  Ag  Ag18  1  0.510140  0.276515  0.042874  1
  Ag  Ag19  1  0.993163  0.720943  0.041148  1
  Ag  Ag20  1  0.012553  0.212658  0.310477  1
  Ag  Ag21  1  0.998495  0.578903  0.616114  1
  Ag  Ag22  1  0.001505  0.078903  0.883886  1
  Ag  Ag23  1  0.987447  0.712658  0.189523  1
  Ag  Ag24  1  0.506837  0.279057  0.541148  1
  Ag  Ag25  1  0.493163  0.779057  0.958852  1
  Ag  Ag26  1  0.489860  0.776515  0.457126  1
  Ag  Ag27  1  0.512553  0.287342  0.689523  1
  Mo  Mo28  1  0.003703  0.175332  0.625328  1
  Mo  Mo29  1  0.465955  0.813125  0.635178  1
  Mo  Mo30  1  0.503703  0.324668  0.374672  1
  Mo  Mo31  1  0.502243  0.092501  0.999831  1
  Mo  Mo32  1  0.988285  0.396537  0.229378  1
  Mo  Mo33  1  0.457723  0.586545  0.223550  1
  Mo  Mo34  1  0.997757  0.907499  0.499831  1
  Mo  Mo35  1  0.957723  0.913455  0.776450  1
  Mo  Mo36  1  0.497757  0.592501  0.500169  1
  Mo  Mo37  1  0.011715  0.896537  0.270622  1
  Mo  Mo38  1  0.042277  0.413455  0.723550  1
  Mo  Mo39  1  0.511715  0.603463  0.729378  1
  Mo  Mo40  1  0.491567  0.086460  0.484480  1
  Mo  Mo41  1  0.991567  0.413540  0.515520  1
  Mo  Mo42  1  0.496297  0.824668  0.125328  1
  Mo  Mo43  1  0.965955  0.686875  0.364822  1
  Mo  Mo44  1  0.508433  0.586460  0.015520  1
  Mo  Mo45  1  0.488285  0.103463  0.770622  1
  Mo  Mo46  1  0.534045  0.313126  0.864822  1
  Mo  Mo47  1  0.002243  0.407499  0.000169  1
  Mo  Mo48  1  0.542277  0.086545  0.276450  1
  Mo  Mo49  1  0.008433  0.913540  0.984480  1
  Mo  Mo50  1  0.034045  0.186874  0.135178  1
  Mo  Mo51  1  0.996297  0.675332  0.874672  1
  O  O52  1  0.240766  0.368827  0.043746  1
  O  O53  1  0.304578  0.159747  0.025030  1
  O  O54  1  0.049197  0.957133  0.059564  1
  O  O55  1  0.950803  0.457133  0.440436  1
  O  O56  1  0.831423  0.466198  0.681712  1
  O  O57  1  0.121963  0.454093  0.933389  1
  O  O58  1  0.740766  0.131173  0.956254  1
  O  O59  1  0.942500  0.591438  0.364707  1
  O  O60  1  0.892017  0.333063  0.740144  1
  O  O61  1  0.668577  0.533802  0.181712  1
  O  O62  1  0.695352  0.317359  0.439985  1
  O  O63  1  0.442500  0.908562  0.635293  1
  O  O64  1  0.868051  0.952324  0.325627  1
  O  O65  1  0.684768  0.031312  0.439525  1
  O  O66  1  0.621963  0.045907  0.066611  1
  O  O67  1  0.195422  0.840253  0.525030  1
  O  O68  1  0.168577  0.966198  0.818288  1
  O  O69  1  0.939352  0.447002  0.299333  1
  O  O70  1  0.853712  0.207979  0.201457  1
  O  O71  1  0.368051  0.547676  0.674373  1
  O  O72  1  0.439352  0.052998  0.700667  1
  O  O73  1  0.631949  0.047676  0.825627  1
  O  O74  1  0.139096  0.717889  0.427546  1
  O  O75  1  0.450803  0.042867  0.559564  1
  O  O76  1  0.131949  0.452324  0.174373  1
  O  O77  1  0.549197  0.542867  0.940436  1
  O  O78  1  0.639096  0.782111  0.572454  1
  O  O79  1  0.304648  0.817359  0.060015  1
  O  O80  1  0.184768  0.468688  0.560475  1
  O  O81  1  0.783201  0.638098  0.692780  1
  O  O82  1  0.330642  0.037521  0.947846  1
  O  O83  1  0.337976  0.663525  0.006099  1
  O  O84  1  0.695661  0.894310  0.824228  1
  O  O85  1  0.195352  0.182641  0.560015  1
  O  O86  1  0.216799  0.138098  0.807220  1
  O  O87  1  0.779192  0.606593  0.059851  1
  O  O88  1  0.557500  0.408562  0.864707  1
  O  O89  1  0.720808  0.393407  0.559851  1
  O  O90  1  0.317786  0.234469  0.141699  1
  O  O91  1  0.353712  0.292021  0.798543  1
  O  O92  1  0.820553  0.701603  0.807940  1
  O  O93  1  0.259234  0.631173  0.543746  1
  O  O94  1  0.220808  0.106593  0.440149  1
  O  O95  1  0.679447  0.298397  0.307940  1
  O  O96  1  0.804578  0.340253  0.974970  1
  O  O97  1  0.878037  0.954093  0.566611  1
  O  O98  1  0.882395  0.087257  0.632397  1
  O  O99  1  0.646288  0.792021  0.701457  1
  O  O100  1  0.057500  0.091438  0.135293  1
  O  O101  1  0.738288  0.763612  0.117261  1
  O  O102  1  0.662024  0.163525  0.493901  1
  O  O103  1  0.861193  0.956780  0.706495  1
  O  O104  1  0.804648  0.682641  0.939985  1
  O  O105  1  0.138807  0.456780  0.793505  1
  O  O106  1  0.695422  0.659747  0.474970  1
  O  O107  1  0.560648  0.552998  0.799333  1
  O  O108  1  0.300346  0.671120  0.745586  1
  O  O109  1  0.860904  0.217889  0.072454  1
  O  O110  1  0.830642  0.462479  0.052154  1
  O  O111  1  0.800346  0.828880  0.254414  1
  O  O112  1  0.107983  0.833063  0.759856  1
  O  O113  1  0.182214  0.765531  0.641699  1
  O  O114  1  0.331423  0.033802  0.318288  1
  O  O115  1  0.060648  0.947002  0.200667  1
  O  O116  1  0.638807  0.043220  0.206495  1
  O  O117  1  0.195661  0.605690  0.175772  1
  O  O118  1  0.304339  0.394310  0.675772  1
  O  O119  1  0.761712  0.236388  0.617261  1
  O  O120  1  0.682214  0.734469  0.358301  1
  O  O121  1  0.378037  0.545907  0.433389  1
  O  O122  1  0.261712  0.263612  0.382739  1
  O  O123  1  0.283201  0.861902  0.307220  1
  O  O124  1  0.146288  0.707979  0.298543  1
  O  O125  1  0.169358  0.962479  0.447846  1
  O  O126  1  0.817786  0.265531  0.858301  1
  O  O127  1  0.320553  0.798397  0.192060  1
  O  O128  1  0.759234  0.868827  0.456254  1
  O  O129  1  0.162024  0.336475  0.506099  1
  O  O130  1  0.238288  0.736388  0.882739  1
  O  O131  1  0.279192  0.893407  0.940149  1
  O  O132  1  0.361193  0.543220  0.293505  1
  O  O133  1  0.360904  0.282111  0.927546  1
  O  O134  1  0.179447  0.201603  0.692060  1
  O  O135  1  0.837976  0.836475  0.993901  1
  O  O136  1  0.392017  0.166937  0.259856  1
  O  O137  1  0.669358  0.537521  0.552154  1
  O  O138  1  0.199654  0.328880  0.245586  1
  O  O139  1  0.617605  0.912743  0.132397  1
  O  O140  1  0.315232  0.531312  0.060475  1
  O  O141  1  0.607983  0.666937  0.240144  1
  O  O142  1  0.815232  0.968688  0.939525  1
  O  O143  1  0.716799  0.361902  0.192780  1
  O  O144  1  0.382395  0.412743  0.367603  1
  O  O145  1  0.117605  0.587257  0.867603  1
  O  O146  1  0.804339  0.105690  0.324228  1
  O  O147  1  0.699654  0.171120  0.754414  1
