# generated using pymatgen
data_Na2Ca2(CO3)3
_symmetry_space_group_name_H-M   'P 1'
_cell_length_a   5.00689680
_cell_length_b   6.63845451
_cell_length_c   6.63845351
_cell_angle_alpha   114.34371948
_cell_angle_beta   90.00000000
_cell_angle_gamma   90.00000000
_symmetry_Int_Tables_number   1
_chemical_formula_structural   Na2Ca2(CO3)3
_chemical_formula_sum   'Na2 Ca2 C3 O9'
_cell_volume   201.03114559
_cell_formula_units_Z   1
loop_
 _symmetry_equiv_pos_site_id
 _symmetry_equiv_pos_as_xyz
  1  'x, y, z'
loop_
 _atom_site_type_symbol
 _atom_site_label
 _atom_site_symmetry_multiplicity
 _atom_site_fract_x
 _atom_site_fract_y
 _atom_site_fract_z
 _atom_site_occupancy
  Na  Na0  1  0.000000  0.925877  0.925877  1
  Na  Na1  1  0.500000  0.612371  0.612371  1
  Ca  Ca2  1  0.500000  0.215009  0.782247  1
  Ca  Ca3  1  0.500000  0.782247  0.215009  1
  C  C4  1  0.000000  0.873902  0.465711  1
  C  C5  1  0.000000  0.465711  0.873902  1
  C  C6  1  0.500000  0.225725  0.225725  1
  O  O7  1  0.500000  0.413225  0.210182  1
  O  O8  1  0.500000  0.210182  0.413225  1
  O  O9  1  0.000000  0.876626  0.272464  1
  O  O10  1  0.500000  0.041837  0.041837  1
  O  O11  1  0.000000  0.272464  0.876626  1
  O  O12  1  0.226107  0.869618  0.560845  1
  O  O13  1  0.773893  0.560845  0.869618  1
  O  O14  1  0.773893  0.869618  0.560845  1
  O  O15  1  0.226107  0.560845  0.869618  1
