# generated using pymatgen
data_CdI2
_symmetry_space_group_name_H-M   'P 1'
_cell_length_a   4.33984986
_cell_length_b   4.33985012
_cell_length_c   100.45348900
_cell_angle_alpha   90.00000000
_cell_angle_beta   90.00000000
_cell_angle_gamma   119.99999800
_symmetry_Int_Tables_number   1
_chemical_formula_structural   CdI2
_chemical_formula_sum   'Cd13 I26'
_cell_volume   1638.49493147
_cell_formula_units_Z   13
loop_
 _symmetry_equiv_pos_site_id
 _symmetry_equiv_pos_as_xyz
  1  'x, y, z'
loop_
 _atom_site_type_symbol
 _atom_site_label
 _atom_site_symmetry_multiplicity
 _atom_site_fract_x
 _atom_site_fract_y
 _atom_site_fract_z
 _atom_site_occupancy
  Cd  Cd0  1  0.000000  0.000000  0.865398  1
  Cd  Cd1  1  0.000000  0.000000  0.711474  1
  Cd  Cd2  1  0.333333  0.666667  0.327120  1
  Cd  Cd3  1  0.000000  0.000000  0.096014  1
  Cd  Cd4  1  0.333333  0.666667  0.942476  1
  Cd  Cd5  1  0.333333  0.666667  0.480858  1
  Cd  Cd6  1  0.333333  0.666667  0.788281  1
  Cd  Cd7  1  0.333333  0.666667  0.634737  1
  Cd  Cd8  1  0.333333  0.666667  0.173077  1
  Cd  Cd9  1  0.333333  0.666667  0.018943  1
  Cd  Cd10  1  0.000000  0.000000  0.249985  1
  Cd  Cd11  1  0.000000  0.000000  0.557713  1
  Cd  Cd12  1  0.000000  0.000000  0.403921  1
  I  I13  1  0.666667  0.333333  0.651826  1
  I  I14  1  0.333333  0.666667  0.232895  1
  I  I15  1  0.000000  0.000000  0.155970  1
  I  I16  1  0.333333  0.666667  0.694381  1
  I  I17  1  0.666667  0.333333  0.959561  1
  I  I18  1  0.666667  0.333333  0.728564  1
  I  I19  1  0.666667  0.333333  0.190172  1
  I  I20  1  0.666667  0.333333  0.805388  1
  I  I21  1  0.000000  0.000000  0.463780  1
  I  I22  1  0.666667  0.333333  0.497957  1
  I  I23  1  0.666667  0.333333  0.344211  1
  I  I24  1  0.666667  0.333333  0.574797  1
  I  I25  1  0.666667  0.333333  0.036031  1
  I  I26  1  0.666667  0.333333  0.267067  1
  I  I27  1  0.000000  0.000000  0.310017  1
  I  I28  1  0.000000  0.000000  0.001851  1
  I  I29  1  0.000000  0.000000  0.617659  1
  I  I30  1  0.666667  0.333333  0.113112  1
  I  I31  1  0.333333  0.666667  0.386822  1
  I  I32  1  0.333333  0.666667  0.848308  1
  I  I33  1  0.000000  0.000000  0.771193  1
  I  I34  1  0.666667  0.333333  0.882482  1
  I  I35  1  0.333333  0.666667  0.540626  1
  I  I36  1  0.666667  0.333333  0.421016  1
  I  I37  1  0.333333  0.666667  0.078916  1
  I  I38  1  0.000000  0.000000  0.925398  1
