# generated using pymatgen
data_BaFe4O7
_symmetry_space_group_name_H-M   'P 1'
_cell_length_a   5.11619652
_cell_length_b   5.11619645
_cell_length_c   13.92456239
_cell_angle_alpha   90.00000000
_cell_angle_beta   90.00000000
_cell_angle_gamma   120.00000047
_symmetry_Int_Tables_number   1
_chemical_formula_structural   BaFe4O7
_chemical_formula_sum   'Ba2 Fe8 O14'
_cell_volume   315.65059694
_cell_formula_units_Z   2
loop_
 _symmetry_equiv_pos_site_id
 _symmetry_equiv_pos_as_xyz
  1  'x, y, z'
loop_
 _atom_site_type_symbol
 _atom_site_label
 _atom_site_symmetry_multiplicity
 _atom_site_fract_x
 _atom_site_fract_y
 _atom_site_fract_z
 _atom_site_occupancy
  Ba  Ba0  1  0.666667  0.333333  0.250000  1
  Ba  Ba1  1  0.333333  0.666667  0.750000  1
  Fe  Fe2  1  0.000000  0.000000  0.112524  1
  Fe  Fe3  1  0.000000  0.000000  0.612524  1
  Fe  Fe4  1  0.000000  0.000000  0.887476  1
  Fe  Fe5  1  0.000000  0.000000  0.387476  1
  Fe  Fe6  1  0.333333  0.666667  0.003339  1
  Fe  Fe7  1  0.666667  0.333333  0.503339  1
  Fe  Fe8  1  0.666667  0.333333  0.996661  1
  Fe  Fe9  1  0.333333  0.666667  0.496661  1
  O  O10  1  0.000000  0.000000  0.250000  1
  O  O11  1  0.000000  0.000000  0.750000  1
  O  O12  1  0.362498  0.007473  0.078666  1
  O  O13  1  0.355025  0.362498  0.578666  1
  O  O14  1  0.007473  0.644975  0.578666  1
  O  O15  1  0.992527  0.355025  0.078666  1
  O  O16  1  0.644975  0.637502  0.078666  1
  O  O17  1  0.637502  0.992527  0.578666  1
  O  O18  1  0.637502  0.992527  0.921334  1
  O  O19  1  0.644975  0.637502  0.421334  1
  O  O20  1  0.992527  0.355025  0.421334  1
  O  O21  1  0.007473  0.644975  0.921334  1
  O  O22  1  0.355025  0.362498  0.921334  1
  O  O23  1  0.362498  0.007473  0.421334  1
