# generated using pymatgen
data_Ba2Mg3F10
_symmetry_space_group_name_H-M   'P 1'
_cell_length_a   6.03268002
_cell_length_b   7.92772049
_cell_length_c   9.84540909
_cell_angle_alpha   110.88980637
_cell_angle_beta   107.84061882
_cell_angle_gamma   90.00000199
_symmetry_Int_Tables_number   1
_chemical_formula_structural   Ba2Mg3F10
_chemical_formula_sum   'Ba4 Mg6 F20'
_cell_volume   415.58455439
_cell_formula_units_Z   2
loop_
 _symmetry_equiv_pos_site_id
 _symmetry_equiv_pos_as_xyz
  1  'x, y, z'
loop_
 _atom_site_type_symbol
 _atom_site_label
 _atom_site_symmetry_multiplicity
 _atom_site_fract_x
 _atom_site_fract_y
 _atom_site_fract_z
 _atom_site_occupancy
  Ba  Ba0  1  0.716241  0.315201  0.432483  1
  Ba  Ba1  1  0.283759  0.684799  0.567517  1
  Ba  Ba2  1  0.613712  0.719071  0.227425  1
  Ba  Ba3  1  0.386288  0.280929  0.772575  1
  Mg  Mg4  1  0.925765  0.545889  0.851530  1
  Mg  Mg5  1  0.074235  0.454111  0.148470  1
  Mg  Mg6  1  0.822915  0.985700  0.645830  1
  Mg  Mg7  1  0.177085  0.014300  0.354170  1
  Mg  Mg8  1  0.253966  1.000000  1.000000  1
  Mg  Mg9  1  0.746034  0.000000  0.000000  1
  F  F10  1  0.142132  0.975279  0.778441  1
  F  F11  1  0.363691  0.024721  0.221559  1
  F  F12  1  0.857868  0.024721  0.221559  1
  F  F13  1  0.636309  0.975279  0.778441  1
  F  F14  1  0.089605  0.525359  0.703119  1
  F  F15  1  0.386486  0.474641  0.296881  1
  F  F16  1  0.910395  0.474641  0.296881  1
  F  F17  1  0.613514  0.525359  0.703119  1
  F  F18  1  0.977614  0.818196  0.955228  1
  F  F19  1  0.022386  0.181804  0.044772  1
  F  F20  1  0.865645  0.256506  0.731289  1
  F  F21  1  0.134355  0.743494  0.268711  1
  F  F22  1  0.763655  0.722004  0.527310  1
  F  F23  1  0.236345  0.277996  0.472690  1
  F  F24  1  0.482899  0.820767  0.965798  1
  F  F25  1  0.517101  0.179233  0.034202  1
  F  F26  1  0.218784  0.500000  1.000000  1
  F  F27  1  0.781216  0.500000  0.000000  1
  F  F28  1  0.000000  0.000000  0.500000  1
  F  F29  1  0.500000  0.000000  0.500000  1
