# generated using pymatgen
data_K4Hf3Te17
_symmetry_space_group_name_H-M   'P 1'
_cell_length_a   10.42084011
_cell_length_b   11.97144767
_cell_length_c   31.17634547
_cell_angle_alpha   90.00000000
_cell_angle_beta   90.00000000
_cell_angle_gamma   116.14467975
_symmetry_Int_Tables_number   1
_chemical_formula_structural   K4Hf3Te17
_chemical_formula_sum   'K16 Hf12 Te68'
_cell_volume   3491.38874088
_cell_formula_units_Z   4
loop_
 _symmetry_equiv_pos_site_id
 _symmetry_equiv_pos_as_xyz
  1  'x, y, z'
loop_
 _atom_site_type_symbol
 _atom_site_label
 _atom_site_symmetry_multiplicity
 _atom_site_fract_x
 _atom_site_fract_y
 _atom_site_fract_z
 _atom_site_occupancy
  K  K0  1  0.262098  0.461662  0.980806  1
  K  K1  1  0.696467  0.435062  0.722888  1
  K  K2  1  0.262098  0.961662  0.519194  1
  K  K3  1  0.771226  0.019816  0.932763  1
  K  K4  1  0.771226  0.519816  0.567237  1
  K  K5  1  0.228774  0.980184  0.067237  1
  K  K6  1  0.240472  0.964296  0.705389  1
  K  K7  1  0.759528  0.035704  0.294611  1
  K  K8  1  0.737902  0.038338  0.480806  1
  K  K9  1  0.303533  0.564938  0.277112  1
  K  K10  1  0.228774  0.480184  0.432763  1
  K  K11  1  0.696467  0.935062  0.777112  1
  K  K12  1  0.759528  0.535704  0.205389  1
  K  K13  1  0.240472  0.464296  0.794611  1
  K  K14  1  0.737902  0.538338  0.019194  1
  K  K15  1  0.303533  0.064938  0.222888  1
  Hf  Hf16  1  0.551152  0.334125  0.382035  1
  Hf  Hf17  1  0.214136  0.505265  0.118863  1
  Hf  Hf18  1  0.117755  0.824777  0.880756  1
  Hf  Hf19  1  0.785864  0.994735  0.618863  1
  Hf  Hf20  1  0.448848  0.665875  0.617965  1
  Hf  Hf21  1  0.448848  0.165875  0.882035  1
  Hf  Hf22  1  0.117755  0.324777  0.619244  1
  Hf  Hf23  1  0.551152  0.834125  0.117965  1
  Hf  Hf24  1  0.214136  0.005265  0.381137  1
  Hf  Hf25  1  0.882245  0.175223  0.119244  1
  Hf  Hf26  1  0.882245  0.675223  0.380756  1
  Hf  Hf27  1  0.785864  0.494735  0.881137  1
  Te  Te28  1  0.689956  0.772175  0.677855  1
  Te  Te29  1  0.310044  0.727825  0.177855  1
  Te  Te30  1  0.301841  0.715465  0.055925  1
  Te  Te31  1  0.799197  0.240524  0.599959  1
  Te  Te32  1  0.868927  0.916868  0.114046  1
  Te  Te33  1  0.799197  0.740524  0.900041  1
  Te  Te34  1  0.398132  0.709315  0.707675  1
  Te  Te35  1  0.301841  0.215465  0.444075  1
  Te  Te36  1  -0.003538  0.656256  0.469755  1
  Te  Te37  1  0.007644  0.658336  0.294089  1
  Te  Te38  1  0.062851  0.631360  0.697240  1
  Te  Te39  1  0.398132  0.209315  0.792325  1
  Te  Te40  1  0.016302  0.620768  0.105850  1
  Te  Te41  1  0.596200  0.784615  0.026747  1
  Te  Te42  1  0.131073  0.583132  0.614046  1
  Te  Te43  1  0.372440  0.260112  0.617816  1
  Te  Te44  1  0.372440  0.760112  0.882184  1
  Te  Te45  1  0.310044  0.227825  0.322145  1
  Te  Te46  1  0.616224  0.546881  0.438913  1
  Te  Te47  1  0.022887  0.608494  0.943167  1
  Te  Te48  1  0.698159  0.784535  0.555925  1
  Te  Te49  1  0.383776  0.453119  0.561087  1
  Te  Te50  1  0.983698  0.879232  0.605850  1
  Te  Te51  1  0.596200  0.284615  0.473253  1
  Te  Te52  1  0.373706  0.412758  0.176351  1
  Te  Te53  1  0.626294  0.587242  0.823649  1
  Te  Te54  1  0.986878  0.381988  0.182716  1
  Te  Te55  1  0.523137  0.576107  0.106196  1
  Te  Te56  1  0.403800  0.215385  0.973253  1
  Te  Te57  1  0.200803  0.759476  0.400041  1
  Te  Te58  1  0.013122  0.118012  0.682716  1
  Te  Te59  1  0.601868  0.290685  0.292325  1
  Te  Te60  1  0.983698  0.379232  0.894150  1
  Te  Te61  1  0.622983  0.546376  0.323318  1
  Te  Te62  1  0.698159  0.284535  0.944075  1
  Te  Te63  1  0.627560  0.739888  0.382184  1
  Te  Te64  1  0.977113  0.891506  0.443167  1
  Te  Te65  1  0.016302  0.120767  0.394150  1
  Te  Te66  1  0.022887  0.108494  0.556833  1
  Te  Te67  1  0.013122  0.618012  0.817284  1
  Te  Te68  1  0.937149  0.868640  0.197240  1
  Te  Te69  1  0.377017  0.453624  0.676682  1
  Te  Te70  1  0.377017  0.953624  0.823318  1
  Te  Te71  1  0.062851  0.131360  0.802760  1
  Te  Te72  1  0.476863  0.423893  0.893804  1
  Te  Te73  1  0.476863  0.923893  0.606196  1
  Te  Te74  1  0.868927  0.416868  0.385954  1
  Te  Te75  1  1.003538  0.843744  0.969755  1
  Te  Te76  1  0.626294  0.087242  0.676351  1
  Te  Te77  1  0.007644  0.158336  0.205911  1
  Te  Te78  1  0.992356  0.341664  0.705911  1
  Te  Te79  1  -0.003538  0.156256  0.030245  1
  Te  Te80  1  1.003538  0.343744  0.530245  1
  Te  Te81  1  0.523137  0.076107  0.393804  1
  Te  Te82  1  0.986878  0.881988  0.317284  1
  Te  Te83  1  0.131073  0.083132  0.885954  1
  Te  Te84  1  0.403800  0.715385  0.526747  1
  Te  Te85  1  0.937149  0.368640  0.302760  1
  Te  Te86  1  0.627560  0.239888  0.117816  1
  Te  Te87  1  0.689956  0.272175  0.822145  1
  Te  Te88  1  0.200803  0.259476  0.099959  1
  Te  Te89  1  0.373706  0.912758  0.323649  1
  Te  Te90  1  0.977113  0.391506  0.056833  1
  Te  Te91  1  0.383776  0.953119  0.938913  1
  Te  Te92  1  0.616224  0.046881  0.061087  1
  Te  Te93  1  0.992356  0.841664  0.794089  1
  Te  Te94  1  0.601868  0.790685  0.207675  1
  Te  Te95  1  0.622983  0.046376  0.176682  1
