# generated using pymatgen
data_Ti2Bi2O7
_symmetry_space_group_name_H-M   'P 1'
_cell_length_a   7.36317121
_cell_length_b   7.36317101
_cell_length_c   7.36317093
_cell_angle_alpha   60.00000030
_cell_angle_beta   60.00000122
_cell_angle_gamma   59.99999986
_symmetry_Int_Tables_number   1
_chemical_formula_structural   Ti2Bi2O7
_chemical_formula_sum   'Ti4 Bi4 O14'
_cell_volume   282.27971803
_cell_formula_units_Z   2
loop_
 _symmetry_equiv_pos_site_id
 _symmetry_equiv_pos_as_xyz
  1  'x, y, z'
loop_
 _atom_site_type_symbol
 _atom_site_label
 _atom_site_symmetry_multiplicity
 _atom_site_fract_x
 _atom_site_fract_y
 _atom_site_fract_z
 _atom_site_occupancy
  Ti  Ti0  1  0.000000  0.000000  0.500000  1
  Ti  Ti1  1  0.000000  0.500000  0.000000  1
  Ti  Ti2  1  0.000000  0.000000  0.000000  1
  Ti  Ti3  1  0.500000  0.000000  0.000000  1
  Bi  Bi4  1  0.500000  0.500000  0.500000  1
  Bi  Bi5  1  0.500000  0.500000  0.000000  1
  Bi  Bi6  1  0.000000  0.500000  0.500000  1
  Bi  Bi7  1  0.500000  0.000000  0.500000  1
  O  O8  1  0.676180  0.676180  0.073820  1
  O  O9  1  0.073820  0.676180  0.676180  1
  O  O10  1  0.375000  0.375000  0.375000  1
  O  O11  1  0.323820  0.323820  0.926180  1
  O  O12  1  0.676180  0.073820  0.676180  1
  O  O13  1  0.073820  0.073820  0.676180  1
  O  O14  1  0.676180  0.073820  0.073820  1
  O  O15  1  0.926180  0.323820  0.323820  1
  O  O16  1  0.926180  0.926180  0.323820  1
  O  O17  1  0.073820  0.676180  0.073820  1
  O  O18  1  0.323820  0.926180  0.926180  1
  O  O19  1  0.926180  0.323820  0.926180  1
  O  O20  1  0.323820  0.926180  0.323820  1
  O  O21  1  0.625000  0.625000  0.625000  1
