# generated using pymatgen
data_CrHg5S2O5
_symmetry_space_group_name_H-M   'P 1'
_cell_length_a   7.19249442
_cell_length_b   8.45963047
_cell_length_c   9.67455606
_cell_angle_alpha   83.13316000
_cell_angle_beta   80.45901228
_cell_angle_gamma   69.07803385
_symmetry_Int_Tables_number   1
_chemical_formula_structural   CrHg5S2O5
_chemical_formula_sum   'Cr2 Hg10 S4 O10'
_cell_volume   541.07330568
_cell_formula_units_Z   2
loop_
 _symmetry_equiv_pos_site_id
 _symmetry_equiv_pos_as_xyz
  1  'x, y, z'
loop_
 _atom_site_type_symbol
 _atom_site_label
 _atom_site_symmetry_multiplicity
 _atom_site_fract_x
 _atom_site_fract_y
 _atom_site_fract_z
 _atom_site_occupancy
  Hg  Hg0  1  0.850354  0.434935  0.918119  1
  Hg  Hg1  1  0.149646  0.565065  0.081881  1
  Hg  Hg2  1  0.613388  0.719099  0.026421  1
  Hg  Hg3  1  0.386612  0.280901  0.973579  1
  Hg  Hg4  1  0.000000  0.000000  0.000000  1
  Hg  Hg5  1  0.000000  0.500000  0.500000  1
  Hg  Hg6  1  0.192863  0.820174  0.348142  1
  Hg  Hg7  1  0.807137  0.179826  0.651858  1
  Hg  Hg8  1  0.667705  0.878219  0.338813  1
  Hg  Hg9  1  0.332295  0.121781  0.661187  1
  Cr  Cr10  1  0.407033  0.622667  0.701165  1
  Cr  Cr11  1  0.592967  0.377333  0.298835  1
  S  S12  1  0.409729  0.950311  0.188708  1
  S  S13  1  0.590271  0.049689  0.811292  1
  S  S14  1  0.896777  0.801531  0.511550  1
  S  S15  1  0.103223  0.198469  0.488450  1
  O  O16  1  0.260707  0.510621  0.696319  1
  O  O17  1  0.739293  0.489379  0.303681  1
  O  O18  1  0.650139  0.488750  0.695761  1
  O  O19  1  0.349861  0.511250  0.304239  1
  O  O20  1  0.341902  0.719383  0.852421  1
  O  O21  1  0.658098  0.280617  0.147579  1
  O  O22  1  0.023685  0.184225  0.848772  1
  O  O23  1  0.976315  0.815775  0.151228  1
  O  O24  1  0.385338  0.768891  0.566241  1
  O  O25  1  0.614662  0.231109  0.433759  1
