# generated using pymatgen
data_Ce4Si2S3O7
_symmetry_space_group_name_H-M   'P 1'
_cell_length_a   11.12771077
_cell_length_b   11.12776601
_cell_length_c   11.12776598
_cell_angle_alpha   100.15582085
_cell_angle_beta   114.31958299
_cell_angle_gamma   114.31958061
_symmetry_Int_Tables_number   1
_chemical_formula_structural   Ce4Si2S3O7
_chemical_formula_sum   'Ce16 Si8 S12 O28'
_cell_volume   1040.20869623
_cell_formula_units_Z   4
loop_
 _symmetry_equiv_pos_site_id
 _symmetry_equiv_pos_as_xyz
  1  'x, y, z'
loop_
 _atom_site_type_symbol
 _atom_site_label
 _atom_site_symmetry_multiplicity
 _atom_site_fract_x
 _atom_site_fract_y
 _atom_site_fract_z
 _atom_site_occupancy
  Ce  Ce0  1  0.093876  0.046946  0.296935  1
  Ce  Ce1  1  0.484647  0.828015  0.343339  1
  Ce  Ce2  1  0.015353  0.656661  0.171985  1
  Ce  Ce3  1  0.250000  0.296955  0.703045  1
  Ce  Ce4  1  0.984647  0.343339  0.828015  1
  Ce  Ce5  1  0.984628  0.641307  0.656630  1
  Ce  Ce6  1  0.250000  0.953046  0.046954  1
  Ce  Ce7  1  0.750000  0.046954  0.953046  1
  Ce  Ce8  1  0.484628  0.656630  0.641307  1
  Ce  Ce9  1  0.593876  0.296935  0.046946  1
  Ce  Ce10  1  0.906124  0.953054  0.703065  1
  Ce  Ce11  1  0.750000  0.703045  0.296955  1
  Ce  Ce12  1  0.515372  0.343370  0.358693  1
  Ce  Ce13  1  0.406124  0.703065  0.953054  1
  Ce  Ce14  1  0.015372  0.358693  0.343370  1
  Ce  Ce15  1  0.515353  0.171985  0.656661  1
  Si  Si16  1  0.373766  0.470474  0.096763  1
  Si  Si17  1  0.626234  0.529526  0.903237  1
  Si  Si18  1  0.373780  0.903295  0.777021  1
  Si  Si19  1  0.126220  0.222979  0.096705  1
  Si  Si20  1  0.873766  0.096763  0.470474  1
  Si  Si21  1  0.873780  0.777021  0.903295  1
  Si  Si22  1  0.626220  0.096705  0.222979  1
  Si  Si23  1  0.126234  0.903237  0.529526  1
  S  S24  1  0.648836  1.000010  0.648838  1
  S  S25  1  0.351164  -0.000010  0.351162  1
  S  S26  1  0.148844  0.500001  0.648836  1
  S  S27  1  0.851156  0.499999  0.351164  1
  S  S28  1  0.750000  0.875009  0.124991  1
  S  S29  1  0.250000  0.124991  0.875009  1
  S  S30  1  0.648844  0.648836  0.500001  1
  S  S31  1  0.851164  0.351162  -0.000010  1
  S  S32  1  0.351156  0.351164  0.499999  1
  S  S33  1  0.250000  0.624999  0.375001  1
  S  S34  1  0.148836  0.648838  1.000010  1
  S  S35  1  0.750000  0.375001  0.624999  1
  O  O36  1  0.250005  0.854372  0.604368  1
  O  O37  1  0.976256  0.802212  0.825986  1
  O  O38  1  0.228564  0.076095  0.567151  1
  O  O39  1  0.728554  0.161410  0.152451  1
  O  O40  1  0.523761  0.349733  0.825971  1
  O  O41  1  0.271436  0.432849  0.923905  1
  O  O42  1  0.728564  0.567151  0.076095  1
  O  O43  1  0.023761  0.825971  0.349733  1
  O  O44  1  0.491032  0.567109  0.838597  1
  O  O45  1  0.508968  0.432891  0.161403  1
  O  O46  1  0.771436  0.923905  0.432849  1
  O  O47  1  0.008967  0.847556  0.076067  1
  O  O48  1  0.491033  0.923933  0.152444  1
  O  O49  1  0.476256  0.825986  0.802212  1
  O  O50  1  0.523744  0.174014  0.197788  1
  O  O51  1  0.749995  0.145628  0.395632  1
  O  O52  1  0.991032  0.838597  0.567109  1
  O  O53  1  0.508967  0.076067  0.847556  1
  O  O54  1  0.023744  0.197788  0.174014  1
  O  O55  1  0.991033  0.152444  0.923933  1
  O  O56  1  0.008968  0.161403  0.432891  1
  O  O57  1  0.750005  0.604368  0.854372  1
  O  O58  1  0.476239  0.650267  0.174029  1
  O  O59  1  0.271446  0.838590  0.847549  1
  O  O60  1  0.228554  0.152451  0.161410  1
  O  O61  1  0.249995  0.395632  0.145628  1
  O  O62  1  0.771446  0.847549  0.838590  1
  O  O63  1  0.976239  0.174029  0.650267  1
