# generated using pymatgen
data_Cs2Ti(Si2O5)3
_symmetry_space_group_name_H-M   'P 1'
_cell_length_a   7.54692405
_cell_length_b   7.78138622
_cell_length_c   15.33598850
_cell_angle_alpha   76.45304925
_cell_angle_beta   75.75390867
_cell_angle_gamma   60.99122479
_symmetry_Int_Tables_number   1
_chemical_formula_structural   Cs2Ti(Si2O5)3
_chemical_formula_sum   'Cs4 Ti2 Si12 O30'
_cell_volume   756.36013826
_cell_formula_units_Z   2
loop_
 _symmetry_equiv_pos_site_id
 _symmetry_equiv_pos_as_xyz
  1  'x, y, z'
loop_
 _atom_site_type_symbol
 _atom_site_label
 _atom_site_symmetry_multiplicity
 _atom_site_fract_x
 _atom_site_fract_y
 _atom_site_fract_z
 _atom_site_occupancy
  Cs  Cs0  1  0.624297  0.823856  0.409997  1
  Cs  Cs1  1  0.375703  0.176144  0.590003  1
  Cs  Cs2  1  0.141833  0.323847  0.910000  1
  Cs  Cs3  1  0.858167  0.676153  0.090000  1
  Ti  Ti4  1  0.500000  0.500000  0.000000  1
  Ti  Ti5  1  0.000000  0.000000  0.500000  1
  Si  Si6  1  0.396379  0.186113  0.166469  1
  Si  Si7  1  0.115918  0.332692  0.356101  1
  Si  Si8  1  0.804736  0.167301  0.143899  1
  Si  Si9  1  0.251068  0.686139  0.666462  1
  Si  Si10  1  0.195265  0.832699  0.856101  1
  Si  Si11  1  0.265637  0.859401  0.145989  1
  Si  Si12  1  0.270995  0.640596  0.354009  1
  Si  Si13  1  0.884082  0.667308  0.643899  1
  Si  Si14  1  0.603621  0.813887  0.833531  1
  Si  Si15  1  0.729005  0.359404  0.645991  1
  Si  Si16  1  0.748932  0.313861  0.333538  1
  Si  Si17  1  0.734363  0.140599  0.854011  1
  O  O18  1  0.344479  0.025207  0.141037  1
  O  O19  1  0.286390  0.237595  0.269368  1
  O  O20  1  0.030840  0.980645  0.121523  1
  O  O21  1  0.800002  0.208002  0.575031  1
  O  O22  1  0.489312  0.525242  0.641038  1
  O  O23  1  0.655521  0.974793  0.858963  1
  O  O24  1  0.867019  0.480644  0.621518  1
  O  O25  1  0.253322  0.749978  0.249998  1
  O  O26  1  0.659697  0.619233  0.907976  1
  O  O27  1  0.583027  0.291973  0.924985  1
  O  O28  1  0.746678  0.250022  0.750002  1
  O  O29  1  0.750579  0.336426  0.057369  1
  O  O30  1  0.416973  0.708027  0.075015  1
  O  O31  1  0.115443  0.566769  0.672291  1
  O  O32  1  0.206635  0.737631  0.769359  1
  O  O33  1  0.340303  0.380767  0.092024  1
  O  O34  1  0.855620  0.836429  0.557363  1
  O  O35  1  0.969160  0.019355  0.878477  1
  O  O36  1  0.793365  0.262369  0.230641  1
  O  O37  1  0.510688  0.474758  0.358962  1
  O  O38  1  0.186925  0.880779  0.592016  1
  O  O39  1  0.144380  0.163571  0.442637  1
  O  O40  1  0.645541  0.066733  0.172297  1
  O  O41  1  0.199998  0.791998  0.424969  1
  O  O42  1  0.884557  0.433231  0.327709  1
  O  O43  1  0.132981  0.519356  0.378482  1
  O  O44  1  0.354459  0.933267  0.827703  1
  O  O45  1  0.713610  0.762405  0.730632  1
  O  O46  1  0.813075  0.119221  0.407984  1
  O  O47  1  0.249421  0.663574  0.942631  1
