# generated using pymatgen
data_LaGaO3
_symmetry_space_group_name_H-M   'P 1'
_cell_length_a   5.55920281
_cell_length_b   5.58868787
_cell_length_c   7.87857479
_cell_angle_alpha   90.00000000
_cell_angle_beta   90.00000000
_cell_angle_gamma   90.00000000
_symmetry_Int_Tables_number   1
_chemical_formula_structural   LaGaO3
_chemical_formula_sum   'La4 Ga4 O12'
_cell_volume   244.77667722
_cell_formula_units_Z   4
loop_
 _symmetry_equiv_pos_site_id
 _symmetry_equiv_pos_as_xyz
  1  'x, y, z'
loop_
 _atom_site_type_symbol
 _atom_site_label
 _atom_site_symmetry_multiplicity
 _atom_site_fract_x
 _atom_site_fract_y
 _atom_site_fract_z
 _atom_site_occupancy
  O  O0  1  0.716210  0.284774  0.458814  1
  O  O1  1  0.216210  0.215226  0.541186  1
  O  O2  1  0.783790  0.784774  0.041186  1
  O  O3  1  0.283790  0.715226  0.958814  1
  O  O4  1  0.283790  0.715226  0.541186  1
  O  O5  1  0.783790  0.784774  0.458814  1
  O  O6  1  0.216210  0.215226  0.958814  1
  O  O7  1  0.716210  0.284774  0.041186  1
  O  O8  1  0.076628  0.484556  0.250000  1
  O  O9  1  0.576628  0.015444  0.750000  1
  O  O10  1  0.423372  0.984556  0.250000  1
  O  O11  1  0.923372  0.515444  0.750000  1
  Ga  Ga12  1  0.000000  0.500000  0.500000  1
  Ga  Ga13  1  0.500000  0.000000  0.500000  1
  Ga  Ga14  1  0.500000  0.000000  0.000000  1
  Ga  Ga15  1  0.000000  0.500000  0.000000  1
  La  La16  1  0.492290  0.466534  0.750000  1
  La  La17  1  0.992290  0.033466  0.250000  1
  La  La18  1  0.007710  0.966534  0.750000  1
  La  La19  1  0.507710  0.533466  0.250000  1
