# generated using pymatgen
data_NbI5
_symmetry_space_group_name_H-M   'P 1'
_cell_length_a   7.49416110
_cell_length_b   8.05949073
_cell_length_c   10.80893979
_cell_angle_alpha   109.95908095
_cell_angle_beta   91.28564177
_cell_angle_gamma   115.90041370
_symmetry_Int_Tables_number   1
_chemical_formula_structural   NbI5
_chemical_formula_sum   'Nb2 I10'
_cell_volume   540.52122730
_cell_formula_units_Z   2
loop_
 _symmetry_equiv_pos_site_id
 _symmetry_equiv_pos_as_xyz
  1  'x, y, z'
loop_
 _atom_site_type_symbol
 _atom_site_label
 _atom_site_symmetry_multiplicity
 _atom_site_fract_x
 _atom_site_fract_y
 _atom_site_fract_z
 _atom_site_occupancy
  Nb  Nb0  1  0.105534  0.219789  0.220741  1
  Nb  Nb1  1  0.894466  0.780211  0.779259  1
  I  I2  1  0.884772  0.380036  0.151715  1
  I  I3  1  0.771888  0.824912  0.042528  1
  I  I4  1  0.303726  0.013718  0.249047  1
  I  I5  1  0.696274  0.986282  0.750953  1
  I  I6  1  0.228112  0.175088  0.957472  1
  I  I7  1  0.115228  0.619964  0.848285  1
  I  I8  1  0.442234  0.572607  0.327671  1
  I  I9  1  0.929173  0.183833  0.429033  1
  I  I10  1  0.557766  0.427393  0.672329  1
  I  I11  1  0.070827  0.816167  0.570967  1
