# generated using pymatgen
data_TlNiO3
_symmetry_space_group_name_H-M   'P 1'
_cell_length_a   5.32170450
_cell_length_b   5.45842977
_cell_length_c   7.74537134
_cell_angle_alpha   90.00000000
_cell_angle_beta   90.00000000
_cell_angle_gamma   90.00000000
_symmetry_Int_Tables_number   1
_chemical_formula_structural   TlNiO3
_chemical_formula_sum   'Tl4 Ni4 O12'
_cell_volume   224.98871058
_cell_formula_units_Z   4
loop_
 _symmetry_equiv_pos_site_id
 _symmetry_equiv_pos_as_xyz
  1  'x, y, z'
loop_
 _atom_site_type_symbol
 _atom_site_label
 _atom_site_symmetry_multiplicity
 _atom_site_fract_x
 _atom_site_fract_y
 _atom_site_fract_z
 _atom_site_occupancy
  Tl  Tl0  1  0.982817  0.050352  0.250000  1
  Tl  Tl1  1  0.482817  0.449648  0.750000  1
  Tl  Tl2  1  0.517183  0.550352  0.250000  1
  Tl  Tl3  1  0.017183  0.949648  0.750000  1
  Ni  Ni4  1  0.500000  0.000000  0.000000  1
  Ni  Ni5  1  0.000000  0.500000  0.000000  1
  Ni  Ni6  1  0.000000  0.500000  0.500000  1
  Ni  Ni7  1  0.500000  0.000000  0.500000  1
  O  O8  1  0.107459  0.454285  0.250000  1
  O  O9  1  0.607459  0.045715  0.750000  1
  O  O10  1  0.392541  0.954285  0.250000  1
  O  O11  1  0.892541  0.545715  0.750000  1
  O  O12  1  0.703929  0.293930  0.058787  1
  O  O13  1  0.203929  0.206070  0.941213  1
  O  O14  1  0.796071  0.793930  0.441213  1
  O  O15  1  0.296071  0.706070  0.558787  1
  O  O16  1  0.296071  0.706070  0.941213  1
  O  O17  1  0.796071  0.793930  0.058787  1
  O  O18  1  0.203929  0.206070  0.558787  1
  O  O19  1  0.703929  0.293930  0.441213  1
