# generated using pymatgen
data_Ba2Ca3Tl2(CuO3)4
_symmetry_space_group_name_H-M   'P 1'
_cell_length_a   3.91617713
_cell_length_b   3.91617704
_cell_length_c   21.95194057
_cell_angle_alpha   95.11752536
_cell_angle_beta   95.11752522
_cell_angle_gamma   90.00000065
_symmetry_Int_Tables_number   1
_chemical_formula_structural   Ba2Ca3Tl2(CuO3)4
_chemical_formula_sum   'Ba2 Ca3 Tl2 Cu4 O12'
_cell_volume   333.97528532
_cell_formula_units_Z   1
loop_
 _symmetry_equiv_pos_site_id
 _symmetry_equiv_pos_as_xyz
  1  'x, y, z'
loop_
 _atom_site_type_symbol
 _atom_site_label
 _atom_site_symmetry_multiplicity
 _atom_site_fract_x
 _atom_site_fract_y
 _atom_site_fract_z
 _atom_site_occupancy
  Ba  Ba0  1  0.844650  0.844650  0.689300  1
  Ba  Ba1  1  0.155350  0.155350  0.310700  1
  Ca  Ca2  1  0.074452  0.074452  0.148904  1
  Ca  Ca3  1  0.925548  0.925548  0.851096  1
  Ca  Ca4  1  0.000000  0.000000  0.000000  1
  Tl  Tl5  1  0.723728  0.723728  0.447456  1
  Tl  Tl6  1  0.276272  0.276272  0.552544  1
  Cu  Cu7  1  0.390658  0.390658  0.781315  1
  Cu  Cu8  1  0.537357  0.537357  0.074713  1
  Cu  Cu9  1  0.609342  0.609342  0.218685  1
  Cu  Cu10  1  0.462643  0.462643  0.925287  1
  O  O11  1  0.463114  0.963114  0.926229  1
  O  O12  1  0.675237  0.675237  0.350474  1
  O  O13  1  0.536886  0.036886  0.073771  1
  O  O14  1  0.963114  0.463114  0.926229  1
  O  O15  1  0.324763  0.324763  0.649526  1
  O  O16  1  0.110000  0.610000  0.220000  1
  O  O17  1  0.750000  0.250000  0.500000  1
  O  O18  1  0.610000  0.110000  0.220000  1
  O  O19  1  0.890000  0.390000  0.780000  1
  O  O20  1  0.036886  0.536886  0.073771  1
  O  O21  1  0.390000  0.890000  0.780000  1
  O  O22  1  0.250000  0.750000  0.500000  1
