# generated using pymatgen
data_K2Hg3S3O10
_symmetry_space_group_name_H-M   'P 1'
_cell_length_a   7.65286491
_cell_length_b   8.03130465
_cell_length_c   21.21282126
_cell_angle_alpha   90.00000000
_cell_angle_beta   90.00000000
_cell_angle_gamma   90.00000000
_symmetry_Int_Tables_number   1
_chemical_formula_structural   K2Hg3S3O10
_chemical_formula_sum   'K8 Hg12 S12 O40'
_cell_volume   1303.79280475
_cell_formula_units_Z   4
loop_
 _symmetry_equiv_pos_site_id
 _symmetry_equiv_pos_as_xyz
  1  'x, y, z'
loop_
 _atom_site_type_symbol
 _atom_site_label
 _atom_site_symmetry_multiplicity
 _atom_site_fract_x
 _atom_site_fract_y
 _atom_site_fract_z
 _atom_site_occupancy
  K  K0  1  0.361599  0.364496  0.440232  1
  K  K1  1  0.138401  0.864496  0.559768  1
  K  K2  1  0.638401  0.635504  0.559768  1
  K  K3  1  0.861599  0.135504  0.440232  1
  K  K4  1  0.638401  0.635504  0.940232  1
  K  K5  1  0.861599  0.135504  0.059768  1
  K  K6  1  0.138401  0.864496  0.940232  1
  K  K7  1  0.361599  0.364496  0.059768  1
  Hg  Hg8  1  0.729587  0.729949  0.170458  1
  Hg  Hg9  1  0.056701  0.411046  0.250000  1
  Hg  Hg10  1  0.770413  0.229949  0.829542  1
  Hg  Hg11  1  0.443299  0.911046  0.750000  1
  Hg  Hg12  1  0.270413  0.270051  0.670458  1
  Hg  Hg13  1  0.229587  0.770051  0.170458  1
  Hg  Hg14  1  0.270413  0.270051  0.829542  1
  Hg  Hg15  1  0.770413  0.229949  0.670458  1
  Hg  Hg16  1  0.556701  0.088954  0.250000  1
  Hg  Hg17  1  0.229587  0.770051  0.329542  1
  Hg  Hg18  1  0.729587  0.729949  0.329542  1
  Hg  Hg19  1  0.943299  0.588954  0.750000  1
  S  S20  1  0.990243  0.882874  0.750000  1
  S  S21  1  0.867688  0.589774  0.083195  1
  S  S22  1  0.132312  0.410226  0.916805  1
  S  S23  1  0.632312  0.089774  0.583195  1
  S  S24  1  0.867688  0.589774  0.416805  1
  S  S25  1  0.132312  0.410226  0.583195  1
  S  S26  1  0.632312  0.089774  0.916805  1
  S  S27  1  0.367688  0.910226  0.416805  1
  S  S28  1  0.509757  0.382874  0.250000  1
  S  S29  1  0.009757  0.117126  0.250000  1
  S  S30  1  0.367688  0.910226  0.083195  1
  S  S31  1  0.490243  0.617126  0.750000  1
  O  O32  1  0.088248  0.926311  0.808152  1
  O  O33  1  0.479335  0.998650  0.890712  1
  O  O34  1  0.589887  0.827793  0.250000  1
  O  O35  1  0.911752  0.073689  0.191848  1
  O  O36  1  0.083327  0.280649  0.962776  1
  O  O37  1  0.266669  0.526259  0.941344  1
  O  O38  1  0.416673  0.780649  0.037224  1
  O  O39  1  0.911752  0.073689  0.308152  1
  O  O40  1  0.583327  0.219351  0.537224  1
  O  O41  1  0.089887  0.672207  0.250000  1
  O  O42  1  0.979335  0.501350  0.890712  1
  O  O43  1  0.088248  0.926311  0.691848  1
  O  O44  1  0.916673  0.719351  0.462776  1
  O  O45  1  0.520665  0.001350  0.109288  1
  O  O46  1  0.410113  0.172207  0.750000  1
  O  O47  1  0.233331  0.026259  0.441344  1
  O  O48  1  0.588248  0.573689  0.808152  1
  O  O49  1  0.733331  0.473741  0.441344  1
  O  O50  1  0.020665  0.498650  0.109288  1
  O  O51  1  0.520665  0.001350  0.390712  1
  O  O52  1  0.688060  0.457025  0.250000  1
  O  O53  1  0.411752  0.426311  0.191848  1
  O  O54  1  0.479335  0.998650  0.609288  1
  O  O55  1  0.733331  0.473741  0.058656  1
  O  O56  1  0.766669  0.973741  0.941344  1
  O  O57  1  0.020665  0.498650  0.390712  1
  O  O58  1  0.188060  0.042975  0.250000  1
  O  O59  1  0.411752  0.426311  0.308152  1
  O  O60  1  0.583327  0.219351  0.962776  1
  O  O61  1  0.916673  0.719351  0.037224  1
  O  O62  1  0.910113  0.327793  0.750000  1
  O  O63  1  0.266669  0.526259  0.558656  1
  O  O64  1  0.083327  0.280649  0.537224  1
  O  O65  1  0.416673  0.780649  0.462776  1
  O  O66  1  0.588248  0.573689  0.691848  1
  O  O67  1  0.811940  0.957025  0.750000  1
  O  O68  1  0.233331  0.026259  0.058656  1
  O  O69  1  0.766669  0.973741  0.558656  1
  O  O70  1  0.979335  0.501350  0.609288  1
  O  O71  1  0.311940  0.542975  0.750000  1
