# generated using pymatgen
data_CdI2
_symmetry_space_group_name_H-M   'P 1'
_cell_length_a   4.33262102
_cell_length_b   4.33262128
_cell_length_c   51.82098565
_cell_angle_alpha   90.00000000
_cell_angle_beta   90.00000000
_cell_angle_gamma   119.99999801
_symmetry_Int_Tables_number   1
_chemical_formula_structural   CdI2
_chemical_formula_sum   'Cd7 I14'
_cell_volume   842.43759675
_cell_formula_units_Z   7
loop_
 _symmetry_equiv_pos_site_id
 _symmetry_equiv_pos_as_xyz
  1  'x, y, z'
loop_
 _atom_site_type_symbol
 _atom_site_label
 _atom_site_symmetry_multiplicity
 _atom_site_fract_x
 _atom_site_fract_y
 _atom_site_fract_z
 _atom_site_occupancy
  Cd  Cd0  1  0.000000  0.000000  0.892836  1
  Cd  Cd1  1  0.000000  0.000000  0.321384  1
  Cd  Cd2  1  0.666667  0.333333  0.464285  1
  Cd  Cd3  1  0.000000  0.000000  0.607158  1
  Cd  Cd4  1  0.000000  0.000000  0.178613  1
  Cd  Cd5  1  0.666667  0.333333  0.035717  1
  Cd  Cd6  1  0.000000  0.000000  0.749998  1
  I  I7  1  0.666667  0.333333  0.288086  1
  I  I8  1  0.666667  0.333333  0.145305  1
  I  I9  1  0.333333  0.666667  0.069015  1
  I  I10  1  0.666667  0.333333  0.573875  1
  I  I11  1  0.333333  0.666667  0.211912  1
  I  I12  1  0.333333  0.666667  0.354692  1
  I  I13  1  0.000000  0.000000  0.430972  1
  I  I14  1  0.333333  0.666667  0.640441  1
  I  I15  1  0.000000  0.000000  0.002438  1
  I  I16  1  0.333333  0.666667  0.783271  1
  I  I17  1  0.333333  0.666667  0.926119  1
  I  I18  1  0.666667  0.333333  0.859558  1
  I  I19  1  0.333333  0.666667  0.497603  1
  I  I20  1  0.666667  0.333333  0.716724  1
