# generated using pymatgen
data_Na4Zr2(SiO4)3
_symmetry_space_group_name_H-M   'P 1'
_cell_length_a   9.21699255
_cell_length_b   9.21699264
_cell_length_c   9.21699230
_cell_angle_alpha   60.74072764
_cell_angle_beta   60.74072737
_cell_angle_gamma   60.74072977
_symmetry_Int_Tables_number   1
_chemical_formula_structural   Na4Zr2(SiO4)3
_chemical_formula_sum   'Na8 Zr4 Si6 O24'
_cell_volume   562.92617478
_cell_formula_units_Z   2
loop_
 _symmetry_equiv_pos_site_id
 _symmetry_equiv_pos_as_xyz
  1  'x, y, z'
loop_
 _atom_site_type_symbol
 _atom_site_label
 _atom_site_symmetry_multiplicity
 _atom_site_fract_x
 _atom_site_fract_y
 _atom_site_fract_z
 _atom_site_occupancy
  Na  Na0  1  0.388491  0.749065  0.119141  1
  Na  Na1  1  0.619141  0.249065  0.888491  1
  Na  Na2  1  0.119141  0.388491  0.749065  1
  Na  Na3  1  0.888491  0.619141  0.249065  1
  Na  Na4  1  0.749065  0.119141  0.388491  1
  Na  Na5  1  0.498738  0.498738  0.498738  1
  Na  Na6  1  0.249065  0.888491  0.619141  1
  Na  Na7  1  0.998738  0.998738  0.998738  1
  Zr  Zr8  1  0.644550  0.644550  0.644550  1
  Zr  Zr9  1  0.851170  0.851170  0.851170  1
  Zr  Zr10  1  0.144550  0.144550  0.144550  1
  Zr  Zr11  1  0.351170  0.351170  0.351170  1
  Si  Si12  1  0.544270  0.950225  0.248374  1
  Si  Si13  1  0.748374  0.450225  0.044270  1
  Si  Si14  1  0.044270  0.748374  0.450225  1
  Si  Si15  1  0.450225  0.044270  0.748374  1
  Si  Si16  1  0.248374  0.544270  0.950225  1
  Si  Si17  1  0.950225  0.248374  0.544270  1
  O  O18  1  0.916443  0.267468  0.062307  1
  O  O19  1  0.581137  0.431642  0.228251  1
  O  O20  1  0.621523  0.006368  0.790890  1
  O  O21  1  0.562307  0.767468  0.416443  1
  O  O22  1  0.267468  0.062307  0.916443  1
  O  O23  1  0.767468  0.416443  0.562307  1
  O  O24  1  0.985584  0.204341  0.374724  1
  O  O25  1  0.874724  0.704341  0.485584  1
  O  O26  1  0.790890  0.621523  0.006368  1
  O  O27  1  0.416443  0.562307  0.767468  1
  O  O28  1  0.374724  0.985584  0.204341  1
  O  O29  1  0.728251  0.931642  0.081137  1
  O  O30  1  0.121523  0.290890  0.506368  1
  O  O31  1  0.081137  0.728251  0.931642  1
  O  O32  1  0.485584  0.874724  0.704341  1
  O  O33  1  0.506368  0.121523  0.290890  1
  O  O34  1  0.931642  0.081137  0.728251  1
  O  O35  1  0.704341  0.485584  0.874724  1
  O  O36  1  0.204341  0.374724  0.985584  1
  O  O37  1  0.228251  0.581137  0.431642  1
  O  O38  1  0.290890  0.506368  0.121523  1
  O  O39  1  0.431642  0.228251  0.581137  1
  O  O40  1  0.062307  0.916443  0.267468  1
  O  O41  1  0.006368  0.790890  0.621523  1
