# generated using pymatgen
data_ICl
_symmetry_space_group_name_H-M   'P 1'
_cell_length_a   4.86698890
_cell_length_b   13.29843838
_cell_length_c   12.94520733
_cell_angle_alpha   105.17335223
_cell_angle_beta   90.00000000
_cell_angle_gamma   90.00000000
_symmetry_Int_Tables_number   1
_chemical_formula_structural   ICl
_chemical_formula_sum   'I8 Cl8'
_cell_volume   808.64811060
_cell_formula_units_Z   8
loop_
 _symmetry_equiv_pos_site_id
 _symmetry_equiv_pos_as_xyz
  1  'x, y, z'
loop_
 _atom_site_type_symbol
 _atom_site_label
 _atom_site_symmetry_multiplicity
 _atom_site_fract_x
 _atom_site_fract_y
 _atom_site_fract_z
 _atom_site_occupancy
  I  I0  1  0.624990  0.814906  0.195105  1
  I  I1  1  0.124990  0.685094  0.804895  1
  I  I2  1  0.595589  0.344704  0.703774  1
  I  I3  1  0.904411  0.844704  0.703774  1
  I  I4  1  0.095589  0.155296  0.296226  1
  I  I5  1  0.875010  0.314906  0.195105  1
  I  I6  1  0.404411  0.655296  0.296226  1
  I  I7  1  0.375010  0.185094  0.804895  1
  Cl  Cl8  1  0.175514  0.576012  0.927235  1
  Cl  Cl9  1  0.824486  0.423988  0.072765  1
  Cl  Cl10  1  0.600643  0.610943  0.446509  1
  Cl  Cl11  1  0.675514  0.923988  0.072765  1
  Cl  Cl12  1  0.899357  0.110943  0.446509  1
  Cl  Cl13  1  0.324486  0.076012  0.927235  1
  Cl  Cl14  1  0.399357  0.389057  0.553491  1
  Cl  Cl15  1  0.100643  0.889057  0.553491  1
