# generated using pymatgen
data_P2O5
_symmetry_space_group_name_H-M   'P 1'
_cell_length_a   7.64006569
_cell_length_b   7.64006596
_cell_length_c   7.64006617
_cell_angle_alpha   87.31310060
_cell_angle_beta   87.31310052
_cell_angle_gamma   87.31310190
_symmetry_Int_Tables_number   1
_chemical_formula_structural   P2O5
_chemical_formula_sum   'P8 O20'
_cell_volume   444.52893632
_cell_formula_units_Z   4
loop_
 _symmetry_equiv_pos_site_id
 _symmetry_equiv_pos_as_xyz
  1  'x, y, z'
loop_
 _atom_site_type_symbol
 _atom_site_label
 _atom_site_symmetry_multiplicity
 _atom_site_fract_x
 _atom_site_fract_y
 _atom_site_fract_z
 _atom_site_occupancy
  P  P0  1  0.814579  0.123535  0.947048  1
  P  P1  1  0.447048  0.623535  0.314579  1
  P  P2  1  0.629137  0.629137  0.629137  1
  P  P3  1  0.623535  0.314579  0.447048  1
  P  P4  1  0.129137  0.129137  0.129137  1
  P  P5  1  0.123535  0.947048  0.814579  1
  P  P6  1  0.947048  0.814579  0.123535  1
  P  P7  1  0.314579  0.447048  0.623535  1
  O  O8  1  0.563320  0.722812  0.447879  1
  O  O9  1  0.560253  0.442436  0.284976  1
  O  O10  1  0.060253  0.784976  0.942436  1
  O  O11  1  0.947879  0.222812  0.063320  1
  O  O12  1  0.733806  0.733806  0.733806  1
  O  O13  1  0.656566  0.223935  0.899919  1
  O  O14  1  0.222812  0.063320  0.947879  1
  O  O15  1  0.223935  0.899919  0.656566  1
  O  O16  1  0.442436  0.284976  0.560253  1
  O  O17  1  0.722812  0.447879  0.563320  1
  O  O18  1  0.899919  0.656566  0.223935  1
  O  O19  1  0.284976  0.560253  0.442436  1
  O  O20  1  0.399919  0.723935  0.156566  1
  O  O21  1  0.233806  0.233806  0.233806  1
  O  O22  1  0.063320  0.947879  0.222812  1
  O  O23  1  0.942436  0.060253  0.784976  1
  O  O24  1  0.156566  0.399919  0.723935  1
  O  O25  1  0.723935  0.156566  0.399919  1
  O  O26  1  0.784976  0.942436  0.060253  1
  O  O27  1  0.447879  0.563320  0.722812  1
