# generated using pymatgen
data_Mg5Tl2
_symmetry_space_group_name_H-M   'P 1'
_cell_length_a   6.23664140
_cell_length_b   7.45565548
_cell_length_c   8.68255530
_cell_angle_alpha   115.41713239
_cell_angle_beta   110.97866697
_cell_angle_gamma   90.07824497
_symmetry_Int_Tables_number   1
_chemical_formula_structural   Mg5Tl2
_chemical_formula_sum   'Mg10 Tl4'
_cell_volume   334.67270186
_cell_formula_units_Z   2
loop_
 _symmetry_equiv_pos_site_id
 _symmetry_equiv_pos_as_xyz
  1  'x, y, z'
loop_
 _atom_site_type_symbol
 _atom_site_label
 _atom_site_symmetry_multiplicity
 _atom_site_fract_x
 _atom_site_fract_y
 _atom_site_fract_z
 _atom_site_occupancy
  Mg  Mg0  1  0.415246  0.075015  0.831061  1
  Mg  Mg1  1  0.484306  0.734153  0.468503  1
  Mg  Mg2  1  0.250023  0.500000  0.000008  1
  Mg  Mg3  1  0.084168  0.244032  0.169089  1
  Mg  Mg4  1  0.584754  0.924985  0.168939  1
  Mg  Mg5  1  0.515694  0.265847  0.531497  1
  Mg  Mg6  1  0.015533  0.265503  0.530899  1
  Mg  Mg7  1  0.984467  0.734497  0.469101  1
  Mg  Mg8  1  0.915832  0.755968  0.830911  1
  Mg  Mg9  1  0.749977  0.500000  0.999992  1
  Tl  Tl10  1  0.622938  0.357184  0.245967  1
  Tl  Tl11  1  0.876897  0.111249  0.754058  1
  Tl  Tl12  1  0.123103  0.888751  0.245942  1
  Tl  Tl13  1  0.377062  0.642816  0.754033  1
