# generated using pymatgen
data_Na5Cr3F14
_symmetry_space_group_name_H-M   'P 1'
_cell_length_a   7.35487496
_cell_length_b   7.40403836
_cell_length_c   10.67950626
_cell_angle_alpha   90.82319295
_cell_angle_beta   90.00000000
_cell_angle_gamma   90.00000000
_symmetry_Int_Tables_number   1
_chemical_formula_structural   Na5Cr3F14
_chemical_formula_sum   'Na10 Cr6 F28'
_cell_volume   581.50078152
_cell_formula_units_Z   2
loop_
 _symmetry_equiv_pos_site_id
 _symmetry_equiv_pos_as_xyz
  1  'x, y, z'
loop_
 _atom_site_type_symbol
 _atom_site_label
 _atom_site_symmetry_multiplicity
 _atom_site_fract_x
 _atom_site_fract_y
 _atom_site_fract_z
 _atom_site_occupancy
  Na  Na0  1  0.201992  0.264626  0.251741  1
  Na  Na1  1  0.500000  0.500000  0.000000  1
  Na  Na2  1  0.763913  0.720431  0.242751  1
  Na  Na3  1  0.298008  0.764626  0.751741  1
  Na  Na4  1  0.236087  0.279569  0.757249  1
  Na  Na5  1  0.798008  0.735374  0.748259  1
  Na  Na6  1  0.263913  0.779569  0.257249  1
  Na  Na7  1  0.000000  0.000000  0.500000  1
  Na  Na8  1  0.736087  0.220431  0.742751  1
  Na  Na9  1  0.701992  0.235374  0.248259  1
  Cr  Cr10  1  0.000000  0.000000  0.000000  1
  Cr  Cr11  1  0.000000  0.500000  0.500000  1
  Cr  Cr12  1  0.500000  0.500000  0.500000  1
  Cr  Cr13  1  0.000000  0.500000  0.000000  1
  Cr  Cr14  1  0.500000  0.000000  0.500000  1
  Cr  Cr15  1  0.500000  0.000000  0.000000  1
  F  F16  1  0.939767  0.322377  0.371158  1
  F  F17  1  0.489924  0.197504  0.881541  1
  F  F18  1  0.747924  0.572914  0.539926  1
  F  F19  1  0.917849  0.751738  0.002696  1
  F  F20  1  0.252076  0.427086  0.460074  1
  F  F21  1  0.332044  0.034751  0.638377  1
  F  F22  1  0.082151  0.248262  0.997304  1
  F  F23  1  0.667956  0.965249  0.361623  1
  F  F24  1  0.989924  0.302496  0.618459  1
  F  F25  1  0.247924  0.927086  0.960074  1
  F  F26  1  0.752076  0.072914  0.039926  1
  F  F27  1  0.295906  0.039210  0.387968  1
  F  F28  1  0.832044  0.465249  0.861623  1
  F  F29  1  0.544421  0.508653  0.322776  1
  F  F30  1  0.060233  0.677623  0.628842  1
  F  F31  1  0.510076  0.802496  0.118459  1
  F  F32  1  0.795906  0.460790  0.112032  1
  F  F33  1  0.455579  0.491347  0.677224  1
  F  F34  1  0.167956  0.534751  0.138377  1
  F  F35  1  0.582151  0.251738  0.502696  1
  F  F36  1  0.010076  0.697504  0.381541  1
  F  F37  1  0.560233  0.822377  0.871158  1
  F  F38  1  0.044421  0.991347  0.177224  1
  F  F39  1  0.704094  0.960790  0.612032  1
  F  F40  1  0.955579  0.008653  0.822776  1
  F  F41  1  0.204094  0.539210  0.887968  1
  F  F42  1  0.439767  0.177623  0.128842  1
  F  F43  1  0.417849  0.748262  0.497304  1
