# generated using pymatgen
data_Ba11(CdSb2)6
_symmetry_space_group_name_H-M   'P 1'
_cell_length_a   4.97348308
_cell_length_b   13.42215891
_cell_length_c   17.52854767
_cell_angle_alpha   109.55964007
_cell_angle_beta   98.15595896
_cell_angle_gamma   89.99999766
_symmetry_Int_Tables_number   1
_chemical_formula_structural   Ba11(CdSb2)6
_chemical_formula_sum   'Ba11 Cd6 Sb12'
_cell_volume   1090.02486757
_cell_formula_units_Z   1
loop_
 _symmetry_equiv_pos_site_id
 _symmetry_equiv_pos_as_xyz
  1  'x, y, z'
loop_
 _atom_site_type_symbol
 _atom_site_label
 _atom_site_symmetry_multiplicity
 _atom_site_fract_x
 _atom_site_fract_y
 _atom_site_fract_z
 _atom_site_occupancy
  Ba  Ba0  1  0.886766  0.490461  0.773533  1
  Ba  Ba1  1  0.873930  0.980614  0.747861  1
  Ba  Ba2  1  0.982067  0.320851  0.964135  1
  Ba  Ba3  1  0.719380  0.865216  0.438760  1
  Ba  Ba4  1  0.800605  0.653419  0.601210  1
  Ba  Ba5  1  0.199395  0.346581  0.398790  1
  Ba  Ba6  1  0.000000  0.000000  0.000000  1
  Ba  Ba7  1  0.113234  0.509539  0.226467  1
  Ba  Ba8  1  0.126070  0.019386  0.252139  1
  Ba  Ba9  1  0.017933  0.679149  0.035865  1
  Ba  Ba10  1  0.280620  0.134784  0.561240  1
  Cd  Cd11  1  0.599460  0.745976  0.198920  1
  Cd  Cd12  1  0.218389  0.671344  0.436778  1
  Cd  Cd13  1  0.453976  0.759708  0.907953  1
  Cd  Cd14  1  0.781611  0.328656  0.563222  1
  Cd  Cd15  1  0.546024  0.240292  0.092047  1
  Cd  Cd16  1  0.400540  0.254024  0.801080  1
  Sb  Sb17  1  0.546489  0.879784  0.092979  1
  Sb  Sb18  1  0.692708  0.544119  0.385417  1
  Sb  Sb19  1  0.307292  0.455881  0.614583  1
  Sb  Sb20  1  0.086513  0.235715  0.173025  1
  Sb  Sb21  1  0.853001  0.217235  0.706002  1
  Sb  Sb22  1  0.453511  0.120216  0.907021  1
  Sb  Sb23  1  0.293380  0.856752  0.586759  1
  Sb  Sb24  1  0.541976  0.506326  0.083952  1
  Sb  Sb25  1  0.458024  0.493674  0.916048  1
  Sb  Sb26  1  0.146999  0.782765  0.293998  1
  Sb  Sb27  1  0.913487  0.764285  0.826975  1
  Sb  Sb28  1  0.706620  0.143248  0.413241  1
