# generated using pymatgen
data_Na2TbMoPO8
_symmetry_space_group_name_H-M   'P 1'
_cell_length_a   7.01389025
_cell_length_b   11.48300190
_cell_length_c   11.48300234
_cell_angle_alpha   64.56180003
_cell_angle_beta   72.21757705
_cell_angle_gamma   72.21757659
_symmetry_Int_Tables_number   1
_chemical_formula_structural   Na2TbMoPO8
_chemical_formula_sum   'Na8 Tb4 Mo4 P4 O32'
_cell_volume   778.78608669
_cell_formula_units_Z   4
loop_
 _symmetry_equiv_pos_site_id
 _symmetry_equiv_pos_as_xyz
  1  'x, y, z'
loop_
 _atom_site_type_symbol
 _atom_site_label
 _atom_site_symmetry_multiplicity
 _atom_site_fract_x
 _atom_site_fract_y
 _atom_site_fract_z
 _atom_site_occupancy
  Tb  Tb0  1  0.750000  0.321748  0.178252  1
  Tb  Tb1  1  0.250000  0.678252  0.821748  1
  Tb  Tb2  1  0.250000  0.178252  0.321748  1
  Tb  Tb3  1  0.750000  0.821748  0.678252  1
  Na  Na4  1  0.644280  0.302183  0.888223  1
  Na  Na5  1  0.665313  0.888223  0.302183  1
  Na  Na6  1  0.355720  0.697817  0.111777  1
  Na  Na7  1  0.834687  0.197817  0.611777  1
  Na  Na8  1  0.334687  0.111777  0.697817  1
  Na  Na9  1  0.144280  0.388223  0.802183  1
  Na  Na10  1  0.855720  0.611777  0.197817  1
  Na  Na11  1  0.165313  0.802183  0.388223  1
  Mo  Mo12  1  0.820132  0.929868  0.929868  1
  Mo  Mo13  1  0.320132  0.429868  0.429868  1
  Mo  Mo14  1  0.179868  0.070132  0.070132  1
  Mo  Mo15  1  0.679868  0.570132  0.570132  1
  P  P16  1  0.250000  0.430738  0.069262  1
  P  P17  1  0.750000  0.569262  0.930738  1
  P  P18  1  0.750000  0.069262  0.430738  1
  P  P19  1  0.250000  0.930738  0.569262  1
  O  O20  1  0.729467  0.862628  0.104105  1
  O  O21  1  0.916185  0.155326  0.359768  1
  O  O22  1  0.828578  0.651109  0.604708  1
  O  O23  1  0.568721  0.655326  0.859768  1
  O  O24  1  0.431279  0.344674  0.140232  1
  O  O25  1  0.931279  0.640232  0.844674  1
  O  O26  1  0.770533  0.395896  0.637372  1
  O  O27  1  0.415604  0.604708  0.651109  1
  O  O28  1  0.229467  0.604105  0.362628  1
  O  O29  1  0.696200  0.637372  0.395896  1
  O  O30  1  0.068721  0.359768  0.155326  1
  O  O31  1  0.270533  0.137372  0.895895  1
  O  O32  1  0.193717  0.574945  0.061864  1
  O  O33  1  0.583815  0.140232  0.344674  1
  O  O34  1  0.803800  0.104105  0.862628  1
  O  O35  1  0.171422  0.348891  0.395292  1
  O  O36  1  0.669475  0.061864  0.574945  1
  O  O37  1  0.830525  0.925055  0.438136  1
  O  O38  1  0.806283  0.425055  0.938136  1
  O  O39  1  0.693717  0.561864  0.074945  1
  O  O40  1  0.330525  0.938136  0.425055  1
  O  O41  1  0.915604  0.151109  0.104708  1
  O  O42  1  0.083815  0.844674  0.640232  1
  O  O43  1  0.416185  0.859768  0.655326  1
  O  O44  1  0.306283  0.438136  0.925055  1
  O  O45  1  0.671422  0.895292  0.848891  1
  O  O46  1  0.169475  0.074945  0.561864  1
  O  O47  1  0.328578  0.104708  0.151109  1
  O  O48  1  0.084396  0.848891  0.895292  1
  O  O49  1  0.196200  0.895895  0.137372  1
  O  O50  1  0.303800  0.362628  0.604105  1
  O  O51  1  0.584396  0.395292  0.348891  1
