# generated using pymatgen
data_Th7Pt3
_symmetry_space_group_name_H-M   'P 1'
_cell_length_a   10.13439376
_cell_length_b   10.13439355
_cell_length_c   6.38833823
_cell_angle_alpha   90.00000000
_cell_angle_beta   90.00000000
_cell_angle_gamma   120.00000067
_symmetry_Int_Tables_number   1
_chemical_formula_structural   Th7Pt3
_chemical_formula_sum   'Th14 Pt6'
_cell_volume   568.21680031
_cell_formula_units_Z   2
loop_
 _symmetry_equiv_pos_site_id
 _symmetry_equiv_pos_as_xyz
  1  'x, y, z'
loop_
 _atom_site_type_symbol
 _atom_site_label
 _atom_site_symmetry_multiplicity
 _atom_site_fract_x
 _atom_site_fract_y
 _atom_site_fract_z
 _atom_site_occupancy
  Th  Th0  1  0.457004  0.542996  0.280342  1
  Th  Th1  1  0.085992  0.542996  0.280342  1
  Th  Th2  1  0.914008  0.457004  0.780342  1
  Th  Th3  1  0.256755  0.128377  0.495948  1
  Th  Th4  1  0.542996  0.085992  0.780342  1
  Th  Th5  1  0.743245  0.871623  0.995948  1
  Th  Th6  1  0.666667  0.333333  0.336144  1
  Th  Th7  1  0.128377  0.871623  0.995948  1
  Th  Th8  1  0.457004  0.914008  0.280342  1
  Th  Th9  1  0.542996  0.457004  0.780342  1
  Th  Th10  1  0.871623  0.128377  0.495948  1
  Th  Th11  1  0.128377  0.256755  0.995948  1
  Th  Th12  1  0.871623  0.743245  0.495948  1
  Th  Th13  1  0.333333  0.666667  0.836144  1
  Pt  Pt14  1  0.811552  0.623104  0.058995  1
  Pt  Pt15  1  0.811552  0.188448  0.058995  1
  Pt  Pt16  1  0.623104  0.811552  0.558995  1
  Pt  Pt17  1  0.376896  0.188448  0.058995  1
  Pt  Pt18  1  0.188448  0.376896  0.558995  1
  Pt  Pt19  1  0.188448  0.811552  0.558995  1
