# generated using pymatgen
data_K4CO4
_symmetry_space_group_name_H-M   'P 1'
_cell_length_a   5.39253459
_cell_length_b   5.39253443
_cell_length_c   5.39253475
_cell_angle_alpha   88.91031748
_cell_angle_beta   88.91031743
_cell_angle_gamma   88.91032072
_symmetry_Int_Tables_number   1
_chemical_formula_structural   K4CO4
_chemical_formula_sum   'K4 C1 O4'
_cell_volume   156.72781550
_cell_formula_units_Z   1
loop_
 _symmetry_equiv_pos_site_id
 _symmetry_equiv_pos_as_xyz
  1  'x, y, z'
loop_
 _atom_site_type_symbol
 _atom_site_label
 _atom_site_symmetry_multiplicity
 _atom_site_fract_x
 _atom_site_fract_y
 _atom_site_fract_z
 _atom_site_occupancy
  K  K0  1  0.574783  0.546679  0.122518  1
  K  K1  1  0.126761  0.126761  0.126761  1
  K  K2  1  0.546679  0.122518  0.574783  1
  K  K3  1  0.122518  0.574783  0.546679  1
  C  C4  1  0.848570  0.848570  0.848570  1
  O  O5  1  0.690505  0.999048  0.009636  1
  O  O6  1  0.999048  0.009636  0.690505  1
  O  O7  1  0.696670  0.696670  0.696670  1
  O  O8  1  0.009636  0.690505  0.999048  1
