# generated using pymatgen
data_Ag6Mo2ClO7F3
_symmetry_space_group_name_H-M   'P 1'
_cell_length_a   7.59653764
_cell_length_b   7.59653762
_cell_length_c   6.01988522
_cell_angle_alpha   90.00000000
_cell_angle_beta   90.00000000
_cell_angle_gamma   120.00000010
_symmetry_Int_Tables_number   1
_chemical_formula_structural   Ag6Mo2ClO7F3
_chemical_formula_sum   'Ag6 Mo2 Cl1 O7 F3'
_cell_volume   300.85014751
_cell_formula_units_Z   1
loop_
 _symmetry_equiv_pos_site_id
 _symmetry_equiv_pos_as_xyz
  1  'x, y, z'
loop_
 _atom_site_type_symbol
 _atom_site_label
 _atom_site_symmetry_multiplicity
 _atom_site_fract_x
 _atom_site_fract_y
 _atom_site_fract_z
 _atom_site_occupancy
  Ag  Ag0  1  0.823829  0.176171  0.189034  1
  Ag  Ag1  1  0.495065  0.504935  0.729923  1
  Ag  Ag2  1  0.495065  0.990130  0.729923  1
  Ag  Ag3  1  0.823829  0.647657  0.189034  1
  Ag  Ag4  1  0.352343  0.176171  0.189034  1
  Ag  Ag5  1  0.009870  0.504935  0.729923  1
  Mo  Mo6  1  0.333333  0.666667  0.238392  1
  Mo  Mo7  1  0.000000  0.000000  0.685252  1
  Cl  Cl8  1  0.666667  0.333333  0.492365  1
  O  O9  1  0.876810  0.123190  0.817641  1
  O  O10  1  0.460412  0.539588  0.124078  1
  O  O11  1  0.246380  0.123190  0.817641  1
  O  O12  1  0.333333  0.666667  0.543366  1
  O  O13  1  0.079176  0.539588  0.124078  1
  O  O14  1  0.876810  0.753620  0.817641  1
  O  O15  1  0.460412  0.920824  0.124078  1
  F  F16  1  0.769160  0.884580  0.439716  1
  F  F17  1  0.115420  0.884580  0.439716  1
  F  F18  1  0.115420  0.230840  0.439716  1
