# generated using pymatgen
data_SiI2
_symmetry_space_group_name_H-M   'P 1'
_cell_length_a   11.98524882
_cell_length_b   15.09557978
_cell_length_c   16.89856903
_cell_angle_alpha   90.00000000
_cell_angle_beta   90.00000000
_cell_angle_gamma   100.06424050
_symmetry_Int_Tables_number   1
_chemical_formula_structural   SiI2
_chemical_formula_sum   'Si20 I40'
_cell_volume   3010.31609313
_cell_formula_units_Z   20
loop_
 _symmetry_equiv_pos_site_id
 _symmetry_equiv_pos_as_xyz
  1  'x, y, z'
loop_
 _atom_site_type_symbol
 _atom_site_label
 _atom_site_symmetry_multiplicity
 _atom_site_fract_x
 _atom_site_fract_y
 _atom_site_fract_z
 _atom_site_occupancy
  Si  Si0  1  0.888366  0.960827  0.827529  1
  Si  Si1  1  0.290214  0.019047  0.355484  1
  Si  Si2  1  0.111634  0.039173  0.172471  1
  Si  Si3  1  0.854798  0.430611  0.245331  1
  Si  Si4  1  0.104392  0.035390  0.315291  1
  Si  Si5  1  0.611634  0.539173  0.327529  1
  Si  Si6  1  0.779902  0.480715  0.365765  1
  Si  Si7  1  0.709786  0.980953  0.644516  1
  Si  Si8  1  0.220098  0.519285  0.634235  1
  Si  Si9  1  0.790214  0.519047  0.144516  1
  Si  Si10  1  0.395608  0.464610  0.815291  1
  Si  Si11  1  0.145202  0.569389  0.754669  1
  Si  Si12  1  0.720098  0.019285  0.865765  1
  Si  Si13  1  0.279902  0.980715  0.134235  1
  Si  Si14  1  0.388366  0.460827  0.672471  1
  Si  Si15  1  0.604392  0.535390  0.184709  1
  Si  Si16  1  0.209786  0.480953  0.855484  1
  Si  Si17  1  0.895608  0.964610  0.684709  1
  Si  Si18  1  0.354798  0.930611  0.254669  1
  Si  Si19  1  0.645202  0.069389  0.745331  1
  I  I20  1  0.079246  0.397930  0.576802  1
  I  I21  1  0.969459  0.902315  0.359119  1
  I  I22  1  0.937273  0.554085  0.752379  1
  I  I23  1  0.202392  0.544139  0.988967  1
  I  I24  1  0.448349  0.327142  0.870954  1
  I  I25  1  0.764689  0.273000  0.222368  1
  I  I26  1  0.062727  0.445915  0.247621  1
  I  I27  1  0.407537  0.170024  0.345729  1
  I  I28  1  0.530541  0.597685  0.859119  1
  I  I29  1  0.797608  0.455861  0.011033  1
  I  I30  1  0.907537  0.670024  0.154271  1
  I  I31  1  0.261506  0.644340  0.538868  1
  I  I32  1  0.297608  0.955861  0.488967  1
  I  I33  1  0.702392  0.044139  0.511033  1
  I  I34  1  0.592463  0.829976  0.654271  1
  I  I35  1  0.948349  0.827142  0.629046  1
  I  I36  1  0.051651  0.172858  0.370954  1
  I  I37  1  0.420754  0.102070  0.076802  1
  I  I38  1  0.469459  0.402315  0.140881  1
  I  I39  1  0.562727  0.945915  0.252379  1
  I  I40  1  0.559633  0.554971  0.618027  1
  I  I41  1  0.235311  0.727000  0.777632  1
  I  I42  1  0.579246  0.897930  0.923198  1
  I  I43  1  0.877394  0.805276  0.874810  1
  I  I44  1  0.735311  0.227000  0.722368  1
  I  I45  1  0.440367  0.445029  0.381973  1
  I  I46  1  0.122606  0.194724  0.125190  1
  I  I47  1  0.238494  0.855660  0.038868  1
  I  I48  1  0.059633  0.054971  0.881973  1
  I  I49  1  0.264689  0.773000  0.277632  1
  I  I50  1  0.377394  0.305276  0.625190  1
  I  I51  1  0.030541  0.097685  0.640881  1
  I  I52  1  0.940367  0.945029  0.118027  1
  I  I53  1  0.738494  0.355660  0.461132  1
  I  I54  1  0.551651  0.672858  0.129046  1
  I  I55  1  0.622606  0.694724  0.374810  1
  I  I56  1  0.761506  0.144340  0.961132  1
  I  I57  1  0.920754  0.602070  0.423198  1
  I  I58  1  0.437273  0.054085  0.747621  1
  I  I59  1  0.092463  0.329976  0.845729  1
