# generated using pymatgen
data_PdC2S2(O4F)2
_symmetry_space_group_name_H-M   'P 1'
_cell_length_a   7.60246009
_cell_length_b   8.70882676
_cell_length_c   15.17568232
_cell_angle_alpha   90.00000000
_cell_angle_beta   90.00000000
_cell_angle_gamma   91.26506743
_symmetry_Int_Tables_number   1
_chemical_formula_structural   PdC2S2(O4F)2
_chemical_formula_sum   'Pd4 C8 S8 O32 F8'
_cell_volume   1004.51437760
_cell_formula_units_Z   4
loop_
 _symmetry_equiv_pos_site_id
 _symmetry_equiv_pos_as_xyz
  1  'x, y, z'
loop_
 _atom_site_type_symbol
 _atom_site_label
 _atom_site_symmetry_multiplicity
 _atom_site_fract_x
 _atom_site_fract_y
 _atom_site_fract_z
 _atom_site_occupancy
  Pd  Pd0  1  0.470437  0.195096  0.140133  1
  Pd  Pd1  1  0.029563  0.304904  0.640133  1
  Pd  Pd2  1  0.529563  0.804904  0.859867  1
  Pd  Pd3  1  0.970437  0.695096  0.359867  1
  C  C4  1  0.446275  0.914674  0.758478  1
  C  C5  1  0.793706  0.253997  0.603761  1
  C  C6  1  0.206294  0.746003  0.396239  1
  C  C7  1  0.553725  0.085326  0.241522  1
  C  C8  1  0.293706  0.753997  0.896239  1
  C  C9  1  0.706294  0.246003  0.103761  1
  C  C10  1  0.053725  0.585326  0.258478  1
  C  C11  1  0.946275  0.414674  0.741522  1
  S  S12  1  0.872400  0.773335  0.556832  1
  S  S13  1  0.129056  0.995639  0.183494  1
  S  S14  1  0.370944  0.504361  0.683494  1
  S  S15  1  0.629056  0.495639  0.316506  1
  S  S16  1  0.127600  0.226665  0.443168  1
  S  S17  1  0.627600  0.726665  0.056832  1
  S  S18  1  0.870944  0.004361  0.816506  1
  S  S19  1  0.372400  0.273335  0.943168  1
  O  O20  1  0.952811  0.006930  0.215893  1
  O  O21  1  0.399091  0.978699  0.697818  1
  O  O22  1  0.633960  0.890026  0.069754  1
  O  O23  1  0.239306  0.128733  0.393359  1
  O  O24  1  0.344893  0.774169  0.420751  1
  O  O25  1  0.452811  0.506930  0.284107  1
  O  O26  1  0.899091  0.478699  0.802182  1
  O  O27  1  0.255711  0.616291  0.720772  1
  O  O28  1  0.760694  0.871267  0.606641  1
  O  O29  1  0.866040  0.609974  0.569754  1
  O  O30  1  0.260694  0.371267  0.893359  1
  O  O31  1  0.100909  0.521301  0.197818  1
  O  O32  1  0.869065  0.821443  0.460711  1
  O  O33  1  0.787263  0.845988  0.825885  1
  O  O34  1  0.369065  0.321443  0.039289  1
  O  O35  1  0.287263  0.345988  0.674115  1
  O  O36  1  0.212737  0.154012  0.174115  1
  O  O37  1  0.133960  0.390026  0.430246  1
  O  O38  1  0.712737  0.654012  0.325885  1
  O  O39  1  0.155107  0.725831  0.920751  1
  O  O40  1  0.755711  0.116291  0.779228  1
  O  O41  1  0.366040  0.109974  0.930246  1
  O  O42  1  0.744289  0.383709  0.279228  1
  O  O43  1  0.630935  0.678557  0.960711  1
  O  O44  1  0.130935  0.178557  0.539289  1
  O  O45  1  0.844893  0.274169  0.079249  1
  O  O46  1  0.547189  0.493070  0.715893  1
  O  O47  1  0.655107  0.225831  0.579249  1
  O  O48  1  0.600909  0.021301  0.302182  1
  O  O49  1  0.739306  0.628733  0.106641  1
  O  O50  1  0.244289  0.883709  0.220772  1
  O  O51  1  0.047189  0.993070  0.784107  1
  F  F52  1  0.570235  0.324551  0.916425  1
  F  F53  1  0.891308  0.054800  0.918031  1
  F  F54  1  0.608692  0.445200  0.418031  1
  F  F55  1  0.108692  0.945200  0.081969  1
  F  F56  1  0.070235  0.824551  0.583575  1
  F  F57  1  0.391308  0.554800  0.581969  1
  F  F58  1  0.429765  0.675449  0.083575  1
  F  F59  1  0.929765  0.175449  0.416425  1
