# generated using pymatgen
data_RbP2WO8
_symmetry_space_group_name_H-M   'P 1'
_cell_length_a   5.20395325
_cell_length_b   11.91428025
_cell_length_c   12.21013614
_cell_angle_alpha   90.00000000
_cell_angle_beta   90.00000000
_cell_angle_gamma   90.82958621
_symmetry_Int_Tables_number   1
_chemical_formula_structural   RbP2WO8
_chemical_formula_sum   'Rb4 P8 W4 O32'
_cell_volume   756.96566269
_cell_formula_units_Z   4
loop_
 _symmetry_equiv_pos_site_id
 _symmetry_equiv_pos_as_xyz
  1  'x, y, z'
loop_
 _atom_site_type_symbol
 _atom_site_label
 _atom_site_symmetry_multiplicity
 _atom_site_fract_x
 _atom_site_fract_y
 _atom_site_fract_z
 _atom_site_occupancy
  Rb  Rb0  1  0.240113  0.538742  0.877315  1
  Rb  Rb1  1  0.259887  0.961258  0.377315  1
  Rb  Rb2  1  0.759887  0.461258  0.122685  1
  Rb  Rb3  1  0.740113  0.038742  0.622685  1
  P  P4  1  0.243883  0.627006  0.571151  1
  P  P5  1  0.256117  0.872994  0.071151  1
  P  P6  1  0.756117  0.372994  0.428849  1
  P  P7  1  0.743883  0.127006  0.928849  1
  P  P8  1  0.232660  0.835145  0.704870  1
  P  P9  1  0.267340  0.664855  0.204870  1
  P  P10  1  0.767340  0.164855  0.295130  1
  P  P11  1  0.732660  0.335145  0.795130  1
  W  W12  1  0.741063  0.829256  0.892115  1
  W  W13  1  0.758937  0.670744  0.392114  1
  W  W14  1  0.258937  0.170744  0.107885  1
  W  W15  1  0.241063  0.329256  0.607885  1
  O  O16  1  0.700947  0.682589  0.894031  1
  O  O17  1  0.799053  0.817411  0.394031  1
  O  O18  1  0.299053  0.317411  0.105969  1
  O  O19  1  0.200947  0.182589  0.605969  1
  O  O20  1  0.955994  0.839009  0.751405  1
  O  O21  1  0.544006  0.660991  0.251405  1
  O  O22  1  0.044006  0.160991  0.248595  1
  O  O23  1  0.455994  0.339009  0.748595  1
  O  O24  1  0.428548  0.863043  0.795637  1
  O  O25  1  0.071452  0.636957  0.295637  1
  O  O26  1  0.571452  0.136958  0.204363  1
  O  O27  1  0.928548  0.363042  0.704363  1
  O  O28  1  0.068889  0.827671  0.985516  1
  O  O29  1  0.431111  0.672329  0.485516  1
  O  O30  1  0.931111  0.172329  0.014484  1
  O  O31  1  0.568889  0.327671  0.514484  1
  O  O32  1  0.535497  0.859479  0.033549  1
  O  O33  1  0.964503  0.640521  0.533549  1
  O  O34  1  0.464503  0.140521  0.966451  1
  O  O35  1  0.035497  0.359479  0.466451  1
  O  O36  1  0.799139  0.008758  0.889558  1
  O  O37  1  0.700861  0.491242  0.389558  1
  O  O38  1  0.200861  0.991242  0.110442  1
  O  O39  1  0.299139  0.508758  0.610442  1
  O  O40  1  0.278837  0.701168  0.680994  1
  O  O41  1  0.221163  0.798832  0.180994  1
  O  O42  1  0.721163  0.298832  0.319006  1
  O  O43  1  0.778837  0.201168  0.819006  1
  O  O44  1  0.261605  0.903351  0.603037  1
  O  O45  1  0.238395  0.596649  0.103037  1
  O  O46  1  0.738395  0.096649  0.396963  1
  O  O47  1  0.761605  0.403351  0.896963  1
