# generated using pymatgen
data_BaEu2Mn2O7
_symmetry_space_group_name_H-M   'P 1'
_cell_length_a   5.65730289
_cell_length_b   5.59831780
_cell_length_c   10.42806950
_cell_angle_alpha   90.00204261
_cell_angle_beta   105.68054802
_cell_angle_gamma   89.99896354
_symmetry_Int_Tables_number   1
_chemical_formula_structural   BaEu2Mn2O7
_chemical_formula_sum   'Ba2 Eu4 Mn4 O14'
_cell_volume   317.97982234
_cell_formula_units_Z   2
loop_
 _symmetry_equiv_pos_site_id
 _symmetry_equiv_pos_as_xyz
  1  'x, y, z'
loop_
 _atom_site_type_symbol
 _atom_site_label
 _atom_site_symmetry_multiplicity
 _atom_site_fract_x
 _atom_site_fract_y
 _atom_site_fract_z
 _atom_site_occupancy
  Eu  Eu0  1  0.417433  0.750027  0.365357  1
  Eu  Eu1  1  0.052425  0.749998  0.633553  1
  Eu  Eu2  1  0.947227  0.249940  0.365904  1
  Eu  Eu3  1  0.580514  0.249979  0.633714  1
  Ba  Ba4  1  0.752366  0.249985  0.000036  1
  Ba  Ba5  1  0.248171  0.749980  0.000674  1
  Mn  Mn6  1  0.648786  0.749947  0.800584  1
  Mn  Mn7  1  0.351171  0.250092  0.199816  1
  Mn  Mn8  1  0.151559  0.249902  0.800142  1
  Mn  Mn9  1  0.848175  0.750036  0.199597  1
  O  O10  1  0.899028  0.499917  0.797937  1
  O  O11  1  0.101881  0.999786  0.202830  1
  O  O12  1  0.986213  0.749976  0.402740  1
  O  O13  1  0.015484  0.249969  0.596711  1
  O  O14  1  0.610149  0.999482  0.221788  1
  O  O15  1  0.389911  0.499761  0.779144  1
  O  O16  1  0.732364  0.750035  0.000107  1
  O  O17  1  0.899097  0.999830  0.797928  1
  O  O18  1  0.417780  0.250349  0.402717  1
  O  O19  1  0.389825  0.999984  0.779134  1
  O  O20  1  0.101889  0.500445  0.202784  1
  O  O21  1  0.610216  0.500520  0.221598  1
  O  O22  1  0.580437  0.750106  0.595120  1
  O  O23  1  0.267898  0.249954  0.000085  1
