# generated using pymatgen
data_Co2As2O7
_symmetry_space_group_name_H-M   'P 1'
_cell_length_a   4.87417560
_cell_length_b   5.44190164
_cell_length_c   5.44190164
_cell_angle_alpha   105.86322391
_cell_angle_beta   97.05572939
_cell_angle_gamma   97.05572949
_symmetry_Int_Tables_number   1
_chemical_formula_structural   Co2As2O7
_chemical_formula_sum   'Co2 As2 O7'
_cell_volume   135.93453984
_cell_formula_units_Z   1
loop_
 _symmetry_equiv_pos_site_id
 _symmetry_equiv_pos_as_xyz
  1  'x, y, z'
loop_
 _atom_site_type_symbol
 _atom_site_label
 _atom_site_symmetry_multiplicity
 _atom_site_fract_x
 _atom_site_fract_y
 _atom_site_fract_z
 _atom_site_occupancy
  O  O0  1  0.290359  0.928741  0.596318  1
  O  O1  1  0.709641  0.403682  0.071259  1
  O  O2  1  0.709641  0.071259  0.403682  1
  O  O3  1  0.290359  0.596318  0.928741  1
  O  O4  1  0.000000  0.000000  0.000000  1
  O  O5  1  0.774618  0.594351  0.594351  1
  O  O6  1  0.225382  0.405649  0.405649  1
  Co  Co7  1  0.500000  0.692053  0.307947  1
  Co  Co8  1  0.500000  0.307947  0.692053  1
  As  As9  1  0.099658  0.759836  0.759836  1
  As  As10  1  0.900342  0.240164  0.240164  1
