# generated using pymatgen
data_VSbO4
_symmetry_space_group_name_H-M   'P 1'
_cell_length_a   5.64675535
_cell_length_b   5.64675535
_cell_length_c   5.64675535
_cell_angle_alpha   108.18649176
_cell_angle_beta   108.18649175
_cell_angle_gamma   112.07241339
_symmetry_Int_Tables_number   1
_chemical_formula_structural   VSbO4
_chemical_formula_sum   'V2 Sb2 O8'
_cell_volume   138.38843900
_cell_formula_units_Z   2
loop_
 _symmetry_equiv_pos_site_id
 _symmetry_equiv_pos_as_xyz
  1  'x, y, z'
loop_
 _atom_site_type_symbol
 _atom_site_label
 _atom_site_symmetry_multiplicity
 _atom_site_fract_x
 _atom_site_fract_y
 _atom_site_fract_z
 _atom_site_occupancy
  O  O0  1  0.814298  0.505826  0.308472  1
  O  O1  1  0.255826  0.447353  0.191528  1
  O  O2  1  0.255826  0.064298  0.808472  1
  O  O3  1  0.197353  0.505826  0.691528  1
  O  O4  1  0.297204  0.994555  0.302649  1
  O  O5  1  0.744555  0.941906  0.197351  1
  O  O6  1  0.744555  0.547204  0.802649  1
  O  O7  1  0.691906  0.994555  0.697351  1
  V  V8  1  0.992443  0.992443  0.000000  1
  V  V9  1  0.742443  0.242443  0.500000  1
  Sb  Sb10  1  0.506795  0.506795  0.000000  1
  Sb  Sb11  1  0.256795  0.756795  0.500000  1
