# generated using pymatgen
data_Gd2Te4O11
_symmetry_space_group_name_H-M   'P 1'
_cell_length_a   5.22468708
_cell_length_b   6.82462585
_cell_length_c   16.20204055
_cell_angle_alpha   79.81812053
_cell_angle_beta   80.72138754
_cell_angle_gamma   67.49389158
_symmetry_Int_Tables_number   1
_chemical_formula_structural   Gd2Te4O11
_chemical_formula_sum   'Gd4 Te8 O22'
_cell_volume   522.51580342
_cell_formula_units_Z   2
loop_
 _symmetry_equiv_pos_site_id
 _symmetry_equiv_pos_as_xyz
  1  'x, y, z'
loop_
 _atom_site_type_symbol
 _atom_site_label
 _atom_site_symmetry_multiplicity
 _atom_site_fract_x
 _atom_site_fract_y
 _atom_site_fract_z
 _atom_site_occupancy
  Gd  Gd0  1  0.630144  0.200612  0.037584  1
  Gd  Gd1  1  0.868339  0.299388  0.462416  1
  Gd  Gd2  1  0.369856  0.799388  0.962416  1
  Gd  Gd3  1  0.131661  0.700612  0.537584  1
  Te  Te4  1  0.588711  0.884589  0.374297  1
  Te  Te5  1  0.847597  0.615411  0.125703  1
  Te  Te6  1  0.411289  0.115411  0.625703  1
  Te  Te7  1  0.152403  0.384589  0.874297  1
  Te  Te8  1  0.156109  0.042243  0.199178  1
  Te  Te9  1  0.397529  0.457757  0.300822  1
  Te  Te10  1  0.843891  0.957757  0.800822  1
  Te  Te11  1  0.602471  0.542243  0.699178  1
  O  O12  1  0.683656  0.132140  0.371834  1
  O  O13  1  0.187629  0.367860  0.128166  1
  O  O14  1  0.316344  0.867860  0.628166  1
  O  O15  1  0.812371  0.632140  0.871834  1
  O  O16  1  0.249737  0.968832  0.446668  1
  O  O17  1  0.665237  0.531168  0.053332  1
  O  O18  1  0.750263  0.031168  0.553332  1
  O  O19  1  0.334763  0.468832  0.946668  1
  O  O20  1  0.819047  0.686161  0.454389  1
  O  O21  1  0.959598  0.813839  0.045611  1
  O  O22  1  0.180953  0.313839  0.545611  1
  O  O23  1  0.040402  0.186161  0.954389  1
  O  O24  1  0.443022  0.548490  0.401882  1
  O  O25  1  0.393394  0.951510  0.098118  1
  O  O26  1  0.556978  0.451510  0.598118  1
  O  O27  1  0.606606  0.048490  0.901882  1
  O  O28  1  0.092745  0.371682  0.331561  1
  O  O29  1  0.795988  0.128318  0.168439  1
  O  O30  1  0.907255  0.628318  0.668439  1
  O  O31  1  0.204012  0.871682  0.831561  1
  O  O32  1  0.145879  0.750000  0.250000  1
  O  O33  1  0.854121  0.250000  0.750000  1
