# generated using pymatgen
data_Nd3Si2ClO8
_symmetry_space_group_name_H-M   'P 1'
_cell_length_a   6.45278452
_cell_length_b   7.83977341
_cell_length_c   8.81764785
_cell_angle_alpha   97.47231145
_cell_angle_beta   90.00000000
_cell_angle_gamma   114.30170749
_symmetry_Int_Tables_number   1
_chemical_formula_structural   Nd3Si2ClO8
_chemical_formula_sum   'Nd6 Si4 Cl2 O16'
_cell_volume   402.38453110
_cell_formula_units_Z   2
loop_
 _symmetry_equiv_pos_site_id
 _symmetry_equiv_pos_as_xyz
  1  'x, y, z'
loop_
 _atom_site_type_symbol
 _atom_site_label
 _atom_site_symmetry_multiplicity
 _atom_site_fract_x
 _atom_site_fract_y
 _atom_site_fract_z
 _atom_site_occupancy
  Nd  Nd0  1  0.789705  0.369775  0.170821  1
  Nd  Nd1  1  0.419930  0.630225  0.329179  1
  Nd  Nd2  1  0.580070  0.369775  0.670821  1
  Nd  Nd3  1  0.924880  0.000000  0.750000  1
  Nd  Nd4  1  0.210295  0.630225  0.829179  1
  Nd  Nd5  1  0.075120  0.000000  0.250000  1
  Si  Si6  1  0.212396  0.316093  0.024948  1
  Si  Si7  1  0.103698  0.316093  0.524948  1
  Si  Si8  1  0.896302  0.683907  0.475052  1
  Si  Si9  1  0.787604  0.683907  0.975052  1
  Cl  Cl10  1  0.474794  0.000000  0.750000  1
  Cl  Cl11  1  0.525206  0.000000  0.250000  1
  O  O12  1  0.959009  0.690545  0.656101  1
  O  O13  1  0.096777  0.714906  0.355146  1
  O  O14  1  0.040991  0.309455  0.343899  1
  O  O15  1  0.318798  0.523626  0.581600  1
  O  O16  1  0.949191  0.154839  0.030519  1
  O  O17  1  0.204828  0.523626  0.081600  1
  O  O18  1  0.050809  0.845161  0.969481  1
  O  O19  1  0.381871  0.285094  0.144854  1
  O  O20  1  0.268463  0.309455  0.843899  1
  O  O21  1  0.618129  0.714906  0.855146  1
  O  O22  1  0.794351  0.845161  0.469481  1
  O  O23  1  0.795172  0.476374  0.918400  1
  O  O24  1  0.903223  0.285094  0.644854  1
  O  O25  1  0.681202  0.476374  0.418400  1
  O  O26  1  0.731537  0.690545  0.156101  1
  O  O27  1  0.205649  0.154839  0.530519  1
