# generated using pymatgen
data_Li4Zn(PO4)2
_symmetry_space_group_name_H-M   'P 1'
_cell_length_a   8.20926675
_cell_length_b   8.22224373
_cell_length_c   10.40428318
_cell_angle_alpha   90.00000000
_cell_angle_beta   90.00000000
_cell_angle_gamma   104.63982739
_symmetry_Int_Tables_number   1
_chemical_formula_structural   Li4Zn(PO4)2
_chemical_formula_sum   'Li16 Zn4 P8 O32'
_cell_volume   679.47422565
_cell_formula_units_Z   4
loop_
 _symmetry_equiv_pos_site_id
 _symmetry_equiv_pos_as_xyz
  1  'x, y, z'
loop_
 _atom_site_type_symbol
 _atom_site_label
 _atom_site_symmetry_multiplicity
 _atom_site_fract_x
 _atom_site_fract_y
 _atom_site_fract_z
 _atom_site_occupancy
  Li  Li0  1  0.727687  0.477967  0.927057  1
  Li  Li1  1  0.849013  0.850471  0.348706  1
  Li  Li2  1  0.650987  0.149529  0.848706  1
  Li  Li3  1  0.272313  0.522033  0.072943  1
  Li  Li4  1  0.227687  0.477967  0.572943  1
  Li  Li5  1  0.150987  0.149529  0.651294  1
  Li  Li6  1  0.400657  0.398290  0.835541  1
  Li  Li7  1  0.842566  0.345325  0.162055  1
  Li  Li8  1  0.772313  0.522033  0.427057  1
  Li  Li9  1  0.349013  0.850471  0.151294  1
  Li  Li10  1  0.657434  0.654675  0.662055  1
  Li  Li11  1  0.342566  0.345325  0.337945  1
  Li  Li12  1  0.599343  0.601710  0.164459  1
  Li  Li13  1  0.157434  0.654675  0.837945  1
  Li  Li14  1  0.099343  0.601710  0.335541  1
  Li  Li15  1  0.900657  0.398290  0.664459  1
  Zn  Zn16  1  0.091292  0.092214  0.156706  1
  Zn  Zn17  1  0.591292  0.092214  0.343294  1
  Zn  Zn18  1  0.908708  0.907786  0.843294  1
  Zn  Zn19  1  0.408708  0.907786  0.656706  1
  P  P20  1  0.534322  0.767568  0.906729  1
  P  P21  1  0.465678  0.232432  0.093271  1
  P  P22  1  0.973305  0.711152  0.091472  1
  P  P23  1  0.526695  0.288848  0.591472  1
  P  P24  1  0.034322  0.767568  0.593271  1
  P  P25  1  0.473305  0.711152  0.408528  1
  P  P26  1  0.026695  0.288848  0.908528  1
  P  P27  1  0.965678  0.232432  0.406729  1
  O  O28  1  0.912275  0.383336  0.344731  1
  O  O29  1  0.371687  0.337616  0.650036  1
  O  O30  1  0.008808  0.755652  0.946459  1
  O  O31  1  0.991192  0.244348  0.053541  1
  O  O32  1  0.587725  0.616664  0.844731  1
  O  O33  1  0.128313  0.662384  0.150036  1
  O  O34  1  0.884168  0.804834  0.669668  1
  O  O35  1  0.313161  0.562863  0.399029  1
  O  O36  1  0.628313  0.662384  0.349964  1
  O  O37  1  0.315444  0.071737  0.103064  1
  O  O38  1  0.478201  0.725424  0.047291  1
  O  O39  1  0.684556  0.928263  0.896936  1
  O  O40  1  0.978201  0.725424  0.452709  1
  O  O41  1  0.087725  0.616664  0.655269  1
  O  O42  1  0.021799  0.274576  0.547291  1
  O  O43  1  0.412275  0.383336  0.155269  1
  O  O44  1  0.439400  0.863648  0.333147  1
  O  O45  1  0.384168  0.804834  0.830332  1
  O  O46  1  0.115832  0.195166  0.330332  1
  O  O47  1  0.060600  0.136352  0.833147  1
  O  O48  1  0.615832  0.195166  0.169668  1
  O  O49  1  0.508808  0.755652  0.553541  1
  O  O50  1  0.186839  0.437137  0.899029  1
  O  O51  1  0.939400  0.863648  0.166853  1
  O  O52  1  0.521799  0.274576  0.952709  1
  O  O53  1  0.184556  0.928263  0.603064  1
  O  O54  1  0.560600  0.136352  0.666853  1
  O  O55  1  0.491192  0.244348  0.446459  1
  O  O56  1  0.815444  0.071737  0.396936  1
  O  O57  1  0.871687  0.337616  0.849964  1
  O  O58  1  0.813161  0.562863  0.100971  1
  O  O59  1  0.686839  0.437137  0.600971  1
