# generated using pymatgen
data_Ge2C2(SeF2)3
_symmetry_space_group_name_H-M   'P 1'
_cell_length_a   11.62696639
_cell_length_b   11.62696631
_cell_length_c   11.62696663
_cell_angle_alpha   59.99999913
_cell_angle_beta   59.99999935
_cell_angle_gamma   59.99999751
_symmetry_Int_Tables_number   1
_chemical_formula_structural   Ge2C2(SeF2)3
_chemical_formula_sum   'Ge8 Se12 C8 F24'
_cell_volume   1111.43545424
_cell_formula_units_Z   4
loop_
 _symmetry_equiv_pos_site_id
 _symmetry_equiv_pos_as_xyz
  1  'x, y, z'
loop_
 _atom_site_type_symbol
 _atom_site_label
 _atom_site_symmetry_multiplicity
 _atom_site_fract_x
 _atom_site_fract_y
 _atom_site_fract_z
 _atom_site_occupancy
  Ge  Ge0  1  0.201948  0.201948  0.201948  1
  Ge  Ge1  1  0.798052  0.798052  0.105843  1
  Ge  Ge2  1  0.105843  0.798052  0.798052  1
  Ge  Ge3  1  0.798052  0.105843  0.798052  1
  Ge  Ge4  1  0.894157  0.201948  0.201948  1
  Ge  Ge5  1  0.201948  0.894157  0.201948  1
  Ge  Ge6  1  0.201948  0.201948  0.894157  1
  Ge  Ge7  1  0.798052  0.798052  0.798052  1
  Se  Se8  1  0.952346  0.297654  0.297654  1
  Se  Se9  1  0.702346  0.702346  0.047654  1
  Se  Se10  1  0.047654  0.047654  0.702346  1
  Se  Se11  1  0.702346  0.047654  0.047654  1
  Se  Se12  1  0.702346  0.047654  0.702346  1
  Se  Se13  1  0.047654  0.702346  0.047654  1
  Se  Se14  1  0.297654  0.952346  0.297654  1
  Se  Se15  1  0.297654  0.297654  0.952346  1
  Se  Se16  1  0.952346  0.952346  0.297654  1
  Se  Se17  1  0.952346  0.297654  0.952346  1
  Se  Se18  1  0.047654  0.702346  0.702346  1
  Se  Se19  1  0.297654  0.952346  0.952346  1
  F  F20  1  0.354625  0.354625  0.165468  1
  F  F21  1  0.645375  0.834532  0.374718  1
  F  F22  1  0.374718  0.645375  0.645375  1
  F  F23  1  0.645375  0.374718  0.645375  1
  F  F24  1  0.834532  0.645375  0.374718  1
  F  F25  1  0.834532  0.374718  0.645375  1
  F  F26  1  0.374718  0.834532  0.645375  1
  F  F27  1  0.165468  0.354625  0.354625  1
  F  F28  1  0.354625  0.165468  0.354625  1
  F  F29  1  0.625282  0.354625  0.165468  1
  F  F30  1  0.354625  0.625282  0.165468  1
  F  F31  1  0.625282  0.354625  0.354625  1
  F  F32  1  0.165468  0.354625  0.625282  1
  F  F33  1  0.354625  0.165468  0.625282  1
  F  F34  1  0.354625  0.625282  0.354625  1
  F  F35  1  0.374718  0.645375  0.834532  1
  F  F36  1  0.645375  0.374718  0.834532  1
  F  F37  1  0.645375  0.645375  0.374718  1
  F  F38  1  0.645375  0.645375  0.834532  1
  F  F39  1  0.834532  0.645375  0.645375  1
  F  F40  1  0.645375  0.834532  0.645375  1
  F  F41  1  0.165468  0.625282  0.354625  1
  F  F42  1  0.625282  0.165468  0.354625  1
  F  F43  1  0.354625  0.354625  0.625282  1
  C  C44  1  0.274132  0.274132  0.274132  1
  C  C45  1  0.725868  0.725868  0.322396  1
  C  C46  1  0.322396  0.725868  0.725868  1
  C  C47  1  0.725868  0.322396  0.725868  1
  C  C48  1  0.677604  0.274132  0.274132  1
  C  C49  1  0.274132  0.677604  0.274132  1
  C  C50  1  0.274132  0.274132  0.677604  1
  C  C51  1  0.725868  0.725868  0.725868  1
