# generated using pymatgen
data_Cs2Li2SiO4
_symmetry_space_group_name_H-M   'P 1'
_cell_length_a   5.63422133
_cell_length_b   5.83100780
_cell_length_c   9.39865115
_cell_angle_alpha   83.85908308
_cell_angle_beta   76.61380743
_cell_angle_gamma   87.23609370
_symmetry_Int_Tables_number   1
_chemical_formula_structural   Cs2Li2SiO4
_chemical_formula_sum   'Cs4 Li4 Si2 O8'
_cell_volume   298.57524937
_cell_formula_units_Z   2
loop_
 _symmetry_equiv_pos_site_id
 _symmetry_equiv_pos_as_xyz
  1  'x, y, z'
loop_
 _atom_site_type_symbol
 _atom_site_label
 _atom_site_symmetry_multiplicity
 _atom_site_fract_x
 _atom_site_fract_y
 _atom_site_fract_z
 _atom_site_occupancy
  Si  Si0  1  0.145232  0.685286  0.294707  1
  Si  Si1  1  0.854768  0.314714  0.705293  1
  Cs  Cs2  1  0.521395  0.151995  0.283441  1
  Cs  Cs3  1  0.478605  0.848005  0.716559  1
  Cs  Cs4  1  0.789440  0.733040  0.015977  1
  Cs  Cs5  1  0.210560  0.266960  0.984023  1
  Li  Li6  1  0.299169  0.409654  0.579699  1
  Li  Li7  1  0.700831  0.590346  0.420301  1
  Li  Li8  1  0.061501  0.813347  0.561442  1
  Li  Li9  1  0.938499  0.186653  0.438558  1
  O  O10  1  0.353425  0.641804  0.398537  1
  O  O11  1  0.646575  0.358196  0.601463  1
  O  O12  1  0.998805  0.444694  0.292307  1
  O  O13  1  0.001195  0.555306  0.707693  1
  O  O14  1  0.929315  0.862135  0.385526  1
  O  O15  1  0.070685  0.137865  0.614474  1
  O  O16  1  0.268056  0.793050  0.127009  1
  O  O17  1  0.731944  0.206950  0.872991  1
