# generated using pymatgen
data_K3ReC4(N2O)2
_symmetry_space_group_name_H-M   'P 1'
_cell_length_a   6.47069773
_cell_length_b   7.03899958
_cell_length_c   7.57400352
_cell_angle_alpha   106.80702350
_cell_angle_beta   110.86498270
_cell_angle_gamma   105.24529978
_symmetry_Int_Tables_number   1
_chemical_formula_structural   K3ReC4(N2O)2
_chemical_formula_sum   'K3 Re1 C4 N4 O2'
_cell_volume   281.57936831
_cell_formula_units_Z   1
loop_
 _symmetry_equiv_pos_site_id
 _symmetry_equiv_pos_as_xyz
  1  'x, y, z'
loop_
 _atom_site_type_symbol
 _atom_site_label
 _atom_site_symmetry_multiplicity
 _atom_site_fract_x
 _atom_site_fract_y
 _atom_site_fract_z
 _atom_site_occupancy
  Re  Re0  1  0.000000  0.000000  0.000000  1
  K  K1  1  0.000000  0.500000  0.500000  1
  K  K2  1  0.457949  0.165293  0.800332  1
  K  K3  1  0.542051  0.834707  0.199668  1
  O  O4  1  0.156285  0.863814  0.890451  1
  O  O5  1  0.843715  0.136186  0.109549  1
  C  C6  1  0.676081  0.709669  0.831584  1
  C  C7  1  0.323919  0.290331  0.168416  1
  C  C8  1  0.100707  0.901721  0.246924  1
  C  C9  1  0.899293  0.098279  0.753076  1
  N  N10  1  0.493509  0.555088  0.754233  1
  N  N11  1  0.506491  0.444912  0.245767  1
  N  N12  1  0.154398  0.843010  0.380722  1
  N  N13  1  0.845602  0.156990  0.619278  1
