# generated using pymatgen
data_Rb3Pr3(PS4)4
_symmetry_space_group_name_H-M   'P 1'
_cell_length_a   9.43163060
_cell_length_b   10.77865444
_cell_length_c   14.81909939
_cell_angle_alpha   85.70929359
_cell_angle_beta   87.89052063
_cell_angle_gamma   80.69887504
_symmetry_Int_Tables_number   1
_chemical_formula_structural   Rb3Pr3(PS4)4
_chemical_formula_sum   'Rb6 Pr6 P8 S32'
_cell_volume   1482.07255376
_cell_formula_units_Z   2
loop_
 _symmetry_equiv_pos_site_id
 _symmetry_equiv_pos_as_xyz
  1  'x, y, z'
loop_
 _atom_site_type_symbol
 _atom_site_label
 _atom_site_symmetry_multiplicity
 _atom_site_fract_x
 _atom_site_fract_y
 _atom_site_fract_z
 _atom_site_occupancy
  Rb  Rb0  1  0.618484  0.198241  0.254731  1
  Rb  Rb1  1  0.735622  0.423668  0.646196  1
  Rb  Rb2  1  0.208493  0.078632  0.084928  1
  Rb  Rb3  1  0.381516  0.801759  0.745269  1
  Rb  Rb4  1  0.791507  0.921368  0.915072  1
  Rb  Rb5  1  0.264378  0.576332  0.353804  1
  Pr  Pr6  1  0.766099  0.984805  0.524778  1
  Pr  Pr7  1  0.746855  0.469521  0.997093  1
  Pr  Pr8  1  0.253145  0.530478  0.002907  1
  Pr  Pr9  1  0.233901  0.015195  0.475222  1
  Pr  Pr10  1  0.244637  0.278407  0.737015  1
  Pr  Pr11  1  0.755363  0.721593  0.262985  1
  P  P12  1  0.447655  0.249009  0.513870  1
  P  P13  1  0.003312  0.934441  0.318520  1
  P  P14  1  0.991834  0.433712  0.180101  1
  P  P15  1  0.472337  0.717582  0.096252  1
  P  P16  1  0.996688  0.065559  0.681480  1
  P  P17  1  0.527663  0.282418  0.903748  1
  P  P18  1  0.008166  0.566288  0.819899  1
  P  P19  1  0.552345  0.750991  0.486130  1
  S  S20  1  0.075669  0.524910  0.692869  1
  S  S21  1  0.054923  0.400079  0.904506  1
  S  S22  1  0.107056  0.060364  0.798812  1
  S  S23  1  0.945077  0.599921  0.095494  1
  S  S24  1  0.677560  0.754363  0.596203  1
  S  S25  1  0.626584  0.596790  0.417171  1
  S  S26  1  0.579674  0.562498  0.170704  1
  S  S27  1  0.892301  0.296099  0.132647  1
  S  S28  1  0.502814  0.674933  0.961898  1
  S  S29  1  0.655397  0.246176  0.470169  1
  S  S30  1  0.322440  0.245637  0.403797  1
  S  S31  1  0.373416  0.403210  0.582829  1
  S  S32  1  0.944172  0.789444  0.403897  1
  S  S33  1  0.791285  0.624396  0.832278  1
  S  S34  1  0.220127  0.916796  0.299429  1
  S  S35  1  0.050765  0.902852  0.614067  1
  S  S36  1  0.344603  0.753824  0.529831  1
  S  S37  1  0.441793  0.088140  0.602249  1
  S  S38  1  0.743806  0.261985  0.883230  1
  S  S39  1  0.558207  0.911860  0.397751  1
  S  S40  1  0.256194  0.738015  0.116770  1
  S  S41  1  0.563800  0.869489  0.124472  1
  S  S42  1  0.107699  0.703901  0.867353  1
  S  S43  1  0.949235  0.097148  0.385933  1
  S  S44  1  0.497186  0.325067  0.038102  1
  S  S45  1  0.779873  0.083204  0.700571  1
  S  S46  1  0.436200  0.130511  0.875528  1
  S  S47  1  0.892944  0.939636  0.201188  1
  S  S48  1  0.924331  0.475090  0.307131  1
  S  S49  1  0.055828  0.210556  0.596103  1
  S  S50  1  0.208715  0.375604  0.167722  1
  S  S51  1  0.420326  0.437502  0.829296  1
