# generated using pymatgen
data_Np5Ge3
_symmetry_space_group_name_H-M   'P 1'
_cell_length_a   5.07943537
_cell_length_b   8.14251050
_cell_length_c   8.14251039
_cell_angle_alpha   84.41703920
_cell_angle_beta   71.82572004
_cell_angle_gamma   71.82571697
_symmetry_Int_Tables_number   1
_chemical_formula_structural   Np5Ge3
_chemical_formula_sum   'Np10 Ge6'
_cell_volume   304.00577637
_cell_formula_units_Z   2
loop_
 _symmetry_equiv_pos_site_id
 _symmetry_equiv_pos_as_xyz
  1  'x, y, z'
loop_
 _atom_site_type_symbol
 _atom_site_label
 _atom_site_symmetry_multiplicity
 _atom_site_fract_x
 _atom_site_fract_y
 _atom_site_fract_z
 _atom_site_occupancy
  Np  Np0  1  0.250000  0.500000  0.500000  1
  Np  Np1  1  0.750000  0.500000  0.500000  1
  Np  Np2  1  0.072118  0.171189  0.684575  1
  Np  Np3  1  0.756693  0.315425  0.171189  1
  Np  Np4  1  0.243307  0.684575  0.828811  1
  Np  Np5  1  0.927882  0.828811  0.315425  1
  Np  Np6  1  0.256693  0.171189  0.315425  1
  Np  Np7  1  0.743307  0.828811  0.684575  1
  Np  Np8  1  0.427882  0.315425  0.828811  1
  Np  Np9  1  0.572118  0.684575  0.171189  1
  Ge  Ge10  1  0.250000  0.000000  0.000000  1
  Ge  Ge11  1  0.750000  0.000000  0.000000  1
  Ge  Ge12  1  0.173011  0.500000  0.153979  1
  Ge  Ge13  1  0.326989  0.846021  0.500000  1
  Ge  Ge14  1  0.673011  0.153979  0.500000  1
  Ge  Ge15  1  0.826989  0.500000  0.846021  1
