# generated using pymatgen
data_Mn(PO3)2
_symmetry_space_group_name_H-M   'P 1'
_cell_length_a   7.47771111
_cell_length_b   7.47771176
_cell_length_c   10.03909350
_cell_angle_alpha   99.03403644
_cell_angle_beta   109.50911789
_cell_angle_gamma   109.92833330
_symmetry_Int_Tables_number   1
_chemical_formula_structural   Mn(PO3)2
_chemical_formula_sum   'Mn4 P8 O24'
_cell_volume   473.63092721
_cell_formula_units_Z   4
loop_
 _symmetry_equiv_pos_site_id
 _symmetry_equiv_pos_as_xyz
  1  'x, y, z'
loop_
 _atom_site_type_symbol
 _atom_site_label
 _atom_site_symmetry_multiplicity
 _atom_site_fract_x
 _atom_site_fract_y
 _atom_site_fract_z
 _atom_site_occupancy
  Mn  Mn0  1  0.500000  0.500000  0.500000  1
  Mn  Mn1  1  0.500000  0.000000  0.000000  1
  Mn  Mn2  1  0.292410  0.542410  0.750000  1
  Mn  Mn3  1  0.707590  0.457590  0.250000  1
  P  P4  1  0.494978  0.187028  0.693788  1
  P  P5  1  0.993240  0.801190  0.806212  1
  P  P6  1  0.505022  0.812972  0.306212  1
  P  P7  1  0.006760  0.198810  0.193788  1
  P  P8  1  0.235328  0.775539  0.477092  1
  P  P9  1  0.798447  0.758237  0.022908  1
  P  P10  1  0.764672  0.224461  0.522908  1
  P  P11  1  0.201553  0.241763  0.977092  1
  O  O12  1  0.690938  0.198397  0.655740  1
  O  O13  1  0.042656  0.035199  0.844260  1
  O  O14  1  0.309062  0.801604  0.344260  1
  O  O15  1  0.957344  0.964801  0.155740  1
  O  O16  1  0.294919  0.003529  0.560102  1
  O  O17  1  0.943427  0.734817  0.939898  1
  O  O18  1  0.705081  0.996471  0.439898  1
  O  O19  1  0.056573  0.265183  0.060102  1
  O  O20  1  0.534275  0.148106  0.838725  1
  O  O21  1  0.809381  0.695550  0.661275  1
  O  O22  1  0.465725  0.851894  0.161275  1
  O  O23  1  0.190619  0.304450  0.338725  1
  O  O24  1  0.456817  0.370763  0.676362  1
  O  O25  1  0.194401  0.780455  0.823638  1
  O  O26  1  0.543183  0.629237  0.323638  1
  O  O27  1  0.805599  0.219545  0.176362  1
  O  O28  1  0.366826  0.694941  0.579910  1
  O  O29  1  0.615030  0.786916  0.920090  1
  O  O30  1  0.633174  0.305059  0.420090  1
  O  O31  1  0.384970  0.213084  0.079910  1
  O  O32  1  0.995882  0.332338  0.588723  1
  O  O33  1  0.243616  0.407160  0.911277  1
  O  O34  1  0.004118  0.667662  0.411277  1
  O  O35  1  0.756384  0.592840  0.088723  1
