# generated using pymatgen
data_KHfCuF7
_symmetry_space_group_name_H-M   'P 1'
_cell_length_a   7.71750928
_cell_length_b   7.71750944
_cell_length_c   10.15720152
_cell_angle_alpha   90.00000000
_cell_angle_beta   90.00000000
_cell_angle_gamma   113.19317334
_symmetry_Int_Tables_number   1
_chemical_formula_structural   KHfCuF7
_chemical_formula_sum   'K4 Hf4 Cu4 F28'
_cell_volume   556.07073233
_cell_formula_units_Z   4
loop_
 _symmetry_equiv_pos_site_id
 _symmetry_equiv_pos_as_xyz
  1  'x, y, z'
loop_
 _atom_site_type_symbol
 _atom_site_label
 _atom_site_symmetry_multiplicity
 _atom_site_fract_x
 _atom_site_fract_y
 _atom_site_fract_z
 _atom_site_occupancy
  K  K0  1  0.158249  0.362836  0.250000  1
  K  K1  1  0.362836  0.158249  0.750000  1
  K  K2  1  0.637164  0.841751  0.250000  1
  K  K3  1  0.841751  0.637164  0.750000  1
  Hf  Hf4  1  0.867192  0.132808  0.569971  1
  Hf  Hf5  1  0.132808  0.867192  0.069971  1
  Hf  Hf6  1  0.132808  0.867192  0.430029  1
  Hf  Hf7  1  0.867192  0.132808  0.930029  1
  Cu  Cu8  1  0.363711  0.636289  0.929091  1
  Cu  Cu9  1  0.636289  0.363711  0.070909  1
  Cu  Cu10  1  0.636289  0.363711  0.429091  1
  Cu  Cu11  1  0.363711  0.636289  0.570909  1
  F  F12  1  0.292453  0.707547  0.110047  1
  F  F13  1  0.001706  0.272142  0.750000  1
  F  F14  1  0.727858  0.998294  0.750000  1
  F  F15  1  0.900552  0.646990  0.485641  1
  F  F16  1  0.353010  0.099448  0.485641  1
  F  F17  1  0.220284  0.779716  0.886485  1
  F  F18  1  0.024478  0.975522  0.887151  1
  F  F19  1  0.900552  0.646990  0.014359  1
  F  F20  1  0.099448  0.353010  0.514359  1
  F  F21  1  0.353010  0.099448  0.014359  1
  F  F22  1  0.420040  0.579960  0.750000  1
  F  F23  1  0.099448  0.353010  0.985641  1
  F  F24  1  0.646990  0.900552  0.514359  1
  F  F25  1  0.707547  0.292453  0.610047  1
  F  F26  1  0.998294  0.727858  0.250000  1
  F  F27  1  0.975522  0.024478  0.112849  1
  F  F28  1  0.292453  0.707547  0.389953  1
  F  F29  1  0.272142  0.001706  0.250000  1
  F  F30  1  0.707547  0.292453  0.889953  1
  F  F31  1  0.779716  0.220284  0.386485  1
  F  F32  1  0.500000  0.500000  0.000000  1
  F  F33  1  0.975522  0.024478  0.387151  1
  F  F34  1  0.646990  0.900552  0.985641  1
  F  F35  1  0.779716  0.220284  0.113515  1
  F  F36  1  0.579960  0.420040  0.250000  1
  F  F37  1  0.024478  0.975522  0.612849  1
  F  F38  1  0.220284  0.779716  0.613515  1
  F  F39  1  0.500000  0.500000  0.500000  1
