# generated using pymatgen
data_CsBiS2
_symmetry_space_group_name_H-M   'P 1'
_cell_length_a   7.51693052
_cell_length_b   8.19266453
_cell_length_c   9.59480778
_cell_angle_alpha   90.00000000
_cell_angle_beta   90.00000000
_cell_angle_gamma   103.28768196
_symmetry_Int_Tables_number   1
_chemical_formula_structural   CsBiS2
_chemical_formula_sum   'Cs4 Bi4 S8'
_cell_volume   575.06471373
_cell_formula_units_Z   4
loop_
 _symmetry_equiv_pos_site_id
 _symmetry_equiv_pos_as_xyz
  1  'x, y, z'
loop_
 _atom_site_type_symbol
 _atom_site_label
 _atom_site_symmetry_multiplicity
 _atom_site_fract_x
 _atom_site_fract_y
 _atom_site_fract_z
 _atom_site_occupancy
  Cs  Cs0  1  0.211028  0.867471  0.568519  1
  Cs  Cs1  1  0.288972  0.132529  0.068519  1
  Cs  Cs2  1  0.788972  0.132529  0.431481  1
  Cs  Cs3  1  0.711028  0.867471  0.931481  1
  Bi  Bi4  1  0.862749  0.411145  0.833567  1
  Bi  Bi5  1  0.637251  0.588855  0.333567  1
  Bi  Bi6  1  0.137251  0.588855  0.166433  1
  Bi  Bi7  1  0.362749  0.411145  0.666433  1
  S  S8  1  0.539764  0.192730  0.745630  1
  S  S9  1  0.960236  0.807270  0.245630  1
  S  S10  1  0.460236  0.807270  0.254370  1
  S  S11  1  0.039764  0.192730  0.754370  1
  S  S12  1  0.806202  0.329634  0.091289  1
  S  S13  1  0.693798  0.670366  0.591289  1
  S  S14  1  0.193798  0.670366  0.908711  1
  S  S15  1  0.306202  0.329634  0.408711  1
