# generated using pymatgen
data_Ba6Er2Ga4O15
_symmetry_space_group_name_H-M   'P 1'
_cell_length_a   6.02479800
_cell_length_b   8.03237133
_cell_length_c   18.63054812
_cell_angle_alpha   91.31456830
_cell_angle_beta   90.00000000
_cell_angle_gamma   90.00000000
_symmetry_Int_Tables_number   1
_chemical_formula_structural   Ba6Er2Ga4O15
_chemical_formula_sum   'Ba12 Er4 Ga8 O30'
_cell_volume   901.35854867
_cell_formula_units_Z   2
loop_
 _symmetry_equiv_pos_site_id
 _symmetry_equiv_pos_as_xyz
  1  'x, y, z'
loop_
 _atom_site_type_symbol
 _atom_site_label
 _atom_site_symmetry_multiplicity
 _atom_site_fract_x
 _atom_site_fract_y
 _atom_site_fract_z
 _atom_site_occupancy
  Ba  Ba0  1  0.748059  0.026562  0.089540  1
  Ba  Ba1  1  0.755010  0.498884  0.421366  1
  Ba  Ba2  1  0.244990  0.501116  0.578634  1
  Ba  Ba3  1  0.251941  0.973438  0.910460  1
  Ba  Ba4  1  0.329494  0.500000  0.250000  1
  Ba  Ba5  1  0.755010  0.501116  0.078634  1
  Ba  Ba6  1  0.724491  0.000000  0.750000  1
  Ba  Ba7  1  0.275509  0.000000  0.250000  1
  Ba  Ba8  1  0.244990  0.498884  0.921366  1
  Ba  Ba9  1  0.670506  0.500000  0.750000  1
  Ba  Ba10  1  0.251941  0.026562  0.589540  1
  Ba  Ba11  1  0.748059  0.973438  0.410460  1
  Er  Er12  1  0.746584  0.247498  0.910333  1
  Er  Er13  1  0.746584  0.752502  0.589667  1
  Er  Er14  1  0.253416  0.752502  0.089667  1
  Er  Er15  1  0.253416  0.247498  0.410333  1
  Ga  Ga16  1  0.251936  0.754073  0.442111  1
  Ga  Ga17  1  0.773410  0.770019  0.233017  1
  Ga  Ga18  1  0.773410  0.229981  0.266983  1
  Ga  Ga19  1  0.251936  0.245927  0.057889  1
  Ga  Ga20  1  0.748064  0.754073  0.942111  1
  Ga  Ga21  1  0.226590  0.229981  0.766983  1
  Ga  Ga22  1  0.226590  0.770019  0.733017  1
  Ga  Ga23  1  0.748064  0.245927  0.557889  1
  O  O24  1  0.245048  0.531322  0.409388  1
  O  O25  1  0.509077  0.765788  0.499609  1
  O  O26  1  0.957153  0.274706  0.811309  1
  O  O27  1  0.008951  0.234549  0.992708  1
  O  O28  1  0.799337  0.000000  0.250000  1
  O  O29  1  0.328564  0.687538  0.817084  1
  O  O30  1  0.042847  0.274706  0.311309  1
  O  O31  1  0.546145  0.751254  0.163321  1
  O  O32  1  0.546145  0.248746  0.336679  1
  O  O33  1  0.328564  0.312462  0.682916  1
  O  O34  1  0.490923  0.765788  -0.000391  1
  O  O35  1  0.237349  0.954408  0.392366  1
  O  O36  1  0.957153  0.725294  0.688691  1
  O  O37  1  0.453855  0.751254  0.663321  1
  O  O38  1  0.671436  0.687538  0.317084  1
  O  O39  1  0.200663  0.000000  0.750000  1
  O  O40  1  0.762651  0.045592  0.607634  1
  O  O41  1  0.754952  0.468678  0.590611  1
  O  O42  1  0.991049  0.765451  0.007292  1
  O  O43  1  0.754952  0.531322  0.909389  1
  O  O44  1  0.237349  0.045592  0.107634  1
  O  O45  1  0.762651  0.954408  0.892366  1
  O  O46  1  0.509077  0.234212  1.000391  1
  O  O47  1  0.453855  0.248746  0.836679  1
  O  O48  1  0.008951  0.765451  0.507292  1
  O  O49  1  0.671436  0.312462  0.182916  1
  O  O50  1  0.042847  0.725294  0.188691  1
  O  O51  1  0.991049  0.234549  0.492708  1
  O  O52  1  0.245048  0.468678  0.090611  1
  O  O53  1  0.490923  0.234212  0.500391  1
