# generated using pymatgen
data_Mg21Zn25
_symmetry_space_group_name_H-M   'P 1'
_cell_length_a   15.04242842
_cell_length_b   15.04242874
_cell_length_c   15.04242855
_cell_angle_alpha   116.40747498
_cell_angle_beta   116.40747556
_cell_angle_gamma   116.40747560
_symmetry_Int_Tables_number   1
_chemical_formula_structural   Mg21Zn25
_chemical_formula_sum   'Mg42 Zn50'
_cell_volume   1634.63319926
_cell_formula_units_Z   2
loop_
 _symmetry_equiv_pos_site_id
 _symmetry_equiv_pos_as_xyz
  1  'x, y, z'
loop_
 _atom_site_type_symbol
 _atom_site_label
 _atom_site_symmetry_multiplicity
 _atom_site_fract_x
 _atom_site_fract_y
 _atom_site_fract_z
 _atom_site_occupancy
  Mg  Mg0  1  0.557197  0.250000  0.942803  1
  Mg  Mg1  1  0.436864  0.954945  0.858766  1
  Mg  Mg2  1  0.045055  0.141234  0.563136  1
  Mg  Mg3  1  0.565291  0.681332  0.447866  1
  Mg  Mg4  1  0.250000  0.942803  0.557197  1
  Mg  Mg5  1  0.641234  0.545055  0.063136  1
  Mg  Mg6  1  0.442803  0.750000  0.057197  1
  Mg  Mg7  1  0.723599  0.183823  0.951732  1
  Mg  Mg8  1  0.048268  0.276401  0.816177  1
  Mg  Mg9  1  0.681332  0.447866  0.565291  1
  Mg  Mg10  1  0.858766  0.436864  0.954945  1
  Mg  Mg11  1  0.936864  0.358766  0.454945  1
  Mg  Mg12  1  0.947866  0.181332  0.065291  1
  Mg  Mg13  1  0.276401  0.816177  0.048268  1
  Mg  Mg14  1  0.750000  0.057197  0.442803  1
  Mg  Mg15  1  0.358766  0.454945  0.936864  1
  Mg  Mg16  1  0.063136  0.641234  0.545055  1
  Mg  Mg17  1  0.454945  0.936864  0.358766  1
  Mg  Mg18  1  0.223599  0.451732  0.683823  1
  Mg  Mg19  1  0.052134  0.818668  0.934709  1
  Mg  Mg20  1  0.183823  0.951732  0.723599  1
  Mg  Mg21  1  0.954945  0.858766  0.436864  1
  Mg  Mg22  1  0.318668  0.552134  0.434709  1
  Mg  Mg23  1  0.552134  0.434709  0.318668  1
  Mg  Mg24  1  0.683823  0.223599  0.451732  1
  Mg  Mg25  1  0.057197  0.442803  0.750000  1
  Mg  Mg26  1  0.316177  0.776401  0.548268  1
  Mg  Mg27  1  0.951732  0.723599  0.183823  1
  Mg  Mg28  1  0.942803  0.557197  0.250000  1
  Mg  Mg29  1  0.451732  0.683823  0.223599  1
  Mg  Mg30  1  0.818668  0.934709  0.052134  1
  Mg  Mg31  1  0.141234  0.563136  0.045055  1
  Mg  Mg32  1  0.934709  0.052134  0.818668  1
  Mg  Mg33  1  0.181332  0.065291  0.947866  1
  Mg  Mg34  1  0.563136  0.045055  0.141234  1
  Mg  Mg35  1  0.065291  0.947866  0.181332  1
  Mg  Mg36  1  0.816177  0.048268  0.276401  1
  Mg  Mg37  1  0.548268  0.316177  0.776401  1
  Mg  Mg38  1  0.776401  0.548268  0.316177  1
  Mg  Mg39  1  0.545055  0.063136  0.641234  1
  Mg  Mg40  1  0.447866  0.565291  0.681332  1
  Mg  Mg41  1  0.434709  0.318668  0.552134  1
  Zn  Zn42  1  0.519151  0.810919  0.927715  1
  Zn  Zn43  1  0.191917  0.750000  0.308083  1
  Zn  Zn44  1  0.263980  0.619252  0.618977  1
  Zn  Zn45  1  0.880748  0.236020  0.881023  1
  Zn  Zn46  1  0.072285  0.480849  0.189081  1
  Zn  Zn47  1  0.872879  0.808597  0.571467  1
  Zn  Zn48  1  0.310791  0.189209  0.250000  1
  Zn  Zn49  1  0.427715  0.310919  0.019151  1
  Zn  Zn50  1  0.380748  0.381023  0.736020  1
  Zn  Zn51  1  0.689081  0.980849  0.572285  1
  Zn  Zn52  1  0.980849  0.572285  0.689081  1
  Zn  Zn53  1  0.189209  0.250000  0.310791  1
  Zn  Zn54  1  0.571467  0.872879  0.808597  1
  Zn  Zn55  1  0.381023  0.736020  0.380748  1
  Zn  Zn56  1  0.619252  0.618977  0.263980  1
  Zn  Zn57  1  0.808083  0.250000  0.691917  1
  Zn  Zn58  1  0.308083  0.191917  0.750000  1
  Zn  Zn59  1  0.310919  0.019151  0.427715  1
  Zn  Zn60  1  0.928533  0.691403  0.627121  1
  Zn  Zn61  1  0.019151  0.427715  0.310919  1
  Zn  Zn62  1  0.689209  0.810791  0.750000  1
  Zn  Zn63  1  0.691403  0.627121  0.928533  1
  Zn  Zn64  1  0.189081  0.072285  0.480849  1
  Zn  Zn65  1  0.236020  0.881023  0.880748  1
  Zn  Zn66  1  0.250000  0.310791  0.189209  1
  Zn  Zn67  1  0.000000  0.000000  0.000000  1
  Zn  Zn68  1  0.750000  0.308083  0.191917  1
  Zn  Zn69  1  0.372879  0.071467  0.308597  1
  Zn  Zn70  1  0.308597  0.372879  0.071467  1
  Zn  Zn71  1  0.627121  0.928533  0.691403  1
  Zn  Zn72  1  0.810791  0.750000  0.689209  1
  Zn  Zn73  1  0.191403  0.428533  0.127121  1
  Zn  Zn74  1  0.618977  0.263980  0.619252  1
  Zn  Zn75  1  0.691917  0.808083  0.250000  1
  Zn  Zn76  1  0.750000  0.689209  0.810791  1
  Zn  Zn77  1  0.810919  0.927715  0.519151  1
  Zn  Zn78  1  0.500000  0.500000  0.500000  1
  Zn  Zn79  1  0.736020  0.380748  0.381023  1
  Zn  Zn80  1  0.119252  0.763980  0.118977  1
  Zn  Zn81  1  0.428533  0.127121  0.191403  1
  Zn  Zn82  1  0.927715  0.519151  0.810919  1
  Zn  Zn83  1  0.881023  0.880748  0.236020  1
  Zn  Zn84  1  0.127121  0.191403  0.428533  1
  Zn  Zn85  1  0.480849  0.189081  0.072285  1
  Zn  Zn86  1  0.250000  0.691917  0.808083  1
  Zn  Zn87  1  0.572285  0.689081  0.980849  1
  Zn  Zn88  1  0.071467  0.308597  0.372879  1
  Zn  Zn89  1  0.763980  0.118977  0.119252  1
  Zn  Zn90  1  0.118977  0.119252  0.763980  1
  Zn  Zn91  1  0.808597  0.571467  0.872879  1
