# generated using pymatgen
data_Fe3Mo3N
_symmetry_space_group_name_H-M   'P 1'
_cell_length_a   7.80117523
_cell_length_b   7.80117507
_cell_length_c   7.80117492
_cell_angle_alpha   59.99999640
_cell_angle_beta   59.99999708
_cell_angle_gamma   59.99999740
_symmetry_Int_Tables_number   1
_chemical_formula_structural   Fe3Mo3N
_chemical_formula_sum   'Fe12 Mo12 N4'
_cell_volume   335.71059322
_cell_formula_units_Z   4
loop_
 _symmetry_equiv_pos_site_id
 _symmetry_equiv_pos_as_xyz
  1  'x, y, z'
loop_
 _atom_site_type_symbol
 _atom_site_label
 _atom_site_symmetry_multiplicity
 _atom_site_fract_x
 _atom_site_fract_y
 _atom_site_fract_z
 _atom_site_occupancy
  N  N0  1  0.000000  0.000000  0.000000  1
  N  N1  1  0.000000  0.000000  0.500000  1
  N  N2  1  0.500000  0.000000  0.000000  1
  N  N3  1  0.000000  0.500000  0.000000  1
  Fe  Fe4  1  0.500000  0.500000  0.500000  1
  Fe  Fe5  1  0.500000  0.500000  0.000000  1
  Fe  Fe6  1  0.000000  0.500000  0.500000  1
  Fe  Fe7  1  0.500000  0.000000  0.500000  1
  Fe  Fe8  1  0.297967  0.297967  0.297967  1
  Fe  Fe9  1  0.702033  0.702033  0.393902  1
  Fe  Fe10  1  0.393902  0.702033  0.702033  1
  Fe  Fe11  1  0.702033  0.393902  0.702033  1
  Fe  Fe12  1  0.606098  0.297967  0.297967  1
  Fe  Fe13  1  0.297967  0.606098  0.297967  1
  Fe  Fe14  1  0.297967  0.297967  0.606098  1
  Fe  Fe15  1  0.702033  0.702033  0.702033  1
  Mo  Mo16  1  0.922614  0.327386  0.327386  1
  Mo  Mo17  1  0.672614  0.672614  0.077386  1
  Mo  Mo18  1  0.077386  0.077386  0.672614  1
  Mo  Mo19  1  0.672614  0.077386  0.077386  1
  Mo  Mo20  1  0.672614  0.077386  0.672614  1
  Mo  Mo21  1  0.077386  0.672614  0.077386  1
  Mo  Mo22  1  0.327386  0.922614  0.327386  1
  Mo  Mo23  1  0.327386  0.327386  0.922614  1
  Mo  Mo24  1  0.922614  0.922614  0.327386  1
  Mo  Mo25  1  0.922614  0.327386  0.922614  1
  Mo  Mo26  1  0.077386  0.672614  0.672614  1
  Mo  Mo27  1  0.327386  0.922614  0.922614  1
