# generated using pymatgen
data_Sr(AlCl4)2
_symmetry_space_group_name_H-M   'P 1'
_cell_length_a   11.64252498
_cell_length_b   11.64252506
_cell_length_c   13.34183098
_cell_angle_alpha   115.86910223
_cell_angle_beta   115.86910240
_cell_angle_gamma   90.00000131
_symmetry_Int_Tables_number   1
_chemical_formula_structural   Sr(AlCl4)2
_chemical_formula_sum   'Sr4 Al8 Cl32'
_cell_volume   1423.13062753
_cell_formula_units_Z   4
loop_
 _symmetry_equiv_pos_site_id
 _symmetry_equiv_pos_as_xyz
  1  'x, y, z'
loop_
 _atom_site_type_symbol
 _atom_site_label
 _atom_site_symmetry_multiplicity
 _atom_site_fract_x
 _atom_site_fract_y
 _atom_site_fract_z
 _atom_site_occupancy
  Sr  Sr0  1  0.375000  0.125000  0.750000  1
  Sr  Sr1  1  0.625000  0.875000  0.250000  1
  Sr  Sr2  1  0.125000  0.375000  0.250000  1
  Sr  Sr3  1  0.875000  0.625000  0.750000  1
  Al  Al4  1  0.713146  0.750000  0.500000  1
  Al  Al5  1  0.286854  0.250000  0.500000  1
  Al  Al6  1  0.750000  0.286854  1.000000  1
  Al  Al7  1  0.786854  0.250000  0.500000  1
  Al  Al8  1  0.250000  0.213146  0.000000  1
  Al  Al9  1  0.250000  0.713146  0.000000  1
  Al  Al10  1  0.750000  0.786854  1.000000  1
  Al  Al11  1  0.213146  0.750000  0.500000  1
  Cl  Cl12  1  0.598252  0.165197  0.329614  1
  Cl  Cl13  1  0.664417  0.598252  0.829614  1
  Cl  Cl14  1  0.334803  0.901748  0.170386  1
  Cl  Cl15  1  0.834803  0.268638  0.170386  1
  Cl  Cl16  1  0.900270  0.415888  0.523510  1
  Cl  Cl17  1  0.768638  0.334803  0.670386  1
  Cl  Cl18  1  0.099730  0.584112  0.476490  1
  Cl  Cl19  1  0.376760  0.392377  0.476490  1
  Cl  Cl20  1  0.607622  0.900270  0.023510  1
  Cl  Cl21  1  0.084112  0.599730  0.976490  1
  Cl  Cl22  1  0.165197  0.731362  0.829614  1
  Cl  Cl23  1  0.415888  0.623240  0.023510  1
  Cl  Cl24  1  0.123240  0.915888  0.523510  1
  Cl  Cl25  1  0.231362  0.665197  0.329614  1
  Cl  Cl26  1  0.665197  0.098252  0.829614  1
  Cl  Cl27  1  0.335583  0.401748  0.170386  1
  Cl  Cl28  1  0.876760  0.084112  0.476490  1
  Cl  Cl29  1  0.400270  0.107622  0.523510  1
  Cl  Cl30  1  0.392377  0.099730  0.976490  1
  Cl  Cl31  1  0.901748  0.835583  0.670386  1
  Cl  Cl32  1  0.268638  0.335583  0.670386  1
  Cl  Cl33  1  0.892378  0.876760  0.976490  1
  Cl  Cl34  1  0.164417  0.231362  0.829614  1
  Cl  Cl35  1  0.584112  0.376760  0.976490  1
  Cl  Cl36  1  0.107622  0.123240  0.023510  1
  Cl  Cl37  1  0.731362  0.664417  0.329614  1
  Cl  Cl38  1  0.098252  0.164417  0.329614  1
  Cl  Cl39  1  0.599730  0.892378  0.476490  1
  Cl  Cl40  1  0.835583  0.768638  0.170386  1
  Cl  Cl41  1  0.915888  0.400270  0.023510  1
  Cl  Cl42  1  0.401748  0.834803  0.670386  1
  Cl  Cl43  1  0.623240  0.607622  0.523510  1
