# generated using pymatgen
data_BaFeF5
_symmetry_space_group_name_H-M   'P 1'
_cell_length_a   8.03170736
_cell_length_b   9.69269557
_cell_length_c   11.57203553
_cell_angle_alpha   93.73373074
_cell_angle_beta   90.00000000
_cell_angle_gamma   90.00000000
_symmetry_Int_Tables_number   1
_chemical_formula_structural   BaFeF5
_chemical_formula_sum   'Ba8 Fe8 F40'
_cell_volume   898.95803265
_cell_formula_units_Z   8
loop_
 _symmetry_equiv_pos_site_id
 _symmetry_equiv_pos_as_xyz
  1  'x, y, z'
loop_
 _atom_site_type_symbol
 _atom_site_label
 _atom_site_symmetry_multiplicity
 _atom_site_fract_x
 _atom_site_fract_y
 _atom_site_fract_z
 _atom_site_occupancy
  Ba  Ba0  1  0.784270  0.686748  0.355697  1
  Ba  Ba1  1  0.284270  0.813252  0.144303  1
  Ba  Ba2  1  0.215730  0.313252  0.644303  1
  Ba  Ba3  1  0.715730  0.186748  0.855697  1
  Ba  Ba4  1  0.718198  0.228467  0.455115  1
  Ba  Ba5  1  0.218198  0.271533  0.044885  1
  Ba  Ba6  1  0.281802  0.771533  0.544885  1
  Ba  Ba7  1  0.781802  0.728467  0.955115  1
  Fe  Fe8  1  0.708519  0.371176  0.159968  1
  Fe  Fe9  1  0.208519  0.128824  0.340032  1
  Fe  Fe10  1  0.291481  0.628824  0.840032  1
  Fe  Fe11  1  0.791481  0.871176  0.659968  1
  Fe  Fe12  1  0.805946  0.993222  0.184481  1
  Fe  Fe13  1  0.305946  0.506778  0.315519  1
  Fe  Fe14  1  0.194054  0.006778  0.815519  1
  Fe  Fe15  1  0.694054  0.493222  0.684481  1
  F  F16  1  0.059159  0.178254  0.833441  1
  F  F17  1  0.559159  0.321746  0.666559  1
  F  F18  1  0.940841  0.821746  0.166559  1
  F  F19  1  0.440841  0.678254  0.333441  1
  F  F20  1  0.519266  0.407041  0.279022  1
  F  F21  1  0.019266  0.092959  0.220978  1
  F  F22  1  0.480734  0.592959  0.720978  1
  F  F23  1  0.980734  0.907041  0.779022  1
  F  F24  1  0.549131  0.311850  0.042137  1
  F  F25  1  0.049131  0.188150  0.457863  1
  F  F26  1  0.450869  0.688150  0.957863  1
  F  F27  1  0.950869  0.811850  0.542137  1
  F  F28  1  0.616997  0.868438  0.151670  1
  F  F29  1  0.116997  0.631562  0.348330  1
  F  F30  1  0.383003  0.131562  0.848330  1
  F  F31  1  0.883003  0.368438  0.651670  1
  F  F32  1  0.804480  0.674946  0.713739  1
  F  F33  1  0.304480  0.825054  0.786261  1
  F  F34  1  0.195520  0.325054  0.286261  1
  F  F35  1  0.695520  0.174946  0.213739  1
  F  F36  1  0.729227  0.469401  0.847344  1
  F  F37  1  0.229227  0.030599  0.652656  1
  F  F38  1  0.270773  0.530599  0.152656  1
  F  F39  1  0.770773  0.969401  0.347344  1
  F  F40  1  0.657680  0.908863  0.797323  1
  F  F41  1  0.157680  0.591137  0.702677  1
  F  F42  1  0.342320  0.091137  0.202677  1
  F  F43  1  0.842320  0.408863  0.297323  1
  F  F44  1  0.613669  0.821455  0.552896  1
  F  F45  1  0.113669  0.678545  0.947104  1
  F  F46  1  0.386331  0.178545  0.447104  1
  F  F47  1  0.886331  0.321455  0.052896  1
  F  F48  1  0.782034  0.064647  0.632936  1
  F  F49  1  0.282034  0.435353  0.867064  1
  F  F50  1  0.217966  0.935353  0.367064  1
  F  F51  1  0.717966  0.564647  0.132936  1
  F  F52  1  0.312372  0.486066  0.479927  1
  F  F53  1  0.812372  0.013934  0.020073  1
  F  F54  1  0.687628  0.513934  0.520073  1
  F  F55  1  0.187628  0.986066  0.979927  1
