# generated using pymatgen
data_ScTa(PbO3)2
_symmetry_space_group_name_H-M   'P 1'
_cell_length_a   5.80572877
_cell_length_b   5.80568111
_cell_length_c   5.80571516
_cell_angle_alpha   60.00039035
_cell_angle_beta   59.99953702
_cell_angle_gamma   60.00011517
_symmetry_Int_Tables_number   1
_chemical_formula_structural   ScTa(PbO3)2
_chemical_formula_sum   'Sc1 Ta1 Pb2 O6'
_cell_volume   138.37281830
_cell_formula_units_Z   1
loop_
 _symmetry_equiv_pos_site_id
 _symmetry_equiv_pos_as_xyz
  1  'x, y, z'
loop_
 _atom_site_type_symbol
 _atom_site_label
 _atom_site_symmetry_multiplicity
 _atom_site_fract_x
 _atom_site_fract_y
 _atom_site_fract_z
 _atom_site_occupancy
  O  O0  1  0.243819  0.756181  0.756178  1
  O  O1  1  0.756178  0.243822  0.243819  1
  O  O2  1  0.756178  0.243824  0.756176  1
  Ta  Ta3  1  0.999999  0.000002  0.999998  1
  O  O4  1  0.243819  0.756181  0.243819  1
  O  O5  1  0.243812  0.243828  0.756172  1
  O  O6  1  0.756172  0.756189  0.243811  1
  Sc  Sc7  1  0.499999  0.500000  0.499999  1
  Pb  Pb8  1  0.250011  0.249987  0.250014  1
  Pb  Pb9  1  0.750012  0.749986  0.750013  1
