# generated using pymatgen
data_GdFe3(BO3)4
_symmetry_space_group_name_H-M   'P 1'
_cell_length_a   9.65536048
_cell_length_b   9.65536039
_cell_length_c   7.68200953
_cell_angle_alpha   90.00000000
_cell_angle_beta   90.00000000
_cell_angle_gamma   120.00000032
_symmetry_Int_Tables_number   1
_chemical_formula_structural   GdFe3(BO3)4
_chemical_formula_sum   'Gd3 Fe9 B12 O36'
_cell_volume   620.21526777
_cell_formula_units_Z   3
loop_
 _symmetry_equiv_pos_site_id
 _symmetry_equiv_pos_as_xyz
  1  'x, y, z'
loop_
 _atom_site_type_symbol
 _atom_site_label
 _atom_site_symmetry_multiplicity
 _atom_site_fract_x
 _atom_site_fract_y
 _atom_site_fract_z
 _atom_site_occupancy
  Gd  Gd0  1  0.000000  0.333523  0.666667  1
  Gd  Gd1  1  0.666477  0.666477  0.000000  1
  Gd  Gd2  1  0.333523  0.000000  0.333333  1
  Fe  Fe3  1  0.450325  0.784492  0.663637  1
  Fe  Fe4  1  0.665833  0.215508  0.003030  1
  Fe  Fe5  1  0.784492  0.450325  0.336363  1
  Fe  Fe6  1  0.116141  0.116141  0.000000  1
  Fe  Fe7  1  0.883859  0.000000  0.333333  1
  Fe  Fe8  1  0.334167  0.549675  0.330304  1
  Fe  Fe9  1  0.549675  0.334167  0.669696  1
  Fe  Fe10  1  0.215508  0.665833  0.996970  1
  Fe  Fe11  1  0.000000  0.883859  0.666667  1
  B  B12  1  0.667247  0.667247  0.500000  1
  B  B13  1  1.000000  0.332753  0.166667  1
  B  B14  1  0.219515  0.219515  0.500000  1
  B  B15  1  0.447847  0.330618  0.170442  1
  B  B16  1  0.669382  0.117230  0.503776  1
  B  B17  1  1.000000  0.780485  0.166667  1
  B  B18  1  0.552153  0.882770  0.162891  1
  B  B19  1  0.780485  0.000000  0.833333  1
  B  B20  1  0.882770  0.552153  0.837109  1
  B  B21  1  0.117230  0.669382  0.496224  1
  B  B22  1  0.332753  0.000000  0.833333  1
  B  B23  1  0.330618  0.447847  0.829558  1
  O  O24  1  0.476044  0.143793  0.835793  1
  O  O25  1  0.588721  0.325754  0.177125  1
  O  O26  1  0.692161  0.878362  0.181632  1
  O  O27  1  0.143793  0.476044  0.164207  1
  O  O28  1  0.523956  0.667749  0.497540  1
  O  O29  1  0.856207  0.332251  0.169126  1
  O  O30  1  0.212579  0.358660  0.483638  1
  O  O31  1  0.923857  0.000000  0.833333  1
  O  O32  1  0.674246  0.262967  0.510459  1
  O  O33  1  0.477710  0.457448  0.816799  1
  O  O34  1  1.000000  0.189256  0.166667  1
  O  O35  1  0.332251  0.856207  0.830874  1
  O  O36  1  0.667749  0.523956  0.502460  1
  O  O37  1  0.186200  0.307839  0.848299  1
  O  O38  1  0.189256  0.000000  0.833333  1
  O  O39  1  0.878362  0.692161  0.818368  1
  O  O40  1  0.813800  0.121638  0.485035  1
  O  O41  1  0.522290  0.979738  0.516534  1
  O  O42  1  0.979738  0.522290  0.483466  1
  O  O43  1  0.076143  0.076143  0.500000  1
  O  O44  1  0.020262  0.542552  0.849868  1
  O  O45  1  0.325754  0.588721  0.822875  1
  O  O46  1  0.737033  0.411279  0.843792  1
  O  O47  1  0.853919  0.641340  0.183029  1
  O  O48  1  0.146081  0.787421  0.150304  1
  O  O49  1  0.121638  0.813800  0.514965  1
  O  O50  1  0.542552  0.020262  0.150132  1
  O  O51  1  0.810744  0.810744  0.500000  1
  O  O52  1  0.000000  0.923857  0.166667  1
  O  O53  1  0.457448  0.477710  0.183201  1
  O  O54  1  0.262967  0.674246  0.489541  1
  O  O55  1  0.641340  0.853919  0.816971  1
  O  O56  1  0.787421  0.146081  0.849696  1
  O  O57  1  0.411279  0.737033  0.156208  1
  O  O58  1  0.358660  0.212579  0.516362  1
  O  O59  1  0.307839  0.186200  0.151701  1
