# generated using pymatgen
data_Bi6Cl3O7F
_symmetry_space_group_name_H-M   'P 1'
_cell_length_a   3.85596445
_cell_length_b   15.65218453
_cell_length_c   20.62387887
_cell_angle_alpha   90.00000000
_cell_angle_beta   90.00000000
_cell_angle_gamma   90.00000000
_symmetry_Int_Tables_number   1
_chemical_formula_structural   Bi6Cl3O7F
_chemical_formula_sum   'Bi24 Cl12 O28 F4'
_cell_volume   1244.73909422
_cell_formula_units_Z   4
loop_
 _symmetry_equiv_pos_site_id
 _symmetry_equiv_pos_as_xyz
  1  'x, y, z'
loop_
 _atom_site_type_symbol
 _atom_site_label
 _atom_site_symmetry_multiplicity
 _atom_site_fract_x
 _atom_site_fract_y
 _atom_site_fract_z
 _atom_site_occupancy
  Bi  Bi0  1  0.750000  0.560619  0.563077  1
  Bi  Bi1  1  0.750000  0.088090  0.241689  1
  Bi  Bi2  1  0.250000  0.062336  0.556021  1
  Bi  Bi3  1  0.250000  0.588090  0.258311  1
  Bi  Bi4  1  0.750000  0.270487  0.922130  1
  Bi  Bi5  1  0.250000  0.286097  0.270005  1
  Bi  Bi6  1  0.250000  0.439381  0.436923  1
  Bi  Bi7  1  0.250000  0.213903  0.770005  1
  Bi  Bi8  1  0.750000  0.939381  0.063077  1
  Bi  Bi9  1  0.250000  0.729513  0.077870  1
  Bi  Bi10  1  0.750000  0.937664  0.443979  1
  Bi  Bi11  1  0.750000  0.411910  0.741689  1
  Bi  Bi12  1  0.250000  0.060619  0.936923  1
  Bi  Bi13  1  0.750000  0.229513  0.422130  1
  Bi  Bi14  1  0.250000  0.343205  0.597688  1
  Bi  Bi15  1  0.750000  0.713903  0.729995  1
  Bi  Bi16  1  0.750000  0.656795  0.402312  1
  Bi  Bi17  1  0.750000  0.786097  0.229995  1
  Bi  Bi18  1  0.750000  0.562336  0.943979  1
  Bi  Bi19  1  0.750000  0.843205  0.902312  1
  Bi  Bi20  1  0.250000  0.437664  0.056021  1
  Bi  Bi21  1  0.250000  0.770487  0.577870  1
  Bi  Bi22  1  0.250000  0.156795  0.097688  1
  Bi  Bi23  1  0.250000  0.911910  0.758311  1
  Cl  Cl24  1  0.750000  0.947386  0.639551  1
  Cl  Cl25  1  0.250000  0.447386  0.860449  1
  Cl  Cl26  1  0.750000  0.312671  0.143081  1
  Cl  Cl27  1  0.250000  0.562738  0.697260  1
  Cl  Cl28  1  0.250000  0.812671  0.356919  1
  Cl  Cl29  1  0.750000  0.437262  0.302740  1
  Cl  Cl30  1  0.250000  0.937262  0.197260  1
  Cl  Cl31  1  0.750000  0.187329  0.643081  1
  Cl  Cl32  1  0.750000  0.552614  0.139551  1
  Cl  Cl33  1  0.250000  0.687329  0.856919  1
  Cl  Cl34  1  0.750000  0.062738  0.802740  1
  Cl  Cl35  1  0.250000  0.052614  0.360449  1
  O  O36  1  0.750000  0.534224  0.456974  1
  O  O37  1  0.250000  0.034224  0.043026  1
  O  O38  1  0.750000  0.352245  0.470890  1
  O  O39  1  0.250000  0.904882  0.867935  1
  O  O40  1  0.250000  0.155856  0.212639  1
  O  O41  1  0.750000  0.714018  0.621789  1
  O  O42  1  0.750000  0.095118  0.132065  1
  O  O43  1  0.250000  0.783637  0.704071  1
  O  O44  1  0.250000  0.938551  0.501382  1
  O  O45  1  0.250000  0.716363  0.204071  1
  O  O46  1  0.750000  0.844144  0.787361  1
  O  O47  1  0.750000  0.283637  0.795929  1
  O  O48  1  0.750000  0.147755  0.970890  1
  O  O49  1  0.250000  0.595118  0.367935  1
  O  O50  1  0.750000  0.404882  0.632065  1
  O  O51  1  0.250000  0.561449  0.001382  1
  O  O52  1  0.250000  0.852245  0.029110  1
  O  O53  1  0.250000  0.647755  0.529110  1
  O  O54  1  0.750000  0.655856  0.287361  1
  O  O55  1  0.750000  0.785982  0.121789  1
  O  O56  1  0.250000  0.214018  0.878211  1
  O  O57  1  0.750000  0.061449  0.498618  1
  O  O58  1  0.250000  0.465776  0.543026  1
  O  O59  1  0.750000  0.438551  0.998618  1
  O  O60  1  0.250000  0.344144  0.712639  1
  O  O61  1  0.750000  0.965776  0.956974  1
  O  O62  1  0.750000  0.216363  0.295929  1
  O  O63  1  0.250000  0.285982  0.378211  1
  F  F64  1  0.750000  0.697459  0.995779  1
  F  F65  1  0.250000  0.302541  0.004221  1
  F  F66  1  0.250000  0.197459  0.504221  1
  F  F67  1  0.750000  0.802541  0.495779  1
