# generated using pymatgen
data_U(SiAu)2
_symmetry_space_group_name_H-M   'P 1'
_cell_length_a   4.19482529
_cell_length_b   4.19482529
_cell_length_c   6.06860795
_cell_angle_alpha   110.21944995
_cell_angle_beta   110.21944997
_cell_angle_gamma   89.99999992
_symmetry_Int_Tables_number   1
_chemical_formula_structural   U(SiAu)2
_chemical_formula_sum   'U1 Si2 Au2'
_cell_volume   93.16164660
_cell_formula_units_Z   1
loop_
 _symmetry_equiv_pos_site_id
 _symmetry_equiv_pos_as_xyz
  1  'x, y, z'
loop_
 _atom_site_type_symbol
 _atom_site_label
 _atom_site_symmetry_multiplicity
 _atom_site_fract_x
 _atom_site_fract_y
 _atom_site_fract_z
 _atom_site_occupancy
  Si  Si0  1  0.608432  0.608432  0.216864  1
  Si  Si1  1  0.391568  0.391568  0.783136  1
  Au  Au2  1  0.750000  0.250000  0.500000  1
  Au  Au3  1  0.250000  0.750000  0.500000  1
  U  U4  1  0.000000  0.000000  0.000000  1
