# generated using pymatgen
data_Gd(Al3Ni)3
_symmetry_space_group_name_H-M   'P 1'
_cell_length_a   10.08338535
_cell_length_b   10.08338545
_cell_length_c   10.08338621
_cell_angle_alpha   42.42987318
_cell_angle_beta   42.42987254
_cell_angle_gamma   42.42987017
_symmetry_Int_Tables_number   1
_chemical_formula_structural   Gd(Al3Ni)3
_chemical_formula_sum   'Gd2 Al18 Ni6'
_cell_volume   422.51490213
_cell_formula_units_Z   2
loop_
 _symmetry_equiv_pos_site_id
 _symmetry_equiv_pos_as_xyz
  1  'x, y, z'
loop_
 _atom_site_type_symbol
 _atom_site_label
 _atom_site_symmetry_multiplicity
 _atom_site_fract_x
 _atom_site_fract_y
 _atom_site_fract_z
 _atom_site_occupancy
  Gd  Gd0  1  0.166864  0.166864  0.166864  1
  Gd  Gd1  1  0.833136  0.833136  0.833136  1
  Al  Al2  1  0.051637  0.051637  0.051637  1
  Al  Al3  1  0.500000  0.707958  0.292042  1
  Al  Al4  1  0.334081  0.665919  0.000000  1
  Al  Al5  1  0.432245  0.102820  0.761693  1
  Al  Al6  1  0.761693  0.432245  0.102820  1
  Al  Al7  1  0.386626  0.386626  0.386626  1
  Al  Al8  1  0.000000  0.334081  0.665919  1
  Al  Al9  1  0.613374  0.613374  0.613374  1
  Al  Al10  1  0.567755  0.238307  0.897180  1
  Al  Al11  1  0.897180  0.567755  0.238307  1
  Al  Al12  1  0.292042  0.500000  0.707958  1
  Al  Al13  1  0.102820  0.761693  0.432245  1
  Al  Al14  1  0.948363  0.948363  0.948363  1
  Al  Al15  1  0.707958  0.292042  0.500000  1
  Al  Al16  1  0.665919  1.000000  0.334081  1
  Al  Al17  1  0.717862  0.717862  0.717862  1
  Al  Al18  1  0.282138  0.282138  0.282138  1
  Al  Al19  1  0.238307  0.897180  0.567755  1
  Ni  Ni20  1  0.921564  0.242035  0.581814  1
  Ni  Ni21  1  0.581814  0.921564  0.242035  1
  Ni  Ni22  1  0.418186  0.757965  0.078436  1
  Ni  Ni23  1  0.757965  0.078436  0.418186  1
  Ni  Ni24  1  0.078436  0.418186  0.757965  1
  Ni  Ni25  1  0.242035  0.581814  0.921564  1
