# generated using pymatgen
data_K2Mo7O20
_symmetry_space_group_name_H-M   'P 1'
_cell_length_a   3.90072590
_cell_length_b   18.52611616
_cell_length_c   22.40699248
_cell_angle_alpha   90.00000000
_cell_angle_beta   90.00000000
_cell_angle_gamma   90.00000000
_symmetry_Int_Tables_number   1
_chemical_formula_structural   K2Mo7O20
_chemical_formula_sum   'K8 Mo28 O80'
_cell_volume   1619.24805902
_cell_formula_units_Z   4
loop_
 _symmetry_equiv_pos_site_id
 _symmetry_equiv_pos_as_xyz
  1  'x, y, z'
loop_
 _atom_site_type_symbol
 _atom_site_label
 _atom_site_symmetry_multiplicity
 _atom_site_fract_x
 _atom_site_fract_y
 _atom_site_fract_z
 _atom_site_occupancy
  K  K0  1  0.502255  0.406560  0.948531  1
  K  K1  1  0.502255  0.093440  0.448531  1
  K  K2  1  0.497745  0.593440  0.448531  1
  K  K3  1  0.502255  0.093440  0.051469  1
  K  K4  1  0.502255  0.406560  0.551469  1
  K  K5  1  0.497745  0.593440  0.051469  1
  K  K6  1  0.497745  0.906560  0.948531  1
  K  K7  1  0.497745  0.906560  0.551469  1
  Mo  Mo8  1  0.044353  0.090405  0.606422  1
  Mo  Mo9  1  0.987968  0.250000  0.500000  1
  Mo  Mo10  1  0.983163  0.148606  0.750000  1
  Mo  Mo11  1  0.016837  0.851394  0.250000  1
  Mo  Mo12  1  0.013476  0.969179  0.750000  1
  Mo  Mo13  1  0.986524  0.030821  0.250000  1
  Mo  Mo14  1  0.955647  0.909595  0.106422  1
  Mo  Mo15  1  0.044353  0.090405  0.893578  1
  Mo  Mo16  1  0.013476  0.530821  0.250000  1
  Mo  Mo17  1  0.016837  0.648606  0.750000  1
  Mo  Mo18  1  0.044353  0.409595  0.106422  1
  Mo  Mo19  1  0.012032  0.750000  0.000000  1
  Mo  Mo20  1  0.986524  0.469179  0.750000  1
  Mo  Mo21  1  0.044353  0.409595  0.393578  1
  Mo  Mo22  1  0.040429  0.205513  0.163350  1
  Mo  Mo23  1  0.959571  0.705513  0.163350  1
  Mo  Mo24  1  0.955647  0.909595  0.393578  1
  Mo  Mo25  1  0.959571  0.794487  0.836650  1
  Mo  Mo26  1  0.955647  0.590405  0.606422  1
  Mo  Mo27  1  0.040429  0.294487  0.836650  1
  Mo  Mo28  1  0.012032  0.750000  0.500000  1
  Mo  Mo29  1  0.040429  0.294487  0.663350  1
  Mo  Mo30  1  0.955647  0.590405  0.893578  1
  Mo  Mo31  1  0.040429  0.205513  0.336650  1
  Mo  Mo32  1  0.983163  0.351394  0.250000  1
  Mo  Mo33  1  0.959571  0.794487  0.663350  1
  Mo  Mo34  1  0.987968  0.250000  0.000000  1
  Mo  Mo35  1  0.959571  0.705513  0.336650  1
  O  O36  1  1.000185  0.558510  0.693882  1
  O  O37  1  -0.000185  0.441490  0.306118  1
  O  O38  1  0.002139  0.649460  0.538692  1
  O  O39  1  1.000115  0.996811  0.075356  1
  O  O40  1  0.508397  0.648292  0.750000  1
  O  O41  1  0.997861  0.149460  0.538692  1
  O  O42  1  0.006188  0.801664  0.919187  1
  O  O43  1  0.499706  0.792203  0.836115  1
  O  O44  1  0.006189  0.610821  0.186295  1
  O  O45  1  0.505094  0.095693  0.889541  1
  O  O46  1  0.993811  0.389179  0.813705  1
  O  O47  1  0.499706  0.707797  0.336115  1
  O  O48  1  0.500294  0.292203  0.663885  1
  O  O49  1  0.006189  0.889179  0.813705  1
  O  O50  1  0.007250  0.685094  0.663323  1
  O  O51  1  0.007250  0.685094  0.836677  1
  O  O52  1  0.992750  0.314906  0.163323  1
  O  O53  1  -0.000115  0.496811  0.424644  1
  O  O54  1  0.500294  0.292203  0.836115  1
  O  O55  1  0.507887  0.750000  0.000000  1
  O  O56  1  0.505094  0.404307  0.389541  1
  O  O57  1  0.993811  0.389179  0.686295  1
  O  O58  1  0.505094  0.095693  0.610459  1
  O  O59  1  0.993812  0.301664  0.919187  1
  O  O60  1  0.491603  0.148292  0.750000  1
  O  O61  1  0.997861  0.350540  0.461308  1
  O  O62  1  0.991864  0.260999  0.750000  1
  O  O63  1  0.993811  0.110821  0.186295  1
  O  O64  1  0.991864  0.239001  0.250000  1
  O  O65  1  0.006188  0.801664  0.580813  1
  O  O66  1  0.505094  0.404307  0.110459  1
  O  O67  1  1.000185  0.941490  0.193882  1
  O  O68  1  0.006189  0.610821  0.313705  1
  O  O69  1  0.494906  0.904307  0.110459  1
  O  O70  1  0.002139  0.649460  0.961308  1
  O  O71  1  0.500294  0.207797  0.163885  1
  O  O72  1  0.491603  0.351708  0.250000  1
  O  O73  1  1.000185  0.558510  0.806118  1
  O  O74  1  0.007250  0.814906  0.163323  1
  O  O75  1  0.007250  0.814906  0.336677  1
  O  O76  1  -0.000185  0.058510  0.693882  1
  O  O77  1  0.508397  0.851708  0.250000  1
  O  O78  1  -0.000185  0.441490  0.193882  1
  O  O79  1  0.499706  0.707797  0.163885  1
  O  O80  1  0.002139  0.850540  0.461308  1
  O  O81  1  0.507887  0.750000  0.500000  1
  O  O82  1  0.993811  0.110821  0.313705  1
  O  O83  1  0.993812  0.301664  0.580813  1
  O  O84  1  1.000115  0.996811  0.424644  1
  O  O85  1  0.997861  0.149460  0.961308  1
  O  O86  1  0.494906  0.595693  0.610459  1
  O  O87  1  1.000115  0.503189  0.924644  1
  O  O88  1  0.992750  0.185094  0.663323  1
  O  O89  1  -0.000115  0.003189  0.575356  1
  O  O90  1  0.008136  0.760999  0.750000  1
  O  O91  1  -0.000115  0.003189  0.924644  1
  O  O92  1  0.002139  0.850540  0.038692  1
  O  O93  1  0.992750  0.185094  0.836677  1
  O  O94  1  1.000115  0.503189  0.575356  1
  O  O95  1  -0.000115  0.496811  0.075356  1
  O  O96  1  0.492113  0.250000  0.500000  1
  O  O97  1  1.000185  0.941490  0.306118  1
  O  O98  1  0.494906  0.595693  0.889541  1
  O  O99  1  0.492113  0.250000  0.000000  1
  O  O100  1  0.494906  0.904307  0.389541  1
  O  O101  1  0.499706  0.792203  0.663885  1
  O  O102  1  0.006188  0.698336  0.419187  1
  O  O103  1  0.508652  0.968421  0.750000  1
  O  O104  1  0.993812  0.198336  0.419187  1
  O  O105  1  0.500294  0.207797  0.336115  1
  O  O106  1  0.508652  0.531579  0.250000  1
  O  O107  1  0.992750  0.314906  0.336677  1
  O  O108  1  0.491348  0.031579  0.250000  1
  O  O109  1  0.008136  0.739001  0.250000  1
  O  O110  1  0.491348  0.468421  0.750000  1
  O  O111  1  0.997861  0.350540  0.038692  1
  O  O112  1  -0.000185  0.058510  0.806118  1
  O  O113  1  0.006189  0.889179  0.686295  1
  O  O114  1  0.006188  0.698336  0.080813  1
  O  O115  1  0.993812  0.198336  0.080813  1
