# generated using pymatgen
data_Sm(AlCl4)2
_symmetry_space_group_name_H-M   'P 1'
_cell_length_a   6.94747841
_cell_length_b   7.33279353
_cell_length_c   12.74421354
_cell_angle_alpha   94.13088650
_cell_angle_beta   90.00000000
_cell_angle_gamma   90.00000000
_symmetry_Int_Tables_number   1
_chemical_formula_structural   Sm(AlCl4)2
_chemical_formula_sum   'Sm2 Al4 Cl16'
_cell_volume   647.55994720
_cell_formula_units_Z   2
loop_
 _symmetry_equiv_pos_site_id
 _symmetry_equiv_pos_as_xyz
  1  'x, y, z'
loop_
 _atom_site_type_symbol
 _atom_site_label
 _atom_site_symmetry_multiplicity
 _atom_site_fract_x
 _atom_site_fract_y
 _atom_site_fract_z
 _atom_site_occupancy
  Sm  Sm0  1  0.841767  0.500000  0.750000  1
  Sm  Sm1  1  0.158233  0.500000  0.250000  1
  Al  Al2  1  0.261724  0.674164  0.919853  1
  Al  Al3  1  0.738276  0.325836  0.080147  1
  Al  Al4  1  0.261724  0.325836  0.580147  1
  Al  Al5  1  0.738276  0.674164  0.419853  1
  Cl  Cl6  1  0.305089  0.732242  0.087458  1
  Cl  Cl7  1  0.172590  0.394487  0.879816  1
  Cl  Cl8  1  0.025097  0.828757  0.860310  1
  Cl  Cl9  1  0.827410  0.394487  0.379816  1
  Cl  Cl10  1  0.528597  0.261054  0.658982  1
  Cl  Cl11  1  0.471403  0.261054  0.158982  1
  Cl  Cl12  1  0.694911  0.732242  0.587458  1
  Cl  Cl13  1  0.305089  0.267758  0.412542  1
  Cl  Cl14  1  0.528597  0.738946  0.841018  1
  Cl  Cl15  1  0.471403  0.738946  0.341018  1
  Cl  Cl16  1  0.172590  0.605513  0.620184  1
  Cl  Cl17  1  0.827410  0.605513  0.120184  1
  Cl  Cl18  1  0.694911  0.267758  0.912542  1
  Cl  Cl19  1  0.974903  0.171243  0.139690  1
  Cl  Cl20  1  0.974903  0.828757  0.360310  1
  Cl  Cl21  1  0.025097  0.171243  0.639690  1
