# generated using pymatgen
data_Tb6CdS10
_symmetry_space_group_name_H-M   'P 1'
_cell_length_a   7.26718669
_cell_length_b   7.23316030
_cell_length_c   36.43362548
_cell_angle_alpha   109.47739512
_cell_angle_beta   110.08980343
_cell_angle_gamma   108.79818043
_symmetry_Int_Tables_number   1
_chemical_formula_structural   Tb6CdS10
_chemical_formula_sum   'Tb24 Cd4 S40'
_cell_volume   1474.99994320
_cell_formula_units_Z   4
loop_
 _symmetry_equiv_pos_site_id
 _symmetry_equiv_pos_as_xyz
  1  'x, y, z'
loop_
 _atom_site_type_symbol
 _atom_site_label
 _atom_site_symmetry_multiplicity
 _atom_site_fract_x
 _atom_site_fract_y
 _atom_site_fract_z
 _atom_site_occupancy
  Cd  Cd0  1  0.634119  0.383512  0.850905  1
  Cd  Cd1  1  0.877771  0.123073  0.949079  1
  Cd  Cd2  1  0.878725  0.127503  0.750910  1
  Cd  Cd3  1  0.873258  0.116995  0.547215  1
  S  S4  1  0.012771  0.874746  0.900559  1
  S  S5  1  1.001231  0.369618  0.899026  1
  S  S6  1  0.993992  0.857595  0.698308  1
  S  S7  1  0.116631  0.126285  0.824481  1
  S  S8  1  0.011887  0.372912  0.697971  1
  S  S9  1  0.378277  0.508150  0.801579  1
  S  S10  1  0.493285  0.995933  0.974164  1
  S  S11  1  0.632443  0.615134  0.924953  1
  S  S12  1  0.000570  0.868809  0.500353  1
  S  S13  1  0.147205  0.137168  0.627390  1
  S  S14  1  0.504262  0.993030  0.874940  1
  S  S15  1  0.015661  0.357889  0.499584  1
  S  S16  1  0.387144  0.520875  0.603838  1
  S  S17  1  0.629678  0.621194  0.726952  1
  S  S18  1  0.489883  0.003875  0.774582  1
  S  S19  1  0.999448  0.867093  0.300095  1
  S  S20  1  0.874034  0.499979  0.798713  1
  S  S21  1  0.522464  0.016587  0.677276  1
  S  S22  1  0.115942  0.124601  0.425876  1
  S  S23  1  0.995638  0.361457  0.297983  1
  S  S24  1  0.347078  0.502971  0.398905  1
  S  S25  1  0.475057  0.995941  0.573885  1
  S  S26  1  0.996011  0.845656  0.100426  1
  S  S27  1  0.636388  0.643264  0.531983  1
  S  S28  1  0.864004  0.482133  0.598774  1
  S  S29  1  0.494075  0.992411  0.473670  1
  S  S30  1  0.987768  0.358457  0.099420  1
  S  S31  1  0.136338  0.137584  0.227488  1
  S  S32  1  0.349011  0.505139  0.201585  1
  S  S33  1  0.498840  0.993042  0.368033  1
  S  S34  1  0.639903  0.628503  0.325319  1
  S  S35  1  0.867298  0.508693  0.398140  1
  S  S36  1  0.501762  0.009512  0.272804  1
  S  S37  1  0.126740  0.141658  0.022363  1
  S  S38  1  0.385537  0.517823  0.001414  1
  S  S39  1  0.496038  0.987525  0.172996  1
  S  S40  1  0.648723  0.656518  0.130227  1
  S  S41  1  0.868978  0.504586  0.202150  1
  S  S42  1  0.497998  0.996777  0.070681  1
  S  S43  1  0.868133  0.499706  0.001340  1
  Tb  Tb44  1  0.118423  0.747277  0.974426  1
  Tb  Tb45  1  0.251838  0.611689  0.873166  1
  Tb  Tb46  1  0.113140  0.751007  0.773023  1
  Tb  Tb47  1  0.395976  0.249764  0.929017  1
  Tb  Tb48  1  0.257753  0.621814  0.672241  1
  Tb  Tb49  1  0.077282  0.724630  0.565069  1
  Tb  Tb50  1  0.752054  0.893382  0.828919  1
  Tb  Tb51  1  0.383667  0.247448  0.728429  1
  Tb  Tb52  1  0.252805  0.606301  0.472398  1
  Tb  Tb53  1  0.131657  0.756852  0.374747  1
  Tb  Tb54  1  0.753472  0.887944  0.624584  1
  Tb  Tb55  1  0.622614  0.371073  0.650046  1
  Tb  Tb56  1  0.376525  0.249568  0.525608  1
  Tb  Tb57  1  0.257533  0.630931  0.275559  1
  Tb  Tb58  1  0.118166  0.745402  0.174064  1
  Tb  Tb59  1  0.743032  0.893254  0.429486  1
  Tb  Tb60  1  0.389112  0.258676  0.330060  1
  Tb  Tb61  1  0.252532  0.638580  0.078140  1
  Tb  Tb62  1  0.737583  0.847828  0.220294  1
  Tb  Tb63  1  0.612908  0.366568  0.246289  1
  Tb  Tb64  1  0.875938  0.132459  0.350772  1
  Tb  Tb65  1  0.770137  0.894440  0.029721  1
  Tb  Tb66  1  0.611099  0.371821  0.052578  1
  Tb  Tb67  1  0.872757  0.124380  0.148030  1
