# generated using pymatgen
data_Ta4Te16Pd3
_symmetry_space_group_name_H-M   'P 1'
_cell_length_a   3.78856386
_cell_length_b   11.11121136
_cell_length_c   16.07646922
_cell_angle_alpha   81.30295252
_cell_angle_beta   83.23314982
_cell_angle_gamma   80.18404435
_symmetry_Int_Tables_number   1
_chemical_formula_structural   Ta4Te16Pd3
_chemical_formula_sum   'Ta4 Te16 Pd3'
_cell_volume   656.22254650
_cell_formula_units_Z   1
loop_
 _symmetry_equiv_pos_site_id
 _symmetry_equiv_pos_as_xyz
  1  'x, y, z'
loop_
 _atom_site_type_symbol
 _atom_site_label
 _atom_site_symmetry_multiplicity
 _atom_site_fract_x
 _atom_site_fract_y
 _atom_site_fract_z
 _atom_site_occupancy
  Pd  Pd0  1  0.500000  0.000000  0.000000  1
  Pd  Pd1  1  0.670969  0.350487  0.307575  1
  Pd  Pd2  1  0.329031  0.649513  0.692425  1
  Ta  Ta3  1  0.082781  0.683360  0.151079  1
  Ta  Ta4  1  0.917219  0.316640  0.848921  1
  Ta  Ta5  1  0.208163  0.166611  0.417063  1
  Ta  Ta6  1  0.791837  0.833389  0.582937  1
  Te  Te7  1  0.621028  0.739657  0.018288  1
  Te  Te8  1  0.378972  0.260343  0.981712  1
  Te  Te9  1  0.961537  0.955743  0.121182  1
  Te  Te10  1  0.038463  0.044257  0.878818  1
  Te  Te11  1  0.482451  0.769877  0.265222  1
  Te  Te12  1  0.517549  0.230123  0.734778  1
  Te  Te13  1  0.077152  0.530221  0.315475  1
  Te  Te14  1  0.922848  0.469779  0.684525  1
  Te  Te15  1  0.686248  0.492505  0.134998  1
  Te  Te16  1  0.313752  0.507495  0.865002  1
  Te  Te17  1  0.274665  0.202554  0.248115  1
  Te  Te18  1  0.725335  0.797446  0.751885  1
  Te  Te19  1  0.601484  0.314907  0.482125  1
  Te  Te20  1  0.398516  0.685093  0.517875  1
  Te  Te21  1  0.192434  0.026752  0.588380  1
  Te  Te22  1  0.807566  0.973248  0.411620  1
