# generated using pymatgen
data_CaSO4
_symmetry_space_group_name_H-M   'P 1'
_cell_length_a   5.39580243
_cell_length_b   6.88518963
_cell_length_c   7.90395762
_cell_angle_alpha   90.00000000
_cell_angle_beta   90.00000000
_cell_angle_gamma   90.00000000
_symmetry_Int_Tables_number   1
_chemical_formula_structural   CaSO4
_chemical_formula_sum   'Ca4 S4 O16'
_cell_volume   293.64090123
_cell_formula_units_Z   4
loop_
 _symmetry_equiv_pos_site_id
 _symmetry_equiv_pos_as_xyz
  1  'x, y, z'
loop_
 _atom_site_type_symbol
 _atom_site_label
 _atom_site_symmetry_multiplicity
 _atom_site_fract_x
 _atom_site_fract_y
 _atom_site_fract_z
 _atom_site_occupancy
  Ca  Ca0  1  0.250000  0.175762  0.190566  1
  Ca  Ca1  1  0.750000  0.824238  0.809434  1
  Ca  Ca2  1  0.250000  0.324238  0.690566  1
  Ca  Ca3  1  0.750000  0.675762  0.309434  1
  S  S4  1  0.750000  0.324540  0.946870  1
  S  S5  1  0.250000  0.824540  0.553130  1
  S  S6  1  0.750000  0.175460  0.446870  1
  S  S7  1  0.250000  0.675460  0.053130  1
  O  O8  1  0.250000  0.924793  0.388821  1
  O  O9  1  0.750000  0.075207  0.611179  1
  O  O10  1  0.476830  0.801467  0.064876  1
  O  O11  1  0.250000  0.537111  0.197523  1
  O  O12  1  0.750000  0.424793  0.111179  1
  O  O13  1  0.023170  0.801467  0.064876  1
  O  O14  1  0.250000  0.575207  0.888821  1
  O  O15  1  0.976830  0.301467  0.435124  1
  O  O16  1  0.976830  0.198533  0.935124  1
  O  O17  1  0.750000  0.037111  0.302477  1
  O  O18  1  0.023170  0.698533  0.564876  1
  O  O19  1  0.750000  0.462889  0.802477  1
  O  O20  1  0.523170  0.198533  0.935124  1
  O  O21  1  0.250000  0.962889  0.697523  1
  O  O22  1  0.476830  0.698533  0.564876  1
  O  O23  1  0.523170  0.301467  0.435124  1
