# generated using pymatgen
data_OsOF4
_symmetry_space_group_name_H-M   'P 1'
_cell_length_a   5.64538813
_cell_length_b   5.71582849
_cell_length_c   13.07616450
_cell_angle_alpha   90.00000000
_cell_angle_beta   90.00000000
_cell_angle_gamma   117.41542628
_symmetry_Int_Tables_number   1
_chemical_formula_structural   OsOF4
_chemical_formula_sum   'Os4 O4 F16'
_cell_volume   374.55483415
_cell_formula_units_Z   4
loop_
 _symmetry_equiv_pos_site_id
 _symmetry_equiv_pos_as_xyz
  1  'x, y, z'
loop_
 _atom_site_type_symbol
 _atom_site_label
 _atom_site_symmetry_multiplicity
 _atom_site_fract_x
 _atom_site_fract_y
 _atom_site_fract_z
 _atom_site_occupancy
  Os  Os0  1  0.618646  0.332032  0.647717  1
  Os  Os1  1  0.381354  0.667968  0.352283  1
  Os  Os2  1  0.618646  0.832032  0.852283  1
  Os  Os3  1  0.381354  0.167968  0.147717  1
  O  O4  1  0.711260  0.810120  0.373509  1
  O  O5  1  0.711260  0.310120  0.126491  1
  O  O6  1  0.288740  0.689880  0.873509  1
  O  O7  1  0.288740  0.189880  0.626491  1
  F  F8  1  0.261052  0.771825  0.470047  1
  F  F9  1  0.738948  0.728175  0.970047  1
  F  F10  1  0.731817  0.664372  0.586060  1
  F  F11  1  0.556713  0.472573  0.786403  1
  F  F12  1  0.042503  0.559534  0.293274  1
  F  F13  1  0.268183  0.835628  0.086060  1
  F  F14  1  0.261052  0.271825  0.029953  1
  F  F15  1  0.443287  0.527427  0.213597  1
  F  F16  1  0.957497  0.440466  0.706726  1
  F  F17  1  0.957497  0.940466  0.793274  1
  F  F18  1  0.042503  0.059534  0.206726  1
  F  F19  1  0.268183  0.335628  0.413940  1
  F  F20  1  0.731817  0.164372  0.913940  1
  F  F21  1  0.443287  0.027427  0.286403  1
  F  F22  1  0.738948  0.228175  0.529953  1
  F  F23  1  0.556713  0.972573  0.713597  1
