# generated using pymatgen
data_MnH4S2O9
_symmetry_space_group_name_H-M   'P 1'
_cell_length_a   5.12911947
_cell_length_b   8.86206872
_cell_length_c   16.21328088
_cell_angle_alpha   101.37089056
_cell_angle_beta   90.00000000
_cell_angle_gamma   90.00000000
_symmetry_Int_Tables_number   1
_chemical_formula_structural   MnH4S2O9
_chemical_formula_sum   'Mn4 H16 S8 O36'
_cell_volume   722.50274095
_cell_formula_units_Z   4
loop_
 _symmetry_equiv_pos_site_id
 _symmetry_equiv_pos_as_xyz
  1  'x, y, z'
loop_
 _atom_site_type_symbol
 _atom_site_label
 _atom_site_symmetry_multiplicity
 _atom_site_fract_x
 _atom_site_fract_y
 _atom_site_fract_z
 _atom_site_occupancy
  Mn  Mn0  1  0.749762  0.754978  0.512174  1
  Mn  Mn1  1  0.249762  0.745022  0.987826  1
  Mn  Mn2  1  0.250238  0.245022  0.487826  1
  Mn  Mn3  1  0.750238  0.254978  0.012174  1
  S  S4  1  0.258229  0.865660  0.397587  1
  S  S5  1  0.758229  0.634340  0.102413  1
  S  S6  1  0.741771  0.134340  0.602413  1
  S  S7  1  0.241771  0.365660  0.897587  1
  S  S8  1  0.747024  0.387684  0.388069  1
  S  S9  1  0.247024  0.112316  0.111931  1
  S  S10  1  0.252976  0.612316  0.611931  1
  S  S11  1  0.752976  0.887684  0.888069  1
  O  O12  1  0.099780  0.760302  0.435937  1
  O  O13  1  0.599780  0.739698  0.064063  1
  O  O14  1  0.900220  0.239698  0.564063  1
  O  O15  1  0.400220  0.260302  0.935937  1
  O  O16  1  0.533254  0.867383  0.423619  1
  O  O17  1  0.033254  0.632617  0.076381  1
  O  O18  1  0.466746  0.132617  0.576381  1
  O  O19  1  0.966746  0.367383  0.923619  1
  O  O20  1  0.148343  0.021575  0.407509  1
  O  O21  1  0.648343  0.478425  0.092491  1
  O  O22  1  0.851657  0.978425  0.592491  1
  O  O23  1  0.351657  0.521575  0.907509  1
  O  O24  1  0.248755  0.806847  0.299502  1
  O  O25  1  0.748755  0.693153  0.200498  1
  O  O26  1  0.751245  0.193153  0.700498  1
  O  O27  1  0.251245  0.306847  0.799502  1
  O  O28  1  0.023332  0.361787  0.403196  1
  O  O29  1  0.523332  0.138213  0.096804  1
  O  O30  1  0.976668  0.638213  0.596804  1
  O  O31  1  0.476668  0.861787  0.903196  1
  O  O32  1  0.579634  0.260113  0.402133  1
  O  O33  1  0.079634  0.239887  0.097867  1
  O  O34  1  0.420366  0.739887  0.597867  1
  O  O35  1  0.920366  0.760113  0.902133  1
  O  O36  1  0.647500  0.538069  0.429442  1
  O  O37  1  0.147500  0.961931  0.070558  1
  O  O38  1  0.352500  0.461931  0.570558  1
  O  O39  1  0.852500  0.038069  0.929442  1
  O  O40  1  0.744749  0.385639  0.289721  1
  O  O41  1  0.244749  0.114361  0.210279  1
  O  O42  1  0.255251  0.614361  0.710279  1
  O  O43  1  0.755251  0.885639  0.789721  1
  O  O44  1  0.288284  0.500558  0.246832  1
  O  O45  1  0.788284  0.999442  0.253168  1
  O  O46  1  0.711716  0.499442  0.753168  1
  O  O47  1  0.211716  0.000558  0.746832  1
  H  H48  1  0.270227  0.690792  0.282594  1
  H  H49  1  0.770227  0.809208  0.217406  1
  H  H50  1  0.729773  0.309208  0.717406  1
  H  H51  1  0.229773  0.190792  0.782594  1
  H  H52  1  0.572826  0.427912  0.272621  1
  H  H53  1  0.072826  0.072088  0.227379  1
  H  H54  1  0.427174  0.572088  0.727379  1
  H  H55  1  0.927174  0.927912  0.772621  1
  H  H56  1  0.280991  0.479468  0.185111  1
  H  H57  1  0.780991  0.020532  0.314889  1
  H  H58  1  0.719009  0.520532  0.814889  1
  H  H59  1  0.219009  0.979468  0.685111  1
  H  H60  1  0.132746  0.450767  0.264955  1
  H  H61  1  0.632746  0.049233  0.235045  1
  H  H62  1  0.867254  0.549233  0.735045  1
  H  H63  1  0.367254  0.950767  0.764955  1
