# generated using pymatgen
data_Tl4Ni7(PO4)6
_symmetry_space_group_name_H-M   'P 1'
_cell_length_a   6.77940699
_cell_length_b   9.03879200
_cell_length_c   9.03879195
_cell_angle_alpha   106.24060543
_cell_angle_beta   97.99402275
_cell_angle_gamma   97.99402913
_symmetry_Int_Tables_number   1
_chemical_formula_structural   Tl4Ni7(PO4)6
_chemical_formula_sum   'Tl4 Ni7 P6 O24'
_cell_volume   517.29906878
_cell_formula_units_Z   1
loop_
 _symmetry_equiv_pos_site_id
 _symmetry_equiv_pos_as_xyz
  1  'x, y, z'
loop_
 _atom_site_type_symbol
 _atom_site_label
 _atom_site_symmetry_multiplicity
 _atom_site_fract_x
 _atom_site_fract_y
 _atom_site_fract_z
 _atom_site_occupancy
  Tl  Tl0  1  0.495692  0.698155  0.698155  1
  Tl  Tl1  1  0.466804  0.493367  0.264471  1
  Tl  Tl2  1  0.520785  0.082019  0.082019  1
  Tl  Tl3  1  0.466804  0.264471  0.493367  1
  Ni  Ni4  1  0.000203  0.000690  0.000690  1
  Ni  Ni5  1  0.174762  0.016866  0.637543  1
  Ni  Ni6  1  0.814426  0.362182  0.969504  1
  Ni  Ni7  1  0.990503  0.377157  0.617725  1
  Ni  Ni8  1  0.174762  0.637543  0.016866  1
  Ni  Ni9  1  0.814426  0.969504  0.362182  1
  Ni  Ni10  1  0.990503  0.617725  0.377157  1
  P  P11  1  0.988704  0.695350  0.695350  1
  P  P12  1  0.266850  0.284227  0.883500  1
  P  P13  1  0.266850  0.883500  0.284227  1
  P  P14  1  0.726811  0.100995  0.715659  1
  P  P15  1  0.991148  0.299673  0.299673  1
  P  P16  1  0.726811  0.715659  0.100995  1
  O  O17  1  0.853684  0.602174  0.010641  1
  O  O18  1  0.896299  0.809762  0.809762  1
  O  O19  1  0.492472  0.954757  0.338465  1
  O  O20  1  0.120566  0.779344  0.601329  1
  O  O21  1  0.139587  0.396912  0.976063  1
  O  O22  1  0.829991  0.564451  0.564451  1
  O  O23  1  0.773118  0.281735  0.721988  1
  O  O24  1  0.120566  0.601329  0.779344  1
  O  O25  1  0.198908  0.880223  0.108794  1
  O  O26  1  0.861611  0.210232  0.390961  1
  O  O27  1  0.500528  0.030911  0.666353  1
  O  O28  1  0.215182  0.703250  0.271418  1
  O  O29  1  0.861611  0.390961  0.210232  1
  O  O30  1  0.136449  0.436509  0.436509  1
  O  O31  1  0.102528  0.193464  0.193464  1
  O  O32  1  0.492472  0.338465  0.954757  1
  O  O33  1  0.853684  0.010641  0.602174  1
  O  O34  1  0.215182  0.271418  0.703250  1
  O  O35  1  0.139587  0.976063  0.396912  1
  O  O36  1  0.799389  0.892455  0.114026  1
  O  O37  1  0.500528  0.666353  0.030911  1
  O  O38  1  0.198908  0.108794  0.880223  1
  O  O39  1  0.773118  0.721988  0.281735  1
  O  O40  1  0.799389  0.114026  0.892455  1
