# generated using pymatgen
data_Ba2Zn(BO2)6
_symmetry_space_group_name_H-M   'P 1'
_cell_length_a   7.23302252
_cell_length_b   7.27401908
_cell_length_c   12.29310193
_cell_angle_alpha   96.03434876
_cell_angle_beta   94.39228387
_cell_angle_gamma   119.72552084
_symmetry_Int_Tables_number   1
_chemical_formula_structural   Ba2Zn(BO2)6
_chemical_formula_sum   'Ba4 Zn2 B12 O24'
_cell_volume   552.31903058
_cell_formula_units_Z   2
loop_
 _symmetry_equiv_pos_site_id
 _symmetry_equiv_pos_as_xyz
  1  'x, y, z'
loop_
 _atom_site_type_symbol
 _atom_site_label
 _atom_site_symmetry_multiplicity
 _atom_site_fract_x
 _atom_site_fract_y
 _atom_site_fract_z
 _atom_site_occupancy
  Ba  Ba0  1  0.344920  0.680924  0.049667  1
  Ba  Ba1  1  0.263522  0.583051  0.714144  1
  Ba  Ba2  1  0.655080  0.319076  0.950333  1
  Ba  Ba3  1  0.736478  0.416949  0.285856  1
  Zn  Zn4  1  0.888643  0.859681  0.583683  1
  Zn  Zn5  1  0.111357  0.140319  0.416317  1
  B  B6  1  0.747215  0.427182  0.623248  1
  B  B7  1  0.249675  0.079790  0.123861  1
  B  B8  1  0.378657  0.951969  0.367863  1
  B  B9  1  0.364855  0.174179  0.618005  1
  B  B10  1  0.621343  0.048031  0.632137  1
  B  B11  1  0.252785  0.572818  0.376752  1
  B  B12  1  0.996875  0.216687  0.130090  1
  B  B13  1  0.137170  0.171021  0.870750  1
  B  B14  1  0.862830  0.828979  0.129250  1
  B  B15  1  0.750325  0.920210  0.876139  1
  B  B16  1  0.003125  0.783313  0.869910  1
  B  B17  1  0.635146  0.825821  0.381995  1
  O  O18  1  0.162053  0.137467  0.592309  1
  O  O19  1  0.410381  0.012953  0.633253  1
  O  O20  1  0.212643  0.741523  0.366672  1
  O  O21  1  0.463925  0.615106  0.373650  1
  O  O22  1  0.445511  0.109468  0.117567  1
  O  O23  1  0.787357  0.258477  0.633328  1
  O  O24  1  0.037850  0.620514  0.874677  1
  O  O25  1  0.831570  0.006917  0.136428  1
  O  O26  1  0.589619  0.987047  0.366747  1
  O  O27  1  0.554489  0.890532  0.882433  1
  O  O28  1  0.837947  0.862533  0.407691  1
  O  O29  1  0.168430  0.993083  0.863572  1
  O  O30  1  0.696282  0.631842  0.126568  1
  O  O31  1  0.910965  0.616029  0.609379  1
  O  O32  1  0.206171  0.248911  0.127666  1
  O  O33  1  0.074133  0.871353  0.123958  1
  O  O34  1  0.303718  0.368158  0.873432  1
  O  O35  1  0.354090  0.122677  0.372412  1
  O  O36  1  0.925867  0.128647  0.876042  1
  O  O37  1  0.089035  0.383971  0.390621  1
  O  O38  1  0.962150  0.379486  0.125323  1
  O  O39  1  0.536075  0.384894  0.626350  1
  O  O40  1  0.793829  0.751089  0.872334  1
  O  O41  1  0.645910  0.877323  0.627588  1
