# generated using pymatgen
data_Na4TiAs2O9
_symmetry_space_group_name_H-M   'P 1'
_cell_length_a   7.26574823
_cell_length_b   7.85793980
_cell_length_c   8.83988717
_cell_angle_alpha   90.23423549
_cell_angle_beta   114.26539265
_cell_angle_gamma   90.00000240
_symmetry_Int_Tables_number   1
_chemical_formula_structural   Na4TiAs2O9
_chemical_formula_sum   'Na8 Ti2 As4 O18'
_cell_volume   460.10857723
_cell_formula_units_Z   2
loop_
 _symmetry_equiv_pos_site_id
 _symmetry_equiv_pos_as_xyz
  1  'x, y, z'
loop_
 _atom_site_type_symbol
 _atom_site_label
 _atom_site_symmetry_multiplicity
 _atom_site_fract_x
 _atom_site_fract_y
 _atom_site_fract_z
 _atom_site_occupancy
  Na  Na0  1  0.254954  1.000000  0.000000  1
  Na  Na1  1  0.374223  0.278696  0.748446  1
  Na  Na2  1  0.107146  0.238385  0.214292  1
  Na  Na3  1  0.892854  0.761615  0.785708  1
  Na  Na4  1  0.500000  0.500000  0.500000  1
  Na  Na5  1  0.745046  0.000000  1.000000  1
  Na  Na6  1  0.625777  0.721304  0.251554  1
  Na  Na7  1  0.000000  0.500000  0.500000  1
  Ti  Ti8  1  0.000000  0.000000  0.500000  1
  Ti  Ti9  1  0.500000  0.000000  0.500000  1
  As  As10  1  0.870514  0.276468  0.741028  1
  As  As11  1  0.612305  0.240139  0.224609  1
  As  As12  1  0.129486  0.723532  0.258972  1
  As  As13  1  0.387695  0.759861  0.775391  1
  O  O14  1  0.445711  0.129155  0.287187  1
  O  O15  1  0.492325  0.783993  0.984651  1
  O  O16  1  0.554289  0.870845  0.712813  1
  O  O17  1  0.859142  0.490406  0.718284  1
  O  O18  1  0.617963  0.210913  0.635477  1
  O  O19  1  0.017514  0.210913  0.635477  1
  O  O20  1  0.158524  0.870845  0.712813  1
  O  O21  1  0.034576  0.816934  0.069153  1
  O  O22  1  0.841476  0.129155  0.287187  1
  O  O23  1  0.758164  0.929802  0.516327  1
  O  O24  1  0.982486  0.789087  0.364523  1
  O  O25  1  0.241836  0.070198  0.483673  1
  O  O26  1  0.140858  0.509594  0.281716  1
  O  O27  1  0.507675  0.216007  0.015349  1
  O  O28  1  0.382037  0.789087  0.364523  1
  O  O29  1  0.343963  0.563131  0.687926  1
  O  O30  1  0.965424  0.183066  0.930847  1
  O  O31  1  0.656037  0.436869  0.312074  1
