# generated using pymatgen
data_K2MoO8
_symmetry_space_group_name_H-M   'P 1'
_cell_length_a   11.12987966
_cell_length_b   11.12987957
_cell_length_c   11.12987943
_cell_angle_alpha   64.39813646
_cell_angle_beta   64.39813668
_cell_angle_gamma   64.39813403
_symmetry_Int_Tables_number   1
_chemical_formula_structural   K2MoO8
_chemical_formula_sum   'K12 Mo6 O48'
_cell_volume   1069.00931102
_cell_formula_units_Z   6
loop_
 _symmetry_equiv_pos_site_id
 _symmetry_equiv_pos_as_xyz
  1  'x, y, z'
loop_
 _atom_site_type_symbol
 _atom_site_label
 _atom_site_symmetry_multiplicity
 _atom_site_fract_x
 _atom_site_fract_y
 _atom_site_fract_z
 _atom_site_occupancy
  K  K0  1  0.333659  0.333659  0.333659  1
  K  K1  1  0.895192  0.604808  0.250000  1
  K  K2  1  0.250000  0.895192  0.604808  1
  K  K3  1  0.833659  0.833659  0.833659  1
  K  K4  1  0.604808  0.250000  0.895192  1
  K  K5  1  0.666341  0.666341  0.666341  1
  K  K6  1  0.000000  0.000000  0.000000  1
  K  K7  1  0.104808  0.395192  0.750000  1
  K  K8  1  0.395192  0.750000  0.104808  1
  K  K9  1  0.166341  0.166341  0.166341  1
  K  K10  1  0.500000  0.500000  0.500000  1
  K  K11  1  0.750000  0.104808  0.395192  1
  Mo  Mo12  1  0.068222  0.750000  0.431778  1
  Mo  Mo13  1  0.568222  0.931778  0.250000  1
  Mo  Mo14  1  0.431778  0.068222  0.750000  1
  Mo  Mo15  1  0.250000  0.568222  0.931778  1
  Mo  Mo16  1  0.931778  0.250000  0.568222  1
  Mo  Mo17  1  0.750000  0.431778  0.068222  1
  O  O18  1  0.897809  0.184728  0.775323  1
  O  O19  1  0.775323  0.897809  0.184728  1
  O  O20  1  0.344930  0.535347  0.065390  1
  O  O21  1  0.155070  0.434610  0.964653  1
  O  O22  1  0.844930  0.565390  0.035347  1
  O  O23  1  0.223019  0.570694  0.424134  1
  O  O24  1  0.602191  0.724677  0.315272  1
  O  O25  1  0.184728  0.775323  0.897809  1
  O  O26  1  0.397809  0.275323  0.684728  1
  O  O27  1  0.276981  0.075866  0.929306  1
  O  O28  1  0.424134  0.223019  0.570694  1
  O  O29  1  0.570694  0.424134  0.223019  1
  O  O30  1  0.924134  0.070694  0.723019  1
  O  O31  1  0.315272  0.602191  0.724677  1
  O  O32  1  0.929306  0.276981  0.075866  1
  O  O33  1  0.535347  0.065390  0.344930  1
  O  O34  1  0.065390  0.344930  0.535347  1
  O  O35  1  0.655070  0.464653  0.934610  1
  O  O36  1  0.535572  0.136490  0.197279  1
  O  O37  1  0.697279  0.636490  0.035572  1
  O  O38  1  0.964653  0.155070  0.434610  1
  O  O39  1  0.863510  0.802721  0.464428  1
  O  O40  1  0.035572  0.697279  0.636490  1
  O  O41  1  0.302721  0.363510  0.964428  1
  O  O42  1  0.197279  0.535572  0.136490  1
  O  O43  1  0.136490  0.197279  0.535572  1
  O  O44  1  0.815272  0.224677  0.102191  1
  O  O45  1  0.636490  0.035572  0.697279  1
  O  O46  1  0.575866  0.776981  0.429306  1
  O  O47  1  0.224677  0.102191  0.815272  1
  O  O48  1  0.275323  0.684728  0.397809  1
  O  O49  1  0.075866  0.929306  0.276981  1
  O  O50  1  0.434610  0.964653  0.155070  1
  O  O51  1  0.776981  0.429306  0.575866  1
  O  O52  1  0.724677  0.315272  0.602191  1
  O  O53  1  0.802721  0.464428  0.863510  1
  O  O54  1  0.964428  0.302721  0.363510  1
  O  O55  1  0.464653  0.934610  0.655070  1
  O  O56  1  0.035347  0.844930  0.565390  1
  O  O57  1  0.429306  0.575866  0.776981  1
  O  O58  1  0.934610  0.655070  0.464653  1
  O  O59  1  0.464428  0.863510  0.802721  1
  O  O60  1  0.684728  0.397809  0.275323  1
  O  O61  1  0.565390  0.035347  0.844930  1
  O  O62  1  0.723019  0.924134  0.070694  1
  O  O63  1  0.363510  0.964428  0.302721  1
  O  O64  1  0.070694  0.723019  0.924134  1
  O  O65  1  0.102191  0.815272  0.224677  1
