# generated using pymatgen
data_NaLi3GeO4
_symmetry_space_group_name_H-M   'P 1'
_cell_length_a   10.23593074
_cell_length_b   10.23593069
_cell_length_c   10.23593100
_cell_angle_alpha   101.44663133
_cell_angle_beta   113.62647818
_cell_angle_gamma   113.62647544
_symmetry_Int_Tables_number   1
_chemical_formula_structural   NaLi3GeO4
_chemical_formula_sum   'Na8 Li24 Ge8 O32'
_cell_volume   813.67828677
_cell_formula_units_Z   8
loop_
 _symmetry_equiv_pos_site_id
 _symmetry_equiv_pos_as_xyz
  1  'x, y, z'
loop_
 _atom_site_type_symbol
 _atom_site_label
 _atom_site_symmetry_multiplicity
 _atom_site_fract_x
 _atom_site_fract_y
 _atom_site_fract_z
 _atom_site_occupancy
  Na  Na0  1  0.737858  0.606807  0.319100  1
  Na  Na1  1  0.262142  0.393193  0.680900  1
  Na  Na2  1  0.212293  0.631051  0.893193  1
  Na  Na3  1  0.762142  0.081242  0.868949  1
  Na  Na4  1  0.237858  0.918758  0.131051  1
  Na  Na5  1  0.712293  0.819100  0.581242  1
  Na  Na6  1  0.787707  0.368949  0.106807  1
  Na  Na7  1  0.287707  0.180900  0.418758  1
  Li  Li8  1  0.614380  0.037143  0.464921  1
  Li  Li9  1  0.602490  0.313735  0.427813  1
  Li  Li10  1  0.559292  0.534868  0.651471  1
  Li  Li11  1  0.059292  0.407821  0.024424  1
  Li  Li12  1  0.614078  0.788755  0.186265  1
  Li  Li13  1  0.616603  0.524424  0.965132  1
  Li  Li14  1  0.397510  0.686265  0.572187  1
  Li  Li15  1  0.572222  0.035079  0.149459  1
  Li  Li16  1  0.385922  0.211245  0.813735  1
  Li  Li17  1  0.385620  0.962857  0.535079  1
  Li  Li18  1  0.927778  0.077237  0.462857  1
  Li  Li19  1  0.883397  0.848529  0.907821  1
  Li  Li20  1  0.885922  0.072187  0.174677  1
  Li  Li21  1  0.885620  0.350541  0.422763  1
  Li  Li22  1  0.940708  0.592179  0.975576  1
  Li  Li23  1  0.114078  0.927813  0.825323  1
  Li  Li24  1  0.114380  0.649459  0.577237  1
  Li  Li25  1  0.897510  0.325323  0.711245  1
  Li  Li26  1  0.440708  0.465132  0.348529  1
  Li  Li27  1  0.427778  0.964921  0.850541  1
  Li  Li28  1  0.383397  0.475576  0.034868  1
  Li  Li29  1  0.072222  0.922763  0.537143  1
  Li  Li30  1  0.102490  0.674677  0.288755  1
  Li  Li31  1  0.116603  0.151471  0.092179  1
  Ge  Ge32  1  0.892762  0.620775  0.659324  1
  Ge  Ge33  1  0.461452  0.228013  0.120775  1
  Ge  Ge34  1  0.607238  0.266562  0.728013  1
  Ge  Ge35  1  0.107238  0.379225  0.340676  1
  Ge  Ge36  1  0.392762  0.733438  0.271987  1
  Ge  Ge37  1  0.538548  0.771987  0.879225  1
  Ge  Ge38  1  0.038548  0.159324  0.766562  1
  Ge  Ge39  1  0.961452  0.840676  0.233438  1
  O  O40  1  0.160296  0.897353  0.395489  1
  O  O41  1  0.004192  0.965968  0.138837  1
  O  O42  1  0.048594  0.519212  0.369612  1
  O  O43  1  0.362148  0.244886  0.226024  1
  O  O44  1  0.862148  0.636124  0.117262  1
  O  O45  1  0.981138  0.726024  0.863876  1
  O  O46  1  0.995808  0.034032  0.861163  1
  O  O47  1  0.137852  0.363876  0.882738  1
  O  O48  1  0.998136  0.762943  0.602647  1
  O  O49  1  0.018862  0.273976  0.136124  1
  O  O50  1  0.839704  0.102647  0.604511  1
  O  O51  1  0.504192  0.365355  0.038224  1
  O  O52  1  0.149600  0.130388  0.678982  1
  O  O53  1  0.451406  0.821018  0.470618  1
  O  O54  1  0.501864  0.104511  0.764807  1
  O  O55  1  0.481138  0.617262  0.255114  1
  O  O56  1  0.637852  0.755114  0.773976  1
  O  O57  1  0.951406  0.480788  0.630388  1
  O  O58  1  0.548594  0.178982  0.529382  1
  O  O59  1  0.672869  0.538224  0.534032  1
  O  O60  1  0.850400  0.869612  0.321018  1
  O  O61  1  0.660296  0.264807  0.262943  1
  O  O62  1  0.350400  0.029382  0.980788  1
  O  O63  1  0.498136  0.895489  0.235193  1
  O  O64  1  0.327131  0.461776  0.465968  1
  O  O65  1  0.518862  0.382738  0.744886  1
  O  O66  1  0.001864  0.237057  0.397353  1
  O  O67  1  0.827131  0.361163  0.865355  1
  O  O68  1  0.339704  0.735193  0.737057  1
  O  O69  1  0.172869  0.638837  0.134645  1
  O  O70  1  0.649600  0.970618  0.019212  1
  O  O71  1  0.495808  0.634645  0.961776  1
