# generated using pymatgen
data_LaPS4
_symmetry_space_group_name_H-M   'P 1'
_cell_length_a   11.18700204
_cell_length_b   11.18700179
_cell_length_c   12.58954398
_cell_angle_alpha   116.37839401
_cell_angle_beta   116.37839344
_cell_angle_gamma   90.00000047
_symmetry_Int_Tables_number   1
_chemical_formula_structural   LaPS4
_chemical_formula_sum   'La8 P8 S32'
_cell_volume   1225.70729301
_cell_formula_units_Z   8
loop_
 _symmetry_equiv_pos_site_id
 _symmetry_equiv_pos_as_xyz
  1  'x, y, z'
loop_
 _atom_site_type_symbol
 _atom_site_label
 _atom_site_symmetry_multiplicity
 _atom_site_fract_x
 _atom_site_fract_y
 _atom_site_fract_z
 _atom_site_occupancy
  La  La0  1  0.625000  0.875000  0.250000  1
  La  La1  1  0.125000  0.375000  0.250000  1
  La  La2  1  0.625000  0.375000  0.250000  1
  La  La3  1  0.125000  0.875000  0.250000  1
  La  La4  1  0.375000  0.625000  0.750000  1
  La  La5  1  0.875000  0.125000  0.750000  1
  La  La6  1  0.875000  0.625000  0.750000  1
  La  La7  1  0.375000  0.125000  0.750000  1
  P  P8  1  0.250000  0.714027  0.000000  1
  P  P9  1  0.750000  0.785973  1.000000  1
  P  P10  1  0.250000  0.214027  0.000000  1
  P  P11  1  0.750000  0.285973  1.000000  1
  P  P12  1  0.214027  0.750000  0.500000  1
  P  P13  1  0.714027  0.750000  0.500000  1
  P  P14  1  0.285973  0.250000  0.500000  1
  P  P15  1  0.785973  0.250000  0.500000  1
  S  S16  1  0.096634  0.116724  0.002673  1
  S  S17  1  0.616724  0.596634  0.502673  1
  S  S18  1  0.664805  0.096531  0.826828  1
  S  S19  1  0.885950  0.406039  0.502673  1
  S  S20  1  0.406039  0.616724  0.002673  1
  S  S21  1  0.614050  0.903366  0.497327  1
  S  S22  1  0.835195  0.269702  0.173172  1
  S  S23  1  0.596531  0.164805  0.326828  1
  S  S24  1  0.114050  0.593961  0.497327  1
  S  S25  1  0.883276  0.093961  0.497327  1
  S  S26  1  0.230298  0.664805  0.326828  1
  S  S27  1  0.335195  0.903469  0.173172  1
  S  S28  1  0.164805  0.730298  0.826828  1
  S  S29  1  0.596634  0.885950  0.002673  1
  S  S30  1  0.403366  0.114050  0.997327  1
  S  S31  1  0.093961  0.614050  0.997327  1
  S  S32  1  0.837977  0.769702  0.173172  1
  S  S33  1  0.403469  0.835195  0.673172  1
  S  S34  1  0.269702  0.337977  0.673172  1
  S  S35  1  0.383276  0.403366  0.497327  1
  S  S36  1  0.116724  0.906039  0.502673  1
  S  S37  1  0.162023  0.230298  0.826828  1
  S  S38  1  0.385950  0.096634  0.502673  1
  S  S39  1  0.730298  0.662023  0.326828  1
  S  S40  1  0.662023  0.596531  0.826828  1
  S  S41  1  0.337977  0.403469  0.173172  1
  S  S42  1  0.906039  0.385950  0.002673  1
  S  S43  1  0.593961  0.383276  0.997327  1
  S  S44  1  0.096531  0.162023  0.326828  1
  S  S45  1  0.903469  0.837977  0.673172  1
  S  S46  1  0.769702  0.335195  0.673172  1
  S  S47  1  0.903366  0.883276  0.997327  1
