# generated using pymatgen
data_K3Sn5Cl3F10
_symmetry_space_group_name_H-M   'P 1'
_cell_length_a   4.37854678
_cell_length_b   10.11677707
_cell_length_c   20.90941575
_cell_angle_alpha   90.00000000
_cell_angle_beta   90.00000000
_cell_angle_gamma   102.49769162
_symmetry_Int_Tables_number   1
_chemical_formula_structural   K3Sn5Cl3F10
_chemical_formula_sum   'K6 Sn10 Cl6 F20'
_cell_volume   904.27279210
_cell_formula_units_Z   2
loop_
 _symmetry_equiv_pos_site_id
 _symmetry_equiv_pos_as_xyz
  1  'x, y, z'
loop_
 _atom_site_type_symbol
 _atom_site_label
 _atom_site_symmetry_multiplicity
 _atom_site_fract_x
 _atom_site_fract_y
 _atom_site_fract_z
 _atom_site_occupancy
  K  K0  1  0.000000  0.000000  0.000000  1
  K  K1  1  0.440513  0.881027  0.162664  1
  K  K2  1  0.440513  0.881027  0.337336  1
  K  K3  1  0.559487  0.118973  0.662664  1
  K  K4  1  0.559487  0.118973  0.837336  1
  K  K5  1  0.000000  0.000000  0.500000  1
  Sn  Sn6  1  0.797644  0.595288  0.250000  1
  Sn  Sn7  1  0.202356  0.404712  0.750000  1
  Sn  Sn8  1  0.126773  0.253545  0.149314  1
  Sn  Sn9  1  0.873227  0.746455  0.850686  1
  Sn  Sn10  1  0.328468  0.656936  0.500357  1
  Sn  Sn11  1  0.671532  0.343064  0.000357  1
  Sn  Sn12  1  0.126773  0.253545  0.350686  1
  Sn  Sn13  1  0.328468  0.656936  0.999643  1
  Sn  Sn14  1  0.873227  0.746455  0.649314  1
  Sn  Sn15  1  0.671532  0.343064  0.499643  1
  Cl  Cl16  1  0.184381  0.368763  0.887064  1
  Cl  Cl17  1  0.420617  0.841235  0.750000  1
  Cl  Cl18  1  0.579383  0.158765  0.250000  1
  Cl  Cl19  1  0.815619  0.631237  0.112936  1
  Cl  Cl20  1  0.815619  0.631237  0.387064  1
  Cl  Cl21  1  0.184381  0.368763  0.612936  1
  F  F22  1  0.143141  0.286282  0.038193  1
  F  F23  1  0.024743  0.049487  0.127691  1
  F  F24  1  0.374472  0.748944  0.601508  1
  F  F25  1  0.095848  0.191696  0.750000  1
  F  F26  1  0.856859  0.713718  0.961807  1
  F  F27  1  0.024743  0.049487  0.372309  1
  F  F28  1  0.975257  0.950513  0.872309  1
  F  F29  1  0.975257  0.950513  0.627691  1
  F  F30  1  0.673598  0.347196  0.750000  1
  F  F31  1  0.573032  0.146064  0.533303  1
  F  F32  1  0.625528  0.251056  0.101508  1
  F  F33  1  0.326402  0.652804  0.250000  1
  F  F34  1  0.426968  0.853936  0.466697  1
  F  F35  1  0.625528  0.251056  0.398492  1
  F  F36  1  0.856859  0.713718  0.538193  1
  F  F37  1  0.426968  0.853936  0.033303  1
  F  F38  1  0.374472  0.748944  0.898492  1
  F  F39  1  0.143141  0.286282  0.461807  1
  F  F40  1  0.904152  0.808304  0.250000  1
  F  F41  1  0.573032  0.146064  0.966697  1
