# generated using pymatgen
data_Ba2Fe3F10
_symmetry_space_group_name_H-M   'P 1'
_cell_length_a   6.31097047
_cell_length_b   8.08355020
_cell_length_c   17.61493395
_cell_angle_alpha   93.86246304
_cell_angle_beta   90.00000000
_cell_angle_gamma   90.00000000
_symmetry_Int_Tables_number   1
_chemical_formula_structural   Ba2Fe3F10
_chemical_formula_sum   'Ba8 Fe12 F40'
_cell_volume   896.58555760
_cell_formula_units_Z   4
loop_
 _symmetry_equiv_pos_site_id
 _symmetry_equiv_pos_as_xyz
  1  'x, y, z'
loop_
 _atom_site_type_symbol
 _atom_site_label
 _atom_site_symmetry_multiplicity
 _atom_site_fract_x
 _atom_site_fract_y
 _atom_site_fract_z
 _atom_site_occupancy
  Ba  Ba0  1  0.506037  0.903888  0.715299  1
  Ba  Ba1  1  0.006037  0.596112  0.784701  1
  Ba  Ba2  1  0.493963  0.096112  0.284701  1
  Ba  Ba3  1  0.993963  0.403888  0.215299  1
  Ba  Ba4  1  0.486775  0.396321  0.613417  1
  Ba  Ba5  1  0.986775  0.103679  0.886583  1
  Ba  Ba6  1  0.513225  0.603679  0.386583  1
  Ba  Ba7  1  0.013225  0.896321  0.113417  1
  Fe  Fe8  1  0.743387  0.005275  0.499292  1
  Fe  Fe9  1  0.243387  0.494725  0.000708  1
  Fe  Fe10  1  0.256613  0.994725  0.500708  1
  Fe  Fe11  1  0.756613  0.505275  0.999292  1
  Fe  Fe12  1  0.496412  0.337111  0.822116  1
  Fe  Fe13  1  0.996412  0.162889  0.677884  1
  Fe  Fe14  1  0.503588  0.662889  0.177884  1
  Fe  Fe15  1  0.003588  0.837111  0.322116  1
  Fe  Fe16  1  0.496855  0.880353  0.922720  1
  Fe  Fe17  1  0.996855  0.619647  0.577280  1
  Fe  Fe18  1  0.503145  0.119647  0.077280  1
  Fe  Fe19  1  0.003145  0.380353  0.422720  1
  F  F20  1  0.250344  0.205952  0.758126  1
  F  F21  1  0.750344  0.294048  0.741874  1
  F  F22  1  0.749656  0.794048  0.241874  1
  F  F23  1  0.249656  0.705952  0.258126  1
  F  F24  1  0.221023  0.506547  0.493309  1
  F  F25  1  0.721023  0.993453  0.006691  1
  F  F26  1  0.778977  0.493453  0.506691  1
  F  F27  1  0.278977  0.006547  0.993309  1
  F  F28  1  0.431802  0.533118  0.762653  1
  F  F29  1  0.931802  0.966882  0.737347  1
  F  F30  1  0.568198  0.466882  0.237347  1
  F  F31  1  0.068198  0.033118  0.262653  1
  F  F32  1  0.506421  0.826671  0.516757  1
  F  F33  1  0.006421  0.673329  0.983243  1
  F  F34  1  0.493796  0.658526  0.975788  1
  F  F35  1  0.493579  0.173329  0.483243  1
  F  F36  1  0.551156  0.109979  0.862410  1
  F  F37  1  0.051156  0.390021  0.637590  1
  F  F38  1  0.448844  0.890021  0.137590  1
  F  F39  1  0.948844  0.609979  0.362410  1
  F  F40  1  0.237288  0.580764  0.112860  1
  F  F41  1  0.737288  0.919236  0.387140  1
  F  F42  1  0.762712  0.419236  0.887140  1
  F  F43  1  0.262712  0.080764  0.612860  1
  F  F44  1  0.773321  0.598736  0.110438  1
  F  F45  1  0.273321  0.901264  0.389562  1
  F  F46  1  0.226679  0.401264  0.889562  1
  F  F47  1  0.726679  0.098736  0.610438  1
  F  F48  1  0.770772  0.307136  0.349844  1
  F  F49  1  0.270772  0.192864  0.150156  1
  F  F50  1  0.229228  0.692864  0.650156  1
  F  F51  1  0.729228  0.807136  0.849844  1
  F  F52  1  0.247145  0.346635  0.341447  1
  F  F53  1  0.747145  0.153365  0.158553  1
  F  F54  1  0.752855  0.653365  0.658553  1
  F  F55  1  0.252855  0.846635  0.841447  1
  F  F56  1  0.006204  0.158526  0.475788  1
  F  F57  1  0.506204  0.341474  0.024212  1
  F  F58  1  0.993796  0.841474  0.524212  1
  F  F59  1  0.993579  0.326671  0.016757  1
