# generated using pymatgen
data_CO
_symmetry_space_group_name_H-M   'P 1'
_cell_length_a   7.14412920
_cell_length_b   7.14412934
_cell_length_c   7.14412916
_cell_angle_alpha   85.39171560
_cell_angle_beta   85.39171554
_cell_angle_gamma   85.39171337
_symmetry_Int_Tables_number   1
_chemical_formula_structural   CO
_chemical_formula_sum   'C8 O8'
_cell_volume   361.26938059
_cell_formula_units_Z   8
loop_
 _symmetry_equiv_pos_site_id
 _symmetry_equiv_pos_as_xyz
  1  'x, y, z'
loop_
 _atom_site_type_symbol
 _atom_site_label
 _atom_site_symmetry_multiplicity
 _atom_site_fract_x
 _atom_site_fract_y
 _atom_site_fract_z
 _atom_site_occupancy
  C  C0  1  0.541432  0.541432  0.541432  1
  C  C1  1  0.750092  0.037578  0.541605  1
  C  C2  1  0.037578  0.541605  0.750092  1
  C  C3  1  0.541605  0.750092  0.037578  1
  C  C4  1  0.041432  0.041432  0.041432  1
  C  C5  1  0.250092  0.041605  0.537578  1
  C  C6  1  0.537578  0.250092  0.041605  1
  C  C7  1  0.041605  0.537578  0.250092  1
  O  O8  1  0.442629  0.265707  0.919047  1
  O  O9  1  0.919047  0.442629  0.265707  1
  O  O10  1  0.419047  0.765707  0.942629  1
  O  O11  1  0.455709  0.455709  0.455709  1
  O  O12  1  0.265707  0.919047  0.442629  1
  O  O13  1  0.942629  0.419047  0.765707  1
  O  O14  1  0.765707  0.942629  0.419047  1
  O  O15  1  0.955709  0.955709  0.955709  1
