# generated using pymatgen
data_Cs4Sc6CCl13
_symmetry_space_group_name_H-M   'P 1'
_cell_length_a   10.52232264
_cell_length_b   12.17821014
_cell_length_c   12.17821030
_cell_angle_alpha   79.24344730
_cell_angle_beta   64.40453573
_cell_angle_gamma   64.40453474
_symmetry_Int_Tables_number   1
_chemical_formula_structural   Cs4Sc6CCl13
_chemical_formula_sum   'Cs8 Sc12 C2 Cl26'
_cell_volume   1269.29706111
_cell_formula_units_Z   2
loop_
 _symmetry_equiv_pos_site_id
 _symmetry_equiv_pos_as_xyz
  1  'x, y, z'
loop_
 _atom_site_type_symbol
 _atom_site_label
 _atom_site_symmetry_multiplicity
 _atom_site_fract_x
 _atom_site_fract_y
 _atom_site_fract_z
 _atom_site_occupancy
  Cs  Cs0  1  0.279858  0.440283  0.250000  1
  Cs  Cs1  1  0.970142  0.750000  0.559717  1
  Cs  Cs2  1  0.970142  0.059717  0.250000  1
  Cs  Cs3  1  0.029858  0.250000  0.440283  1
  Cs  Cs4  1  0.720142  0.250000  0.059717  1
  Cs  Cs5  1  0.279858  0.750000  0.940283  1
  Cs  Cs6  1  0.029858  0.940283  0.750000  1
  Cs  Cs7  1  0.720142  0.559717  0.750000  1
  Sc  Sc8  1  0.623244  0.894541  0.105459  1
  Sc  Sc9  1  0.228702  0.394541  0.894541  1
  Sc  Sc10  1  0.517785  0.105459  0.605459  1
  Sc  Sc11  1  0.411260  0.750000  0.250000  1
  Sc  Sc12  1  0.623244  0.605459  0.394541  1
  Sc  Sc13  1  0.588740  0.250000  0.750000  1
  Sc  Sc14  1  0.161260  0.250000  0.750000  1
  Sc  Sc15  1  0.771298  0.605459  0.105459  1
  Sc  Sc16  1  0.838740  0.750000  0.250000  1
  Sc  Sc17  1  0.482215  0.894541  0.394541  1
  Sc  Sc18  1  0.376756  0.105459  0.894541  1
  Sc  Sc19  1  0.376756  0.394541  0.605459  1
  C  C20  1  0.625000  0.750000  0.250000  1
  C  C21  1  0.375000  0.250000  0.750000  1
  Cl  Cl22  1  0.871033  0.916534  0.083466  1
  Cl  Cl23  1  0.789790  0.750000  0.920420  1
  Cl  Cl24  1  0.460210  0.750000  0.579580  1
  Cl  Cl25  1  0.377548  0.583580  0.416420  1
  Cl  Cl26  1  0.128967  0.083466  0.916534  1
  Cl  Cl27  1  0.212433  0.916534  0.416534  1
  Cl  Cl28  1  0.038872  0.583580  0.083580  1
  Cl  Cl29  1  0.706032  0.916420  0.416420  1
  Cl  Cl30  1  0.961128  0.416420  0.916420  1
  Cl  Cl31  1  0.210210  0.579580  0.750000  1
  Cl  Cl32  1  0.377548  0.916420  0.083580  1
  Cl  Cl33  1  0.622452  0.416420  0.583580  1
  Cl  Cl34  1  0.128967  0.416534  0.583466  1
  Cl  Cl35  1  0.789790  0.420420  0.250000  1
  Cl  Cl36  1  0.210210  0.250000  0.079580  1
  Cl  Cl37  1  0.545501  0.583466  0.083466  1
  Cl  Cl38  1  0.875000  0.250000  0.750000  1
  Cl  Cl39  1  0.454499  0.416534  0.916534  1
  Cl  Cl40  1  0.622452  0.083580  0.916420  1
  Cl  Cl41  1  0.460210  0.079580  0.250000  1
  Cl  Cl42  1  0.539790  0.920420  0.750000  1
  Cl  Cl43  1  0.871033  0.583466  0.416534  1
  Cl  Cl44  1  0.539790  0.250000  0.420420  1
  Cl  Cl45  1  0.293968  0.083580  0.583580  1
  Cl  Cl46  1  0.787567  0.083466  0.583466  1
  Cl  Cl47  1  0.125000  0.750000  0.250000  1
