# generated using pymatgen
data_Tl(MoO3)3
_symmetry_space_group_name_H-M   'P 1'
_cell_length_a   6.57576085
_cell_length_b   7.85152883
_cell_length_c   8.64734231
_cell_angle_alpha   116.99965428
_cell_angle_beta   92.41719438
_cell_angle_gamma   89.99999994
_symmetry_Int_Tables_number   1
_chemical_formula_structural   Tl(MoO3)3
_chemical_formula_sum   'Tl2 Mo6 O18'
_cell_volume   397.35440686
_cell_formula_units_Z   2
loop_
 _symmetry_equiv_pos_site_id
 _symmetry_equiv_pos_as_xyz
  1  'x, y, z'
loop_
 _atom_site_type_symbol
 _atom_site_label
 _atom_site_symmetry_multiplicity
 _atom_site_fract_x
 _atom_site_fract_y
 _atom_site_fract_z
 _atom_site_occupancy
  Tl  Tl0  1  0.176849  0.301358  0.602716  1
  Tl  Tl1  1  0.823151  0.698642  0.397284  1
  Mo  Mo2  1  0.638127  0.116925  0.233849  1
  Mo  Mo3  1  0.361873  0.883075  0.766151  1
  Mo  Mo4  1  0.268394  0.795730  0.111489  1
  Mo  Mo5  1  0.731606  0.684241  0.888511  1
  Mo  Mo6  1  0.731606  0.204270  0.888511  1
  Mo  Mo7  1  0.268394  0.315759  0.111489  1
  O  O8  1  1.000000  0.750361  1.000000  1
  O  O9  1  0.000000  0.249639  0.000000  1
  O  O10  1  0.516000  0.214567  0.429134  1
  O  O11  1  0.484000  0.785433  0.570866  1
  O  O12  1  0.894500  0.147820  0.295641  1
  O  O13  1  0.105500  0.852179  0.704359  1
  O  O14  1  0.294039  0.536619  0.073238  1
  O  O15  1  0.705961  0.463381  0.926762  1
  O  O16  1  0.306931  0.035511  0.071021  1
  O  O17  1  0.693069  0.964489  0.928979  1
  O  O18  1  0.211597  0.902564  0.327053  1
  O  O19  1  0.788403  0.575511  0.672947  1
  O  O20  1  0.788403  0.097436  0.672947  1
  O  O21  1  0.211597  0.424489  0.327053  1
  O  O22  1  0.586595  0.842901  0.158186  1
  O  O23  1  0.413405  0.684715  0.841814  1
  O  O24  1  0.413405  0.157099  0.841814  1
  O  O25  1  0.586595  0.315285  0.158186  1
