# generated using pymatgen
data_Cs2LiCr(CN)6
_symmetry_space_group_name_H-M   'P 1'
_cell_length_a   7.66881596
_cell_length_b   7.66881596
_cell_length_c   10.87448545
_cell_angle_alpha   90.00000000
_cell_angle_beta   90.00000000
_cell_angle_gamma   90.00000000
_symmetry_Int_Tables_number   1
_chemical_formula_structural   Cs2LiCr(CN)6
_chemical_formula_sum   'Cs4 Li2 Cr2 C12 N12'
_cell_volume   639.53651717
_cell_formula_units_Z   2
loop_
 _symmetry_equiv_pos_site_id
 _symmetry_equiv_pos_as_xyz
  1  'x, y, z'
loop_
 _atom_site_type_symbol
 _atom_site_label
 _atom_site_symmetry_multiplicity
 _atom_site_fract_x
 _atom_site_fract_y
 _atom_site_fract_z
 _atom_site_occupancy
  Cs  Cs0  1  0.500000  0.000000  0.250000  1
  Cs  Cs1  1  0.000000  0.500000  0.250000  1
  Cs  Cs2  1  0.500000  0.000000  0.750000  1
  Cs  Cs3  1  0.000000  0.500000  0.750000  1
  Li  Li4  1  0.000000  0.000000  0.500000  1
  Li  Li5  1  0.500000  0.500000  0.000000  1
  Cr  Cr6  1  0.000000  0.000000  0.000000  1
  Cr  Cr7  1  0.500000  0.500000  0.500000  1
  C  C8  1  0.836725  0.790120  0.000000  1
  C  C9  1  0.000000  0.000000  0.812417  1
  C  C10  1  0.663275  0.290120  0.500000  1
  C  C11  1  0.000000  0.000000  0.187583  1
  C  C12  1  0.336725  0.709880  0.500000  1
  C  C13  1  0.790120  0.163275  0.000000  1
  C  C14  1  0.500000  0.500000  0.312417  1
  C  C15  1  0.500000  0.500000  0.687583  1
  C  C16  1  0.163275  0.209880  0.000000  1
  C  C17  1  0.709880  0.663275  0.500000  1
  C  C18  1  0.290120  0.336725  0.500000  1
  C  C19  1  0.209880  0.836725  0.000000  1
  N  N20  1  0.242537  0.830931  0.500000  1
  N  N21  1  0.000000  0.000000  0.704302  1
  N  N22  1  0.169069  0.242537  0.500000  1
  N  N23  1  0.500000  0.500000  0.204302  1
  N  N24  1  0.757463  0.169069  0.500000  1
  N  N25  1  0.330931  0.742537  0.000000  1
  N  N26  1  0.742537  0.669069  0.000000  1
  N  N27  1  0.669069  0.257463  0.000000  1
  N  N28  1  0.500000  0.500000  0.795698  1
  N  N29  1  0.830931  0.757463  0.500000  1
  N  N30  1  0.000000  0.000000  0.295698  1
  N  N31  1  0.257463  0.330931  0.000000  1
