# generated using pymatgen
data_Si2Ni7P5
_symmetry_space_group_name_H-M   'P 1'
_cell_length_a   4.91350582
_cell_length_b   5.92284904
_cell_length_c   23.93746098
_cell_angle_alpha   90.00000000
_cell_angle_beta   90.00000000
_cell_angle_gamma   90.00000000
_symmetry_Int_Tables_number   1
_chemical_formula_structural   Si2Ni7P5
_chemical_formula_sum   'Si8 Ni28 P20'
_cell_volume   696.62686986
_cell_formula_units_Z   4
loop_
 _symmetry_equiv_pos_site_id
 _symmetry_equiv_pos_as_xyz
  1  'x, y, z'
loop_
 _atom_site_type_symbol
 _atom_site_label
 _atom_site_symmetry_multiplicity
 _atom_site_fract_x
 _atom_site_fract_y
 _atom_site_fract_z
 _atom_site_occupancy
  Si  Si0  1  0.219477  0.159271  0.217016  1
  Si  Si1  1  0.780523  0.340729  0.717016  1
  Si  Si2  1  0.280523  0.159271  0.782984  1
  Si  Si3  1  0.780523  0.840729  0.782984  1
  Si  Si4  1  0.280523  0.659271  0.717016  1
  Si  Si5  1  0.719477  0.840729  0.217016  1
  Si  Si6  1  0.219477  0.659271  0.282984  1
  Si  Si7  1  0.719477  0.340729  0.282984  1
  Ni  Ni8  1  0.993571  0.449434  0.360161  1
  Ni  Ni9  1  0.500933  0.466117  0.205707  1
  Ni  Ni10  1  0.006429  0.550566  0.639839  1
  Ni  Ni11  1  0.501353  0.457635  0.073770  1
  Ni  Ni12  1  0.501353  0.957635  0.426230  1
  Ni  Ni13  1  0.499067  0.533883  0.794293  1
  Ni  Ni14  1  0.500933  0.966117  0.294293  1
  Ni  Ni15  1  0.998647  0.457635  0.926230  1
  Ni  Ni16  1  0.006429  0.050566  0.860161  1
  Ni  Ni17  1  0.001353  0.042365  0.426230  1
  Ni  Ni18  1  0.493571  0.050566  0.139839  1
  Ni  Ni19  1  0.999067  0.966117  0.705707  1
  Ni  Ni20  1  0.999067  0.466117  0.794293  1
  Ni  Ni21  1  0.998647  0.957635  0.573770  1
  Ni  Ni22  1  0.000933  0.533883  0.205707  1
  Ni  Ni23  1  0.498647  0.542365  0.926230  1
  Ni  Ni24  1  0.493571  0.550566  0.360161  1
  Ni  Ni25  1  0.506429  0.949434  0.860161  1
  Ni  Ni26  1  0.000000  0.500000  0.500000  1
  Ni  Ni27  1  0.993571  0.949434  0.139839  1
  Ni  Ni28  1  0.498647  0.042365  0.573770  1
  Ni  Ni29  1  0.000933  0.033883  0.294293  1
  Ni  Ni30  1  0.506429  0.449434  0.639839  1
  Ni  Ni31  1  0.499067  0.033883  0.705707  1
  Ni  Ni32  1  0.500000  0.000000  0.000000  1
  Ni  Ni33  1  0.001353  0.542365  0.073770  1
  Ni  Ni34  1  0.000000  0.000000  0.000000  1
  Ni  Ni35  1  0.500000  0.500000  0.500000  1
  P  P36  1  0.312403  0.685323  0.142159  1
  P  P37  1  0.692360  0.822936  0.072233  1
  P  P38  1  0.192360  0.177064  0.072233  1
  P  P39  1  0.812403  0.314677  0.142159  1
  P  P40  1  0.250000  0.168628  0.500000  1
  P  P41  1  0.750000  0.831372  0.500000  1
  P  P42  1  0.312403  0.185323  0.357841  1
  P  P43  1  0.250000  0.668628  0.000000  1
  P  P44  1  0.687597  0.814677  0.642159  1
  P  P45  1  0.812403  0.814677  0.357841  1
  P  P46  1  0.807640  0.322936  0.572233  1
  P  P47  1  0.192360  0.677064  0.427767  1
  P  P48  1  0.687597  0.314677  0.857841  1
  P  P49  1  0.692360  0.322936  0.427767  1
  P  P50  1  0.307640  0.177064  0.927767  1
  P  P51  1  0.187597  0.685323  0.857841  1
  P  P52  1  0.750000  0.331372  0.000000  1
  P  P53  1  0.807640  0.822936  0.927767  1
  P  P54  1  0.187597  0.185323  0.642159  1
  P  P55  1  0.307640  0.677064  0.572233  1
