# generated using pymatgen
data_H9C5NO5
_symmetry_space_group_name_H-M   'P 1'
_cell_length_a   7.60818944
_cell_length_b   8.29119812
_cell_length_c   12.15494475
_cell_angle_alpha   90.00000000
_cell_angle_beta   95.32807389
_cell_angle_gamma   90.00000000
_symmetry_Int_Tables_number   1
_chemical_formula_structural   H9C5NO5
_chemical_formula_sum   'H36 C20 N4 O20'
_cell_volume   763.43327689
_cell_formula_units_Z   4
loop_
 _symmetry_equiv_pos_site_id
 _symmetry_equiv_pos_as_xyz
  1  'x, y, z'
loop_
 _atom_site_type_symbol
 _atom_site_label
 _atom_site_symmetry_multiplicity
 _atom_site_fract_x
 _atom_site_fract_y
 _atom_site_fract_z
 _atom_site_occupancy
  H  H0  1  0.094131  0.901211  0.172268  1
  H  H1  1  0.537385  0.854551  0.438014  1
  H  H2  1  0.629545  0.772145  0.763391  1
  H  H3  1  0.997148  0.150162  0.014246  1
  H  H4  1  0.129545  0.727855  0.263391  1
  H  H5  1  0.594131  0.598789  0.672268  1
  H  H6  1  0.667581  0.053890  0.276493  1
  H  H7  1  0.051717  0.364286  0.445704  1
  H  H8  1  0.392686  0.610942  0.136301  1
  H  H9  1  0.102210  0.964031  0.601383  1
  H  H10  1  0.314225  0.838599  0.851578  1
  H  H11  1  0.685775  0.161401  0.148422  1
  H  H12  1  0.002852  0.849838  0.985754  1
  H  H13  1  0.602210  0.535969  0.101383  1
  H  H14  1  0.448283  0.864286  0.054296  1
  H  H15  1  0.607314  0.389058  0.863699  1
  H  H16  1  0.832419  0.553890  0.223507  1
  H  H17  1  0.497148  0.349838  0.514246  1
  H  H18  1  0.948283  0.635714  0.554296  1
  H  H19  1  0.502852  0.650162  0.485754  1
  H  H20  1  0.462615  0.145449  0.561986  1
  H  H21  1  0.167581  0.446110  0.776493  1
  H  H22  1  0.551717  0.135714  0.945704  1
  H  H23  1  0.814225  0.661401  0.351578  1
  H  H24  1  0.962615  0.354551  0.061986  1
  H  H25  1  0.870455  0.272145  0.736609  1
  H  H26  1  0.370455  0.227855  0.236609  1
  H  H27  1  0.397790  0.464031  0.898617  1
  H  H28  1  0.905869  0.098789  0.827732  1
  H  H29  1  0.897790  0.035969  0.398617  1
  H  H30  1  0.107314  0.110942  0.363699  1
  H  H31  1  0.405869  0.401211  0.327732  1
  H  H32  1  0.185775  0.338599  0.648422  1
  H  H33  1  0.892686  0.889058  0.636301  1
  H  H34  1  0.332419  0.946110  0.723507  1
  H  H35  1  0.037385  0.645449  0.938014  1
  C  C36  1  0.453350  0.280749  0.306561  1
  C  C37  1  0.953350  0.219251  0.806561  1
  C  C38  1  0.046650  0.780749  0.193439  1
  C  C39  1  0.483858  0.779409  0.500963  1
  C  C40  1  0.816577  0.312298  0.499255  1
  C  C41  1  0.516142  0.220591  0.499037  1
  C  C42  1  0.785697  0.664969  0.261149  1
  C  C43  1  0.683423  0.812298  0.000745  1
  C  C44  1  0.285697  0.835031  0.761149  1
  C  C45  1  0.968387  0.141180  0.370032  1
  C  C46  1  0.468387  0.358820  0.870032  1
  C  C47  1  0.983858  0.720591  0.000963  1
  C  C48  1  0.183423  0.687702  0.500745  1
  C  C49  1  0.016142  0.279409  0.999037  1
  C  C50  1  0.546650  0.719251  0.693439  1
  C  C51  1  0.531613  0.641180  0.129968  1
  C  C52  1  0.031613  0.858820  0.629968  1
  C  C53  1  0.714303  0.164969  0.238851  1
  C  C54  1  0.316577  0.187702  0.999255  1
  C  C55  1  0.214303  0.335031  0.738851  1
  N  N56  1  0.037737  0.728204  0.551291  1
  N  N57  1  0.462263  0.228204  0.948709  1
  N  N58  1  0.537737  0.771796  0.051291  1
  N  N59  1  0.962263  0.271796  0.448709  1
  O  O60  1  0.796536  0.685340  0.994690  1
  O  O61  1  0.602489  0.682769  0.240224  1
  O  O62  1  0.397511  0.317231  0.759776  1
  O  O63  1  0.629254  0.304015  0.282217  1
  O  O64  1  0.296536  0.814660  0.494690  1
  O  O65  1  0.564745  0.829310  0.603986  1
  O  O66  1  0.207838  0.554120  0.459056  1
  O  O67  1  0.435255  0.170690  0.396014  1
  O  O68  1  0.203464  0.314660  0.005310  1
  O  O69  1  0.703464  0.185340  0.505310  1
  O  O70  1  0.897511  0.182769  0.259776  1
  O  O71  1  0.792162  0.445880  0.540944  1
  O  O72  1  0.935255  0.329310  0.896014  1
  O  O73  1  0.129254  0.195985  0.782217  1
  O  O74  1  0.102489  0.817231  0.740224  1
  O  O75  1  0.292162  0.054120  0.040944  1
  O  O76  1  0.370746  0.695985  0.717783  1
  O  O77  1  0.707838  0.945880  0.959056  1
  O  O78  1  0.870746  0.804015  0.217783  1
  O  O79  1  0.064745  0.670690  0.103986  1
