# generated using pymatgen
data_Na3Fe3(PO4)4
_symmetry_space_group_name_H-M   'P 1'
_cell_length_a   6.47055146
_cell_length_b   10.43107487
_cell_length_c   10.74064118
_cell_angle_alpha   91.74531048
_cell_angle_beta   90.00000000
_cell_angle_gamma   108.06872026
_symmetry_Int_Tables_number   1
_chemical_formula_structural   Na3Fe3(PO4)4
_chemical_formula_sum   'Na6 Fe6 P8 O32'
_cell_volume   688.83359015
_cell_formula_units_Z   2
loop_
 _symmetry_equiv_pos_site_id
 _symmetry_equiv_pos_as_xyz
  1  'x, y, z'
loop_
 _atom_site_type_symbol
 _atom_site_label
 _atom_site_symmetry_multiplicity
 _atom_site_fract_x
 _atom_site_fract_y
 _atom_site_fract_z
 _atom_site_occupancy
  Na  Na0  1  0.775877  0.833352  0.525975  1
  Na  Na1  1  0.629117  0.000000  0.250000  1
  Na  Na2  1  0.057475  0.833352  0.025975  1
  Na  Na3  1  0.224123  0.166648  0.474025  1
  Na  Na4  1  0.370883  0.000000  0.750000  1
  Na  Na5  1  0.942525  0.166648  0.974025  1
  Fe  Fe6  1  0.321447  0.686382  0.252685  1
  Fe  Fe7  1  0.000000  0.500000  0.500000  1
  Fe  Fe8  1  0.678553  0.313618  0.747315  1
  Fe  Fe9  1  0.364935  0.686382  0.752685  1
  Fe  Fe10  1  0.500000  0.500000  0.000000  1
  Fe  Fe11  1  0.635065  0.313618  0.247315  1
  P  P12  1  0.183031  0.403269  0.242997  1
  P  P13  1  0.252784  0.824686  0.509749  1
  P  P14  1  0.779762  0.596731  0.257003  1
  P  P15  1  0.816969  0.596731  0.757003  1
  P  P16  1  0.747216  0.175314  0.490251  1
  P  P17  1  0.220238  0.403269  0.742997  1
  P  P18  1  0.428097  0.175314  0.990251  1
  P  P19  1  0.571903  0.824686  0.009749  1
  O  O20  1  0.949418  0.315323  0.213513  1
  O  O21  1  0.395772  0.810047  0.114392  1
  O  O22  1  0.050582  0.684677  0.786487  1
  O  O23  1  0.798064  0.488715  0.646129  1
  O  O24  1  0.645909  0.695994  0.006251  1
  O  O25  1  0.365905  0.315323  0.713513  1
  O  O26  1  0.585724  0.189953  0.385608  1
  O  O27  1  0.624949  0.169555  0.616598  1
  O  O28  1  0.690651  0.488715  0.146129  1
  O  O29  1  0.604228  0.189953  0.885608  1
  O  O30  1  0.354091  0.304006  0.993749  1
  O  O31  1  0.634095  0.684677  0.286487  1
  O  O32  1  0.767861  0.492919  0.363554  1
  O  O33  1  0.009862  0.685212  0.226083  1
  O  O34  1  0.455394  0.830445  0.883402  1
  O  O35  1  0.725057  0.492919  0.863554  1
  O  O36  1  0.414276  0.810047  0.614392  1
  O  O37  1  0.817621  0.052061  0.460295  1
  O  O38  1  0.375051  0.830445  0.383402  1
  O  O39  1  0.309349  0.511285  0.853871  1
  O  O40  1  0.675351  0.685212  0.726083  1
  O  O41  1  0.201936  0.511285  0.353871  1
  O  O42  1  0.274943  0.507081  0.136446  1
  O  O43  1  0.949915  0.304006  0.493749  1
  O  O44  1  0.232139  0.507081  0.636446  1
  O  O45  1  0.990138  0.314788  0.773917  1
  O  O46  1  0.324649  0.314788  0.273917  1
  O  O47  1  0.050085  0.695994  0.506251  1
  O  O48  1  0.765561  0.947939  0.039705  1
  O  O49  1  0.544606  0.169555  0.116598  1
  O  O50  1  0.234439  0.052061  0.960295  1
  O  O51  1  0.182379  0.947939  0.539705  1
