# generated using pymatgen
data_BaMn2O3
_symmetry_space_group_name_H-M   'P 1'
_cell_length_a   3.66809225
_cell_length_b   4.38687137
_cell_length_c   6.27525253
_cell_angle_alpha   110.45844639
_cell_angle_beta   106.99265448
_cell_angle_gamma   89.99985172
_symmetry_Int_Tables_number   1
_chemical_formula_structural   BaMn2O3
_chemical_formula_sum   'Ba1 Mn2 O3'
_cell_volume   89.88855462
_cell_formula_units_Z   1
loop_
 _symmetry_equiv_pos_site_id
 _symmetry_equiv_pos_as_xyz
  1  'x, y, z'
loop_
 _atom_site_type_symbol
 _atom_site_label
 _atom_site_symmetry_multiplicity
 _atom_site_fract_x
 _atom_site_fract_y
 _atom_site_fract_z
 _atom_site_occupancy
  O  O0  1  0.999999  0.499999  0.999999  1
  O  O1  1  0.794290  0.794302  0.588608  1
  O  O2  1  0.205709  0.205699  0.411392  1
  Mn  Mn3  1  0.811445  0.311328  0.622700  1
  Mn  Mn4  1  0.188554  0.688671  0.377299  1
  Ba  Ba5  1  0.500000  0.999999  1.000000  1
