# generated using pymatgen
data_Zn3Co2(CN)12
_symmetry_space_group_name_H-M   'P 1'
_cell_length_a   13.03306228
_cell_length_b   13.03306278
_cell_length_c   13.03306235
_cell_angle_alpha   57.50729573
_cell_angle_beta   57.50729431
_cell_angle_gamma   57.50729605
_symmetry_Int_Tables_number   1
_chemical_formula_structural   Zn3Co2(CN)12
_chemical_formula_sum   'Zn6 Co4 C24 N24'
_cell_volume   1475.65457156
_cell_formula_units_Z   2
loop_
 _symmetry_equiv_pos_site_id
 _symmetry_equiv_pos_as_xyz
  1  'x, y, z'
loop_
 _atom_site_type_symbol
 _atom_site_label
 _atom_site_symmetry_multiplicity
 _atom_site_fract_x
 _atom_site_fract_y
 _atom_site_fract_z
 _atom_site_occupancy
  Zn  Zn0  1  0.539887  0.960113  0.250000  1
  Zn  Zn1  1  0.250000  0.539887  0.960113  1
  Zn  Zn2  1  0.960113  0.250000  0.539887  1
  Zn  Zn3  1  0.460113  0.039887  0.750000  1
  Zn  Zn4  1  0.750000  0.460113  0.039887  1
  Zn  Zn5  1  0.039887  0.750000  0.460113  1
  Co  Co6  1  0.146519  0.146519  0.146519  1
  Co  Co7  1  0.353481  0.353481  0.353481  1
  Co  Co8  1  0.853481  0.853481  0.853481  1
  Co  Co9  1  0.646519  0.646519  0.646519  1
  C  C10  1  0.292801  0.053487  0.195196  1
  C  C11  1  0.195196  0.292801  0.053487  1
  C  C12  1  0.053487  0.195196  0.292801  1
  C  C13  1  0.446513  0.207199  0.304804  1
  C  C14  1  0.304804  0.446513  0.207199  1
  C  C15  1  0.207199  0.304804  0.446513  1
  C  C16  1  0.707199  0.946513  0.804804  1
  C  C17  1  0.804804  0.707199  0.946513  1
  C  C18  1  0.946513  0.804804  0.707199  1
  C  C19  1  0.553487  0.792801  0.695196  1
  C  C20  1  0.695196  0.553487  0.792801  1
  C  C21  1  0.792801  0.695196  0.553487  1
  N  N22  1  0.383850  0.999468  0.225311  1
  N  N23  1  0.225311  0.383850  0.999468  1
  N  N24  1  0.999468  0.225311  0.383850  1
  N  N25  1  0.500532  0.116150  0.274689  1
  N  N26  1  0.274689  0.500532  0.116150  1
  N  N27  1  0.116150  0.274689  0.500532  1
  N  N28  1  0.616150  0.000532  0.774689  1
  N  N29  1  0.774689  0.616150  0.000532  1
  N  N30  1  0.000532  0.774689  0.616150  1
  N  N31  1  0.499468  0.883850  0.725311  1
  N  N32  1  0.725311  0.499468  0.883850  1
  N  N33  1  0.883850  0.725311  0.499468  1
  C  C34  1  0.245502  0.099089  0.999231  1
  C  C35  1  0.999231  0.245502  0.099089  1
  C  C36  1  0.099089  0.999231  0.245502  1
  C  C37  1  0.400911  0.254498  0.500769  1
  C  C38  1  0.500769  0.400911  0.254498  1
  C  C39  1  0.254498  0.500769  0.400911  1
  C  C40  1  0.754498  0.900911  0.000769  1
  C  C41  1  0.000769  0.754498  0.900911  1
  C  C42  1  0.900911  0.000769  0.754498  1
  C  C43  1  0.599089  0.745502  0.499231  1
  C  C44  1  0.499231  0.599089  0.745502  1
  C  C45  1  0.745502  0.499231  0.599089  1
  N  N46  1  0.312641  0.071003  0.906152  1
  N  N47  1  0.906152  0.312641  0.071003  1
  N  N48  1  0.071003  0.906152  0.312641  1
  N  N49  1  0.428997  0.187359  0.593848  1
  N  N50  1  0.593848  0.428997  0.187359  1
  N  N51  1  0.187359  0.593848  0.428997  1
  N  N52  1  0.687359  0.928997  0.093848  1
  N  N53  1  0.093848  0.687359  0.928997  1
  N  N54  1  0.928997  0.093848  0.687359  1
  N  N55  1  0.571003  0.812641  0.406152  1
  N  N56  1  0.406152  0.571003  0.812641  1
  N  N57  1  0.812641  0.406152  0.571003  1
