# generated using pymatgen
data_Pr2Al19Co6
_symmetry_space_group_name_H-M   'P 1'
_cell_length_a   8.22714530
_cell_length_b   10.68696224
_cell_length_c   10.68696240
_cell_angle_alpha   68.87938154
_cell_angle_beta   78.52721945
_cell_angle_gamma   78.52722254
_symmetry_Int_Tables_number   1
_chemical_formula_structural   Pr2Al19Co6
_chemical_formula_sum   'Pr4 Al38 Co12'
_cell_volume   850.63788261
_cell_formula_units_Z   2
loop_
 _symmetry_equiv_pos_site_id
 _symmetry_equiv_pos_as_xyz
  1  'x, y, z'
loop_
 _atom_site_type_symbol
 _atom_site_label
 _atom_site_symmetry_multiplicity
 _atom_site_fract_x
 _atom_site_fract_y
 _atom_site_fract_z
 _atom_site_occupancy
  Pr  Pr0  1  0.257481  0.720776  0.720776  1
  Pr  Pr1  1  0.742519  0.279224  0.279224  1
  Pr  Pr2  1  0.771624  0.719986  0.719986  1
  Pr  Pr3  1  0.228376  0.280014  0.280014  1
  Al  Al4  1  1.000000  0.830534  0.169465  1
  Al  Al5  1  0.447950  0.521467  0.185257  1
  Al  Al6  1  0.647560  0.918396  0.918396  1
  Al  Al7  1  0.047198  0.049969  0.275743  1
  Al  Al8  1  0.943795  0.187911  0.537806  1
  Al  Al9  1  0.845361  0.669336  0.435081  1
  Al  Al10  1  0.648690  0.562397  0.330053  1
  Al  Al11  1  0.761603  0.502323  0.001132  1
  Al  Al12  1  0.447950  0.185257  0.521467  1
  Al  Al13  1  0.465110  0.937034  0.703807  1
  Al  Al14  1  0.534890  0.296193  0.062966  1
  Al  Al15  1  0.552050  0.814743  0.478533  1
  Al  Al16  1  0.534890  0.062966  0.296193  1
  Al  Al17  1  0.238397  0.497677  0.998868  1
  Al  Al18  1  0.056205  0.462194  0.812089  1
  Al  Al19  1  0.465110  0.703807  0.937034  1
  Al  Al20  1  0.351310  0.669947  0.437603  1
  Al  Al21  1  0.845361  0.435081  0.669336  1
  Al  Al22  1  0.238397  0.998868  0.497677  1
  Al  Al23  1  0.761603  0.001132  0.502323  1
  Al  Al24  1  0.952802  0.724257  0.950031  1
  Al  Al25  1  0.363867  0.799733  0.148451  1
  Al  Al26  1  0.363867  0.148451  0.799733  1
  Al  Al27  1  0.817639  0.086491  0.086491  1
  Al  Al28  1  0.154639  0.330664  0.564919  1
  Al  Al29  1  0.182361  0.913509  0.913509  1
  Al  Al30  1  0.047198  0.275743  0.049969  1
  Al  Al31  1  0.636133  0.200267  0.851549  1
  Al  Al32  1  0.952802  0.950031  0.724257  1
  Al  Al33  1  0.000000  0.169465  0.830534  1
  Al  Al34  1  0.056205  0.812089  0.462194  1
  Al  Al35  1  0.154639  0.564919  0.330664  1
  Al  Al36  1  0.943795  0.537806  0.187911  1
  Al  Al37  1  0.552050  0.478533  0.814743  1
  Al  Al38  1  0.648690  0.330053  0.562397  1
  Al  Al39  1  0.351310  0.437603  0.669947  1
  Al  Al40  1  0.352440  0.081604  0.081604  1
  Al  Al41  1  0.636133  0.851549  0.200267  1
  Co  Co42  1  0.594628  0.561342  0.561342  1
  Co  Co43  1  0.905877  0.438466  0.438466  1
  Co  Co44  1  0.189062  0.680920  0.079460  1
  Co  Co45  1  0.405372  0.438658  0.438658  1
  Co  Co46  1  0.672761  0.685448  0.082444  1
  Co  Co47  1  0.810938  0.319080  0.920540  1
  Co  Co48  1  0.094123  0.561534  0.561534  1
  Co  Co49  1  0.189062  0.079460  0.680920  1
  Co  Co50  1  0.672761  0.082444  0.685448  1
  Co  Co51  1  0.327239  0.314552  0.917556  1
  Co  Co52  1  0.810938  0.920540  0.319080  1
  Co  Co53  1  0.327239  0.917556  0.314552  1
