# generated using pymatgen
data_GaH13(C2N)2
_symmetry_space_group_name_H-M   'P 1'
_cell_length_a   6.43314138
_cell_length_b   7.16619360
_cell_length_c   8.84567839
_cell_angle_alpha   81.74643242
_cell_angle_beta   73.55040416
_cell_angle_gamma   76.63519109
_symmetry_Int_Tables_number   1
_chemical_formula_structural   GaH13(C2N)2
_chemical_formula_sum   'Ga2 H26 C8 N4'
_cell_volume   379.17736812
_cell_formula_units_Z   2
loop_
 _symmetry_equiv_pos_site_id
 _symmetry_equiv_pos_as_xyz
  1  'x, y, z'
loop_
 _atom_site_type_symbol
 _atom_site_label
 _atom_site_symmetry_multiplicity
 _atom_site_fract_x
 _atom_site_fract_y
 _atom_site_fract_z
 _atom_site_occupancy
  Ga  Ga0  1  0.451919  0.910992  0.874899  1
  Ga  Ga1  1  0.548081  0.089008  0.125101  1
  H  H2  1  0.284969  0.624307  0.186458  1
  H  H3  1  0.288532  0.362465  0.775245  1
  H  H4  1  0.033978  0.157246  0.432425  1
  H  H5  1  0.711468  0.637535  0.224755  1
  H  H6  1  0.951743  0.787841  0.772232  1
  H  H7  1  0.407061  0.761260  0.606969  1
  H  H8  1  0.978035  0.600914  0.651619  1
  H  H9  1  0.341022  0.407967  0.454287  1
  H  H10  1  0.311927  0.761787  0.329995  1
  H  H11  1  0.715031  0.375693  0.813542  1
  H  H12  1  0.794372  0.077285  0.124011  1
  H  H13  1  0.848597  0.128092  0.805464  1
  H  H14  1  0.641017  0.837826  0.470765  1
  H  H15  1  0.688073  0.238213  0.670005  1
  H  H16  1  0.847759  0.711715  0.028171  1
  H  H17  1  0.679968  0.535300  0.062537  1
  H  H18  1  0.048257  0.212159  0.227768  1
  H  H19  1  0.966022  0.842754  0.567575  1
  H  H20  1  0.592939  0.238740  0.393031  1
  H  H21  1  0.152241  0.288285  0.971829  1
  H  H22  1  0.021965  0.399086  0.348381  1
  H  H23  1  0.320032  0.464700  0.937463  1
  H  H24  1  0.658978  0.592033  0.545713  1
  H  H25  1  0.205628  0.922715  0.875989  1
  H  H26  1  0.358983  0.162174  0.529235  1
  H  H27  1  0.151403  0.871908  0.194536  1
  C  C28  1  0.102953  0.247684  0.325113  1
  C  C29  1  0.698375  0.232144  0.793045  1
  C  C30  1  0.411753  0.258431  0.421362  1
  C  C31  1  0.897047  0.752316  0.674887  1
  C  C32  1  0.694911  0.669445  0.102390  1
  C  C33  1  0.305089  0.330555  0.897610  1
  C  C34  1  0.588247  0.741569  0.578638  1
  C  C35  1  0.301625  0.767856  0.206955  1
  N  N36  1  0.658895  0.779303  0.711020  1
  N  N37  1  0.341105  0.220697  0.288980  1
  N  N38  1  0.500511  0.823830  0.094567  1
  N  N39  1  0.499489  0.176170  0.905433  1
