# generated using pymatgen
data_CoSeO4
_symmetry_space_group_name_H-M   'P 1'
_cell_length_a   4.98916051
_cell_length_b   6.85235190
_cell_length_c   9.12475912
_cell_angle_alpha   90.00000000
_cell_angle_beta   90.00000000
_cell_angle_gamma   90.00000000
_symmetry_Int_Tables_number   1
_chemical_formula_structural   CoSeO4
_chemical_formula_sum   'Co4 Se4 O16'
_cell_volume   311.95255186
_cell_formula_units_Z   4
loop_
 _symmetry_equiv_pos_site_id
 _symmetry_equiv_pos_as_xyz
  1  'x, y, z'
loop_
 _atom_site_type_symbol
 _atom_site_label
 _atom_site_symmetry_multiplicity
 _atom_site_fract_x
 _atom_site_fract_y
 _atom_site_fract_z
 _atom_site_occupancy
  O  O0  1  0.176630  0.456368  0.623431  1
  O  O1  1  0.676629  0.543632  0.876569  1
  O  O2  1  0.823370  0.956369  0.376570  1
  O  O3  1  0.323370  0.043631  0.123430  1
  O  O4  1  0.823370  0.543632  0.376570  1
  O  O5  1  0.323370  0.456368  0.123430  1
  O  O6  1  0.176630  0.043631  0.623431  1
  O  O7  1  0.676629  0.956369  0.876569  1
  O  O8  1  0.210164  0.750000  0.880879  1
  O  O9  1  0.710166  0.250000  0.619121  1
  O  O10  1  0.789835  0.250000  0.119121  1
  O  O11  1  0.289836  0.750000  0.380879  1
  O  O12  1  0.936032  0.750000  0.134627  1
  O  O13  1  0.063967  0.250000  0.865373  1
  O  O14  1  0.436033  0.250000  0.365374  1
  O  O15  1  0.563967  0.750000  0.634627  1
  Co  Co16  1  0.000000  0.000000  0.000000  1
  Co  Co17  1  0.500000  0.000000  0.500000  1
  Co  Co18  1  0.000000  0.500001  0.000000  1
  Co  Co19  1  0.500000  0.500001  0.500000  1
  Se  Se20  1  0.530436  0.750000  0.821154  1
  Se  Se21  1  0.030436  0.250000  0.678847  1
  Se  Se22  1  0.469563  0.250000  0.178847  1
  Se  Se23  1  0.969563  0.750000  0.321154  1
