# generated using pymatgen
data_PbI2
_symmetry_space_group_name_H-M   'P 1'
_cell_length_a   4.66309751
_cell_length_b   4.66309772
_cell_length_c   53.25963578
_cell_angle_alpha   90.00000000
_cell_angle_beta   90.00000000
_cell_angle_gamma   119.99999844
_symmetry_Int_Tables_number   1
_chemical_formula_structural   PbI2
_chemical_formula_sum   'Pb7 I14'
_cell_volume   1002.94667857
_cell_formula_units_Z   7
loop_
 _symmetry_equiv_pos_site_id
 _symmetry_equiv_pos_as_xyz
  1  'x, y, z'
loop_
 _atom_site_type_symbol
 _atom_site_label
 _atom_site_symmetry_multiplicity
 _atom_site_fract_x
 _atom_site_fract_y
 _atom_site_fract_z
 _atom_site_occupancy
  Pb  Pb0  1  0.333333  0.666667  0.180848  1
  Pb  Pb1  1  0.333333  0.666667  0.466313  1
  Pb  Pb2  1  0.000000  0.000000  0.895099  1
  Pb  Pb3  1  0.333333  0.666667  0.751726  1
  Pb  Pb4  1  0.333333  0.666667  0.608995  1
  Pb  Pb5  1  0.333333  0.666667  0.323818  1
  Pb  Pb6  1  0.333333  0.666667  0.038198  1
  I  I7  1  0.666667  0.333333  0.930292  1
  I  I8  1  0.000000  0.000000  0.431142  1
  I  I9  1  0.666667  0.333333  0.073383  1
  I  I10  1  0.666667  0.333333  0.786917  1
  I  I11  1  0.000000  0.000000  0.145649  1
  I  I12  1  0.666667  0.333333  0.359006  1
  I  I13  1  0.333333  0.666667  0.859907  1
  I  I14  1  0.000000  0.000000  0.003038  1
  I  I15  1  0.666667  0.333333  0.644176  1
  I  I16  1  0.000000  0.000000  0.573797  1
  I  I17  1  0.000000  0.000000  0.288679  1
  I  I18  1  0.666667  0.333333  0.216013  1
  I  I19  1  0.666667  0.333333  0.501446  1
  I  I20  1  0.000000  0.000000  0.716558  1
