# generated using pymatgen
data_Te2AsCNF6
_symmetry_space_group_name_H-M   'P 1'
_cell_length_a   6.95752393
_cell_length_b   10.60263042
_cell_length_c   12.26963539
_cell_angle_alpha   90.00000000
_cell_angle_beta   95.48005953
_cell_angle_gamma   90.00000000
_symmetry_Int_Tables_number   1
_chemical_formula_structural   Te2AsCNF6
_chemical_formula_sum   'Te8 As4 C4 N4 F24'
_cell_volume   900.97033992
_cell_formula_units_Z   4
loop_
 _symmetry_equiv_pos_site_id
 _symmetry_equiv_pos_as_xyz
  1  'x, y, z'
loop_
 _atom_site_type_symbol
 _atom_site_label
 _atom_site_symmetry_multiplicity
 _atom_site_fract_x
 _atom_site_fract_y
 _atom_site_fract_z
 _atom_site_occupancy
  Te  Te0  1  0.867741  0.093472  0.603082  1
  Te  Te1  1  0.401649  0.654208  0.054211  1
  Te  Te2  1  0.901649  0.845792  0.554211  1
  Te  Te3  1  0.598351  0.345792  0.945789  1
  Te  Te4  1  0.132259  0.906528  0.396918  1
  Te  Te5  1  0.367741  0.406528  0.103082  1
  Te  Te6  1  0.098351  0.154208  0.445789  1
  Te  Te7  1  0.632259  0.593472  0.896918  1
  As  As8  1  0.531408  0.055029  0.212008  1
  As  As9  1  0.031408  0.444971  0.712008  1
  As  As10  1  0.468592  0.944971  0.787992  1
  As  As11  1  0.968592  0.555029  0.287992  1
  C  C12  1  0.996216  0.935809  0.993038  1
  C  C13  1  0.003784  0.064191  0.006962  1
  C  C14  1  0.496216  0.564191  0.493038  1
  C  C15  1  0.503784  0.435809  0.506962  1
  N  N16  1  0.489824  0.673509  0.481097  1
  N  N17  1  0.510176  0.326491  0.518903  1
  N  N18  1  0.010176  0.173509  0.018903  1
  N  N19  1  0.989824  0.826491  0.981097  1
  F  F20  1  0.311933  0.818496  0.750232  1
  F  F21  1  0.221683  0.534008  0.666891  1
  F  F22  1  0.778317  0.465992  0.333110  1
  F  F23  1  0.929689  0.489689  0.154701  1
  F  F24  1  0.519025  0.875695  0.920902  1
  F  F25  1  0.364865  0.931667  0.173127  1
  F  F26  1  0.070311  0.510311  0.845299  1
  F  F27  1  0.811933  0.681504  0.250232  1
  F  F28  1  0.019025  0.624305  0.420902  1
  F  F29  1  0.864865  0.568333  0.673127  1
  F  F30  1  0.832166  0.355831  0.756345  1
  F  F31  1  0.667834  0.855831  0.743655  1
  F  F32  1  0.980975  0.375695  0.579098  1
  F  F33  1  0.167834  0.644169  0.243655  1
  F  F34  1  0.429689  0.010311  0.654701  1
  F  F35  1  0.721683  0.965992  0.166890  1
  F  F36  1  0.480975  0.124305  0.079098  1
  F  F37  1  0.135135  0.431667  0.326873  1
  F  F38  1  0.635135  0.068333  0.826873  1
  F  F39  1  0.570311  0.989689  0.345299  1
  F  F40  1  0.688067  0.181504  0.249768  1
  F  F41  1  0.188067  0.318496  0.749768  1
  F  F42  1  0.278317  0.034008  0.833109  1
  F  F43  1  0.332166  0.144169  0.256345  1
