# generated using pymatgen
data_Mn2Fe(CN)6
_symmetry_space_group_name_H-M   'P 1'
_cell_length_a   6.03665902
_cell_length_b   6.03665862
_cell_length_c   6.42802622
_cell_angle_alpha   90.00000000
_cell_angle_beta   90.00000000
_cell_angle_gamma   120.00000230
_symmetry_Int_Tables_number   1
_chemical_formula_structural   Mn2Fe(CN)6
_chemical_formula_sum   'Mn2 Fe1 C6 N6'
_cell_volume   202.86238317
_cell_formula_units_Z   1
loop_
 _symmetry_equiv_pos_site_id
 _symmetry_equiv_pos_as_xyz
  1  'x, y, z'
loop_
 _atom_site_type_symbol
 _atom_site_label
 _atom_site_symmetry_multiplicity
 _atom_site_fract_x
 _atom_site_fract_y
 _atom_site_fract_z
 _atom_site_occupancy
  Mn  Mn0  1  0.333333  0.666667  0.500316  1
  Mn  Mn1  1  0.666667  0.333333  0.499684  1
  Fe  Fe2  1  0.000000  0.000000  0.000000  1
  C  C3  1  0.998706  0.756611  0.821097  1
  C  C4  1  0.242095  0.998706  0.178903  1
  C  C5  1  0.001294  0.243389  0.178903  1
  C  C6  1  0.243389  0.242095  0.821097  1
  C  C7  1  0.756611  0.757905  0.178903  1
  C  C8  1  0.757905  0.001294  0.821097  1
  N  N9  1  0.617942  0.000649  0.690939  1
  N  N10  1  0.000649  0.382707  0.309061  1
  N  N11  1  0.617293  0.617942  0.309061  1
  N  N12  1  0.999351  0.617293  0.690939  1
  N  N13  1  0.382058  0.999351  0.309061  1
  N  N14  1  0.382707  0.382058  0.690939  1
