# generated using pymatgen
data_Tl5Se3
_symmetry_space_group_name_H-M   'P 1'
_cell_length_a   8.48954262
_cell_length_b   8.48954262
_cell_length_c   13.59182876
_cell_angle_alpha   90.00000000
_cell_angle_beta   90.00000000
_cell_angle_gamma   90.00000000
_symmetry_Int_Tables_number   1
_chemical_formula_structural   Tl5Se3
_chemical_formula_sum   'Tl20 Se12'
_cell_volume   979.59482066
_cell_formula_units_Z   4
loop_
 _symmetry_equiv_pos_site_id
 _symmetry_equiv_pos_as_xyz
  1  'x, y, z'
loop_
 _atom_site_type_symbol
 _atom_site_label
 _atom_site_symmetry_multiplicity
 _atom_site_fract_x
 _atom_site_fract_y
 _atom_site_fract_z
 _atom_site_occupancy
  Tl  Tl0  1  0.418746  0.875404  0.100245  1
  Tl  Tl1  1  0.128587  0.574389  0.401282  1
  Tl  Tl2  1  0.375404  0.581254  0.899755  1
  Tl  Tl3  1  0.425611  0.628587  0.598718  1
  Tl  Tl4  1  0.925611  0.128587  0.401282  1
  Tl  Tl5  1  0.124596  0.918746  0.899755  1
  Tl  Tl6  1  0.871413  0.425611  0.598718  1
  Tl  Tl7  1  0.574389  0.371413  0.401282  1
  Tl  Tl8  1  0.628587  0.074389  0.598718  1
  Tl  Tl9  1  0.875404  0.081254  0.100245  1
  Tl  Tl10  1  0.250000  0.250000  0.208377  1
  Tl  Tl11  1  0.250000  0.250000  0.708974  1
  Tl  Tl12  1  0.371413  0.925611  0.401282  1
  Tl  Tl13  1  0.581254  0.124596  0.899755  1
  Tl  Tl14  1  0.750000  0.750000  0.791623  1
  Tl  Tl15  1  0.074389  0.871413  0.598718  1
  Tl  Tl16  1  0.918746  0.375404  0.899755  1
  Tl  Tl17  1  0.081254  0.624596  0.100245  1
  Tl  Tl18  1  0.624596  0.418746  0.100245  1
  Tl  Tl19  1  0.750000  0.750000  0.291026  1
  Se  Se20  1  0.069335  0.599408  0.753500  1
  Se  Se21  1  0.750000  0.750000  0.515669  1
  Se  Se22  1  0.750000  0.750000  1.001464  1
  Se  Se23  1  0.430665  0.900592  0.753500  1
  Se  Se24  1  0.400592  0.569335  0.246500  1
  Se  Se25  1  0.569335  0.099408  0.246500  1
  Se  Se26  1  0.250000  0.250000  0.484331  1
  Se  Se27  1  0.250000  0.250000  -0.001464  1
  Se  Se28  1  0.099408  0.930665  0.246500  1
  Se  Se29  1  0.599408  0.430665  0.753500  1
  Se  Se30  1  0.900592  0.069335  0.753500  1
  Se  Se31  1  0.930665  0.400592  0.246500  1
