# generated using pymatgen
data_Mg7Si8(O11F)2
_symmetry_space_group_name_H-M   'P 1'
_cell_length_a   5.36648828
_cell_length_b   9.46772416
_cell_length_c   18.08793566
_cell_angle_alpha   90.00000000
_cell_angle_beta   90.00000000
_cell_angle_gamma   90.00000000
_symmetry_Int_Tables_number   1
_chemical_formula_structural   Mg7Si8(O11F)2
_chemical_formula_sum   'Mg14 Si16 O44 F4'
_cell_volume   919.01962626
_cell_formula_units_Z   2
loop_
 _symmetry_equiv_pos_site_id
 _symmetry_equiv_pos_as_xyz
  1  'x, y, z'
loop_
 _atom_site_type_symbol
 _atom_site_label
 _atom_site_symmetry_multiplicity
 _atom_site_fract_x
 _atom_site_fract_y
 _atom_site_fract_z
 _atom_site_occupancy
  Mg  Mg0  1  0.000000  0.500000  0.588362  1
  Mg  Mg1  1  0.500000  0.500000  0.678091  1
  Mg  Mg2  1  0.500000  0.000000  0.741331  1
  Mg  Mg3  1  0.000000  0.500000  0.241331  1
  Mg  Mg4  1  0.500000  0.500000  0.321909  1
  Mg  Mg5  1  0.500000  0.000000  0.258669  1
  Mg  Mg6  1  0.000000  0.500000  0.758669  1
  Mg  Mg7  1  0.000000  0.500000  0.411638  1
  Mg  Mg8  1  0.000000  0.000000  0.000000  1
  Mg  Mg9  1  0.500000  0.000000  0.911638  1
  Mg  Mg10  1  0.000000  0.000000  0.178091  1
  Mg  Mg11  1  0.500000  0.000000  0.088362  1
  Mg  Mg12  1  0.000000  0.000000  0.821909  1
  Mg  Mg13  1  0.500000  0.500000  0.500000  1
  Si  Si14  1  0.325915  0.785173  0.584348  1
  Si  Si15  1  0.671084  0.294001  0.829244  1
  Si  Si16  1  0.674085  0.214827  0.584348  1
  Si  Si17  1  0.674085  0.214827  0.415652  1
  Si  Si18  1  0.828916  0.794001  0.670756  1
  Si  Si19  1  0.825915  0.714827  0.915652  1
  Si  Si20  1  0.171084  0.205999  0.329244  1
  Si  Si21  1  0.171084  0.205999  0.670756  1
  Si  Si22  1  0.328916  0.705999  0.170756  1
  Si  Si23  1  0.325915  0.785173  0.415652  1
  Si  Si24  1  0.671084  0.294001  0.170756  1
  Si  Si25  1  0.328916  0.705999  0.829244  1
  Si  Si26  1  0.828916  0.794001  0.329244  1
  Si  Si27  1  0.174085  0.285173  0.084348  1
  Si  Si28  1  0.825915  0.714827  0.084348  1
  Si  Si29  1  0.174085  0.285173  0.915652  1
  O  O30  1  0.068571  0.844324  0.620887  1
  O  O31  1  0.650526  0.156006  0.500000  1
  O  O32  1  0.184623  0.120350  0.747625  1
  O  O33  1  0.166933  0.112432  0.085652  1
  O  O34  1  0.815377  0.879650  0.747625  1
  O  O35  1  0.684623  0.379650  0.752375  1
  O  O36  1  0.666933  0.387568  0.414348  1
  O  O37  1  0.170075  0.379740  0.674230  1
  O  O38  1  0.333067  0.612432  0.585652  1
  O  O39  1  0.940192  0.349296  0.866866  1
  O  O40  1  0.829925  0.620260  0.325770  1
  O  O41  1  0.829925  0.620260  0.674230  1
  O  O42  1  0.670075  0.120260  0.174230  1
  O  O43  1  0.329925  0.879740  0.825770  1
  O  O44  1  0.568571  0.655676  0.879113  1
  O  O45  1  0.431429  0.344324  0.120887  1
  O  O46  1  0.833067  0.887568  0.085652  1
  O  O47  1  0.333067  0.612432  0.414348  1
  O  O48  1  0.170075  0.379740  0.325770  1
  O  O49  1  0.684623  0.379650  0.247625  1
  O  O50  1  0.666933  0.387568  0.585652  1
  O  O51  1  0.833067  0.887568  0.914348  1
  O  O52  1  0.815377  0.879650  0.252375  1
  O  O53  1  0.184623  0.120350  0.252375  1
  O  O54  1  0.931429  0.155676  0.620887  1
  O  O55  1  0.440192  0.150704  0.366866  1
  O  O56  1  0.059808  0.650704  0.133134  1
  O  O57  1  0.440192  0.150704  0.633134  1
  O  O58  1  0.940192  0.349296  0.133134  1
  O  O59  1  0.670075  0.120260  0.825770  1
  O  O60  1  0.150526  0.343994  0.000000  1
  O  O61  1  0.315377  0.620350  0.247625  1
  O  O62  1  0.931429  0.155676  0.379113  1
  O  O63  1  0.329925  0.879740  0.174230  1
  O  O64  1  0.559808  0.849296  0.366866  1
  O  O65  1  0.068571  0.844324  0.379113  1
  O  O66  1  0.849474  0.656006  0.000000  1
  O  O67  1  0.559808  0.849296  0.633134  1
  O  O68  1  0.568571  0.655676  0.120887  1
  O  O69  1  0.431429  0.344324  0.879113  1
  O  O70  1  0.349474  0.843994  0.500000  1
  O  O71  1  0.059808  0.650704  0.866866  1
  O  O72  1  0.166933  0.112432  0.914348  1
  O  O73  1  0.315377  0.620350  0.752375  1
  F  F74  1  0.835291  0.602906  0.500000  1
  F  F75  1  0.335291  0.897094  0.000000  1
  F  F76  1  0.664709  0.102906  0.000000  1
  F  F77  1  0.164709  0.397094  0.500000  1
