# generated using pymatgen
data_Zr3Pb(O2F3)2
_symmetry_space_group_name_H-M   'P 1'
_cell_length_a   7.84093542
_cell_length_b   7.84093546
_cell_length_c   7.84093612
_cell_angle_alpha   60.00000161
_cell_angle_beta   60.00000140
_cell_angle_gamma   60.00000367
_symmetry_Int_Tables_number   1
_chemical_formula_structural   Zr3Pb(O2F3)2
_chemical_formula_sum   'Zr6 Pb2 O8 F12'
_cell_volume   340.86993320
_cell_formula_units_Z   2
loop_
 _symmetry_equiv_pos_site_id
 _symmetry_equiv_pos_as_xyz
  1  'x, y, z'
loop_
 _atom_site_type_symbol
 _atom_site_label
 _atom_site_symmetry_multiplicity
 _atom_site_fract_x
 _atom_site_fract_y
 _atom_site_fract_z
 _atom_site_occupancy
  Pb  Pb0  1  0.250000  0.250000  0.250000  1
  Pb  Pb1  1  0.750000  0.750000  0.750000  1
  Zr  Zr2  1  0.777116  0.222884  0.222884  1
  Zr  Zr3  1  0.777116  0.777116  0.222884  1
  Zr  Zr4  1  0.222884  0.222884  0.777116  1
  Zr  Zr5  1  0.777116  0.222884  0.777116  1
  Zr  Zr6  1  0.222884  0.777116  0.222884  1
  Zr  Zr7  1  0.222884  0.777116  0.777116  1
  O  O8  1  0.115771  0.115771  0.115771  1
  O  O9  1  0.884229  0.884229  0.347312  1
  O  O10  1  0.347312  0.884229  0.884229  1
  O  O11  1  0.884229  0.347312  0.884229  1
  O  O12  1  0.652688  0.115771  0.115771  1
  O  O13  1  0.115771  0.652688  0.115771  1
  O  O14  1  0.115771  0.115771  0.652688  1
  O  O15  1  0.884229  0.884229  0.884229  1
  F  F16  1  0.828025  0.500000  0.500000  1
  F  F17  1  0.500000  0.500000  0.828025  1
  F  F18  1  0.828025  0.171975  0.500000  1
  F  F19  1  0.500000  0.828025  0.171975  1
  F  F20  1  0.500000  0.171975  0.828025  1
  F  F21  1  0.500000  0.828025  0.500000  1
  F  F22  1  0.828025  0.500000  0.171975  1
  F  F23  1  0.171975  0.828025  0.500000  1
  F  F24  1  0.500000  0.171975  0.500000  1
  F  F25  1  0.171975  0.500000  0.828025  1
  F  F26  1  0.500000  0.500000  0.171975  1
  F  F27  1  0.171975  0.500000  0.500000  1
