# generated using pymatgen
data_Cs4Sn2Au7
_symmetry_space_group_name_H-M   'P 1'
_cell_length_a   10.86849188
_cell_length_b   10.86849192
_cell_length_c   10.86849228
_cell_angle_alpha   37.71051710
_cell_angle_beta   37.71051689
_cell_angle_gamma   37.71051572
_symmetry_Int_Tables_number   1
_chemical_formula_structural   Cs4Sn2Au7
_chemical_formula_sum   'Cs4 Sn2 Au7'
_cell_volume   430.94287818
_cell_formula_units_Z   1
loop_
 _symmetry_equiv_pos_site_id
 _symmetry_equiv_pos_as_xyz
  1  'x, y, z'
loop_
 _atom_site_type_symbol
 _atom_site_label
 _atom_site_symmetry_multiplicity
 _atom_site_fract_x
 _atom_site_fract_y
 _atom_site_fract_z
 _atom_site_occupancy
  Cs  Cs0  1  0.813181  0.813181  0.813181  1
  Cs  Cs1  1  0.685018  0.685018  0.685018  1
  Cs  Cs2  1  0.314982  0.314982  0.314982  1
  Cs  Cs3  1  0.186819  0.186819  0.186819  1
  Sn  Sn4  1  0.449497  0.449497  0.449497  1
  Sn  Sn5  1  0.550503  0.550503  0.550503  1
  Au  Au6  1  0.787910  0.787910  0.193994  1
  Au  Au7  1  0.806006  0.212090  0.212090  1
  Au  Au8  1  0.193994  0.787910  0.787910  1
  Au  Au9  1  0.212090  0.806006  0.212090  1
  Au  Au10  1  0.787910  0.193994  0.787910  1
  Au  Au11  1  0.000000  0.000000  0.000000  1
  Au  Au12  1  0.212090  0.212090  0.806006  1
