# generated using pymatgen
data_SiO2
_symmetry_space_group_name_H-M   'P 1'
_cell_length_a   15.56206379
_cell_length_b   15.56206419
_cell_length_c   15.56206412
_cell_angle_alpha   60.00000015
_cell_angle_beta   59.99999929
_cell_angle_gamma   59.99999901
_symmetry_Int_Tables_number   1
_chemical_formula_structural   SiO2
_chemical_formula_sum   'Si48 O96'
_cell_volume   2664.93481799
_cell_formula_units_Z   48
loop_
 _symmetry_equiv_pos_site_id
 _symmetry_equiv_pos_as_xyz
  1  'x, y, z'
loop_
 _atom_site_type_symbol
 _atom_site_label
 _atom_site_symmetry_multiplicity
 _atom_site_fract_x
 _atom_site_fract_y
 _atom_site_fract_z
 _atom_site_occupancy
  Si  Si0  1  0.700198  0.169619  0.635526  1
  Si  Si1  1  0.299802  0.364474  0.005343  1
  Si  Si2  1  0.200198  0.135526  0.669619  1
  Si  Si3  1  0.330381  0.799802  0.864474  1
  Si  Si4  1  0.505343  0.799802  0.330381  1
  Si  Si5  1  0.830381  0.005343  0.364474  1
  Si  Si6  1  0.994657  0.635526  0.169619  1
  Si  Si7  1  0.364474  0.005343  0.299802  1
  Si  Si8  1  0.830381  0.299802  0.005343  1
  Si  Si9  1  0.494657  0.135526  0.200198  1
  Si  Si10  1  0.700198  0.994657  0.169619  1
  Si  Si11  1  0.200198  0.494657  0.135526  1
  Si  Si12  1  0.494657  0.669619  0.135526  1
  Si  Si13  1  0.169619  0.635526  0.700198  1
  Si  Si14  1  0.505343  0.864474  0.799802  1
  Si  Si15  1  0.135526  0.494657  0.669619  1
  Si  Si16  1  0.299802  0.005343  0.830381  1
  Si  Si17  1  0.994657  0.169619  0.700198  1
  Si  Si18  1  0.330381  0.864474  0.505343  1
  Si  Si19  1  0.635526  0.169619  0.994657  1
  Si  Si20  1  0.864474  0.330381  0.799802  1
  Si  Si21  1  0.669619  0.200198  0.135526  1
  Si  Si22  1  0.005343  0.299802  0.364474  1
  Si  Si23  1  0.200198  0.669619  0.494657  1
  Si  Si24  1  0.169619  0.994657  0.635526  1
  Si  Si25  1  0.005343  0.830381  0.299802  1
  Si  Si26  1  0.135526  0.200198  0.494657  1
  Si  Si27  1  0.635526  0.994657  0.700198  1
  Si  Si28  1  0.799802  0.330381  0.505343  1
  Si  Si29  1  0.864474  0.799802  0.505343  1
  Si  Si30  1  0.505343  0.330381  0.864474  1
  Si  Si31  1  0.799802  0.864474  0.330381  1
  Si  Si32  1  0.864474  0.505343  0.330381  1
  Si  Si33  1  0.364474  0.830381  0.005343  1
  Si  Si34  1  0.994657  0.700198  0.635526  1
  Si  Si35  1  0.799802  0.505343  0.864474  1
  Si  Si36  1  0.494657  0.200198  0.669619  1
  Si  Si37  1  0.830381  0.364474  0.299802  1
  Si  Si38  1  0.364474  0.299802  0.830381  1
  Si  Si39  1  0.669619  0.135526  0.494657  1
  Si  Si40  1  0.635526  0.700198  0.169619  1
  Si  Si41  1  0.299802  0.830381  0.364474  1
  Si  Si42  1  0.135526  0.669619  0.200198  1
  Si  Si43  1  0.169619  0.700198  0.994657  1
  Si  Si44  1  0.005343  0.364474  0.830381  1
  Si  Si45  1  0.700198  0.635526  0.994657  1
  Si  Si46  1  0.330381  0.505343  0.799802  1
  Si  Si47  1  0.669619  0.494657  0.200198  1
  O  O48  1  0.423383  0.756529  0.339866  1
  O  O49  1  0.250000  0.123575  0.750000  1
  O  O50  1  0.980222  0.339866  0.756529  1
  O  O51  1  0.243471  0.660134  0.576617  1
  O  O52  1  0.123575  0.376425  0.750000  1
  O  O53  1  0.839866  0.480222  0.256529  1
  O  O54  1  0.750000  0.250000  0.123575  1
  O  O55  1  0.743471  0.160134  0.519778  1
  O  O56  1  0.019778  0.243471  0.576617  1
  O  O57  1  0.243471  0.019778  0.660134  1
  O  O58  1  0.250000  0.750000  0.876425  1
  O  O59  1  0.076617  0.519778  0.160134  1
  O  O60  1  0.250000  0.376425  0.123575  1
  O  O61  1  0.160134  0.519778  0.743471  1
  O  O62  1  0.750000  0.623575  0.876425  1
  O  O63  1  0.959909  0.290091  0.959909  1
  O  O64  1  0.923383  0.256529  0.480222  1
  O  O65  1  0.540091  0.209909  0.209909  1
  O  O66  1  0.459909  0.790091  0.790091  1
  O  O67  1  0.290091  0.959909  0.959909  1
  O  O68  1  0.540091  0.540091  0.209909  1
  O  O69  1  0.839866  0.923383  0.480222  1
  O  O70  1  0.923383  0.480222  0.839866  1
  O  O71  1  0.209909  0.540091  0.209909  1
  O  O72  1  0.209909  0.540091  0.540091  1
  O  O73  1  0.709909  0.709909  0.040091  1
  O  O74  1  0.076617  0.160134  0.743471  1
  O  O75  1  0.040091  0.709909  0.709909  1
  O  O76  1  0.250000  0.876425  0.623575  1
  O  O77  1  0.750000  0.876425  0.250000  1
  O  O78  1  0.123575  0.250000  0.376425  1
  O  O79  1  0.040091  0.709909  0.040091  1
  O  O80  1  0.376425  0.250000  0.750000  1
  O  O81  1  0.743471  0.076617  0.160134  1
  O  O82  1  0.339866  0.423383  0.756529  1
  O  O83  1  0.209909  0.209909  0.540091  1
  O  O84  1  0.339866  0.980222  0.423383  1
  O  O85  1  0.339866  0.756529  0.980222  1
  O  O86  1  0.959909  0.959909  0.290091  1
  O  O87  1  0.480222  0.923383  0.256529  1
  O  O88  1  0.750000  0.250000  0.623575  1
  O  O89  1  0.160134  0.743471  0.076617  1
  O  O90  1  0.040091  0.040091  0.709909  1
  O  O91  1  0.623575  0.250000  0.876425  1
  O  O92  1  0.250000  0.623575  0.750000  1
  O  O93  1  0.576617  0.243471  0.660134  1
  O  O94  1  0.459909  0.790091  0.459909  1
  O  O95  1  0.423383  0.980222  0.756529  1
  O  O96  1  0.756529  0.423383  0.980222  1
  O  O97  1  0.839866  0.256529  0.923383  1
  O  O98  1  0.076617  0.743471  0.519778  1
  O  O99  1  0.423383  0.339866  0.980222  1
  O  O100  1  0.756529  0.980222  0.339866  1
  O  O101  1  0.980222  0.423383  0.339866  1
  O  O102  1  0.790091  0.459909  0.459909  1
  O  O103  1  0.160134  0.076617  0.519778  1
  O  O104  1  0.980222  0.756529  0.423383  1
  O  O105  1  0.750000  0.376425  0.250000  1
  O  O106  1  0.519778  0.160134  0.076617  1
  O  O107  1  0.790091  0.459909  0.790091  1
  O  O108  1  0.243471  0.576617  0.019778  1
  O  O109  1  0.480222  0.839866  0.923383  1
  O  O110  1  0.876425  0.750000  0.623575  1
  O  O111  1  0.750000  0.123575  0.376425  1
  O  O112  1  0.290091  0.959909  0.290091  1
  O  O113  1  0.923383  0.839866  0.256529  1
  O  O114  1  0.709909  0.040091  0.709909  1
  O  O115  1  0.519778  0.076617  0.743471  1
  O  O116  1  0.660134  0.019778  0.576617  1
  O  O117  1  0.743471  0.519778  0.076617  1
  O  O118  1  0.660134  0.576617  0.243471  1
  O  O119  1  0.256529  0.839866  0.480222  1
  O  O120  1  0.290091  0.290091  0.959909  1
  O  O121  1  0.256529  0.480222  0.923383  1
  O  O122  1  0.459909  0.459909  0.790091  1
  O  O123  1  0.540091  0.209909  0.540091  1
  O  O124  1  0.123575  0.750000  0.250000  1
  O  O125  1  0.576617  0.019778  0.243471  1
  O  O126  1  0.660134  0.243471  0.019778  1
  O  O127  1  0.376425  0.750000  0.123575  1
  O  O128  1  0.519778  0.743471  0.160134  1
  O  O129  1  0.709909  0.040091  0.040091  1
  O  O130  1  0.876425  0.250000  0.750000  1
  O  O131  1  0.576617  0.660134  0.019778  1
  O  O132  1  0.256529  0.923383  0.839866  1
  O  O133  1  0.019778  0.660134  0.243471  1
  O  O134  1  0.756529  0.339866  0.423383  1
  O  O135  1  0.250000  0.750000  0.376425  1
  O  O136  1  0.376425  0.123575  0.250000  1
  O  O137  1  0.959909  0.290091  0.290091  1
  O  O138  1  0.019778  0.576617  0.660134  1
  O  O139  1  0.623575  0.750000  0.250000  1
  O  O140  1  0.790091  0.790091  0.459909  1
  O  O141  1  0.876425  0.623575  0.250000  1
  O  O142  1  0.623575  0.876425  0.750000  1
  O  O143  1  0.480222  0.256529  0.839866  1
