# generated using pymatgen
data_SrMgF4
_symmetry_space_group_name_H-M   'P 1'
_cell_length_a   7.64152204
_cell_length_b   7.90727860
_cell_length_c   17.11305495
_cell_angle_alpha   90.00000000
_cell_angle_beta   90.00000000
_cell_angle_gamma   104.89135915
_symmetry_Int_Tables_number   1
_chemical_formula_structural   SrMgF4
_chemical_formula_sum   'Sr12 Mg12 F48'
_cell_volume   999.30497393
_cell_formula_units_Z   12
loop_
 _symmetry_equiv_pos_site_id
 _symmetry_equiv_pos_as_xyz
  1  'x, y, z'
loop_
 _atom_site_type_symbol
 _atom_site_label
 _atom_site_symmetry_multiplicity
 _atom_site_fract_x
 _atom_site_fract_y
 _atom_site_fract_z
 _atom_site_occupancy
  Sr  Sr0  1  0.159245  0.663941  0.001213  1
  Sr  Sr1  1  0.848910  0.838115  0.831183  1
  Sr  Sr2  1  0.204369  0.179902  0.985671  1
  Sr  Sr3  1  0.833476  0.834604  0.166863  1
  Sr  Sr4  1  0.222391  0.680747  0.648694  1
  Sr  Sr5  1  0.777609  0.319253  0.148694  1
  Sr  Sr6  1  0.795631  0.820098  0.485671  1
  Sr  Sr7  1  0.166524  0.165396  0.666863  1
  Sr  Sr8  1  0.151090  0.161885  0.331183  1
  Sr  Sr9  1  0.182221  0.667712  0.322910  1
  Sr  Sr10  1  0.840755  0.336059  0.501213  1
  Sr  Sr11  1  0.817779  0.332288  0.822910  1
  Mg  Mg12  1  0.330617  0.457225  0.144518  1
  Mg  Mg13  1  0.658905  0.541772  0.976694  1
  Mg  Mg14  1  0.329494  0.957134  0.142450  1
  Mg  Mg15  1  0.670506  0.042866  0.642450  1
  Mg  Mg16  1  0.667415  0.540243  0.308951  1
  Mg  Mg17  1  0.338844  0.956940  0.809430  1
  Mg  Mg18  1  0.341095  0.458228  0.476694  1
  Mg  Mg19  1  0.661900  0.038148  0.977184  1
  Mg  Mg20  1  0.661156  0.043060  0.309430  1
  Mg  Mg21  1  0.669383  0.542775  0.644518  1
  Mg  Mg22  1  0.338100  0.961852  0.477184  1
  Mg  Mg23  1  0.332585  0.459757  0.808951  1
  F  F24  1  0.891211  0.587736  0.913030  1
  F  F25  1  0.571403  0.547100  0.196143  1
  F  F26  1  0.099946  0.925354  0.078201  1
  F  F27  1  0.828128  0.096473  0.402160  1
  F  F28  1  0.208911  0.944482  0.575911  1
  F  F29  1  0.376385  0.217990  0.131439  1
  F  F30  1  0.718455  0.805729  0.309861  1
  F  F31  1  0.667572  0.791320  0.955447  1
  F  F32  1  0.208234  0.411936  0.244865  1
  F  F33  1  0.108789  0.412264  0.413030  1
  F  F34  1  0.428597  0.452900  0.696143  1
  F  F35  1  0.099004  0.423656  0.744212  1
  F  F36  1  0.566503  0.050929  0.867105  1
  F  F37  1  0.422113  0.959453  0.028945  1
  F  F38  1  0.552734  0.469643  0.870257  1
  F  F39  1  0.281545  0.194271  0.809861  1
  F  F40  1  0.888811  0.122118  0.242566  1
  F  F41  1  0.627059  0.282897  0.294943  1
  F  F42  1  0.551973  0.980375  0.202671  1
  F  F43  1  0.791766  0.588064  0.744865  1
  F  F44  1  0.164593  0.927251  0.236949  1
  F  F45  1  0.096402  0.887738  0.416871  1
  F  F46  1  0.659845  0.290469  0.992684  1
  F  F47  1  0.900054  0.074646  0.578201  1
  F  F48  1  0.340155  0.709531  0.492684  1
  F  F49  1  0.623615  0.782010  0.631439  1
  F  F50  1  0.448027  0.019625  0.702671  1
  F  F51  1  0.835407  0.072749  0.736949  1
  F  F52  1  0.900996  0.576344  0.244212  1
  F  F53  1  0.573844  0.497519  0.533114  1
  F  F54  1  0.791089  0.055518  0.075911  1
  F  F55  1  0.818532  0.562769  0.404675  1
  F  F56  1  0.372941  0.717103  0.794943  1
  F  F57  1  0.828125  0.596633  0.068932  1
  F  F58  1  0.284454  0.696208  0.140667  1
  F  F59  1  0.715546  0.303792  0.640667  1
  F  F60  1  0.171872  0.903527  0.902160  1
  F  F61  1  0.908202  0.624976  0.582263  1
  F  F62  1  0.433497  0.949071  0.367105  1
  F  F63  1  0.903598  0.112262  0.916871  1
  F  F64  1  0.181468  0.437231  0.904675  1
  F  F65  1  0.171875  0.403367  0.568932  1
  F  F66  1  0.111189  0.877882  0.742566  1
  F  F67  1  0.447266  0.530357  0.370257  1
  F  F68  1  0.426156  0.502481  0.033114  1
  F  F69  1  0.332428  0.208680  0.455447  1
  F  F70  1  0.091798  0.375024  0.082263  1
  F  F71  1  0.577887  0.040547  0.528945  1
