# generated using pymatgen
data_Hg7(P2Br3)2
_symmetry_space_group_name_H-M   'P 1'
_cell_length_a   6.19073587
_cell_length_b   7.73959494
_cell_length_c   20.28818353
_cell_angle_alpha   90.00000000
_cell_angle_beta   90.00000000
_cell_angle_gamma   103.85361897
_symmetry_Int_Tables_number   1
_chemical_formula_structural   Hg7(P2Br3)2
_chemical_formula_sum   'Hg14 P8 Br12'
_cell_volume   943.80642057
_cell_formula_units_Z   2
loop_
 _symmetry_equiv_pos_site_id
 _symmetry_equiv_pos_as_xyz
  1  'x, y, z'
loop_
 _atom_site_type_symbol
 _atom_site_label
 _atom_site_symmetry_multiplicity
 _atom_site_fract_x
 _atom_site_fract_y
 _atom_site_fract_z
 _atom_site_occupancy
  Hg  Hg0  1  0.000000  0.000000  0.000000  1
  Hg  Hg1  1  0.000000  0.500000  0.500000  1
  Hg  Hg2  1  0.507545  0.921426  0.862717  1
  Hg  Hg3  1  0.492455  0.578574  0.362717  1
  Hg  Hg4  1  0.492455  0.078574  0.137283  1
  Hg  Hg5  1  0.507545  0.421426  0.637283  1
  Hg  Hg6  1  0.090390  0.188160  0.767867  1
  Hg  Hg7  1  0.909610  0.311840  0.267867  1
  Hg  Hg8  1  0.909610  0.811840  0.232133  1
  Hg  Hg9  1  0.090390  0.688160  0.732133  1
  Hg  Hg10  1  0.782889  0.508760  0.911632  1
  Hg  Hg11  1  0.217111  0.991240  0.411632  1
  Hg  Hg12  1  0.217111  0.491240  0.088368  1
  Hg  Hg13  1  0.782889  0.008760  0.588368  1
  Br  Br14  1  0.600696  0.221893  0.979787  1
  Br  Br15  1  0.399304  0.278107  0.479787  1
  Br  Br16  1  0.399304  0.778107  0.020213  1
  Br  Br17  1  0.600696  0.721893  0.520213  1
  Br  Br18  1  0.637845  0.294297  0.788475  1
  Br  Br19  1  0.362155  0.205703  0.288475  1
  Br  Br20  1  0.362155  0.705703  0.211525  1
  Br  Br21  1  0.637845  0.794297  0.711525  1
  Br  Br22  1  0.185861  0.418019  0.887707  1
  Br  Br23  1  0.814139  0.081981  0.387707  1
  Br  Br24  1  0.814139  0.581981  0.112293  1
  Br  Br25  1  0.185861  0.918019  0.612293  1
  P  P26  1  0.857576  0.835918  0.897410  1
  P  P27  1  0.142424  0.664082  0.397410  1
  P  P28  1  0.142424  0.164082  0.102590  1
  P  P29  1  0.857576  0.335918  0.602590  1
  P  P30  1  0.122820  0.909814  0.822415  1
  P  P31  1  0.877180  0.590186  0.322415  1
  P  P32  1  0.877180  0.090186  0.177585  1
  P  P33  1  0.122820  0.409814  0.677585  1
