# generated using pymatgen
data_Nb2Br5
_symmetry_space_group_name_H-M   'P 1'
_cell_length_a   6.05983149
_cell_length_b   9.33262762
_cell_length_c   9.33262816
_cell_angle_alpha   110.92674853
_cell_angle_beta   90.00000000
_cell_angle_gamma   90.00000000
_symmetry_Int_Tables_number   1
_chemical_formula_structural   Nb2Br5
_chemical_formula_sum   'Nb4 Br10'
_cell_volume   492.98410152
_cell_formula_units_Z   2
loop_
 _symmetry_equiv_pos_site_id
 _symmetry_equiv_pos_as_xyz
  1  'x, y, z'
loop_
 _atom_site_type_symbol
 _atom_site_label
 _atom_site_symmetry_multiplicity
 _atom_site_fract_x
 _atom_site_fract_y
 _atom_site_fract_z
 _atom_site_occupancy
  Nb  Nb0  1  0.000000  0.864621  0.864621  1
  Nb  Nb1  1  0.500000  0.864621  0.864621  1
  Nb  Nb2  1  0.500000  0.135379  0.135379  1
  Nb  Nb3  1  0.000000  0.135379  0.135379  1
  Br  Br4  1  0.250000  0.318041  0.039968  1
  Br  Br5  1  0.250000  0.251030  0.387477  1
  Br  Br6  1  0.750000  0.112396  0.887604  1
  Br  Br7  1  0.250000  0.887604  0.112396  1
  Br  Br8  1  0.750000  0.387477  0.251030  1
  Br  Br9  1  0.250000  0.612523  0.748970  1
  Br  Br10  1  0.750000  0.039968  0.318041  1
  Br  Br11  1  0.750000  0.748970  0.612523  1
  Br  Br12  1  0.250000  0.960032  0.681959  1
  Br  Br13  1  0.750000  0.681959  0.960032  1
