# generated using pymatgen
data_MnCu(Te2O5)2
_symmetry_space_group_name_H-M   'P 1'
_cell_length_a   8.96855261
_cell_length_b   8.96855261
_cell_length_c   12.88854714
_cell_angle_alpha   90.00000000
_cell_angle_beta   90.00000000
_cell_angle_gamma   90.00000000
_symmetry_Int_Tables_number   1
_chemical_formula_structural   MnCu(Te2O5)2
_chemical_formula_sum   'Mn4 Cu4 Te16 O40'
_cell_volume   1036.68946329
_cell_formula_units_Z   4
loop_
 _symmetry_equiv_pos_site_id
 _symmetry_equiv_pos_as_xyz
  1  'x, y, z'
loop_
 _atom_site_type_symbol
 _atom_site_label
 _atom_site_symmetry_multiplicity
 _atom_site_fract_x
 _atom_site_fract_y
 _atom_site_fract_z
 _atom_site_occupancy
  O  O0  1  0.043964  0.043964  0.750000  1
  O  O1  1  0.456036  0.043964  0.250000  1
  O  O2  1  0.043964  0.456036  0.250000  1
  O  O3  1  0.456036  0.456036  0.750000  1
  O  O4  1  0.956036  0.956036  0.250000  1
  O  O5  1  0.543964  0.956036  0.750000  1
  O  O6  1  0.956036  0.543964  0.750000  1
  O  O7  1  0.543964  0.543964  0.250000  1
  O  O8  1  0.878484  0.516759  0.950857  1
  O  O9  1  0.621515  0.983241  0.950857  1
  O  O10  1  0.516759  0.878484  0.549143  1
  O  O11  1  0.516759  0.621515  0.450856  1
  O  O12  1  0.983241  0.878484  0.450856  1
  O  O13  1  0.621515  0.516759  0.049143  1
  O  O14  1  0.878484  0.983241  0.049143  1
  O  O15  1  0.616944  0.673244  0.863640  1
  O  O16  1  0.121516  0.483241  0.049143  1
  O  O17  1  0.378485  0.016759  0.049143  1
  O  O18  1  0.483241  0.121516  0.450856  1
  O  O19  1  0.483241  0.378485  0.549143  1
  O  O20  1  0.016759  0.121516  0.549143  1
  O  O21  1  0.378485  0.483241  0.950857  1
  O  O22  1  0.121516  0.016759  0.950857  1
  O  O23  1  0.016759  0.378485  0.450856  1
  O  O24  1  0.173243  0.116945  0.363639  1
  O  O25  1  0.383056  0.173243  0.863640  1
  O  O26  1  0.116945  0.326756  0.863640  1
  O  O27  1  0.173243  0.383056  0.636360  1
  O  O28  1  0.326756  0.116945  0.636360  1
  O  O29  1  0.326756  0.383056  0.363639  1
  O  O30  1  0.116945  0.173243  0.136361  1
  O  O31  1  0.383056  0.326756  0.136361  1
  O  O32  1  0.826757  0.883055  0.636360  1
  O  O33  1  0.616944  0.826757  0.136361  1
  O  O34  1  0.883055  0.673244  0.136361  1
  O  O35  1  0.826757  0.616944  0.363639  1
  O  O36  1  0.673244  0.883055  0.363639  1
  O  O37  1  0.673244  0.616944  0.636360  1
  O  O38  1  0.883055  0.826757  0.863640  1
  O  O39  1  0.983241  0.621515  0.549143  1
  Mn  Mn40  1  0.250000  0.250000  0.000000  1
  Mn  Mn41  1  0.250000  0.250000  0.500000  1
  Mn  Mn42  1  0.750000  0.750000  0.000000  1
  Mn  Mn43  1  0.750000  0.750000  0.500000  1
  Cu  Cu44  1  0.250000  0.250000  0.250000  1
  Cu  Cu45  1  0.250000  0.250000  0.750000  1
  Cu  Cu46  1  0.750000  0.750000  0.750000  1
  Cu  Cu47  1  0.750000  0.750000  0.250000  1
  Te  Te48  1  0.034241  0.929715  0.616739  1
  Te  Te49  1  0.570285  0.034241  0.116738  1
  Te  Te50  1  0.465760  0.929715  0.383261  1
  Te  Te51  1  0.465760  0.570285  0.616739  1
  Te  Te52  1  0.929715  0.465760  0.116738  1
  Te  Te53  1  0.570285  0.465760  0.883262  1
  Te  Te54  1  0.929715  0.034241  0.883262  1
  Te  Te55  1  0.034241  0.570285  0.383261  1
  Te  Te56  1  0.965759  0.429715  0.616739  1
  Te  Te57  1  0.070285  0.965759  0.116738  1
  Te  Te58  1  0.429715  0.534240  0.116738  1
  Te  Te59  1  0.965759  0.070285  0.383261  1
  Te  Te60  1  0.534240  0.429715  0.383261  1
  Te  Te61  1  0.534240  0.070285  0.616739  1
  Te  Te62  1  0.429715  0.965759  0.883262  1
  Te  Te63  1  0.070285  0.534240  0.883262  1
