# generated using pymatgen
data_Be(BC)2
_symmetry_space_group_name_H-M   'P 1'
_cell_length_a   4.70149561
_cell_length_b   5.43396802
_cell_length_c   6.13303419
_cell_angle_alpha   90.00000000
_cell_angle_beta   90.00000000
_cell_angle_gamma   90.00000000
_symmetry_Int_Tables_number   1
_chemical_formula_structural   Be(BC)2
_chemical_formula_sum   'Be4 B8 C8'
_cell_volume   156.68538854
_cell_formula_units_Z   4
loop_
 _symmetry_equiv_pos_site_id
 _symmetry_equiv_pos_as_xyz
  1  'x, y, z'
loop_
 _atom_site_type_symbol
 _atom_site_label
 _atom_site_symmetry_multiplicity
 _atom_site_fract_x
 _atom_site_fract_y
 _atom_site_fract_z
 _atom_site_occupancy
  Be  Be0  1  0.183627  0.750000  0.046684  1
  Be  Be1  1  0.183627  0.750000  0.453316  1
  Be  Be2  1  0.816373  0.250000  0.953316  1
  Be  Be3  1  0.816373  0.250000  0.546684  1
  B  B4  1  0.478564  0.250000  0.750000  1
  B  B5  1  0.991772  0.998331  0.750000  1
  B  B6  1  0.499284  0.250000  0.250000  1
  B  B7  1  0.521436  0.750000  0.250000  1
  B  B8  1  0.991772  0.501669  0.750000  1
  B  B9  1  0.008228  0.498331  0.250000  1
  B  B10  1  0.500716  0.750000  0.750000  1
  B  B11  1  0.008228  0.001669  0.250000  1
  C  C12  1  0.339829  0.506823  0.250000  1
  C  C13  1  0.339829  0.993177  0.250000  1
  C  C14  1  0.660171  0.006823  0.750000  1
  C  C15  1  0.166000  0.750000  0.750000  1
  C  C16  1  0.834000  0.250000  0.250000  1
  C  C17  1  0.855331  0.750000  0.250000  1
  C  C18  1  0.660171  0.493177  0.750000  1
  C  C19  1  0.144669  0.250000  0.750000  1
