# generated using pymatgen
data_ZnH16C4(Br2N)2
_symmetry_space_group_name_H-M   'P 1'
_cell_length_a   8.94329728
_cell_length_b   12.25963195
_cell_length_c   14.04961213
_cell_angle_alpha   90.00000000
_cell_angle_beta   89.83995482
_cell_angle_gamma   90.00000000
_symmetry_Int_Tables_number   1
_chemical_formula_structural   ZnH16C4(Br2N)2
_chemical_formula_sum   'Zn4 H64 C16 Br16 N8'
_cell_volume   1540.41500240
_cell_formula_units_Z   4
loop_
 _symmetry_equiv_pos_site_id
 _symmetry_equiv_pos_as_xyz
  1  'x, y, z'
loop_
 _atom_site_type_symbol
 _atom_site_label
 _atom_site_symmetry_multiplicity
 _atom_site_fract_x
 _atom_site_fract_y
 _atom_site_fract_z
 _atom_site_occupancy
  Zn  Zn0  1  0.322055  0.700424  0.419184  1
  Zn  Zn1  1  0.677945  0.299576  0.580816  1
  Zn  Zn2  1  0.822055  0.799576  0.919184  1
  Zn  Zn3  1  0.177945  0.200424  0.080816  1
  H  H4  1  0.367862  0.802429  0.071464  1
  H  H5  1  0.460925  0.509424  0.759771  1
  H  H6  1  0.071263  0.183963  0.364787  1
  H  H7  1  0.039075  1.009424  0.740229  1
  H  H8  1  0.571263  0.316037  0.864787  1
  H  H9  1  0.911195  0.599734  0.314417  1
  H  H10  1  0.790555  0.921770  0.290764  1
  H  H11  1  0.788405  0.457009  0.817344  1
  H  H12  1  0.660052  0.574388  0.370102  1
  H  H13  1  0.632304  0.783981  0.543893  1
  H  H14  1  0.588805  0.099734  0.185583  1
  H  H15  1  0.225188  0.522488  0.056565  1
  H  H16  1  0.867862  0.697571  0.571464  1
  H  H17  1  0.839948  0.074388  0.129898  1
  H  H18  1  0.132304  0.716019  0.043893  1
  H  H19  1  0.611614  0.324881  0.989950  1
  H  H20  1  0.867696  0.283981  0.956107  1
  H  H21  1  0.592289  0.023365  0.076806  1
  H  H22  1  0.211595  0.542991  0.182656  1
  H  H23  1  0.411195  0.900266  0.814417  1
  H  H24  1  0.111614  0.175119  0.489950  1
  H  H25  1  0.698057  0.567955  0.198558  1
  H  H26  1  0.092289  0.476635  0.576806  1
  H  H27  1  0.952035  0.445183  0.890578  1
  H  H28  1  0.452035  0.054817  0.390578  1
  H  H29  1  0.301943  0.432045  0.801442  1
  H  H30  1  0.833784  0.271465  0.838292  1
  H  H31  1  0.934351  0.453844  0.312082  1
  H  H32  1  0.816856  0.938221  0.122845  1
  H  H33  1  0.725187  0.977512  0.556565  1
  H  H34  1  0.928737  0.816037  0.635213  1
  H  H35  1  0.367696  0.216019  0.456107  1
  H  H36  1  0.632138  0.197571  0.928536  1
  H  H37  1  0.888386  0.824881  0.510050  1
  H  H38  1  0.709445  0.421770  0.209236  1
  H  H39  1  0.683144  0.438221  0.377155  1
  H  H40  1  0.209445  0.078230  0.709236  1
  H  H41  1  0.547965  0.945183  0.609422  1
  H  H42  1  0.339948  0.425612  0.629898  1
  H  H43  1  0.907711  0.523365  0.423194  1
  H  H44  1  0.274813  0.022488  0.443435  1
  H  H45  1  0.565649  0.953844  0.187918  1
  H  H46  1  0.132138  0.302429  0.428536  1
  H  H47  1  0.960925  -0.009424  0.259771  1
  H  H48  1  0.333784  0.228535  0.338292  1
  H  H49  1  0.288405  0.042991  0.317344  1
  H  H50  1  0.711595  0.957009  0.682656  1
  H  H51  1  0.183144  0.061779  0.877155  1
  H  H52  1  0.801943  0.067955  0.301442  1
  H  H53  1  0.316856  0.561779  0.622845  1
  H  H54  1  0.166216  0.728535  0.161708  1
  H  H55  1  0.407711  0.976635  0.923194  1
  H  H56  1  0.434351  0.046156  0.812082  1
  H  H57  1  0.666216  0.771465  0.661708  1
  H  H58  1  0.290555  0.578230  0.790764  1
  H  H59  1  0.160052  0.925612  0.870102  1
  H  H60  1  0.088805  0.400266  0.685583  1
  H  H61  1  0.198057  0.932045  0.698558  1
  H  H62  1  0.065649  0.546156  0.687918  1
  H  H63  1  0.539075  0.490576  0.240229  1
  H  H64  1  0.774813  0.477512  0.943435  1
  H  H65  1  0.428737  0.683963  0.135213  1
  H  H66  1  0.047965  0.554817  0.109422  1
  H  H67  1  0.388386  0.675119  0.010050  1
  C  C68  1  0.338745  0.503557  0.760748  1
  C  C69  1  0.378743  0.977662  0.847561  1
  C  C70  1  0.838745  0.996443  0.260748  1
  C  C71  1  0.642629  0.286306  0.922377  1
  C  C72  1  0.621257  0.022338  0.152439  1
  C  C73  1  0.121257  0.477662  0.652439  1
  C  C74  1  0.668829  0.931561  0.613076  1
  C  C75  1  0.878743  0.522338  0.347561  1
  C  C76  1  0.331171  0.068439  0.386924  1
  C  C77  1  0.161255  0.003557  0.739252  1
  C  C78  1  0.168829  0.568439  0.113076  1
  C  C79  1  0.357371  0.713694  0.077623  1
  C  C80  1  0.661255  0.496443  0.239252  1
  C  C81  1  0.857371  0.786306  0.577623  1
  C  C82  1  0.831171  0.431561  0.886924  1
  C  C83  1  0.142629  0.213694  0.422377  1
  Br  Br84  1  0.364674  0.287454  0.179752  1
  Br  Br85  1  0.202934  0.253779  0.913635  1
  Br  Br86  1  0.297066  0.753779  0.586365  1
  Br  Br87  1  0.702934  0.246221  0.413635  1
  Br  Br88  1  0.076885  0.737119  0.874649  1
  Br  Br89  1  0.191616  0.004023  0.097651  1
  Br  Br90  1  0.797066  0.746221  0.086365  1
  Br  Br91  1  0.808384  0.995977  0.902349  1
  Br  Br92  1  0.135326  0.787454  0.320248  1
  Br  Br93  1  0.308384  0.504023  0.402349  1
  Br  Br94  1  0.635326  0.712546  0.820248  1
  Br  Br95  1  0.864674  0.212546  0.679752  1
  Br  Br96  1  0.923115  0.262881  0.125351  1
  Br  Br97  1  0.691616  0.495977  0.597651  1
  Br  Br98  1  0.576885  0.762881  0.374649  1
  Br  Br99  1  0.423115  0.237119  0.625351  1
  N  N100  1  0.286114  0.492191  0.660791  1
  N  N101  1  0.801727  0.312714  0.900419  1
  N  N102  1  0.786114  0.007809  0.160791  1
  N  N103  1  0.301727  0.187286  0.400419  1
  N  N104  1  0.198273  0.687286  0.099581  1
  N  N105  1  0.213886  0.992191  0.839209  1
  N  N106  1  0.698273  0.812714  0.599581  1
  N  N107  1  0.713886  0.507809  0.339209  1
