# generated using pymatgen
data_NaH12C4S2BrO2
_symmetry_space_group_name_H-M   'P 1'
_cell_length_a   6.57410562
_cell_length_b   10.13516277
_cell_length_c   16.76835560
_cell_angle_alpha   90.00000000
_cell_angle_beta   93.86030757
_cell_angle_gamma   90.00000000
_symmetry_Int_Tables_number   1
_chemical_formula_structural   NaH12C4S2BrO2
_chemical_formula_sum   'Na4 H48 C16 S8 Br4 O8'
_cell_volume   1114.73443087
_cell_formula_units_Z   4
loop_
 _symmetry_equiv_pos_site_id
 _symmetry_equiv_pos_as_xyz
  1  'x, y, z'
loop_
 _atom_site_type_symbol
 _atom_site_label
 _atom_site_symmetry_multiplicity
 _atom_site_fract_x
 _atom_site_fract_y
 _atom_site_fract_z
 _atom_site_occupancy
  Na  Na0  1  0.255130  0.570284  0.028880  1
  Na  Na1  1  0.744870  0.429716  0.971120  1
  Na  Na2  1  0.744870  0.070284  0.471120  1
  Na  Na3  1  0.255130  0.929716  0.528880  1
  H  H4  1  0.244837  0.386990  0.230993  1
  H  H5  1  0.720638  0.938995  0.757737  1
  H  H6  1  0.195409  0.562606  0.224291  1
  H  H7  1  0.635264  0.916769  0.654646  1
  H  H8  1  0.337711  0.635717  0.459644  1
  H  H9  1  0.339620  0.160577  0.955261  1
  H  H10  1  0.865865  0.835509  0.693240  1
  H  H11  1  0.337711  0.864283  0.959644  1
  H  H12  1  0.804591  0.062606  0.275709  1
  H  H13  1  0.809268  0.574564  0.473255  1
  H  H14  1  0.692782  0.177474  0.145822  1
  H  H15  1  0.279362  0.061005  0.242263  1
  H  H16  1  0.809268  0.925436  0.973255  1
  H  H17  1  0.755163  0.613010  0.769007  1
  H  H18  1  0.244837  0.113010  0.730993  1
  H  H19  1  0.662289  0.135717  0.040356  1
  H  H20  1  0.364736  0.416769  0.845354  1
  H  H21  1  0.755163  0.886990  0.269007  1
  H  H22  1  0.894937  0.768918  0.013387  1
  H  H23  1  0.865865  0.664491  0.193240  1
  H  H24  1  0.339620  0.339423  0.455261  1
  H  H25  1  0.190732  0.074564  0.026745  1
  H  H26  1  0.720638  0.561005  0.257737  1
  H  H27  1  0.918775  0.961489  0.200417  1
  H  H28  1  0.527840  0.042442  0.113138  1
  H  H29  1  0.660380  0.660577  0.544739  1
  H  H30  1  0.134135  0.335509  0.806760  1
  H  H31  1  0.190732  0.425436  0.526745  1
  H  H32  1  0.527840  0.457558  0.613138  1
  H  H33  1  0.692782  0.322526  0.645822  1
  H  H34  1  0.081225  0.461489  0.299583  1
  H  H35  1  0.081225  0.038511  0.799583  1
  H  H36  1  0.918775  0.538511  0.700417  1
  H  H37  1  0.105063  0.268918  0.486613  1
  H  H38  1  0.364736  0.083231  0.345354  1
  H  H39  1  0.635264  0.583231  0.154646  1
  H  H40  1  0.134135  0.164491  0.306760  1
  H  H41  1  0.472160  0.957558  0.886862  1
  H  H42  1  0.307218  0.822526  0.854178  1
  H  H43  1  0.279362  0.438995  0.742263  1
  H  H44  1  0.105063  0.231082  0.986613  1
  H  H45  1  0.662289  0.364283  0.540356  1
  H  H46  1  0.894937  0.731082  0.513387  1
  H  H47  1  0.660380  0.839423  0.044739  1
  H  H48  1  0.195409  0.937394  0.724291  1
  H  H49  1  0.804591  0.437394  0.775709  1
  H  H50  1  0.307218  0.677474  0.354178  1
  H  H51  1  0.472160  0.542442  0.386862  1
  C  C52  1  0.760883  0.671113  0.495298  1
  C  C53  1  0.769183  0.923331  0.697059  1
  C  C54  1  0.230817  0.076669  0.302941  1
  C  C55  1  0.239117  0.328887  0.504702  1
  C  C56  1  0.867048  0.534601  0.761328  1
  C  C57  1  0.239117  0.171113  0.004702  1
  C  C58  1  0.867048  0.965399  0.261328  1
  C  C59  1  0.230817  0.423331  0.802941  1
  C  C60  1  0.132952  0.465399  0.238672  1
  C  C61  1  0.411363  0.639619  0.402669  1
  C  C62  1  0.588637  0.360381  0.597331  1
  C  C63  1  0.588637  0.139619  0.097331  1
  C  C64  1  0.411363  0.860381  0.902669  1
  C  C65  1  0.769183  0.576669  0.197059  1
  C  C66  1  0.132952  0.034601  0.738672  1
  C  C67  1  0.760883  0.828887  0.995298  1
  S  S68  1  0.621847  0.747128  0.913492  1
  S  S69  1  0.086944  0.933412  0.328784  1
  S  S70  1  0.086944  0.566588  0.828784  1
  S  S71  1  0.621847  0.752872  0.413492  1
  S  S72  1  0.913056  0.433412  0.171216  1
  S  S73  1  0.913056  0.066588  0.671216  1
  S  S74  1  0.378153  0.247128  0.586508  1
  S  S75  1  0.378153  0.252872  0.086508  1
  Br  Br76  1  0.280347  0.805850  0.128898  1
  Br  Br77  1  0.280347  0.694150  0.628898  1
  Br  Br78  1  0.719653  0.194150  0.871102  1
  Br  Br79  1  0.719653  0.305850  0.371102  1
  O  O80  1  0.020854  0.542444  0.913253  1
  O  O81  1  0.536318  0.619745  0.946493  1
  O  O82  1  0.536318  0.880255  0.446493  1
  O  O83  1  0.979146  0.457556  0.086747  1
  O  O84  1  0.463682  0.380255  0.053507  1
  O  O85  1  0.979146  0.042444  0.586747  1
  O  O86  1  0.020854  0.957556  0.413253  1
  O  O87  1  0.463682  0.119745  0.553507  1
