# generated using pymatgen
data_SiO2
_symmetry_space_group_name_H-M   'P 1'
_cell_length_a   4.96642947
_cell_length_b   11.22230856
_cell_length_c   11.22230856
_cell_angle_alpha   90.00000000
_cell_angle_beta   90.00000000
_cell_angle_gamma   90.00000000
_symmetry_Int_Tables_number   1
_chemical_formula_structural   SiO2
_chemical_formula_sum   'Si16 O32'
_cell_volume   625.47316750
_cell_formula_units_Z   16
loop_
 _symmetry_equiv_pos_site_id
 _symmetry_equiv_pos_as_xyz
  1  'x, y, z'
loop_
 _atom_site_type_symbol
 _atom_site_label
 _atom_site_symmetry_multiplicity
 _atom_site_fract_x
 _atom_site_fract_y
 _atom_site_fract_z
 _atom_site_occupancy
  Si  Si0  1  0.468440  0.454273  0.359986  1
  Si  Si1  1  0.968440  0.954273  0.640014  1
  Si  Si2  1  0.468440  0.359986  0.045727  1
  Si  Si3  1  0.468440  0.140014  0.454273  1
  Si  Si4  1  0.968440  0.545727  0.859986  1
  Si  Si5  1  0.531560  0.859986  0.545727  1
  Si  Si6  1  0.031560  0.454273  0.140014  1
  Si  Si7  1  0.531560  0.954273  0.859986  1
  Si  Si8  1  0.968440  0.859986  0.954273  1
  Si  Si9  1  0.031560  0.045727  0.359986  1
  Si  Si10  1  0.968440  0.640014  0.545727  1
  Si  Si11  1  0.531560  0.545727  0.640014  1
  Si  Si12  1  0.531560  0.640014  0.954273  1
  Si  Si13  1  0.031560  0.140014  0.045727  1
  Si  Si14  1  0.031560  0.359986  0.454273  1
  Si  Si15  1  0.468440  0.045727  0.140014  1
  O  O16  1  0.250000  0.352364  0.352364  1
  O  O17  1  0.000000  0.000000  0.500000  1
  O  O18  1  0.250000  0.147636  0.147636  1
  O  O19  1  0.750000  0.852364  0.852364  1
  O  O20  1  0.000000  0.500000  0.500000  1
  O  O21  1  0.750000  0.750000  0.044380  1
  O  O22  1  0.000000  0.000000  0.000000  1
  O  O23  1  0.000000  0.500000  0.000000  1
  O  O24  1  0.750000  0.455620  0.750000  1
  O  O25  1  0.250000  0.866863  0.866863  1
  O  O26  1  0.250000  0.250000  0.955620  1
  O  O27  1  0.750000  0.750000  0.455620  1
  O  O28  1  0.750000  0.366863  0.366863  1
  O  O29  1  0.250000  0.250000  0.544380  1
  O  O30  1  0.250000  0.147636  0.352364  1
  O  O31  1  0.250000  0.866863  0.633137  1
  O  O32  1  0.250000  0.352364  0.147636  1
  O  O33  1  0.750000  0.647636  0.647636  1
  O  O34  1  0.500000  0.000000  0.500000  1
  O  O35  1  0.750000  0.133137  0.133137  1
  O  O36  1  0.250000  0.955620  0.250000  1
  O  O37  1  0.500000  0.500000  0.000000  1
  O  O38  1  0.250000  0.633137  0.866863  1
  O  O39  1  0.750000  0.852364  0.647636  1
  O  O40  1  0.500000  0.000000  0.000000  1
  O  O41  1  0.250000  0.633137  0.633137  1
  O  O42  1  0.750000  0.133137  0.366863  1
  O  O43  1  0.750000  0.044380  0.750000  1
  O  O44  1  0.250000  0.544380  0.250000  1
  O  O45  1  0.750000  0.366863  0.133137  1
  O  O46  1  0.750000  0.647636  0.852364  1
  O  O47  1  0.500000  0.500000  0.500000  1
