# generated using pymatgen
data_K3Na3Nb8(PO7)5
_symmetry_space_group_name_H-M   'P 1'
_cell_length_a   11.54572215
_cell_length_b   11.54572239
_cell_length_c   11.54572183
_cell_angle_alpha   46.64656369
_cell_angle_beta   46.64656259
_cell_angle_gamma   46.64656467
_symmetry_Int_Tables_number   1
_chemical_formula_structural   K3Na3Nb8(PO7)5
_chemical_formula_sum   'K3 Na3 Nb8 P5 O35'
_cell_volume   743.28190229
_cell_formula_units_Z   1
loop_
 _symmetry_equiv_pos_site_id
 _symmetry_equiv_pos_as_xyz
  1  'x, y, z'
loop_
 _atom_site_type_symbol
 _atom_site_label
 _atom_site_symmetry_multiplicity
 _atom_site_fract_x
 _atom_site_fract_y
 _atom_site_fract_z
 _atom_site_occupancy
  K  K0  1  0.411618  0.000000  0.588382  1
  K  K1  1  0.588382  0.411618  0.000000  1
  K  K2  1  1.000000  0.588382  0.411618  1
  Na  Na3  1  0.285416  0.714584  0.500000  1
  Na  Na4  1  0.500000  0.285416  0.714584  1
  Na  Na5  1  0.714584  0.500000  0.285416  1
  Nb  Nb6  1  0.298278  0.822291  0.069748  1
  Nb  Nb7  1  0.765886  0.765886  0.765886  1
  Nb  Nb8  1  0.234114  0.234114  0.234114  1
  Nb  Nb9  1  0.069748  0.298278  0.822291  1
  Nb  Nb10  1  0.177709  0.701722  0.930252  1
  Nb  Nb11  1  0.930252  0.177709  0.701722  1
  Nb  Nb12  1  0.701722  0.930252  0.177709  1
  Nb  Nb13  1  0.822291  0.069748  0.298278  1
  P  P14  1  0.057041  0.500000  0.942959  1
  P  P15  1  0.942959  0.057041  0.500000  1
  P  P16  1  0.407457  0.407457  0.407457  1
  P  P17  1  0.500000  0.942959  0.057041  1
  P  P18  1  0.592543  0.592543  0.592543  1
  O  O19  1  0.565453  0.264223  0.334419  1
  O  O20  1  0.238253  0.761747  1.000000  1
  O  O21  1  0.334419  0.565453  0.264223  1
  O  O22  1  0.751415  0.100825  0.943329  1
  O  O23  1  0.456455  0.456455  0.456455  1
  O  O24  1  0.264223  0.334419  0.565453  1
  O  O25  1  0.868030  0.612160  0.955295  1
  O  O26  1  0.100825  0.943329  0.751415  1
  O  O27  1  0.000000  0.238253  0.761747  1
  O  O28  1  0.387840  0.131970  0.044705  1
  O  O29  1  0.543545  0.543545  0.543545  1
  O  O30  1  0.612160  0.955295  0.868030  1
  O  O31  1  0.153626  0.614587  0.837259  1
  O  O32  1  0.943329  0.751415  0.100825  1
  O  O33  1  0.248585  0.056671  0.899175  1
  O  O34  1  0.735777  0.434547  0.665581  1
  O  O35  1  0.162741  0.385413  0.846374  1
  O  O36  1  0.728789  0.916795  0.556607  1
  O  O37  1  0.899175  0.248585  0.056671  1
  O  O38  1  0.846374  0.162741  0.385413  1
  O  O39  1  0.443393  0.083205  0.271211  1
  O  O40  1  0.271211  0.443393  0.083205  1
  O  O41  1  0.837259  0.153626  0.614587  1
  O  O42  1  0.761747  1.000000  0.238253  1
  O  O43  1  0.056671  0.899175  0.248585  1
  O  O44  1  0.955295  0.868030  0.612160  1
  O  O45  1  0.665581  0.735777  0.434547  1
  O  O46  1  0.556607  0.728789  0.916795  1
  O  O47  1  0.434547  0.665581  0.735777  1
  O  O48  1  0.131970  0.044705  0.387840  1
  O  O49  1  0.083205  0.271211  0.443393  1
  O  O50  1  0.614587  0.837259  0.153626  1
  O  O51  1  0.044705  0.387840  0.131970  1
  O  O52  1  0.385413  0.846374  0.162741  1
  O  O53  1  0.916795  0.556607  0.728789  1
