# generated using pymatgen
data_K2PdSe10
_symmetry_space_group_name_H-M   'P 1'
_cell_length_a   12.61112000
_cell_length_b   13.22107123
_cell_length_c   13.22107132
_cell_angle_alpha   76.87574315
_cell_angle_beta   61.51474401
_cell_angle_gamma   61.51474451
_symmetry_Int_Tables_number   1
_chemical_formula_structural   K2PdSe10
_chemical_formula_sum   'K8 Pd4 Se40'
_cell_volume   1702.96305567
_cell_formula_units_Z   4
loop_
 _symmetry_equiv_pos_site_id
 _symmetry_equiv_pos_as_xyz
  1  'x, y, z'
loop_
 _atom_site_type_symbol
 _atom_site_label
 _atom_site_symmetry_multiplicity
 _atom_site_fract_x
 _atom_site_fract_y
 _atom_site_fract_z
 _atom_site_occupancy
  K  K0  1  0.976834  0.052854  0.244723  1
  K  K1  1  0.523166  0.755277  0.947146  1
  K  K2  1  0.029707  0.946836  0.742560  1
  K  K3  1  0.725589  0.744723  0.552854  1
  K  K4  1  0.219102  0.553164  0.757440  1
  K  K5  1  0.470293  0.257440  0.053164  1
  K  K6  1  0.774411  0.447146  0.255277  1
  K  K7  1  0.280898  0.242560  0.446836  1
  Pd  Pd8  1  0.874769  0.750000  0.750000  1
  Pd  Pd9  1  0.374927  0.750000  0.750000  1
  Pd  Pd10  1  0.625231  0.250000  0.250000  1
  Pd  Pd11  1  0.125073  0.250000  0.250000  1
  Se  Se12  1  0.206800  0.299866  0.922172  1
  Se  Se13  1  0.534409  0.608511  0.590826  1
  Se  Se14  1  0.446997  0.197645  0.830195  1
  Se  Se15  1  0.356618  0.532668  0.443002  1
  Se  Se16  1  0.644347  0.802706  0.329614  1
  Se  Se17  1  0.700509  0.442753  0.967404  1
  Se  Se18  1  0.053003  0.169805  0.802355  1
  Se  Se19  1  0.525164  0.330195  0.697645  1
  Se  Se20  1  0.571161  0.422172  0.799866  1
  Se  Se21  1  0.357321  0.908932  0.608474  1
  Se  Se22  1  0.276667  0.697294  0.170386  1
  Se  Se23  1  0.233747  0.891489  0.909174  1
  Se  Se24  1  0.992953  0.578159  0.300174  1
  Se  Se25  1  0.771830  0.168160  0.052403  1
  Se  Se26  1  0.507047  0.699826  0.421841  1
  Se  Se27  1  0.939706  0.831670  0.552458  1
  Se  Se28  1  0.266253  0.090826  0.108511  1
  Se  Se29  1  0.728170  0.947597  0.831840  1
  Se  Se30  1  0.128714  0.800174  0.078159  1
  Se  Se31  1  0.889335  0.467404  0.942753  1
  Se  Se32  1  0.293200  0.077828  0.700134  1
  Se  Se33  1  0.374727  0.591068  0.891526  1
  Se  Se34  1  0.799491  0.032596  0.557247  1
  Se  Se35  1  0.974836  0.302355  0.669805  1
  Se  Se36  1  0.142679  0.391526  0.091068  1
  Se  Se37  1  0.492393  0.331840  0.447597  1
  Se  Se38  1  0.007607  0.552403  0.668160  1
  Se  Se39  1  0.676167  0.052458  0.331670  1
  Se  Se40  1  0.125273  0.108474  0.408932  1
  Se  Se41  1  0.667712  0.943002  0.032668  1
  Se  Se42  1  0.855653  0.670386  0.197294  1
  Se  Se43  1  0.928839  0.200134  0.577828  1
  Se  Se44  1  0.610665  0.057247  0.532596  1
  Se  Se45  1  0.560294  0.447542  0.168330  1
  Se  Se46  1  0.823833  0.668330  0.947542  1
  Se  Se47  1  0.965591  0.409174  0.391489  1
  Se  Se48  1  0.223333  0.829614  0.302706  1
  Se  Se49  1  0.832288  0.967332  0.056998  1
  Se  Se50  1  0.143382  0.556998  0.467332  1
  Se  Se51  1  0.371286  0.921841  0.199826  1
