# generated using pymatgen
data_Ga(BiCl)4
_symmetry_space_group_name_H-M   'P 1'
_cell_length_a   18.29661311
_cell_length_b   18.29661295
_cell_length_c   13.49375612
_cell_angle_alpha   90.00000000
_cell_angle_beta   90.00000000
_cell_angle_gamma   120.00000029
_symmetry_Int_Tables_number   1
_chemical_formula_structural   Ga(BiCl)4
_chemical_formula_sum   'Ga12 Bi48 Cl48'
_cell_volume   3912.05446917
_cell_formula_units_Z   12
loop_
 _symmetry_equiv_pos_site_id
 _symmetry_equiv_pos_as_xyz
  1  'x, y, z'
loop_
 _atom_site_type_symbol
 _atom_site_label
 _atom_site_symmetry_multiplicity
 _atom_site_fract_x
 _atom_site_fract_y
 _atom_site_fract_z
 _atom_site_occupancy
  Ga  Ga0  1  0.666667  0.333333  0.732174  1
  Ga  Ga1  1  0.333333  0.666667  0.232174  1
  Ga  Ga2  1  0.666667  0.333333  0.199299  1
  Ga  Ga3  1  0.639464  0.694716  0.007642  1
  Ga  Ga4  1  0.360536  0.305284  0.507642  1
  Ga  Ga5  1  0.305284  0.944748  0.007642  1
  Ga  Ga6  1  0.000000  0.000000  0.291421  1
  Ga  Ga7  1  0.000000  0.000000  0.791421  1
  Ga  Ga8  1  0.944748  0.639464  0.507642  1
  Ga  Ga9  1  0.333333  0.666667  0.699299  1
  Ga  Ga10  1  0.694716  0.055252  0.507642  1
  Ga  Ga11  1  0.055252  0.360536  0.007642  1
  Bi  Bi12  1  0.626016  0.769110  0.649398  1
  Bi  Bi13  1  0.632176  0.777376  0.420781  1
  Bi  Bi14  1  0.956677  0.538975  0.910124  1
  Bi  Bi15  1  0.854800  0.632176  0.920781  1
  Bi  Bi16  1  0.769110  0.143094  0.149398  1
  Bi  Bi17  1  0.461025  0.417702  0.910124  1
  Bi  Bi18  1  0.367824  0.222624  0.920781  1
  Bi  Bi19  1  0.336067  0.461037  0.026036  1
  Bi  Bi20  1  0.264254  0.315242  0.872154  1
  Bi  Bi21  1  0.230890  0.856906  0.649398  1
  Bi  Bi22  1  0.272756  0.327051  0.192185  1
  Bi  Bi23  1  0.958086  0.532064  0.139979  1
  Bi  Bi24  1  0.222624  0.854800  0.420781  1
  Bi  Bi25  1  0.124970  0.663933  0.026036  1
  Bi  Bi26  1  0.538963  0.875030  0.026036  1
  Bi  Bi27  1  0.019702  0.201385  0.539066  1
  Bi  Bi28  1  0.143094  0.373984  0.649398  1
  Bi  Bi29  1  0.426021  0.958086  0.639979  1
  Bi  Bi30  1  0.538975  0.582298  0.410124  1
  Bi  Bi31  1  0.054295  0.727244  0.192185  1
  Bi  Bi32  1  0.727244  0.672949  0.692185  1
  Bi  Bi33  1  0.684758  0.949012  0.872154  1
  Bi  Bi34  1  0.582298  0.043323  0.910124  1
  Bi  Bi35  1  0.315242  0.050988  0.372154  1
  Bi  Bi36  1  0.949012  0.264254  0.372154  1
  Bi  Bi37  1  0.818317  0.019702  0.039066  1
  Bi  Bi38  1  0.980298  0.798615  0.039066  1
  Bi  Bi39  1  0.672949  0.945705  0.192185  1
  Bi  Bi40  1  0.041914  0.467936  0.639979  1
  Bi  Bi41  1  0.856906  0.626016  0.149398  1
  Bi  Bi42  1  0.145200  0.367824  0.420781  1
  Bi  Bi43  1  0.573979  0.041914  0.139979  1
  Bi  Bi44  1  0.461037  0.124970  0.526036  1
  Bi  Bi45  1  0.050988  0.735746  0.872154  1
  Bi  Bi46  1  0.875030  0.336067  0.526036  1
  Bi  Bi47  1  0.417702  0.956677  0.410124  1
  Bi  Bi48  1  0.777376  0.145200  0.920781  1
  Bi  Bi49  1  0.467936  0.426021  0.139979  1
  Bi  Bi50  1  0.043323  0.461025  0.410124  1
  Bi  Bi51  1  0.201385  0.181683  0.039066  1
  Bi  Bi52  1  0.945705  0.272756  0.692185  1
  Bi  Bi53  1  0.532064  0.573979  0.639979  1
  Bi  Bi54  1  0.373984  0.230890  0.149398  1
  Bi  Bi55  1  0.798615  0.818317  0.539066  1
  Bi  Bi56  1  0.663933  0.538963  0.526036  1
  Bi  Bi57  1  0.735746  0.684758  0.372154  1
  Bi  Bi58  1  0.327051  0.054295  0.692185  1
  Bi  Bi59  1  0.181683  0.980298  0.539066  1
  Cl  Cl60  1  0.868429  0.543714  0.396239  1
  Cl  Cl61  1  0.072614  0.653299  0.516431  1
  Cl  Cl62  1  0.783943  0.339000  0.253811  1
  Cl  Cl63  1  0.543714  0.675284  0.896239  1
  Cl  Cl64  1  0.661000  0.444943  0.253811  1
  Cl  Cl65  1  0.555937  0.215552  0.786153  1
  Cl  Cl66  1  0.763106  0.800637  0.965652  1
  Cl  Cl67  1  0.784448  0.340385  0.786153  1
  Cl  Cl68  1  0.199363  0.962470  0.965652  1
  Cl  Cl69  1  0.456286  0.324716  0.396239  1
  Cl  Cl70  1  0.116847  0.405312  0.152629  1
  Cl  Cl71  1  0.333333  0.666667  0.069038  1
  Cl  Cl72  1  0.927386  0.346701  0.016431  1
  Cl  Cl73  1  0.659615  0.444063  0.786153  1
  Cl  Cl74  1  0.324716  0.868429  0.896239  1
  Cl  Cl75  1  0.675284  0.131571  0.396239  1
  Cl  Cl76  1  0.037530  0.236894  0.965652  1
  Cl  Cl77  1  0.216057  0.661000  0.753811  1
  Cl  Cl78  1  0.236894  0.199363  0.465652  1
  Cl  Cl79  1  0.419315  0.072614  0.016431  1
  Cl  Cl80  1  0.339000  0.555057  0.753811  1
  Cl  Cl81  1  0.444063  0.784448  0.286153  1
  Cl  Cl82  1  0.123195  0.101431  0.737343  1
  Cl  Cl83  1  0.131571  0.456286  0.896239  1
  Cl  Cl84  1  0.580685  0.927386  0.516431  1
  Cl  Cl85  1  0.555057  0.216057  0.253811  1
  Cl  Cl86  1  0.653299  0.580685  0.016431  1
  Cl  Cl87  1  0.876805  0.898569  0.237343  1
  Cl  Cl88  1  0.978236  0.876805  0.737343  1
  Cl  Cl89  1  0.711535  0.116847  0.652629  1
  Cl  Cl90  1  0.333333  0.666667  0.537939  1
  Cl  Cl91  1  0.800637  0.037530  0.465652  1
  Cl  Cl92  1  0.000000  0.000000  0.955581  1
  Cl  Cl93  1  0.444943  0.783943  0.753811  1
  Cl  Cl94  1  0.000000  0.000000  0.455581  1
  Cl  Cl95  1  0.898569  0.021764  0.737343  1
  Cl  Cl96  1  0.405312  0.288465  0.652629  1
  Cl  Cl97  1  0.346701  0.419315  0.516431  1
  Cl  Cl98  1  0.288465  0.883153  0.152629  1
  Cl  Cl99  1  0.666667  0.333333  0.037939  1
  Cl  Cl100  1  0.021764  0.123195  0.237343  1
  Cl  Cl101  1  0.666667  0.333333  0.569038  1
  Cl  Cl102  1  0.594688  0.711535  0.152629  1
  Cl  Cl103  1  0.962470  0.763106  0.465652  1
  Cl  Cl104  1  0.215552  0.659615  0.286153  1
  Cl  Cl105  1  0.883153  0.594688  0.652629  1
  Cl  Cl106  1  0.340385  0.555937  0.286153  1
  Cl  Cl107  1  0.101431  0.978236  0.237343  1
