# generated using pymatgen
data_Ca12Al14O33
_symmetry_space_group_name_H-M   'P 1'
_cell_length_a   10.46896329
_cell_length_b   10.44952116
_cell_length_c   10.47198095
_cell_angle_alpha   109.29707270
_cell_angle_beta   109.21847657
_cell_angle_gamma   109.91832193
_symmetry_Int_Tables_number   1
_chemical_formula_structural   Ca12Al14O33
_chemical_formula_sum   'Ca12 Al14 O33'
_cell_volume   881.62530342
_cell_formula_units_Z   1
loop_
 _symmetry_equiv_pos_site_id
 _symmetry_equiv_pos_as_xyz
  1  'x, y, z'
loop_
 _atom_site_type_symbol
 _atom_site_label
 _atom_site_symmetry_multiplicity
 _atom_site_fract_x
 _atom_site_fract_y
 _atom_site_fract_z
 _atom_site_occupancy
  Al  Al0  1  0.122254  0.874270  0.248213  1
  Al  Al1  1  0.373434  0.623447  0.748539  1
  Al  Al2  1  0.251440  0.123285  0.874379  1
  Al  Al3  1  0.495612  0.999725  0.460511  1
  Al  Al4  1  0.035275  0.035478  0.037306  1
  Al  Al5  1  0.534928  0.534892  0.536025  1
  Al  Al6  1  0.502783  0.997562  0.963740  1
  Al  Al7  1  0.623482  0.750198  0.375068  1
  Al  Al8  1  0.461136  0.498465  0.996450  1
  Al  Al9  1  0.750423  0.376088  0.624543  1
  Al  Al10  1  0.999881  0.962797  0.499734  1
  Al  Al11  1  -0.000694  0.463965  0.502414  1
  Al  Al12  1  0.874591  0.249818  0.126666  1
  Al  Al13  1  0.963121  0.500747  0.001736  1
  Ca  Ca14  1  0.047360  0.290969  0.746500  1
  Ca  Ca15  1  0.249304  0.855529  0.611357  1
  Ca  Ca16  1  0.140961  0.255550  0.391894  1
  Ca  Ca17  1  0.249247  0.384400  0.134996  1
  Ca  Ca18  1  0.360763  0.745784  0.107321  1
  Ca  Ca19  1  0.694817  0.943209  0.746744  1
  Ca  Ca20  1  0.743533  0.634985  0.884089  1
  Ca  Ca21  1  0.612269  0.249252  0.862996  1
  Ca  Ca22  1  0.387753  0.136259  0.246827  1
  Ca  Ca23  1  0.887080  0.767793  0.644536  1
  Ca  Ca24  1  0.859565  0.611013  0.251816  1
  Ca  Ca25  1  0.751322  0.109754  0.365968  1
  O  O26  1  0.108824  0.975310  0.681184  1
  O  O27  1  0.990434  0.626962  0.498517  1
  O  O28  1  0.087495  0.877194  0.401449  1
  O  O29  1  1.001113  0.124242  0.485337  1
  O  O30  1  0.188182  0.486975  0.581073  1
  O  O31  1  0.395868  0.810639  0.795036  1
  O  O32  1  0.290063  0.312064  0.907453  1
  O  O33  1  0.399057  0.604046  0.914667  1
  O  O34  1  0.022788  0.207901  0.121551  1
  O  O35  1  0.310867  0.907719  0.287947  1
  O  O36  1  0.132972  0.503365  0.011629  1
  O  O37  1  0.117271  0.024360  0.210217  1
  O  O38  1  0.511122  0.592647  0.701434  1
  O  O39  1  0.414834  0.099973  0.896856  1
  O  O40  1  0.372841  0.367350  0.364171  1
  O  O41  1  0.205429  0.109281  0.018531  1
  O  O42  1  0.578392  0.897578  0.374507  1
  O  O43  1  0.611575  0.706022  0.520250  1
  O  O44  1  0.479788  0.589621  0.185709  1
  O  O45  1  0.871834  0.861985  0.877552  1
  O  O46  1  0.490162  0.004613  0.626063  1
  O  O47  1  0.709440  0.523249  0.613612  1
  O  O48  1  0.687738  0.092857  0.975562  1
  O  O49  1  0.591386  0.187086  0.476553  1
  O  O50  1  0.793912  0.409515  0.814293  1
  O  O51  1  0.811724  0.791246  0.404341  1
  O  O52  1  0.506156  0.002715  0.133762  1
  O  O53  1  0.627978  0.494652  0.999294  1
  O  O54  1  0.905731  0.379249  0.592568  1
  O  O55  1  0.880811  0.080762  0.721154  1
  O  O56  1  0.901403  0.291733  0.313435  1
  O  O57  1  0.883829  0.407293  0.094713  1
  O  O58  1  0.975301  0.685622  0.091113  1
