# generated using pymatgen
data_SiO2
_symmetry_space_group_name_H-M   'P 1'
_cell_length_a   5.42427144
_cell_length_b   5.42427227
_cell_length_c   5.48010288
_cell_angle_alpha   96.10621579
_cell_angle_beta   96.10621668
_cell_angle_gamma   99.55451666
_symmetry_Int_Tables_number   1
_chemical_formula_structural   SiO2
_chemical_formula_sum   'Si4 O8'
_cell_volume   156.83085125
_cell_formula_units_Z   4
loop_
 _symmetry_equiv_pos_site_id
 _symmetry_equiv_pos_as_xyz
  1  'x, y, z'
loop_
 _atom_site_type_symbol
 _atom_site_label
 _atom_site_symmetry_multiplicity
 _atom_site_fract_x
 _atom_site_fract_y
 _atom_site_fract_z
 _atom_site_occupancy
  Si  Si0  1  0.959458  0.055933  0.505856  1
  Si  Si1  1  0.367166  0.524168  0.079951  1
  Si  Si2  1  0.524168  0.367166  0.579951  1
  Si  Si3  1  0.055933  0.959458  0.005856  1
  O  O4  1  0.557544  0.484381  0.871582  1
  O  O5  1  0.879742  0.905366  0.225843  1
  O  O6  1  0.271940  0.786062  0.032970  1
  O  O7  1  0.151390  0.266571  0.034268  1
  O  O8  1  0.905366  0.879742  0.725843  1
  O  O9  1  0.786062  0.271940  0.532970  1
  O  O10  1  0.484381  0.557544  0.371582  1
  O  O11  1  0.266571  0.151390  0.534268  1
