# generated using pymatgen
data_Lu7Sb3
_symmetry_space_group_name_H-M   'P 1'
_cell_length_a   8.86741697
_cell_length_b   11.97513684
_cell_length_c   11.97513746
_cell_angle_alpha   82.13608966
_cell_angle_beta   68.27522441
_cell_angle_gamma   68.27522280
_symmetry_Int_Tables_number   1
_chemical_formula_structural   Lu7Sb3
_chemical_formula_sum   'Lu28 Sb12'
_cell_volume   1097.39737552
_cell_formula_units_Z   4
loop_
 _symmetry_equiv_pos_site_id
 _symmetry_equiv_pos_as_xyz
  1  'x, y, z'
loop_
 _atom_site_type_symbol
 _atom_site_label
 _atom_site_symmetry_multiplicity
 _atom_site_fract_x
 _atom_site_fract_y
 _atom_site_fract_z
 _atom_site_occupancy
  Lu  Lu0  1  0.529326  0.829490  0.499989  1
  Lu  Lu1  1  0.750000  0.000066  0.999934  1
  Lu  Lu2  1  0.982606  0.681587  0.353174  1
  Lu  Lu3  1  0.123357  0.993180  0.759996  1
  Lu  Lu4  1  0.141194  0.829397  0.500005  1
  Lu  Lu5  1  0.623357  0.759996  0.993180  1
  Lu  Lu6  1  0.335791  0.646838  0.681554  1
  Lu  Lu7  1  0.482606  0.353174  0.681587  1
  Lu  Lu8  1  0.358806  0.499995  0.170603  1
  Lu  Lu9  1  0.383419  0.993154  0.240007  1
  Lu  Lu10  1  0.970674  0.500011  0.170510  1
  Lu  Lu11  1  0.616581  0.006846  0.759993  1
  Lu  Lu12  1  0.017394  0.318413  0.646826  1
  Lu  Lu13  1  0.116581  0.759993  0.006846  1
  Lu  Lu14  1  0.029326  0.499989  0.829490  1
  Lu  Lu15  1  0.835791  0.681554  0.646838  1
  Lu  Lu16  1  0.858806  0.170603  0.499995  1
  Lu  Lu17  1  0.641194  0.500005  0.829397  1
  Lu  Lu18  1  0.876643  0.006820  0.240004  1
  Lu  Lu19  1  0.250000  0.999934  0.000066  1
  Lu  Lu20  1  0.517394  0.646826  0.318413  1
  Lu  Lu21  1  0.376643  0.240004  0.006820  1
  Lu  Lu22  1  0.470674  0.170510  0.500011  1
  Lu  Lu23  1  0.664209  0.353162  0.318446  1
  Lu  Lu24  1  0.250000  0.499998  0.500002  1
  Lu  Lu25  1  0.883419  0.240007  0.993154  1
  Lu  Lu26  1  0.164209  0.318446  0.353162  1
  Lu  Lu27  1  0.750000  0.500002  0.499998  1
  Sb  Sb28  1  0.552904  0.197177  0.197126  1
  Sb  Sb29  1  0.719648  0.499969  0.060670  1
  Sb  Sb30  1  0.447096  0.802823  0.802874  1
  Sb  Sb31  1  0.280352  0.500031  0.939330  1
  Sb  Sb32  1  0.219648  0.060670  0.499969  1
  Sb  Sb33  1  0.750000  0.802797  0.197203  1
  Sb  Sb34  1  0.780352  0.939330  0.500031  1
  Sb  Sb35  1  0.250000  0.802826  0.197174  1
  Sb  Sb36  1  0.052904  0.197126  0.197177  1
  Sb  Sb37  1  0.750000  0.197174  0.802826  1
  Sb  Sb38  1  0.947096  0.802874  0.802823  1
  Sb  Sb39  1  0.250000  0.197203  0.802797  1
