# generated using pymatgen
data_Sr9TmV7O28
_symmetry_space_group_name_H-M   'P 1'
_cell_length_a   14.91568988
_cell_length_b   14.91568978
_cell_length_c   14.91568981
_cell_angle_alpha   44.81317142
_cell_angle_beta   44.81317182
_cell_angle_gamma   44.81317329
_symmetry_Int_Tables_number   1
_chemical_formula_structural   Sr9TmV7O28
_chemical_formula_sum   'Sr18 Tm2 V14 O56'
_cell_volume   1499.73369586
_cell_formula_units_Z   2
loop_
 _symmetry_equiv_pos_site_id
 _symmetry_equiv_pos_as_xyz
  1  'x, y, z'
loop_
 _atom_site_type_symbol
 _atom_site_label
 _atom_site_symmetry_multiplicity
 _atom_site_fract_x
 _atom_site_fract_y
 _atom_site_fract_z
 _atom_site_occupancy
  Sr  Sr0  1  0.153470  0.567075  0.577451  1
  Sr  Sr1  1  0.453430  0.469665  0.052536  1
  Sr  Sr2  1  0.853126  0.435698  0.407861  1
  Sr  Sr3  1  0.052536  0.453430  0.469665  1
  Sr  Sr4  1  0.552536  0.969665  0.953430  1
  Sr  Sr5  1  0.953430  0.552536  0.969665  1
  Sr  Sr6  1  0.567075  0.577451  0.153470  1
  Sr  Sr7  1  0.407861  0.853126  0.435698  1
  Sr  Sr8  1  0.577451  0.153470  0.567075  1
  Sr  Sr9  1  0.077451  0.067075  0.653470  1
  Sr  Sr10  1  0.353126  0.907861  0.935698  1
  Sr  Sr11  1  0.435698  0.407861  0.853126  1
  Sr  Sr12  1  0.067075  0.653470  0.077451  1
  Sr  Sr13  1  0.653470  0.077451  0.067075  1
  Sr  Sr14  1  0.469665  0.052536  0.453430  1
  Sr  Sr15  1  0.935698  0.353126  0.907861  1
  Sr  Sr16  1  0.969665  0.953430  0.552536  1
  Sr  Sr17  1  0.907861  0.935698  0.353126  1
  Tm  Tm18  1  0.499930  0.499930  0.499930  1
  Tm  Tm19  1  0.999930  0.999930  0.999930  1
  V  V20  1  0.320408  0.776768  0.808331  1
  V  V21  1  0.688580  0.719864  0.186996  1
  V  V22  1  0.808331  0.320408  0.776768  1
  V  V23  1  0.770482  0.770482  0.770482  1
  V  V24  1  0.820408  0.308331  0.276768  1
  V  V25  1  0.308331  0.276768  0.820408  1
  V  V26  1  0.276768  0.820408  0.308331  1
  V  V27  1  0.270482  0.270482  0.270482  1
  V  V28  1  0.719864  0.186996  0.688580  1
  V  V29  1  0.686996  0.219864  0.188580  1
  V  V30  1  0.188580  0.686996  0.219864  1
  V  V31  1  0.186996  0.688580  0.719864  1
  V  V32  1  0.776768  0.808331  0.320408  1
  V  V33  1  0.219864  0.188580  0.686996  1
  O  O34  1  0.103603  0.399135  0.273618  1
  O  O35  1  0.857542  0.402041  0.767049  1
  O  O36  1  0.880139  0.135634  0.877067  1
  O  O37  1  0.893680  0.336796  0.607278  1
  O  O38  1  0.106922  0.676382  0.686949  1
  O  O39  1  0.595163  0.898429  0.142381  1
  O  O40  1  0.380139  0.377067  0.635634  1
  O  O41  1  0.607278  0.893680  0.336796  1
  O  O42  1  0.642381  0.398429  0.095163  1
  O  O43  1  0.130950  0.111720  0.870880  1
  O  O44  1  0.313717  0.313717  0.313717  1
  O  O45  1  0.686949  0.106922  0.676382  1
  O  O46  1  0.634958  0.154487  0.364282  1
  O  O47  1  0.870880  0.130950  0.111720  1
  O  O48  1  0.142381  0.595163  0.898429  1
  O  O49  1  0.902041  0.357542  0.267049  1
  O  O50  1  0.628535  0.374791  0.858511  1
  O  O51  1  0.374791  0.858511  0.628535  1
  O  O52  1  0.898429  0.142381  0.595163  1
  O  O53  1  0.399135  0.273618  0.103603  1
  O  O54  1  0.606922  0.186949  0.176382  1
  O  O55  1  0.128535  0.358511  0.874791  1
  O  O56  1  0.874791  0.128535  0.358511  1
  O  O57  1  0.676382  0.686949  0.106922  1
  O  O58  1  0.603603  0.773618  0.899135  1
  O  O59  1  0.107278  0.836796  0.393680  1
  O  O60  1  0.773618  0.899135  0.603603  1
  O  O61  1  0.154487  0.364282  0.634958  1
  O  O62  1  0.858511  0.628535  0.374791  1
  O  O63  1  0.186949  0.176382  0.606922  1
  O  O64  1  0.377067  0.635634  0.380139  1
  O  O65  1  0.176382  0.606922  0.186949  1
  O  O66  1  0.135634  0.877067  0.880139  1
  O  O67  1  0.267049  0.902041  0.357542  1
  O  O68  1  0.813717  0.813717  0.813717  1
  O  O69  1  0.899135  0.603603  0.773618  1
  O  O70  1  0.836796  0.393680  0.107278  1
  O  O71  1  0.864282  0.654487  0.134958  1
  O  O72  1  0.357542  0.267049  0.902041  1
  O  O73  1  0.358511  0.874791  0.128535  1
  O  O74  1  0.370880  0.611720  0.630950  1
  O  O75  1  0.877067  0.880139  0.135634  1
  O  O76  1  0.611720  0.630950  0.370880  1
  O  O77  1  0.767049  0.857542  0.402041  1
  O  O78  1  0.402041  0.767049  0.857542  1
  O  O79  1  0.654487  0.134958  0.864282  1
  O  O80  1  0.635634  0.380139  0.377067  1
  O  O81  1  0.630950  0.370880  0.611720  1
  O  O82  1  0.336796  0.607278  0.893680  1
  O  O83  1  0.111720  0.870880  0.130950  1
  O  O84  1  0.095163  0.642381  0.398429  1
  O  O85  1  0.364282  0.634958  0.154487  1
  O  O86  1  0.398429  0.095163  0.642381  1
  O  O87  1  0.273618  0.103603  0.399135  1
  O  O88  1  0.393680  0.107278  0.836796  1
  O  O89  1  0.134958  0.864282  0.654487  1
