# generated using pymatgen
data_LiZnPO4
_symmetry_space_group_name_H-M   'P 1'
_cell_length_a   9.88729447
_cell_length_b   10.05474527
_cell_length_c   16.41402045
_cell_angle_alpha   97.68814186
_cell_angle_beta   90.00000000
_cell_angle_gamma   119.45060550
_symmetry_Int_Tables_number   1
_chemical_formula_structural   LiZnPO4
_chemical_formula_sum   'Li16 Zn16 P16 O64'
_cell_volume   1404.05801971
_cell_formula_units_Z   16
loop_
 _symmetry_equiv_pos_site_id
 _symmetry_equiv_pos_as_xyz
  1  'x, y, z'
loop_
 _atom_site_type_symbol
 _atom_site_label
 _atom_site_symmetry_multiplicity
 _atom_site_fract_x
 _atom_site_fract_y
 _atom_site_fract_z
 _atom_site_occupancy
  Li  Li0  1  0.313188  0.453395  0.498665  1
  Li  Li1  1  0.812786  0.012353  0.497213  1
  Li  Li2  1  0.759660  0.840489  0.746892  1
  Li  Li3  1  0.203808  0.772641  0.747578  1
  Li  Li4  1  0.811307  0.512905  0.496572  1
  Li  Li5  1  0.701598  0.512905  0.996572  1
  Li  Li6  1  0.701940  0.278649  0.747258  1
  Li  Li7  1  0.576709  0.278649  0.247258  1
  Li  Li8  1  0.568834  0.772641  0.247578  1
  Li  Li9  1  0.199567  0.012353  0.997213  1
  Li  Li10  1  0.140207  0.453395  0.998665  1
  Li  Li11  1  0.074277  0.334223  0.248489  1
  Li  Li12  1  0.080828  0.840489  0.246892  1
  Li  Li13  1  0.639384  0.952050  0.997439  1
  Li  Li14  1  0.312666  0.952050  0.497439  1
  Li  Li15  1  0.259946  0.334223  0.748489  1
  Zn  Zn16  1  0.767443  0.713194  0.370807  1
  Zn  Zn17  1  0.004276  0.329772  0.622231  1
  Zn  Zn18  1  0.380634  0.885903  0.121422  1
  Zn  Zn19  1  0.511305  0.390882  0.621337  1
  Zn  Zn20  1  0.382001  0.652573  0.872747  1
  Zn  Zn21  1  0.270572  0.652573  0.372747  1
  Zn  Zn22  1  0.879577  0.390882  0.121337  1
  Zn  Zn23  1  0.505269  0.885903  0.621422  1
  Zn  Zn24  1  0.826047  0.835034  0.120861  1
  Zn  Zn25  1  0.945751  0.713194  0.870807  1
  Zn  Zn26  1  0.769273  0.214782  0.372579  1
  Zn  Zn27  1  0.884500  0.151493  0.871894  1
  Zn  Zn28  1  0.445509  0.214782  0.872579  1
  Zn  Zn29  1  0.266993  0.151493  0.371894  1
  Zn  Zn30  1  0.008987  0.835034  0.620861  1
  Zn  Zn31  1  0.325496  0.329772  0.122231  1
  P  P32  1  0.043572  0.460389  0.811074  1
  P  P33  1  0.918128  0.520191  0.309141  1
  P  P34  1  0.481884  0.647198  0.060173  1
  P  P35  1  0.101595  0.016246  0.809065  1
  P  P36  1  0.544933  0.963328  0.810796  1
  P  P37  1  0.418396  0.963328  0.310796  1
  P  P38  1  0.982565  0.151046  0.060179  1
  P  P39  1  0.038782  0.705406  0.058218  1
  P  P40  1  0.537058  0.202263  0.058719  1
  P  P41  1  0.666624  0.705406  0.558218  1
  P  P42  1  0.602064  0.520191  0.809141  1
  P  P43  1  0.165314  0.647198  0.560173  1
  P  P44  1  0.665205  0.202263  0.558719  1
  P  P45  1  0.168481  0.151046  0.560179  1
  P  P46  1  0.416817  0.460389  0.311074  1
  P  P47  1  0.914651  0.016246  0.309065  1
  O  O48  1  0.139082  0.480078  0.548467  1
  O  O49  1  0.006251  0.640100  0.572886  1
  O  O50  1  0.007448  0.138763  0.573859  1
  O  O51  1  0.442170  0.324847  0.326546  1
  O  O52  1  0.844082  0.440568  0.385349  1
  O  O53  1  0.419002  0.161372  0.984339  1
  O  O54  1  0.806988  0.415306  0.231928  1
  O  O55  1  0.785921  0.762388  0.634543  1
  O  O56  1  0.470154  0.750260  0.136708  1
  O  O57  1  0.932146  0.179926  0.320427  1
  O  O58  1  0.742370  0.161372  0.484339  1
  O  O59  1  0.663044  0.002351  0.884965  1
  O  O60  1  0.108625  0.907032  0.734653  1
  O  O61  1  0.596486  0.440568  0.885349  1
  O  O62  1  0.528033  0.104837  0.797962  1
  O  O63  1  0.247780  0.179926  0.820427  1
  O  O64  1  0.747428  0.684340  0.821163  1
  O  O65  1  0.508697  0.060003  0.573505  1
  O  O66  1  0.202442  0.835524  0.042047  1
  O  O67  1  0.633849  0.640100  0.072886  1
  O  O68  1  0.240154  0.726245  0.484146  1
  O  O69  1  0.110433  0.410565  0.734516  1
  O  O70  1  0.699623  0.334229  0.042400  1
  O  O71  1  0.384667  0.827064  0.826582  1
  O  O72  1  0.936912  0.684340  0.321163  1
  O  O73  1  0.077128  0.032108  0.294972  1
  O  O74  1  0.092925  0.940035  0.887098  1
  O  O75  1  0.634606  0.334229  0.542400  1
  O  O76  1  0.452972  0.532641  0.796968  1
  O  O77  1  0.026304  0.600729  0.795731  1
  O  O78  1  0.343989  0.504692  0.386667  1
  O  O79  1  0.608318  0.415306  0.731928  1
  O  O80  1  0.574425  0.600729  0.295731  1
  O  O81  1  0.308438  0.917620  0.231616  1
  O  O82  1  0.921187  0.661363  0.983115  1
  O  O83  1  0.609182  0.917620  0.731616  1
  O  O84  1  0.146489  0.985494  0.549259  1
  O  O85  1  0.576804  0.104837  0.297962  1
  O  O86  1  0.633082  0.835524  0.542047  1
  O  O87  1  0.474711  0.254857  0.136650  1
  O  O88  1  0.551306  0.060003  0.073505  1
  O  O89  1  0.976468  0.762388  0.134543  1
  O  O90  1  0.798407  0.907032  0.234653  1
  O  O91  1  0.954980  0.032108  0.794972  1
  O  O92  1  0.285098  0.258522  0.635107  1
  O  O93  1  0.339307  0.002351  0.384965  1
  O  O94  1  0.300132  0.410565  0.234516  1
  O  O95  1  0.160703  0.504692  0.886667  1
  O  O96  1  0.280106  0.750260  0.636708  1
  O  O97  1  0.882677  0.324847  0.826546  1
  O  O98  1  0.780146  0.254857  0.636650  1
  O  O99  1  0.131315  0.138763  0.073859  1
  O  O100  1  0.511471  0.563431  0.574840  1
  O  O101  1  0.839005  0.985494  0.049259  1
  O  O102  1  0.340995  0.480078  0.048467  1
  O  O103  1  0.847110  0.940035  0.387098  1
  O  O104  1  0.442397  0.827064  0.326582  1
  O  O105  1  0.079669  0.532641  0.296968  1
  O  O106  1  0.740175  0.661363  0.483115  1
  O  O107  1  0.973424  0.258522  0.135107  1
  O  O108  1  0.989415  0.227701  0.982833  1
  O  O109  1  0.238286  0.227701  0.482833  1
  O  O110  1  0.486091  0.726245  0.984146  1
  O  O111  1  0.051960  0.563431  0.074840  1
