# generated using pymatgen
data_K2TcI6
_symmetry_space_group_name_H-M   'P 1'
_cell_length_a   8.00736651
_cell_length_b   8.06790796
_cell_length_c   11.65005194
_cell_angle_alpha   90.00000000
_cell_angle_beta   90.48492421
_cell_angle_gamma   90.00000000
_symmetry_Int_Tables_number   1
_chemical_formula_structural   K2TcI6
_chemical_formula_sum   'K4 Tc2 I12'
_cell_volume   752.59780816
_cell_formula_units_Z   2
loop_
 _symmetry_equiv_pos_site_id
 _symmetry_equiv_pos_as_xyz
  1  'x, y, z'
loop_
 _atom_site_type_symbol
 _atom_site_label
 _atom_site_symmetry_multiplicity
 _atom_site_fract_x
 _atom_site_fract_y
 _atom_site_fract_z
 _atom_site_occupancy
  K  K0  1  0.014718  0.456876  0.748989  1
  K  K1  1  0.485282  0.956876  0.751011  1
  K  K2  1  0.514718  0.043124  0.248989  1
  K  K3  1  0.985282  0.543124  0.251011  1
  Tc  Tc4  1  0.000000  0.000000  0.000000  1
  Tc  Tc5  1  0.500000  0.500000  0.500000  1
  I  I6  1  0.721730  0.801845  0.026087  1
  I  I7  1  0.549785  0.498805  0.734347  1
  I  I8  1  0.450215  0.501195  0.265653  1
  I  I9  1  0.803443  0.279267  0.019545  1
  I  I10  1  0.778270  0.301845  0.473913  1
  I  I11  1  0.303443  0.220733  0.519545  1
  I  I12  1  0.278270  0.198155  0.973913  1
  I  I13  1  0.696557  0.779267  0.480455  1
  I  I14  1  0.196557  0.720733  0.980455  1
  I  I15  1  0.950215  0.998805  0.765653  1
  I  I16  1  0.049785  0.001195  0.234347  1
  I  I17  1  0.221730  0.698155  0.526087  1
