# generated using pymatgen
data_CsAlBP2HO9
_symmetry_space_group_name_H-M   'P 1'
_cell_length_a   8.81671668
_cell_length_b   9.36154603
_cell_length_c   9.59614083
_cell_angle_alpha   104.56745295
_cell_angle_beta   90.00000000
_cell_angle_gamma   90.00000000
_symmetry_Int_Tables_number   1
_chemical_formula_structural   CsAlBP2HO9
_chemical_formula_sum   'Cs4 Al4 B4 P8 H4 O36'
_cell_volume   766.58464848
_cell_formula_units_Z   4
loop_
 _symmetry_equiv_pos_site_id
 _symmetry_equiv_pos_as_xyz
  1  'x, y, z'
loop_
 _atom_site_type_symbol
 _atom_site_label
 _atom_site_symmetry_multiplicity
 _atom_site_fract_x
 _atom_site_fract_y
 _atom_site_fract_z
 _atom_site_occupancy
  Cs  Cs0  1  0.617742  0.695412  0.556539  1
  Cs  Cs1  1  0.117742  0.304588  0.943461  1
  Cs  Cs2  1  0.382258  0.304588  0.443461  1
  Cs  Cs3  1  0.882258  0.695412  0.056539  1
  P  P4  1  0.073895  0.571543  0.700584  1
  P  P5  1  0.573895  0.428457  0.799416  1
  P  P6  1  0.926105  0.428457  0.299416  1
  P  P7  1  0.426105  0.571543  0.200584  1
  P  P8  1  0.772251  0.089027  0.782640  1
  P  P9  1  0.272251  0.910973  0.717360  1
  P  P10  1  0.227749  0.910973  0.217360  1
  P  P11  1  0.727749  0.089027  0.282640  1
  Al  Al12  1  0.153504  0.697103  0.427673  1
  Al  Al13  1  0.653504  0.302897  0.072327  1
  Al  Al14  1  0.846496  0.302897  0.572327  1
  Al  Al15  1  0.346496  0.697103  0.927673  1
  B  B16  1  0.966815  0.843682  0.701319  1
  B  B17  1  0.466815  0.156318  0.798681  1
  B  B18  1  0.033185  0.156318  0.298681  1
  B  B19  1  0.533185  0.843682  0.201319  1
  O  O20  1  0.951144  0.700726  0.736353  1
  O  O21  1  0.451144  0.299274  0.763647  1
  O  O22  1  0.048856  0.299274  0.263647  1
  O  O23  1  0.548856  0.700726  0.236353  1
  O  O24  1  0.101771  0.929085  0.767896  1
  O  O25  1  0.601771  0.070915  0.732104  1
  O  O26  1  0.898229  0.070915  0.232104  1
  O  O27  1  0.398229  0.929085  0.267896  1
  O  O28  1  0.181360  0.594977  0.830351  1
  O  O29  1  0.681360  0.405023  0.669649  1
  O  O30  1  0.818640  0.405023  0.169649  1
  O  O31  1  0.318640  0.594977  0.330351  1
  O  O32  1  0.827578  0.924853  0.755861  1
  O  O33  1  0.327578  0.075147  0.744139  1
  O  O34  1  0.172422  0.075147  0.244139  1
  O  O35  1  0.672422  0.924853  0.255861  1
  O  O36  1  0.782086  0.163026  0.943109  1
  O  O37  1  0.282086  0.836974  0.556891  1
  O  O38  1  0.217914  0.836974  0.056891  1
  O  O39  1  0.717914  0.163026  0.443109  1
  O  O40  1  0.866458  0.165339  0.688526  1
  O  O41  1  0.366458  0.834661  0.811474  1
  O  O42  1  0.133542  0.834661  0.311474  1
  O  O43  1  0.633542  0.165339  0.188526  1
  O  O44  1  0.989964  0.426241  0.690565  1
  O  O45  1  0.489964  0.573759  0.809435  1
  O  O46  1  0.010036  0.573759  0.309435  1
  O  O47  1  0.510036  0.426241  0.190565  1
  O  O48  1  0.155742  0.578326  0.561372  1
  O  O49  1  0.655742  0.421674  0.938628  1
  O  O50  1  0.844258  0.421674  0.438628  1
  O  O51  1  0.344258  0.578326  0.061372  1
  O  O52  1  0.974680  0.811090  0.539940  1
  O  O53  1  0.474680  0.188910  0.960060  1
  O  O54  1  0.025320  0.188910  0.460060  1
  O  O55  1  0.525320  0.811090  0.039940  1
  H  H56  1  0.945044  0.894231  0.502301  1
  H  H57  1  0.445044  0.105769  0.997699  1
  H  H58  1  0.054956  0.105769  0.497699  1
  H  H59  1  0.554956  0.894231  0.002301  1
