# generated using pymatgen
data_K4Sb2N3O9F7
_symmetry_space_group_name_H-M   'P 1'
_cell_length_a   8.75656275
_cell_length_b   9.12669211
_cell_length_c   20.29097441
_cell_angle_alpha   90.00000000
_cell_angle_beta   90.00000000
_cell_angle_gamma   90.00000000
_symmetry_Int_Tables_number   1
_chemical_formula_structural   K4Sb2N3O9F7
_chemical_formula_sum   'K16 Sb8 N12 O36 F28'
_cell_volume   1621.62326769
_cell_formula_units_Z   4
loop_
 _symmetry_equiv_pos_site_id
 _symmetry_equiv_pos_as_xyz
  1  'x, y, z'
loop_
 _atom_site_type_symbol
 _atom_site_label
 _atom_site_symmetry_multiplicity
 _atom_site_fract_x
 _atom_site_fract_y
 _atom_site_fract_z
 _atom_site_occupancy
  K  K0  1  0.676679  0.664682  0.996624  1
  K  K1  1  0.812446  0.168834  0.678500  1
  K  K2  1  0.823321  0.835318  0.496624  1
  K  K3  1  0.176679  0.835318  0.003376  1
  K  K4  1  0.323321  0.664682  0.503376  1
  K  K5  1  0.312446  0.331166  0.321500  1
  K  K6  1  0.823321  0.164682  0.996624  1
  K  K7  1  0.312446  0.668834  0.821500  1
  K  K8  1  0.812446  0.831166  0.178500  1
  K  K9  1  0.187554  0.168834  0.821500  1
  K  K10  1  0.187554  0.831166  0.321500  1
  K  K11  1  0.687554  0.668834  0.678500  1
  K  K12  1  0.687554  0.331166  0.178500  1
  K  K13  1  0.176679  0.164682  0.503376  1
  K  K14  1  0.323321  0.335318  0.003376  1
  K  K15  1  0.676679  0.335318  0.496624  1
  Sb  Sb16  1  0.386661  0.379817  0.653649  1
  Sb  Sb17  1  0.113339  0.879817  0.653649  1
  Sb  Sb18  1  0.613339  0.379817  0.846351  1
  Sb  Sb19  1  0.613339  0.620183  0.346351  1
  Sb  Sb20  1  0.386661  0.620183  0.153649  1
  Sb  Sb21  1  0.886661  0.120183  0.346351  1
  Sb  Sb22  1  0.886661  0.879817  0.846351  1
  Sb  Sb23  1  0.113339  0.120183  0.153649  1
  N  N24  1  0.470153  0.986085  0.917549  1
  N  N25  1  0.470153  0.013915  0.417549  1
  N  N26  1  0.970153  0.513915  0.082451  1
  N  N27  1  0.000000  0.509908  0.750000  1
  N  N28  1  0.029847  0.513915  0.417549  1
  N  N29  1  0.500000  0.990092  0.250000  1
  N  N30  1  0.029847  0.486085  0.917549  1
  N  N31  1  0.529847  0.013915  0.082451  1
  N  N32  1  0.500000  0.009908  0.750000  1
  N  N33  1  0.529847  0.986085  0.582451  1
  N  N34  1  0.970153  0.486085  0.582451  1
  N  N35  1  0.000000  0.490092  0.250000  1
  O  O36  1  0.034771  0.651831  0.424759  1
  O  O37  1  0.378433  0.941445  0.763966  1
  O  O38  1  0.088482  0.546555  0.606519  1
  O  O39  1  0.000000  0.649535  0.750000  1
  O  O40  1  0.588482  0.046555  0.893481  1
  O  O41  1  0.534771  0.151831  0.075241  1
  O  O42  1  0.878433  0.441445  0.736034  1
  O  O43  1  0.356082  0.063420  0.934470  1
  O  O44  1  0.856082  0.563420  0.565530  1
  O  O45  1  0.911518  0.453445  0.393481  1
  O  O46  1  0.965229  0.348169  0.575241  1
  O  O47  1  0.121567  0.558555  0.263966  1
  O  O48  1  0.088482  0.453445  0.106519  1
  O  O49  1  0.643918  0.063420  0.565530  1
  O  O50  1  0.143918  0.563420  0.934470  1
  O  O51  1  0.121567  0.441445  0.763966  1
  O  O52  1  0.965229  0.651831  0.075241  1
  O  O53  1  0.534771  0.848169  0.575241  1
  O  O54  1  0.378433  0.058555  0.263966  1
  O  O55  1  0.621567  0.058555  0.236034  1
  O  O56  1  0.878433  0.558555  0.236034  1
  O  O57  1  0.911518  0.546555  0.893481  1
  O  O58  1  0.465229  0.151831  0.424759  1
  O  O59  1  0.500000  0.850465  0.250000  1
  O  O60  1  0.856082  0.436580  0.065530  1
  O  O61  1  0.411518  0.953445  0.106519  1
  O  O62  1  0.034771  0.348169  0.924759  1
  O  O63  1  0.643918  0.936580  0.065530  1
  O  O64  1  0.500000  0.149535  0.750000  1
  O  O65  1  0.588482  0.953445  0.393481  1
  O  O66  1  0.356082  0.936580  0.434470  1
  O  O67  1  0.621567  0.941445  0.736034  1
  O  O68  1  0.143918  0.436580  0.434470  1
  O  O69  1  0.000000  0.350465  0.250000  1
  O  O70  1  0.465229  0.848169  0.924759  1
  O  O71  1  0.411518  0.046555  0.606519  1
  F  F72  1  0.896197  0.094424  0.857132  1
  F  F73  1  0.373332  0.377027  0.553742  1
  F  F74  1  0.373332  0.622973  0.053742  1
  F  F75  1  0.896197  0.905576  0.357132  1
  F  F76  1  0.000000  0.041199  0.250000  1
  F  F77  1  0.392474  0.629921  0.365758  1
  F  F78  1  0.873332  0.877027  0.946258  1
  F  F79  1  0.000000  0.958801  0.750000  1
  F  F80  1  0.107526  0.129921  0.365758  1
  F  F81  1  0.626668  0.622973  0.446258  1
  F  F82  1  0.396197  0.594424  0.642868  1
  F  F83  1  0.626668  0.377027  0.946258  1
  F  F84  1  0.603803  0.594424  0.857132  1
  F  F85  1  0.892474  0.129921  0.134242  1
  F  F86  1  0.392474  0.370079  0.865758  1
  F  F87  1  0.873332  0.122973  0.446258  1
  F  F88  1  0.396197  0.405576  0.142868  1
  F  F89  1  0.107526  0.870079  0.865758  1
  F  F90  1  0.607526  0.370079  0.634242  1
  F  F91  1  0.892474  0.870079  0.634242  1
  F  F92  1  0.103803  0.094424  0.642868  1
  F  F93  1  0.607526  0.629921  0.134242  1
  F  F94  1  0.126668  0.122973  0.053742  1
  F  F95  1  0.103803  0.905576  0.142868  1
  F  F96  1  0.500000  0.458801  0.750000  1
  F  F97  1  0.500000  0.541199  0.250000  1
  F  F98  1  0.603803  0.405576  0.357132  1
  F  F99  1  0.126668  0.877027  0.553742  1
