# generated using pymatgen
data_Zn3(BO3)2
_symmetry_space_group_name_H-M   'P 1'
_cell_length_a   5.08611467
_cell_length_b   8.48316326
_cell_length_c   12.54087878
_cell_angle_alpha   103.17179098
_cell_angle_beta   101.69749104
_cell_angle_gamma   90.00098614
_symmetry_Int_Tables_number   1
_chemical_formula_structural   Zn3(BO3)2
_chemical_formula_sum   'Zn12 B8 O24'
_cell_volume   515.30914468
_cell_formula_units_Z   4
loop_
 _symmetry_equiv_pos_site_id
 _symmetry_equiv_pos_as_xyz
  1  'x, y, z'
loop_
 _atom_site_type_symbol
 _atom_site_label
 _atom_site_symmetry_multiplicity
 _atom_site_fract_x
 _atom_site_fract_y
 _atom_site_fract_z
 _atom_site_occupancy
  Zn  Zn0  1  0.809845  0.379882  0.254305  1
  Zn  Zn1  1  0.555375  0.120144  0.745686  1
  Zn  Zn2  1  0.190155  0.620118  0.745695  1
  Zn  Zn3  1  0.444625  0.879856  0.254314  1
  Zn  Zn4  1  0.223999  0.174904  0.097866  1
  Zn  Zn5  1  0.126136  0.325098  0.902131  1
  Zn  Zn6  1  0.776001  0.825096  0.902134  1
  Zn  Zn7  1  0.873864  0.674902  0.097869  1
  Zn  Zn8  1  0.900611  0.712210  0.419122  1
  Zn  Zn9  1  0.481453  0.787792  0.580888  1
  Zn  Zn10  1  0.099389  0.287790  0.580878  1
  Zn  Zn11  1  0.518547  0.212208  0.419112  1
  B  B12  1  0.258496  0.962721  0.869316  1
  B  B13  1  0.389100  0.537274  0.130687  1
  B  B14  1  0.741504  0.037279  0.130684  1
  B  B15  1  0.610900  0.462726  0.869313  1
  B  B16  1  0.372425  0.520175  0.374705  1
  B  B17  1  0.997643  0.979810  0.625293  1
  B  B18  1  0.627575  0.479825  0.625295  1
  B  B19  1  0.002357  0.020190  0.374707  1
  O  O20  1  0.164260  0.100943  0.927833  1
  O  O21  1  0.236308  0.399069  0.072171  1
  O  O22  1  0.835740  0.899057  0.072167  1
  O  O23  1  0.763692  0.600931  0.927829  1
  O  O24  1  0.667501  0.539840  0.161984  1
  O  O25  1  0.505562  0.960141  0.837996  1
  O  O26  1  0.332499  0.460160  0.838016  1
  O  O27  1  0.494438  0.039858  0.162004  1
  O  O28  1  0.899112  0.180034  0.160648  1
  O  O29  1  0.738486  0.319957  0.839328  1
  O  O30  1  0.100888  0.819966  0.839352  1
  O  O31  1  0.261514  0.680043  0.160672  1
  O  O32  1  0.488890  0.379782  0.327394  1
  O  O33  1  0.161457  0.120203  0.672574  1
  O  O34  1  0.511110  0.620218  0.672606  1
  O  O35  1  0.838543  0.879797  0.327426  1
  O  O36  1  0.097644  0.839942  0.568767  1
  O  O37  1  0.528965  0.660026  0.431256  1
  O  O38  1  0.902356  0.160058  0.431233  1
  O  O39  1  0.471035  0.339974  0.568744  1
  O  O40  1  0.096911  0.520438  0.367428  1
  O  O41  1  0.729414  0.979578  0.632575  1
  O  O42  1  0.903089  0.479562  0.632572  1
  O  O43  1  0.270586  0.020422  0.367425  1
