# generated using pymatgen
data_EuPH5CO7
_symmetry_space_group_name_H-M   'P 1'
_cell_length_a   6.70461233
_cell_length_b   7.08577685
_cell_length_c   7.92317125
_cell_angle_alpha   111.31674473
_cell_angle_beta   96.30125508
_cell_angle_gamma   90.16480039
_symmetry_Int_Tables_number   1
_chemical_formula_structural   EuPH5CO7
_chemical_formula_sum   'Eu2 P2 H10 C2 O14'
_cell_volume   348.16656519
_cell_formula_units_Z   2
loop_
 _symmetry_equiv_pos_site_id
 _symmetry_equiv_pos_as_xyz
  1  'x, y, z'
loop_
 _atom_site_type_symbol
 _atom_site_label
 _atom_site_symmetry_multiplicity
 _atom_site_fract_x
 _atom_site_fract_y
 _atom_site_fract_z
 _atom_site_occupancy
  Eu  Eu0  1  0.869019  0.777944  0.063444  1
  Eu  Eu1  1  0.130981  0.222056  0.936556  1
  P  P2  1  0.674882  0.250364  0.018127  1
  P  P3  1  0.325118  0.749636  0.981873  1
  H  H4  1  0.488299  0.884493  0.590181  1
  H  H5  1  0.165464  0.521311  0.326916  1
  H  H6  1  0.718904  0.668441  0.642748  1
  H  H7  1  0.519404  0.740892  0.393744  1
  H  H8  1  0.511701  0.115507  0.409819  1
  H  H9  1  0.834536  0.478689  0.673084  1
  H  H10  1  0.480596  0.259108  0.606256  1
  H  H11  1  0.628391  0.287450  0.196273  1
  H  H12  1  0.371609  0.712550  0.803727  1
  H  H13  1  0.281096  0.331559  0.357252  1
  C  C14  1  0.939989  0.093279  0.498257  1
  C  C15  1  0.060011  0.906721  0.501743  1
  O  O16  1  0.522976  0.776019  0.106193  1
  O  O17  1  0.053642  0.756824  0.352785  1
  O  O18  1  0.800440  0.057823  0.960379  1
  O  O19  1  0.413425  0.200895  0.481382  1
  O  O20  1  0.845990  0.078198  0.346997  1
  O  O21  1  0.946358  0.243176  0.647215  1
  O  O22  1  0.817093  0.425668  0.026198  1
  O  O23  1  0.199560  0.942177  0.039621  1
  O  O24  1  0.586575  0.799105  0.518618  1
  O  O25  1  0.182907  0.574332  0.973802  1
  O  O26  1  0.477024  0.223981  0.893807  1
  O  O27  1  0.216578  0.385169  0.266011  1
  O  O28  1  0.783422  0.614831  0.733989  1
  O  O29  1  0.154010  0.921802  0.653003  1
