# generated using pymatgen
data_SiO2
_symmetry_space_group_name_H-M   'P 1'
_cell_length_a   7.59835978
_cell_length_b   11.92173489
_cell_length_c   11.92173484
_cell_angle_alpha   105.53898986
_cell_angle_beta   90.00000000
_cell_angle_gamma   90.00000000
_symmetry_Int_Tables_number   1
_chemical_formula_structural   SiO2
_chemical_formula_sum   'Si18 O36'
_cell_volume   1040.46438656
_cell_formula_units_Z   18
loop_
 _symmetry_equiv_pos_site_id
 _symmetry_equiv_pos_as_xyz
  1  'x, y, z'
loop_
 _atom_site_type_symbol
 _atom_site_label
 _atom_site_symmetry_multiplicity
 _atom_site_fract_x
 _atom_site_fract_y
 _atom_site_fract_z
 _atom_site_occupancy
  Si  Si0  1  0.706257  0.116515  0.281099  1
  Si  Si1  1  0.293743  0.116515  0.281099  1
  Si  Si2  1  0.704992  0.850924  0.149076  1
  Si  Si3  1  0.706257  0.281099  0.116515  1
  Si  Si4  1  0.000000  0.268381  0.731619  1
  Si  Si5  1  0.000000  0.731619  0.268381  1
  Si  Si6  1  0.293743  0.281099  0.116515  1
  Si  Si7  1  0.000000  0.529133  0.874873  1
  Si  Si8  1  0.706257  0.718901  0.883485  1
  Si  Si9  1  0.295008  0.149076  0.850924  1
  Si  Si10  1  0.706257  0.883485  0.718901  1
  Si  Si11  1  0.000000  0.470867  0.125127  1
  Si  Si12  1  0.704992  0.149076  0.850924  1
  Si  Si13  1  0.293743  0.883485  0.718901  1
  Si  Si14  1  0.000000  0.874873  0.529133  1
  Si  Si15  1  0.000000  0.125127  0.470867  1
  Si  Si16  1  0.293743  0.718901  0.883485  1
  Si  Si17  1  0.295008  0.850924  0.149076  1
  O  O18  1  0.747879  0.010557  0.807636  1
  O  O19  1  0.754601  0.216030  0.216030  1
  O  O20  1  0.175969  0.862730  0.602156  1
  O  O21  1  0.824031  0.137270  0.397844  1
  O  O22  1  0.747879  0.989443  0.192364  1
  O  O23  1  0.500000  0.875121  0.680863  1
  O  O24  1  0.252121  0.989443  0.192364  1
  O  O25  1  0.175969  0.397844  0.137270  1
  O  O26  1  0.824582  0.219506  0.780494  1
  O  O27  1  0.175969  0.137270  0.397844  1
  O  O28  1  0.500000  0.319137  0.124879  1
  O  O29  1  0.500000  0.826117  0.173883  1
  O  O30  1  0.245399  0.216030  0.216030  1
  O  O31  1  0.500000  0.124879  0.319137  1
  O  O32  1  0.252121  0.010557  0.807636  1
  O  O33  1  0.747879  0.807636  0.010557  1
  O  O34  1  0.000000  0.771290  0.409333  1
  O  O35  1  0.252121  0.192364  0.989443  1
  O  O36  1  0.500000  0.173883  0.826117  1
  O  O37  1  0.175418  0.780494  0.219506  1
  O  O38  1  0.000000  0.500000  0.000000  1
  O  O39  1  0.500000  0.680863  0.875121  1
  O  O40  1  0.824031  0.397844  0.137270  1
  O  O41  1  0.000000  0.409333  0.771290  1
  O  O42  1  0.175418  0.219506  0.780494  1
  O  O43  1  0.824582  0.780494  0.219506  1
  O  O44  1  0.000000  0.590667  0.228710  1
  O  O45  1  0.245399  0.783970  0.783970  1
  O  O46  1  0.824031  0.602156  0.862730  1
  O  O47  1  0.754601  0.783970  0.783970  1
  O  O48  1  0.000000  0.000000  0.500000  1
  O  O49  1  0.252121  0.807636  0.010557  1
  O  O50  1  0.000000  0.228710  0.590667  1
  O  O51  1  0.824031  0.862730  0.602156  1
  O  O52  1  0.175969  0.602156  0.862730  1
  O  O53  1  0.747879  0.192364  0.989443  1
