# generated using pymatgen
data_Nd5As2ClO10
_symmetry_space_group_name_H-M   'P 1'
_cell_length_a   5.74219026
_cell_length_b   6.89358932
_cell_length_c   8.94900537
_cell_angle_alpha   68.86287806
_cell_angle_beta   71.28870814
_cell_angle_gamma   65.38641850
_symmetry_Int_Tables_number   1
_chemical_formula_structural   Nd5As2ClO10
_chemical_formula_sum   'Nd5 As2 Cl1 O10'
_cell_volume   294.24251615
_cell_formula_units_Z   1
loop_
 _symmetry_equiv_pos_site_id
 _symmetry_equiv_pos_as_xyz
  1  'x, y, z'
loop_
 _atom_site_type_symbol
 _atom_site_label
 _atom_site_symmetry_multiplicity
 _atom_site_fract_x
 _atom_site_fract_y
 _atom_site_fract_z
 _atom_site_occupancy
  Nd  Nd0  1  0.500352  0.707347  0.291978  1
  Nd  Nd1  1  0.253622  0.365239  0.127588  1
  Nd  Nd2  1  0.000000  0.000000  0.000000  1
  Nd  Nd3  1  0.746378  0.634761  0.872412  1
  Nd  Nd4  1  0.499648  0.292653  0.708022  1
  As  As5  1  0.214869  0.962710  0.607396  1
  As  As6  1  0.785131  0.037290  0.392604  1
  Cl  Cl7  1  0.000000  0.500000  0.500000  1
  O  O8  1  0.866904  0.674922  0.084157  1
  O  O9  1  0.905667  0.964201  0.753280  1
  O  O10  1  0.360180  0.678892  0.600721  1
  O  O11  1  0.639820  0.321108  0.399279  1
  O  O12  1  0.374029  0.674931  0.084169  1
  O  O13  1  0.625971  0.325069  0.915831  1
  O  O14  1  0.376813  0.964220  0.753231  1
  O  O15  1  0.133096  0.325078  0.915843  1
  O  O16  1  0.623187  0.035780  0.246769  1
  O  O17  1  0.094333  0.035799  0.246720  1
