# generated using pymatgen
data_Na2Li3GaO4
_symmetry_space_group_name_H-M   'P 1'
_cell_length_a   6.59212367
_cell_length_b   8.03495616
_cell_length_c   8.34437549
_cell_angle_alpha   90.00000000
_cell_angle_beta   90.00000000
_cell_angle_gamma   90.00000000
_symmetry_Int_Tables_number   1
_chemical_formula_structural   Na2Li3GaO4
_chemical_formula_sum   'Na8 Li12 Ga4 O16'
_cell_volume   441.98008035
_cell_formula_units_Z   4
loop_
 _symmetry_equiv_pos_site_id
 _symmetry_equiv_pos_as_xyz
  1  'x, y, z'
loop_
 _atom_site_type_symbol
 _atom_site_label
 _atom_site_symmetry_multiplicity
 _atom_site_fract_x
 _atom_site_fract_y
 _atom_site_fract_z
 _atom_site_occupancy
  Ga  Ga0  1  0.000000  0.774588  0.874392  1
  Ga  Ga1  1  0.000000  0.225412  0.125608  1
  Ga  Ga2  1  0.500000  0.274588  0.625608  1
  Ga  Ga3  1  0.500000  0.725412  0.374392  1
  Na  Na4  1  0.000000  0.259422  0.754570  1
  Na  Na5  1  0.000000  0.740578  0.245430  1
  Na  Na6  1  0.500000  0.759422  0.745430  1
  Na  Na7  1  0.500000  0.240578  0.254570  1
  Na  Na8  1  0.741597  0.500000  0.000000  1
  Na  Na9  1  0.758403  0.000000  0.500000  1
  Na  Na10  1  0.258403  0.500000  0.000000  1
  Na  Na11  1  0.241597  0.000000  0.500000  1
  O  O12  1  0.000000  0.564098  0.774007  1
  O  O13  1  0.000000  0.435902  0.225993  1
  O  O14  1  0.500000  0.064098  0.725993  1
  O  O15  1  0.500000  0.935902  0.274007  1
  O  O16  1  0.758733  0.803047  0.988122  1
  O  O17  1  0.758733  0.196953  0.011878  1
  O  O18  1  0.741267  0.303047  0.511878  1
  O  O19  1  0.741267  0.696953  0.488122  1
  O  O20  1  0.241267  0.196953  0.011878  1
  O  O21  1  0.241267  0.803047  0.988122  1
  O  O22  1  0.258733  0.696953  0.488122  1
  O  O23  1  0.258733  0.303047  0.511878  1
  O  O24  1  0.000000  0.951040  0.721605  1
  O  O25  1  0.000000  0.048960  0.278395  1
  O  O26  1  0.500000  0.451040  0.778395  1
  O  O27  1  0.500000  0.548960  0.221605  1
  Li  Li28  1  0.754744  0.484611  0.352167  1
  Li  Li29  1  0.754744  0.515389  0.647833  1
  Li  Li30  1  0.745256  0.984611  0.147833  1
  Li  Li31  1  0.745256  0.015389  0.852167  1
  Li  Li32  1  0.245256  0.515389  0.647833  1
  Li  Li33  1  0.245256  0.484611  0.352167  1
  Li  Li34  1  0.254744  0.015389  0.852167  1
  Li  Li35  1  0.254744  0.984611  0.147833  1
  Li  Li36  1  0.000000  0.264831  0.418057  1
  Li  Li37  1  0.000000  0.735169  0.581943  1
  Li  Li38  1  0.500000  0.764831  0.081943  1
  Li  Li39  1  0.500000  0.235169  0.918057  1
