# generated using pymatgen
data_K2Cu3Ge5O14
_symmetry_space_group_name_H-M   'P 1'
_cell_length_a   6.35390758
_cell_length_b   7.28245641
_cell_length_c   7.97645731
_cell_angle_alpha   80.93016453
_cell_angle_beta   70.90255606
_cell_angle_gamma   79.37315783
_symmetry_Int_Tables_number   1
_chemical_formula_structural   K2Cu3Ge5O14
_chemical_formula_sum   'K2 Cu3 Ge5 O14'
_cell_volume   340.90555753
_cell_formula_units_Z   1
loop_
 _symmetry_equiv_pos_site_id
 _symmetry_equiv_pos_as_xyz
  1  'x, y, z'
loop_
 _atom_site_type_symbol
 _atom_site_label
 _atom_site_symmetry_multiplicity
 _atom_site_fract_x
 _atom_site_fract_y
 _atom_site_fract_z
 _atom_site_occupancy
  K  K0  1  0.722492  0.485955  0.160839  1
  K  K1  1  0.277508  0.514045  0.839161  1
  Cu  Cu2  1  0.344239  0.028126  0.670713  1
  Cu  Cu3  1  0.000000  0.000000  0.000000  1
  Cu  Cu4  1  0.655761  0.971874  0.329287  1
  Ge  Ge5  1  0.171731  0.730545  0.304076  1
  Ge  Ge6  1  0.828269  0.269455  0.695924  1
  Ge  Ge7  1  0.789509  0.737772  0.685416  1
  Ge  Ge8  1  0.210491  0.262228  0.314584  1
  Ge  Ge9  1  0.500000  0.000000  0.000000  1
  O  O10  1  0.921047  0.276267  0.455511  1
  O  O11  1  0.425668  0.826124  0.218847  1
  O  O12  1  0.267230  0.498113  0.236701  1
  O  O13  1  0.231783  0.177149  0.114715  1
  O  O14  1  0.600370  0.838071  0.565224  1
  O  O15  1  0.055648  0.182840  0.781447  1
  O  O16  1  0.399630  0.161929  0.434776  1
  O  O17  1  0.078953  0.723733  0.544489  1
  O  O18  1  0.944352  0.817160  0.218553  1
  O  O19  1  0.768217  0.822851  0.885285  1
  O  O20  1  0.574332  0.173876  0.781153  1
  O  O21  1  0.732770  0.501887  0.763299  1
  O  O22  1  0.684310  0.101917  0.093612  1
  O  O23  1  0.315690  0.898083  0.906388  1
