# generated using pymatgen
data_LiUBO5
_symmetry_space_group_name_H-M   'P 1'
_cell_length_a   5.90077871
_cell_length_b   6.87387648
_cell_length_c   10.69218318
_cell_angle_alpha   90.00000000
_cell_angle_beta   90.00000000
_cell_angle_gamma   104.94178766
_symmetry_Int_Tables_number   1
_chemical_formula_structural   LiUBO5
_chemical_formula_sum   'Li4 U4 B4 O20'
_cell_volume   419.02430157
_cell_formula_units_Z   4
loop_
 _symmetry_equiv_pos_site_id
 _symmetry_equiv_pos_as_xyz
  1  'x, y, z'
loop_
 _atom_site_type_symbol
 _atom_site_label
 _atom_site_symmetry_multiplicity
 _atom_site_fract_x
 _atom_site_fract_y
 _atom_site_fract_z
 _atom_site_occupancy
  Li  Li0  1  0.551685  0.124052  0.270969  1
  Li  Li1  1  0.448315  0.375948  0.770969  1
  Li  Li2  1  0.551685  0.624052  0.229031  1
  Li  Li3  1  0.448315  0.875948  0.729031  1
  U  U4  1  0.900587  0.728884  0.934233  1
  U  U5  1  0.099413  0.271116  0.065767  1
  U  U6  1  0.900587  0.228884  0.565767  1
  U  U7  1  0.099413  0.771116  0.434233  1
  B  B8  1  0.215698  0.298464  0.352426  1
  B  B9  1  0.784302  0.701536  0.647574  1
  B  B10  1  0.784302  0.201536  0.852426  1
  B  B11  1  0.215698  0.798464  0.147574  1
  O  O12  1  0.861443  0.387390  0.910474  1
  O  O13  1  0.850611  0.213374  0.175547  1
  O  O14  1  0.345224  0.827719  0.256418  1
  O  O15  1  0.149791  0.951733  0.085252  1
  O  O16  1  0.138557  0.112610  0.410474  1
  O  O17  1  0.654776  0.172281  0.743582  1
  O  O18  1  0.336656  0.320564  0.949906  1
  O  O19  1  0.149791  0.451733  0.414748  1
  O  O20  1  0.850209  0.048267  0.914748  1
  O  O21  1  0.138557  0.612610  0.089526  1
  O  O22  1  0.861443  0.887390  0.589526  1
  O  O23  1  0.850611  0.713374  0.324453  1
  O  O24  1  0.850209  0.548267  0.585252  1
  O  O25  1  0.654776  0.672281  0.756418  1
  O  O26  1  0.345224  0.327719  0.243582  1
  O  O27  1  0.149389  0.286626  0.675547  1
  O  O28  1  0.663344  0.179436  0.449906  1
  O  O29  1  0.336656  0.820564  0.550094  1
  O  O30  1  0.663344  0.679436  0.050094  1
  O  O31  1  0.149389  0.786626  0.824453  1
