# generated using pymatgen
data_SiO2
_symmetry_space_group_name_H-M   'P 1'
_cell_length_a   5.46219310
_cell_length_b   5.46219206
_cell_length_c   5.51550863
_cell_angle_alpha   96.48943026
_cell_angle_beta   96.48942911
_cell_angle_gamma   99.68038732
_symmetry_Int_Tables_number   1
_chemical_formula_structural   SiO2
_chemical_formula_sum   'Si4 O8'
_cell_volume   159.70476156
_cell_formula_units_Z   4
loop_
 _symmetry_equiv_pos_site_id
 _symmetry_equiv_pos_as_xyz
  1  'x, y, z'
loop_
 _atom_site_type_symbol
 _atom_site_label
 _atom_site_symmetry_multiplicity
 _atom_site_fract_x
 _atom_site_fract_y
 _atom_site_fract_z
 _atom_site_occupancy
  Si  Si0  1  0.296455  0.295757  0.717046  1
  Si  Si1  1  0.139078  0.390280  0.210640  1
  Si  Si2  1  0.704243  0.703545  0.282954  1
  Si  Si3  1  0.609720  0.860922  0.789360  1
  O  O4  1  0.749068  0.890522  0.073147  1
  O  O5  1  0.402549  0.594038  0.249453  1
  O  O6  1  0.882653  0.498267  0.236817  1
  O  O7  1  0.501733  0.117347  0.763183  1
  O  O8  1  0.785825  0.834544  0.569239  1
  O  O9  1  0.405962  0.597451  0.750547  1
  O  O10  1  0.109478  0.250932  0.926853  1
  O  O11  1  0.165456  0.214175  0.430761  1
