# generated using pymatgen
data_K3ScSi2O7
_symmetry_space_group_name_H-M   'P 1'
_cell_length_a   5.67920128
_cell_length_b   5.67920089
_cell_length_c   13.83618673
_cell_angle_alpha   90.00000000
_cell_angle_beta   90.00000000
_cell_angle_gamma   120.00000228
_symmetry_Int_Tables_number   1
_chemical_formula_structural   K3ScSi2O7
_chemical_formula_sum   'K6 Sc2 Si4 O14'
_cell_volume   386.47510908
_cell_formula_units_Z   2
loop_
 _symmetry_equiv_pos_site_id
 _symmetry_equiv_pos_as_xyz
  1  'x, y, z'
loop_
 _atom_site_type_symbol
 _atom_site_label
 _atom_site_symmetry_multiplicity
 _atom_site_fract_x
 _atom_site_fract_y
 _atom_site_fract_z
 _atom_site_occupancy
  K  K0  1  0.333333  0.666667  0.406642  1
  K  K1  1  0.000000  0.000000  0.250000  1
  K  K2  1  0.666667  0.333333  0.593358  1
  K  K3  1  0.333333  0.666667  0.093358  1
  K  K4  1  0.666667  0.333333  0.906642  1
  K  K5  1  0.000000  0.000000  0.750000  1
  Sc  Sc6  1  0.000000  0.000000  0.500000  1
  Sc  Sc7  1  0.000000  0.000000  0.000000  1
  Si  Si8  1  0.333333  0.666667  0.629025  1
  Si  Si9  1  0.666667  0.333333  0.370975  1
  Si  Si10  1  0.666667  0.333333  0.129025  1
  Si  Si11  1  0.333333  0.666667  0.870975  1
  O  O12  1  0.349934  0.174967  0.407634  1
  O  O13  1  0.825033  0.174967  0.092366  1
  O  O14  1  0.174967  0.349934  0.592366  1
  O  O15  1  0.174967  0.825033  0.907634  1
  O  O16  1  0.650066  0.825033  0.907634  1
  O  O17  1  0.650066  0.825033  0.592366  1
  O  O18  1  0.349934  0.174967  0.092366  1
  O  O19  1  0.174967  0.825033  0.592366  1
  O  O20  1  0.825033  0.174967  0.407634  1
  O  O21  1  0.174967  0.349934  0.907634  1
  O  O22  1  0.825033  0.650066  0.092366  1
  O  O23  1  0.825033  0.650066  0.407634  1
  O  O24  1  0.666667  0.333333  0.250000  1
  O  O25  1  0.333333  0.666667  0.750000  1
