# generated using pymatgen
data_NdMgSi2
_symmetry_space_group_name_H-M   'P 1'
_cell_length_a   4.26067943
_cell_length_b   4.26067967
_cell_length_c   18.65577663
_cell_angle_alpha   96.55701403
_cell_angle_beta   96.55701437
_cell_angle_gamma   90.00000500
_symmetry_Int_Tables_number   1
_chemical_formula_structural   NdMgSi2
_chemical_formula_sum   'Nd4 Mg4 Si8'
_cell_volume   334.22029391
_cell_formula_units_Z   4
loop_
 _symmetry_equiv_pos_site_id
 _symmetry_equiv_pos_as_xyz
  1  'x, y, z'
loop_
 _atom_site_type_symbol
 _atom_site_label
 _atom_site_symmetry_multiplicity
 _atom_site_fract_x
 _atom_site_fract_y
 _atom_site_fract_z
 _atom_site_occupancy
  Nd  Nd0  1  0.702741  0.952741  0.905482  1
  Nd  Nd1  1  0.547259  0.797259  0.594518  1
  Nd  Nd2  1  0.452741  0.202741  0.405482  1
  Nd  Nd3  1  0.297259  0.047259  0.094518  1
  Mg  Mg4  1  0.624997  0.374997  0.749994  1
  Mg  Mg5  1  0.874997  0.124997  0.249994  1
  Mg  Mg6  1  0.375003  0.625003  0.250006  1
  Mg  Mg7  1  0.125003  0.875003  0.750006  1
  Si  Si8  1  0.077106  0.327106  0.654212  1
  Si  Si9  1  0.764170  0.514170  0.028340  1
  Si  Si10  1  0.172894  0.422894  0.845788  1
  Si  Si11  1  0.922894  0.672894  0.345788  1
  Si  Si12  1  0.985830  0.735830  0.471660  1
  Si  Si13  1  0.827106  0.577106  0.154212  1
  Si  Si14  1  0.014170  0.264170  0.528340  1
  Si  Si15  1  0.235830  0.485830  0.971660  1
