# generated using pymatgen
data_CaSi2(NO)2
_symmetry_space_group_name_H-M   'P 1'
_cell_length_a   7.38548942
_cell_length_b   10.57546254
_cell_length_c   13.77231221
_cell_angle_alpha   90.00000000
_cell_angle_beta   90.00000000
_cell_angle_gamma   101.89474900
_symmetry_Int_Tables_number   1
_chemical_formula_structural   CaSi2(NO)2
_chemical_formula_sum   'Ca12 Si24 N24 O24'
_cell_volume   1052.58872760
_cell_formula_units_Z   12
loop_
 _symmetry_equiv_pos_site_id
 _symmetry_equiv_pos_as_xyz
  1  'x, y, z'
loop_
 _atom_site_type_symbol
 _atom_site_label
 _atom_site_symmetry_multiplicity
 _atom_site_fract_x
 _atom_site_fract_y
 _atom_site_fract_z
 _atom_site_occupancy
  Ca  Ca0  1  0.254776  0.642724  0.869964  1
  Ca  Ca1  1  0.745224  0.357276  0.369964  1
  Ca  Ca2  1  0.081873  0.948363  0.936481  1
  Ca  Ca3  1  0.588330  0.701527  0.424852  1
  Ca  Ca4  1  0.588443  0.951039  0.878686  1
  Ca  Ca5  1  0.918127  0.051637  0.436481  1
  Ca  Ca6  1  0.919096  0.304617  0.867071  1
  Ca  Ca7  1  0.411670  0.298473  0.924852  1
  Ca  Ca8  1  0.743272  0.615410  0.933057  1
  Ca  Ca9  1  0.411557  0.048961  0.378686  1
  Ca  Ca10  1  0.256728  0.384590  0.433057  1
  Ca  Ca11  1  0.080904  0.695383  0.367071  1
  Si  Si12  1  0.376481  0.080119  0.097047  1
  Si  Si13  1  0.381899  0.583026  0.100040  1
  Si  Si14  1  0.951550  0.560553  0.706094  1
  Si  Si15  1  0.289099  0.699480  0.594898  1
  Si  Si16  1  0.952316  0.307962  0.597699  1
  Si  Si17  1  0.379797  0.329690  0.204032  1
  Si  Si18  1  0.953434  0.055586  0.710694  1
  Si  Si19  1  0.620203  0.670310  0.704032  1
  Si  Si20  1  0.712456  0.803065  0.103937  1
  Si  Si21  1  0.952635  0.808265  0.592872  1
  Si  Si22  1  0.287482  0.944383  0.704579  1
  Si  Si23  1  0.047684  0.692038  0.097699  1
  Si  Si24  1  0.048450  0.439447  0.206094  1
  Si  Si25  1  0.712518  0.055617  0.204579  1
  Si  Si26  1  0.287544  0.196935  0.603937  1
  Si  Si27  1  0.047365  0.191735  0.092872  1
  Si  Si28  1  0.378020  0.833412  0.208054  1
  Si  Si29  1  0.711407  0.548051  0.204571  1
  Si  Si30  1  0.623519  0.919881  0.597047  1
  Si  Si31  1  0.710901  0.300520  0.094898  1
  Si  Si32  1  0.618101  0.416974  0.600040  1
  Si  Si33  1  0.288594  0.451949  0.704571  1
  Si  Si34  1  0.621980  0.166588  0.708054  1
  Si  Si35  1  0.046566  0.944414  0.210694  1
  N  N36  1  0.854404  0.690170  0.676736  1
  N  N37  1  0.192052  0.083139  0.692732  1
  N  N38  1  0.860225  0.189943  0.682365  1
  N  N39  1  0.478973  0.744890  0.126641  1
  N  N40  1  0.521027  0.255110  0.626641  1
  N  N41  1  0.139775  0.810057  0.182365  1
  N  N42  1  0.139111  0.057400  0.122012  1
  N  N43  1  0.522452  0.507634  0.683452  1
  N  N44  1  0.192553  0.337501  0.616617  1
  N  N45  1  0.860889  0.942600  0.622012  1
  N  N46  1  0.145596  0.309830  0.176736  1
  N  N47  1  0.807948  0.916861  0.192732  1
  N  N48  1  0.807782  0.409860  0.187010  1
  N  N49  1  0.192218  0.590140  0.687010  1
  N  N50  1  0.477548  0.492366  0.183452  1
  N  N51  1  0.525103  0.003316  0.684686  1
  N  N52  1  0.807447  0.662499  0.116617  1
  N  N53  1  0.191785  0.836085  0.611091  1
  N  N54  1  0.474897  0.996684  0.184686  1
  N  N55  1  0.473940  0.243848  0.115213  1
  N  N56  1  0.853736  0.437409  0.626548  1
  N  N57  1  0.146264  0.562591  0.126548  1
  N  N58  1  0.808215  0.163915  0.111091  1
  N  N59  1  0.526060  0.756152  0.615213  1
  O  O60  1  0.573381  0.450203  0.487930  1
  O  O61  1  0.919458  0.270082  0.483362  1
  O  O62  1  0.734582  0.368296  0.988118  1
  O  O63  1  0.243218  0.147892  0.492871  1
  O  O64  1  0.263153  0.878801  0.812316  1
  O  O65  1  0.265418  0.631704  0.488118  1
  O  O66  1  0.602231  0.958220  0.484425  1
  O  O67  1  0.897891  0.774247  0.479857  1
  O  O68  1  0.756782  0.852108  0.992871  1
  O  O69  1  0.103929  0.981950  0.322212  1
  O  O70  1  0.397769  0.041780  0.984425  1
  O  O71  1  0.896071  0.018050  0.822212  1
  O  O72  1  0.426619  0.549797  0.987930  1
  O  O73  1  0.602475  0.198255  0.822417  1
  O  O74  1  0.736847  0.121199  0.312316  1
  O  O75  1  0.080542  0.729918  0.983362  1
  O  O76  1  0.241309  0.401525  0.814867  1
  O  O77  1  0.575418  0.710645  0.814506  1
  O  O78  1  0.758691  0.598475  0.314867  1
  O  O79  1  0.397525  0.801745  0.322417  1
  O  O80  1  0.102109  0.225753  0.979857  1
  O  O81  1  0.424582  0.289355  0.314506  1
  O  O82  1  0.078739  0.473779  0.321587  1
  O  O83  1  0.921261  0.526221  0.821587  1
