# generated using pymatgen
data_Rb2Ge4O9
_symmetry_space_group_name_H-M   'P 1'
_cell_length_a   12.29853290
_cell_length_b   12.29853301
_cell_length_c   10.02983517
_cell_angle_alpha   90.00000000
_cell_angle_beta   90.00000000
_cell_angle_gamma   119.99999970
_symmetry_Int_Tables_number   1
_chemical_formula_structural   Rb2Ge4O9
_chemical_formula_sum   'Rb12 Ge24 O54'
_cell_volume   1313.80541455
_cell_formula_units_Z   6
loop_
 _symmetry_equiv_pos_site_id
 _symmetry_equiv_pos_as_xyz
  1  'x, y, z'
loop_
 _atom_site_type_symbol
 _atom_site_label
 _atom_site_symmetry_multiplicity
 _atom_site_fract_x
 _atom_site_fract_y
 _atom_site_fract_z
 _atom_site_occupancy
  Rb  Rb0  1  0.997640  0.662991  0.569293  1
  Rb  Rb1  1  0.662991  0.665351  0.430707  1
  Rb  Rb2  1  0.334649  0.337009  0.930707  1
  Rb  Rb3  1  0.002360  0.337009  0.430707  1
  Rb  Rb4  1  0.337009  0.002360  0.069293  1
  Rb  Rb5  1  0.997640  0.334649  0.069293  1
  Rb  Rb6  1  0.665351  0.002360  0.569293  1
  Rb  Rb7  1  0.665351  0.662991  0.069293  1
  Rb  Rb8  1  0.662991  0.997640  0.930707  1
  Rb  Rb9  1  0.002360  0.665351  0.930707  1
  Rb  Rb10  1  0.334649  0.997640  0.430707  1
  Rb  Rb11  1  0.337009  0.334649  0.569293  1
  Ge  Ge12  1  0.000000  0.178042  0.750000  1
  Ge  Ge13  1  0.333655  0.484213  0.221568  1
  Ge  Ge14  1  0.849442  0.333655  0.778432  1
  Ge  Ge15  1  0.333655  0.849442  0.721568  1
  Ge  Ge16  1  0.515787  0.666345  0.721568  1
  Ge  Ge17  1  0.150558  0.484213  0.721568  1
  Ge  Ge18  1  0.178042  0.178042  0.250000  1
  Ge  Ge19  1  0.150558  0.666345  0.221568  1
  Ge  Ge20  1  0.666667  0.333333  0.029363  1
  Ge  Ge21  1  0.666345  0.515787  0.778432  1
  Ge  Ge22  1  0.484213  0.333655  0.278432  1
  Ge  Ge23  1  1.000000  0.821958  0.250000  1
  Ge  Ge24  1  0.333333  0.666667  0.970637  1
  Ge  Ge25  1  0.821958  0.000000  0.250000  1
  Ge  Ge26  1  0.484213  0.150558  0.778432  1
  Ge  Ge27  1  0.666345  0.150558  0.278432  1
  Ge  Ge28  1  0.000000  0.000000  0.500000  1
  Ge  Ge29  1  0.333333  0.666667  0.470637  1
  Ge  Ge30  1  0.821958  0.821958  0.750000  1
  Ge  Ge31  1  0.178042  0.000000  0.750000  1
  Ge  Ge32  1  0.000000  0.000000  0.000000  1
  Ge  Ge33  1  0.515787  0.849442  0.221568  1
  Ge  Ge34  1  0.849442  0.515787  0.278432  1
  Ge  Ge35  1  0.666667  0.333333  0.529363  1
  O  O36  1  0.672769  0.881912  0.179711  1
  O  O37  1  0.423546  0.609912  0.577419  1
  O  O38  1  0.000000  0.528531  0.250000  1
  O  O39  1  0.609912  0.186367  0.422581  1
  O  O40  1  0.077633  0.148626  0.387393  1
  O  O41  1  0.271957  0.517823  0.362318  1
  O  O42  1  0.471469  0.000000  0.750000  1
  O  O43  1  0.813633  0.390088  0.922581  1
  O  O44  1  0.482177  0.728043  0.862318  1
  O  O45  1  0.471469  0.471469  0.250000  1
  O  O46  1  0.728043  0.245866  0.137682  1
  O  O47  1  0.609912  0.423546  0.922581  1
  O  O48  1  0.186367  0.576454  0.577419  1
  O  O49  1  0.327231  0.209142  0.320289  1
  O  O50  1  0.528531  0.528531  0.750000  1
  O  O51  1  0.790858  0.118088  0.320289  1
  O  O52  1  0.390088  0.813633  0.577419  1
  O  O53  1  0.148626  0.077633  0.112607  1
  O  O54  1  0.327231  0.118088  0.820289  1
  O  O55  1  0.929007  0.077633  0.612607  1
  O  O56  1  0.118088  0.327231  0.679711  1
  O  O57  1  0.576454  0.186367  0.922581  1
  O  O58  1  0.754134  0.482177  0.137682  1
  O  O59  1  0.482177  0.754134  0.362318  1
  O  O60  1  0.576454  0.390088  0.422581  1
  O  O61  1  0.245866  0.728043  0.362318  1
  O  O62  1  0.271957  0.754134  0.862318  1
  O  O63  1  0.423546  0.813633  0.077419  1
  O  O64  1  0.929007  0.851374  0.112607  1
  O  O65  1  0.790858  0.672769  0.820289  1
  O  O66  1  0.077633  0.929007  0.887393  1
  O  O67  1  0.922367  0.851374  0.612607  1
  O  O68  1  0.390088  0.576454  0.077419  1
  O  O69  1  0.813633  0.423546  0.422581  1
  O  O70  1  0.517823  0.245866  0.637682  1
  O  O71  1  0.209142  0.327231  0.179711  1
  O  O72  1  0.881912  0.672769  0.320289  1
  O  O73  1  0.517823  0.271957  0.137682  1
  O  O74  1  0.528531  0.000000  0.250000  1
  O  O75  1  0.118088  0.790858  0.179711  1
  O  O76  1  0.922367  0.070993  0.112607  1
  O  O77  1  0.209142  0.881912  0.679711  1
  O  O78  1  0.070993  0.148626  0.887393  1
  O  O79  1  0.851374  0.929007  0.387393  1
  O  O80  1  0.148626  0.070993  0.612607  1
  O  O81  1  0.851374  0.922367  0.887393  1
  O  O82  1  0.070993  0.922367  0.387393  1
  O  O83  1  1.000000  0.471469  0.750000  1
  O  O84  1  0.728043  0.482177  0.637682  1
  O  O85  1  0.245866  0.517823  0.862318  1
  O  O86  1  0.881912  0.209142  0.820289  1
  O  O87  1  0.754134  0.271957  0.637682  1
  O  O88  1  0.672769  0.790858  0.679711  1
  O  O89  1  0.186367  0.609912  0.077419  1
