# generated using pymatgen
data_Dy(CrS2)3
_symmetry_space_group_name_H-M   'P 1'
_cell_length_a   10.69725291
_cell_length_b   21.69141100
_cell_length_c   12.65619366
_cell_angle_alpha   90.00000000
_cell_angle_beta   89.99749443
_cell_angle_gamma   90.00000000
_symmetry_Int_Tables_number   1
_chemical_formula_structural   Dy(CrS2)3
_chemical_formula_sum   'Dy16 Cr48 S96'
_cell_volume   2936.72430839
_cell_formula_units_Z   16
loop_
 _symmetry_equiv_pos_site_id
 _symmetry_equiv_pos_as_xyz
  1  'x, y, z'
loop_
 _atom_site_type_symbol
 _atom_site_label
 _atom_site_symmetry_multiplicity
 _atom_site_fract_x
 _atom_site_fract_y
 _atom_site_fract_z
 _atom_site_occupancy
  Cr  Cr0  1  0.000358  0.168328  0.426969  1
  Cr  Cr1  1  -0.000120  0.402983  0.223903  1
  Cr  Cr2  1  0.997745  0.146261  0.947326  1
  Cr  Cr3  1  0.999960  0.665523  0.427279  1
  Cr  Cr4  1  0.997089  0.905255  0.212964  1
  Cr  Cr5  1  0.999650  0.650683  0.943951  1
  Cr  Cr6  1  0.997519  0.922512  0.738657  1
  Cr  Cr7  1  0.167309  0.332489  0.927946  1
  Cr  Cr8  1  0.165633  0.832154  0.927591  1
  Cr  Cr9  1  0.168723  0.094969  0.712463  1
  Cr  Cr10  1  0.164234  0.594864  0.713000  1
  Cr  Cr11  1  0.165007  0.354013  0.447932  1
  Cr  Cr12  1  0.168091  0.853848  0.447491  1
  Cr  Cr13  1  0.168202  0.077417  0.238749  1
  Cr  Cr14  1  0.164739  0.577308  0.239314  1
  Cr  Cr15  1  0.335461  0.422580  0.739248  1
  Cr  Cr16  1  0.333148  0.922193  0.736283  1
  Cr  Cr17  1  0.333391  0.150729  0.943537  1
  Cr  Cr18  1  0.335367  0.645987  0.947801  1
  Cr  Cr19  1  0.336005  0.405321  0.213471  1
  Cr  Cr20  1  0.333145  0.902848  0.223238  1
  Cr  Cr21  1  0.333029  0.165684  0.426782  1
  Cr  Cr22  1  0.332668  0.667917  0.427305  1
  Cr  Cr23  1  0.497519  0.077488  0.238657  1
  Cr  Cr24  1  0.497089  0.094745  0.712964  1
  Cr  Cr25  1  0.499876  0.577566  0.236666  1
  Cr  Cr26  1  0.499960  0.334477  0.927279  1
  Cr  Cr27  1  0.499650  0.349317  0.443951  1
  Cr  Cr28  1  0.499880  0.597017  0.723903  1
  Cr  Cr29  1  0.497745  0.853739  0.447326  1
  Cr  Cr30  1  0.500358  0.831672  0.926969  1
  Cr  Cr31  1  0.665633  0.167846  0.427591  1
  Cr  Cr32  1  0.667309  0.667511  0.427946  1
  Cr  Cr33  1  0.664234  0.405136  0.213000  1
  Cr  Cr34  1  0.668723  0.905031  0.212463  1
  Cr  Cr35  1  0.668091  0.146152  0.947491  1
  Cr  Cr36  1  0.665007  0.645987  0.947932  1
  Cr  Cr37  1  0.668202  0.922583  0.738749  1
  Cr  Cr38  1  0.664739  0.422692  0.739314  1
  Cr  Cr39  1  0.833148  0.077807  0.236283  1
  Cr  Cr40  1  0.835461  0.577420  0.239248  1
  Cr  Cr41  1  0.835367  0.354013  0.447801  1
  Cr  Cr42  1  0.833391  0.849271  0.443537  1
  Cr  Cr43  1  0.833145  0.097152  0.723238  1
  Cr  Cr44  1  0.836005  0.594679  0.713471  1
  Cr  Cr45  1  0.832668  0.332083  0.927305  1
  Cr  Cr46  1  0.833029  0.834316  0.926782  1
  Cr  Cr47  1  0.999876  0.422434  0.736666  1
  Dy  Dy48  1  0.999602  0.243018  0.164423  1
  Dy  Dy49  1  0.000277  0.493393  0.000337  1
  Dy  Dy50  1  0.999910  0.743478  0.162387  1
  Dy  Dy51  1  0.166313  0.258403  0.663090  1
  Dy  Dy52  1  0.166706  0.758171  0.662855  1
  Dy  Dy53  1  0.332663  0.993308  -0.000396  1
  Dy  Dy54  1  0.333072  0.243654  0.162189  1
  Dy  Dy55  1  0.333404  0.742694  0.164654  1
  Dy  Dy56  1  0.499910  0.256522  0.662387  1
  Dy  Dy57  1  0.500277  0.506607  0.500337  1
  Dy  Dy58  1  0.499602  0.756982  0.664423  1
  Dy  Dy59  1  0.666706  0.241829  0.162855  1
  Dy  Dy60  1  0.666313  0.741597  0.163090  1
  Dy  Dy61  1  0.832663  0.006692  0.499604  1
  Dy  Dy62  1  0.833404  0.257306  0.664654  1
  Dy  Dy63  1  0.833072  0.756346  0.662189  1
  S  S64  1  1.000011  0.113386  0.124404  1
  S  S65  1  0.998718  0.065172  0.363756  1
  S  S66  1  0.996386  0.026920  0.672544  1
  S  S67  1  -0.000316  0.356447  0.044629  1
  S  S68  1  0.999052  0.276507  0.494904  1
  S  S69  1  0.000349  0.171786  0.759739  1
  S  S70  1  0.000027  0.420691  0.405153  1
  S  S71  1  0.000102  0.605367  0.118920  1
  S  S72  1  -0.000045  0.316935  0.800225  1
  S  S73  1  1.000001  0.526455  0.670892  1
  S  S74  1  0.999309  0.852174  0.046242  1
  S  S75  1  -0.000874  0.775446  0.495402  1
  S  S76  1  0.996401  0.919233  0.400786  1
  S  S77  1  0.998497  0.817133  0.798945  1
  S  S78  1  0.165765  0.435298  0.863862  1
  S  S79  1  0.167235  0.935030  0.863417  1
  S  S80  1  0.166352  0.148860  0.546030  1
  S  S81  1  0.166692  0.648550  0.546384  1
  S  S82  1  0.169680  0.080927  0.900567  1
  S  S83  1  0.163231  0.580828  0.901089  1
  S  S84  1  0.166979  0.387628  0.624399  1
  S  S85  1  0.166087  0.887433  0.623928  1
  S  S86  1  0.163541  0.473082  0.173216  1
  S  S87  1  0.169504  0.973050  0.172653  1
  S  S88  1  0.167489  0.182631  0.298522  1
  S  S89  1  0.165519  0.682489  0.299052  1
  S  S90  1  0.167158  0.328216  0.260435  1
  S  S91  1  0.165833  0.828081  0.259988  1
  S  S92  1  0.166271  0.225030  0.996069  1
  S  S93  1  0.166810  0.724834  0.996277  1
  S  S94  1  0.333830  0.275554  0.495559  1
  S  S95  1  0.333968  0.776209  0.494651  1
  S  S96  1  0.333011  0.171070  0.757331  1
  S  S97  1  0.332671  0.671600  0.760227  1
  S  S98  1  0.334437  0.317205  0.799484  1
  S  S99  1  0.333052  0.816673  0.799824  1
  S  S100  1  0.333036  0.026426  0.670870  1
  S  S101  1  0.336591  0.526854  0.673164  1
  S  S102  1  0.332867  0.105260  0.118309  1
  S  S103  1  0.332956  0.613120  0.124865  1
  S  S104  1  0.336712  0.419274  0.401277  1
  S  S105  1  0.333122  0.920465  0.404559  1
  S  S106  1  0.333602  0.352418  0.046651  1
  S  S107  1  0.333306  0.856021  0.044254  1
  S  S108  1  0.332872  0.063915  0.361556  1
  S  S109  1  0.334268  0.564832  0.364111  1
  S  S110  1  0.499309  0.147826  0.546242  1
  S  S111  1  0.499684  0.643553  0.544629  1
  S  S112  1  0.500011  0.886614  0.624404  1
  S  S113  1  0.500102  0.394633  0.618920  1
  S  S114  1  0.496401  0.080767  0.900786  1
  S  S115  1  0.500016  0.328972  0.257733  1
  S  S116  1  0.498497  0.182867  0.298945  1
  S  S117  1  0.500027  0.579309  0.905153  1
  S  S118  1  0.499126  0.224554  0.995402  1
  S  S119  1  0.500001  0.473545  0.170892  1
  S  S120  1  0.499955  0.683065  0.300225  1
  S  S121  1  0.500349  0.828214  0.259739  1
  S  S122  1  0.496386  0.973080  0.172544  1
  S  S123  1  0.499052  0.723493  0.994904  1
  S  S124  1  0.498718  0.934828  0.863756  1
  S  S125  1  0.500046  0.436226  0.862144  1
  S  S126  1  0.667235  0.064970  0.363417  1
  S  S127  1  0.665765  0.564702  0.363862  1
  S  S128  1  0.666692  0.351450  0.046384  1
  S  S129  1  0.666352  0.851140  0.046030  1
  S  S130  1  0.663231  0.419172  0.401089  1
  S  S131  1  0.669680  0.919073  0.400567  1
  S  S132  1  0.666087  0.112567  0.123928  1
  S  S133  1  0.666979  0.612372  0.124399  1
  S  S134  1  0.669504  0.026950  0.672653  1
  S  S135  1  0.663541  0.526918  0.673216  1
  S  S136  1  0.665519  0.317511  0.799052  1
  S  S137  1  0.667489  0.817369  0.798522  1
  S  S138  1  0.665833  0.171919  0.759988  1
  S  S139  1  0.667158  0.671784  0.760435  1
  S  S140  1  0.666810  0.275166  0.496277  1
  S  S141  1  0.666271  0.774970  0.496069  1
  S  S142  1  0.833968  0.223791  0.994651  1
  S  S143  1  0.833830  0.724446  0.995559  1
  S  S144  1  0.832671  0.328400  0.260227  1
  S  S145  1  0.833011  0.828930  0.257331  1
  S  S146  1  0.833052  0.183327  0.299824  1
  S  S147  1  0.834437  0.682795  0.299484  1
  S  S148  1  0.836591  0.473146  0.173164  1
  S  S149  1  0.833036  0.973574  0.170870  1
  S  S150  1  0.832956  0.386880  0.624865  1
  S  S151  1  0.832867  0.894740  0.618309  1
  S  S152  1  0.833122  0.079535  0.904559  1
  S  S153  1  0.836712  0.580726  0.901277  1
  S  S154  1  0.833306  0.143979  0.544254  1
  S  S155  1  0.833602  0.647582  0.546651  1
  S  S156  1  0.834268  0.435168  0.864111  1
  S  S157  1  0.832872  0.936085  0.861556  1
  S  S158  1  1.000046  0.563774  0.362144  1
  S  S159  1  1.000016  0.671028  0.757733  1
