# generated using pymatgen
data_KCBr(NO2)2
_symmetry_space_group_name_H-M   'P 1'
_cell_length_a   6.45918557
_cell_length_b   7.59838049
_cell_length_c   7.47057927
_cell_angle_alpha   116.14758538
_cell_angle_beta   103.07832788
_cell_angle_gamma   97.46011848
_symmetry_Int_Tables_number   1
_chemical_formula_structural   KCBr(NO2)2
_chemical_formula_sum   'K2 C2 Br2 N4 O8'
_cell_volume   309.34608656
_cell_formula_units_Z   2
loop_
 _symmetry_equiv_pos_site_id
 _symmetry_equiv_pos_as_xyz
  1  'x, y, z'
loop_
 _atom_site_type_symbol
 _atom_site_label
 _atom_site_symmetry_multiplicity
 _atom_site_fract_x
 _atom_site_fract_y
 _atom_site_fract_z
 _atom_site_occupancy
  K  K0  1  0.332194  0.278102  0.126602  1
  K  K1  1  0.667806  0.721898  0.873398  1
  C  C2  1  0.960837  0.250058  0.535510  1
  C  C3  1  0.039163  0.749942  0.464490  1
  Br  Br4  1  0.812411  0.208367  0.707044  1
  Br  Br5  1  0.187589  0.791633  0.292956  1
  N  N6  1  0.843518  0.172888  0.324359  1
  N  N7  1  0.156482  0.827112  0.675641  1
  N  N8  1  0.181520  0.359404  0.626079  1
  N  N9  1  0.818480  0.640596  0.373921  1
  O  O10  1  0.717923  0.581573  0.472543  1
  O  O11  1  0.721404  0.596592  0.186211  1
  O  O12  1  0.359773  0.915477  0.736903  1
  O  O13  1  0.640227  0.084523  0.263097  1
  O  O14  1  0.282077  0.418427  0.527457  1
  O  O15  1  0.935112  0.183430  0.195252  1
  O  O16  1  0.278596  0.403408  0.813789  1
  O  O17  1  0.064888  0.816570  0.804748  1
