# generated using pymatgen
data_ZnS
_symmetry_space_group_name_H-M   'P 1'
_cell_length_a   3.85156653
_cell_length_b   3.85156643
_cell_length_c   100.71844053
_cell_angle_alpha   90.00000000
_cell_angle_beta   90.00000000
_cell_angle_gamma   120.00000095
_symmetry_Int_Tables_number   1
_chemical_formula_structural   ZnS
_chemical_formula_sum   'Zn32 S32'
_cell_volume   1293.94082962
_cell_formula_units_Z   32
loop_
 _symmetry_equiv_pos_site_id
 _symmetry_equiv_pos_as_xyz
  1  'x, y, z'
loop_
 _atom_site_type_symbol
 _atom_site_label
 _atom_site_symmetry_multiplicity
 _atom_site_fract_x
 _atom_site_fract_y
 _atom_site_fract_z
 _atom_site_occupancy
  Zn  Zn0  1  0.666667  0.333333  0.875199  1
  Zn  Zn1  1  0.333333  0.666667  0.031254  1
  Zn  Zn2  1  0.000000  0.000000  0.687509  1
  Zn  Zn3  1  0.333333  0.666667  0.499998  1
  Zn  Zn4  1  0.666667  0.333333  0.156273  1
  Zn  Zn5  1  0.000000  0.000000  0.281251  1
  Zn  Zn6  1  0.000000  0.000000  0.843952  1
  Zn  Zn7  1  0.666667  0.333333  0.968744  1
  Zn  Zn8  1  0.000000  0.000000  0.374992  1
  Zn  Zn9  1  0.000000  0.000000  0.781231  1
  Zn  Zn10  1  0.333333  0.666667  0.125006  1
  Zn  Zn11  1  0.333333  0.666667  0.718745  1
  Zn  Zn12  1  0.666667  0.333333  0.468744  1
  Zn  Zn13  1  0.000000  0.000000  0.187513  1
  Zn  Zn14  1  0.666667  0.333333  0.749988  1
  Zn  Zn15  1  0.666667  0.333333  0.343753  1
  Zn  Zn16  1  0.333333  0.666667  0.906291  1
  Zn  Zn17  1  0.333333  0.666667  0.218749  1
  Zn  Zn18  1  0.000000  0.000000  0.531253  1
  Zn  Zn19  1  0.666667  0.333333  0.562504  1
  Zn  Zn20  1  0.666667  0.333333  0.062504  1
  Zn  Zn21  1  0.666667  0.333333  0.812486  1
  Zn  Zn22  1  0.000000  0.000000  0.093755  1
  Zn  Zn23  1  0.000000  0.000000  0.937491  1
  Zn  Zn24  1  0.333333  0.666667  0.312505  1
  Zn  Zn25  1  0.333333  0.666667  0.406246  1
  Zn  Zn26  1  0.000000  0.000000  0.437506  1
  Zn  Zn27  1  0.666667  0.333333  0.656249  1
  Zn  Zn28  1  0.666667  0.333333  0.249998  1
  Zn  Zn29  1  0.000000  0.000000  0.624993  1
  Zn  Zn30  1  0.333333  0.666667  0.593754  1
  Zn  Zn31  1  0.000000  0.000000  0.000011  1
  S  S32  1  0.333333  0.666667  0.242187  1
  S  S33  1  0.666667  0.333333  0.492185  1
  S  S34  1  0.666667  0.333333  0.085945  1
  S  S35  1  0.333333  0.666667  0.523438  1
  S  S36  1  0.000000  0.000000  0.460936  1
  S  S37  1  0.000000  0.000000  0.023440  1
  S  S38  1  0.666667  0.333333  0.585944  1
  S  S39  1  0.333333  0.666667  0.742182  1
  S  S40  1  0.333333  0.666667  0.929704  1
  S  S41  1  0.000000  0.000000  0.210944  1
  S  S42  1  0.000000  0.000000  0.304689  1
  S  S43  1  0.000000  0.000000  0.867447  1
  S  S44  1  0.666667  0.333333  0.179719  1
  S  S45  1  0.333333  0.666667  0.429709  1
  S  S46  1  0.666667  0.333333  0.679717  1
  S  S47  1  0.666667  0.333333  0.367191  1
  S  S48  1  0.666667  0.333333  0.898565  1
  S  S49  1  0.000000  0.000000  0.648418  1
  S  S50  1  0.000000  0.000000  0.554689  1
  S  S51  1  0.333333  0.666667  0.335944  1
  S  S52  1  0.333333  0.666667  0.054690  1
  S  S53  1  0.666667  0.333333  0.773406  1
  S  S54  1  0.000000  0.000000  0.398419  1
  S  S55  1  0.666667  0.333333  0.273435  1
  S  S56  1  0.000000  0.000000  0.960915  1
  S  S57  1  0.666667  0.333333  0.992208  1
  S  S58  1  0.333333  0.666667  0.148451  1
  S  S59  1  0.000000  0.000000  0.117197  1
  S  S60  1  0.000000  0.000000  0.710936  1
  S  S61  1  0.000000  0.000000  0.804672  1
  S  S62  1  0.666667  0.333333  0.835986  1
  S  S63  1  0.333333  0.666667  0.617194  1
