# generated using pymatgen
data_Sm3Ge5
_symmetry_space_group_name_H-M   'P 1'
_cell_length_a   5.89745472
_cell_length_b   7.61663966
_cell_length_c   9.32030584
_cell_angle_alpha   82.96553368
_cell_angle_beta   71.55699843
_cell_angle_gamma   67.22305303
_symmetry_Int_Tables_number   1
_chemical_formula_structural   Sm3Ge5
_chemical_formula_sum   'Sm6 Ge10'
_cell_volume   366.18365892
_cell_formula_units_Z   2
loop_
 _symmetry_equiv_pos_site_id
 _symmetry_equiv_pos_as_xyz
  1  'x, y, z'
loop_
 _atom_site_type_symbol
 _atom_site_label
 _atom_site_symmetry_multiplicity
 _atom_site_fract_x
 _atom_site_fract_y
 _atom_site_fract_z
 _atom_site_occupancy
  Sm  Sm0  1  0.249508  0.500980  0.500002  1
  Sm  Sm1  1  0.667592  0.986992  0.662803  1
  Sm  Sm2  1  0.999508  0.000981  0.000006  1
  Sm  Sm3  1  0.580390  0.486986  0.837201  1
  Sm  Sm4  1  0.345430  0.986987  0.337194  1
  Sm  Sm5  1  0.932620  0.486985  0.162800  1
  Ge  Ge6  1  0.383912  0.686445  0.138344  1
  Ge  Ge7  1  0.929628  0.686461  0.861663  1
  Ge  Ge8  1  0.914984  0.826083  0.325950  1
  Ge  Ge9  1  0.041283  0.186463  0.638323  1
  Ge  Ge10  1  0.490925  0.326094  0.174049  1
  Ge  Ge11  1  0.447380  0.105247  0.999992  1
  Ge  Ge12  1  0.258919  0.826115  0.674053  1
  Ge  Ge13  1  0.772283  0.186439  0.361663  1
  Ge  Ge14  1  0.182967  0.326100  0.825954  1
  Ge  Ge15  1  0.697370  0.605241  0.500004  1
