# generated using pymatgen
data_CdI2
_symmetry_space_group_name_H-M   'P 1'
_cell_length_a   4.33645128
_cell_length_b   4.33645155
_cell_length_c   88.90417163
_cell_angle_alpha   90.00000000
_cell_angle_beta   90.00000000
_cell_angle_gamma   119.99999796
_symmetry_Int_Tables_number   1
_chemical_formula_structural   CdI2
_chemical_formula_sum   'Cd12 I24'
_cell_volume   1447.84393137
_cell_formula_units_Z   12
loop_
 _symmetry_equiv_pos_site_id
 _symmetry_equiv_pos_as_xyz
  1  'x, y, z'
loop_
 _atom_site_type_symbol
 _atom_site_label
 _atom_site_symmetry_multiplicity
 _atom_site_fract_x
 _atom_site_fract_y
 _atom_site_fract_z
 _atom_site_occupancy
  Cd  Cd0  1  0.333333  0.666667  0.937481  1
  Cd  Cd1  1  0.333333  0.666667  0.604146  1
  Cd  Cd2  1  0.666667  0.333333  0.020848  1
  Cd  Cd3  1  0.666667  0.333333  0.187510  1
  Cd  Cd4  1  0.000000  0.000000  0.854159  1
  Cd  Cd5  1  0.666667  0.333333  0.354177  1
  Cd  Cd6  1  0.333333  0.666667  0.270816  1
  Cd  Cd7  1  0.000000  0.000000  0.520824  1
  Cd  Cd8  1  0.666667  0.333333  0.687515  1
  Cd  Cd9  1  0.333333  0.666667  0.104150  1
  Cd  Cd10  1  0.333333  0.666667  0.770815  1
  Cd  Cd11  1  0.333333  0.666667  0.437483  1
  I  I12  1  0.000000  0.000000  0.168132  1
  I  I13  1  0.666667  0.333333  0.956884  1
  I  I14  1  0.666667  0.333333  0.456884  1
  I  I15  1  0.000000  0.000000  0.418106  1
  I  I16  1  0.333333  0.666667  0.206909  1
  I  I17  1  0.333333  0.666667  0.706913  1
  I  I18  1  0.000000  0.000000  0.668138  1
  I  I19  1  0.666667  0.333333  0.623550  1
  I  I20  1  0.666667  0.333333  0.790217  1
  I  I21  1  0.666667  0.333333  0.873565  1
  I  I22  1  0.000000  0.000000  0.918096  1
  I  I23  1  0.000000  0.000000  0.584763  1
  I  I24  1  0.333333  0.666667  0.040244  1
  I  I25  1  0.000000  0.000000  0.751434  1
  I  I26  1  0.000000  0.000000  0.084772  1
  I  I27  1  0.000000  0.000000  0.334800  1
  I  I28  1  0.333333  0.666667  0.373575  1
  I  I29  1  0.666667  0.333333  0.290218  1
  I  I30  1  0.333333  0.666667  0.834762  1
  I  I31  1  0.000000  0.000000  0.001470  1
  I  I32  1  0.666667  0.333333  0.540229  1
  I  I33  1  0.666667  0.333333  0.123552  1
  I  I34  1  0.333333  0.666667  0.501428  1
  I  I35  1  0.000000  0.000000  0.251434  1
