# generated using pymatgen
data_Yb3(SF2)2
_symmetry_space_group_name_H-M   'P 1'
_cell_length_a   3.81495189
_cell_length_b   3.81495125
_cell_length_c   9.83952352
_cell_angle_alpha   101.17805181
_cell_angle_beta   101.17804968
_cell_angle_gamma   90.00000119
_symmetry_Int_Tables_number   1
_chemical_formula_structural   Yb3(SF2)2
_chemical_formula_sum   'Yb3 S2 F4'
_cell_volume   137.71615693
_cell_formula_units_Z   1
loop_
 _symmetry_equiv_pos_site_id
 _symmetry_equiv_pos_as_xyz
  1  'x, y, z'
loop_
 _atom_site_type_symbol
 _atom_site_label
 _atom_site_symmetry_multiplicity
 _atom_site_fract_x
 _atom_site_fract_y
 _atom_site_fract_z
 _atom_site_occupancy
  Yb  Yb0  1  0.362203  0.362203  0.724406  1
  Yb  Yb1  1  0.000000  0.000000  0.000000  1
  Yb  Yb2  1  0.637797  0.637797  0.275594  1
  S  S3  1  0.217110  0.217110  0.434219  1
  S  S4  1  0.782890  0.782890  0.565781  1
  F  F5  1  0.429922  0.929922  0.859844  1
  F  F6  1  0.929922  0.429922  0.859844  1
  F  F7  1  0.570078  0.070078  0.140156  1
  F  F8  1  0.070078  0.570078  0.140156  1
