# generated using pymatgen
data_RbNa7(CoO3)2
_symmetry_space_group_name_H-M   'P 1'
_cell_length_a   4.43981839
_cell_length_b   5.87301359
_cell_length_c   10.80050500
_cell_angle_alpha   91.25823667
_cell_angle_beta   90.00000000
_cell_angle_gamma   112.20890512
_symmetry_Int_Tables_number   1
_chemical_formula_structural   RbNa7(CoO3)2
_chemical_formula_sum   'Rb1 Na7 Co2 O6'
_cell_volume   260.65785516
_cell_formula_units_Z   1
loop_
 _symmetry_equiv_pos_site_id
 _symmetry_equiv_pos_as_xyz
  1  'x, y, z'
loop_
 _atom_site_type_symbol
 _atom_site_label
 _atom_site_symmetry_multiplicity
 _atom_site_fract_x
 _atom_site_fract_y
 _atom_site_fract_z
 _atom_site_occupancy
  Rb  Rb0  1  0.999997  0.999993  0.000002  1
  Na  Na1  1  0.144965  0.289930  0.720944  1
  Na  Na2  1  0.272853  0.545705  0.104862  1
  Na  Na3  1  0.767991  0.535984  0.593734  1
  Na  Na4  1  0.727144  0.454289  0.895141  1
  Na  Na5  1  0.855032  0.710064  0.279055  1
  Na  Na6  1  0.232011  0.464021  0.406262  1
  Na  Na7  1  0.500004  0.000006  0.500001  1
  Co  Co8  1  0.416708  0.833417  0.760268  1
  Co  Co9  1  0.583289  0.166578  0.239733  1
  O  O10  1  0.416755  0.833510  0.269641  1
  O  O11  1  0.322971  0.645941  0.605807  1
  O  O12  1  0.677032  0.354064  0.394192  1
  O  O13  1  0.313996  0.627993  0.893588  1
  O  O14  1  0.583244  0.166490  0.730356  1
  O  O15  1  0.686008  0.372016  0.106415  1
