# generated using pymatgen
data_Sr(AsRh)2
_symmetry_space_group_name_H-M   'P 1'
_cell_length_a   4.10821498
_cell_length_b   4.10849069
_cell_length_c   6.67774786
_cell_angle_alpha   107.92181802
_cell_angle_beta   107.95079920
_cell_angle_gamma   89.93419492
_symmetry_Int_Tables_number   1
_chemical_formula_structural   Sr(AsRh)2
_chemical_formula_sum   'Sr1 As2 Rh2'
_cell_volume   101.47340496
_cell_formula_units_Z   1
loop_
 _symmetry_equiv_pos_site_id
 _symmetry_equiv_pos_as_xyz
  1  'x, y, z'
loop_
 _atom_site_type_symbol
 _atom_site_label
 _atom_site_symmetry_multiplicity
 _atom_site_fract_x
 _atom_site_fract_y
 _atom_site_fract_z
 _atom_site_occupancy
  Sr  Sr0  1  0.000000  0.000000  0.000000  1
  As  As1  1  0.365209  0.364944  0.730086  1
  As  As2  1  0.634791  0.635056  0.269914  1
  Rh  Rh3  1  0.749984  0.249941  0.499938  1
  Rh  Rh4  1  0.250016  0.750059  0.500062  1
