# generated using pymatgen
data_As2Pb(XeF6)3
_symmetry_space_group_name_H-M   'P 1'
_cell_length_a   8.90984901
_cell_length_b   8.90984923
_cell_length_c   11.33864703
_cell_angle_alpha   96.08787919
_cell_angle_beta   96.08787931
_cell_angle_gamma   90.30153519
_symmetry_Int_Tables_number   1
_chemical_formula_structural   As2Pb(XeF6)3
_chemical_formula_sum   'As4 Pb2 Xe6 F36'
_cell_volume   889.87503646
_cell_formula_units_Z   2
loop_
 _symmetry_equiv_pos_site_id
 _symmetry_equiv_pos_as_xyz
  1  'x, y, z'
loop_
 _atom_site_type_symbol
 _atom_site_label
 _atom_site_symmetry_multiplicity
 _atom_site_fract_x
 _atom_site_fract_y
 _atom_site_fract_z
 _atom_site_occupancy
  As  As0  1  0.799990  0.799990  0.398352  1
  As  As1  1  0.000000  0.500000  0.000000  1
  As  As2  1  0.200010  0.200010  0.601648  1
  As  As3  1  0.500000  0.000000  0.000000  1
  Pb  Pb4  1  0.713642  0.713642  0.721416  1
  Pb  Pb5  1  0.286358  0.286358  0.278584  1
  Xe  Xe6  1  0.316505  0.795298  0.335858  1
  Xe  Xe7  1  0.000000  0.000000  0.000000  1
  Xe  Xe8  1  0.683495  0.204702  0.664142  1
  Xe  Xe9  1  0.204702  0.683495  0.664142  1
  Xe  Xe10  1  0.795298  0.316505  0.335858  1
  Xe  Xe11  1  0.500000  0.500000  0.000000  1
  F  F12  1  0.718140  0.430694  0.636705  1
  F  F13  1  0.358169  0.968257  0.879091  1
  F  F14  1  0.904650  0.904650  0.312089  1
  F  F15  1  0.309227  0.309227  0.509551  1
  F  F16  1  0.641831  0.031743  0.120909  1
  F  F17  1  0.700005  0.700005  0.271336  1
  F  F18  1  0.658647  0.938660  0.401950  1
  F  F19  1  0.690773  0.690773  0.490449  1
  F  F20  1  0.968257  0.358169  0.879091  1
  F  F21  1  0.299995  0.299995  0.728664  1
  F  F22  1  0.586764  0.138080  0.927312  1
  F  F23  1  0.138080  0.586764  0.927312  1
  F  F24  1  0.861920  0.413236  0.072688  1
  F  F25  1  0.089641  0.089641  0.169970  1
  F  F26  1  0.281860  0.569306  0.363295  1
  F  F27  1  0.387055  0.144001  0.069926  1
  F  F28  1  0.095350  0.095350  0.687911  1
  F  F29  1  0.144001  0.387055  0.069926  1
  F  F30  1  0.109757  0.109757  0.465234  1
  F  F31  1  0.430694  0.718140  0.636705  1
  F  F32  1  0.979317  0.644014  0.685519  1
  F  F33  1  0.341353  0.061340  0.598050  1
  F  F34  1  0.413236  0.861920  0.072688  1
  F  F35  1  0.539152  0.539152  0.827388  1
  F  F36  1  0.031743  0.641831  0.120909  1
  F  F37  1  0.569306  0.281860  0.363295  1
  F  F38  1  0.061340  0.341353  0.598050  1
  F  F39  1  0.855999  0.612945  0.930074  1
  F  F40  1  0.890243  0.890243  0.534766  1
  F  F41  1  0.910359  0.910359  0.830030  1
  F  F42  1  0.020683  0.355986  0.314481  1
  F  F43  1  0.612945  0.855999  0.930074  1
  F  F44  1  0.355986  0.020683  0.314481  1
  F  F45  1  0.460848  0.460848  0.172612  1
  F  F46  1  0.938660  0.658647  0.401950  1
  F  F47  1  0.644014  0.979317  0.685519  1
