# generated using pymatgen
data_CsZr(NO3)5
_symmetry_space_group_name_H-M   'P 1'
_cell_length_a   7.77939036
_cell_length_b   11.96633449
_cell_length_c   14.88127575
_cell_angle_alpha   90.00000000
_cell_angle_beta   96.28795808
_cell_angle_gamma   90.00000000
_symmetry_Int_Tables_number   1
_chemical_formula_structural   CsZr(NO3)5
_chemical_formula_sum   'Cs4 Zr4 N20 O60'
_cell_volume   1376.97564571
_cell_formula_units_Z   4
loop_
 _symmetry_equiv_pos_site_id
 _symmetry_equiv_pos_as_xyz
  1  'x, y, z'
loop_
 _atom_site_type_symbol
 _atom_site_label
 _atom_site_symmetry_multiplicity
 _atom_site_fract_x
 _atom_site_fract_y
 _atom_site_fract_z
 _atom_site_occupancy
  Cs  Cs0  1  0.356047  0.237380  0.999086  1
  Cs  Cs1  1  0.143953  0.737380  0.500914  1
  Cs  Cs2  1  0.856047  0.262620  0.499086  1
  Cs  Cs3  1  0.643953  0.762620  0.000914  1
  Zr  Zr4  1  0.465528  0.584151  0.271879  1
  Zr  Zr5  1  0.965528  0.915849  0.771879  1
  Zr  Zr6  1  0.534472  0.415849  0.728121  1
  Zr  Zr7  1  0.034472  0.084151  0.228121  1
  N  N8  1  0.680111  0.549083  0.605263  1
  N  N9  1  0.180111  0.950917  0.105263  1
  N  N10  1  0.650399  0.855057  0.683799  1
  N  N11  1  0.150399  0.644943  0.183799  1
  N  N12  1  0.589965  0.477555  0.123821  1
  N  N13  1  0.789575  0.534022  0.358672  1
  N  N14  1  0.319889  0.450916  0.394737  1
  N  N15  1  0.849601  0.355057  0.816201  1
  N  N16  1  0.999152  0.313262  0.201610  1
  N  N17  1  0.000848  0.686738  0.798390  1
  N  N18  1  0.349601  0.144943  0.316201  1
  N  N19  1  0.819889  0.049084  0.894737  1
  N  N20  1  0.499152  0.186738  0.701610  1
  N  N21  1  0.710425  0.034022  0.141328  1
  N  N22  1  0.410035  0.522445  0.876179  1
  N  N23  1  0.910035  0.977555  0.376179  1
  N  N24  1  0.289575  0.965978  0.858672  1
  N  N25  1  0.500848  0.813262  0.298390  1
  N  N26  1  0.089965  0.022445  0.623821  1
  N  N27  1  0.210425  0.465979  0.641328  1
  O  O28  1  0.025671  0.586886  0.807425  1
  O  O29  1  0.474329  0.086886  0.692575  1
  O  O30  1  0.688460  0.849118  0.771130  1
  O  O31  1  0.225365  0.101968  0.356383  1
  O  O32  1  0.429844  0.988744  0.899689  1
  O  O33  1  0.685215  0.572655  0.690193  1
  O  O34  1  0.143245  0.060728  0.555888  1
  O  O35  1  0.265856  0.389129  0.450198  1
  O  O36  1  0.525671  0.913114  0.307425  1
  O  O37  1  0.485568  0.176738  0.355289  1
  O  O38  1  0.989252  0.261005  0.277913  1
  O  O39  1  0.929844  0.511256  0.399689  1
  O  O40  1  0.172203  0.041029  0.836108  1
  O  O41  1  0.609144  0.452497  0.584446  1
  O  O42  1  0.036738  0.247943  0.137633  1
  O  O43  1  0.765856  0.110871  0.950198  1
  O  O44  1  0.756378  0.133786  0.165360  1
  O  O45  1  0.985568  0.323262  0.855289  1
  O  O46  1  0.725365  0.398032  0.856383  1
  O  O47  1  0.743622  0.633786  0.334640  1
  O  O48  1  0.814785  0.072655  0.809807  1
  O  O49  1  0.188460  0.650882  0.271130  1
  O  O50  1  0.774635  0.898032  0.643617  1
  O  O51  1  0.856755  0.939272  0.444112  1
  O  O52  1  0.865202  0.076595  0.345061  1
  O  O53  1  0.365202  0.423405  0.845061  1
  O  O54  1  0.134798  0.923405  0.654939  1
  O  O55  1  0.327797  0.541029  0.663892  1
  O  O56  1  0.985519  0.073750  0.670353  1
  O  O57  1  0.109144  0.047503  0.084446  1
  O  O58  1  0.314785  0.427345  0.309807  1
  O  O59  1  0.510748  0.761005  0.222087  1
  O  O60  1  0.014432  0.676738  0.144711  1
  O  O61  1  0.963262  0.752057  0.862367  1
  O  O62  1  0.643245  0.439272  0.055888  1
  O  O63  1  0.514481  0.573750  0.829647  1
  O  O64  1  0.974329  0.413114  0.192575  1
  O  O65  1  0.234144  0.889129  0.049802  1
  O  O66  1  0.514432  0.823262  0.644711  1
  O  O67  1  0.811540  0.349118  0.728870  1
  O  O68  1  0.485519  0.426250  0.170353  1
  O  O69  1  0.010748  0.738995  0.722087  1
  O  O70  1  0.274635  0.601968  0.143617  1
  O  O71  1  0.390856  0.547503  0.415554  1
  O  O72  1  0.570156  0.011256  0.100311  1
  O  O73  1  0.070156  0.488744  0.600311  1
  O  O74  1  0.243622  0.866214  0.834640  1
  O  O75  1  0.463262  0.747943  0.362367  1
  O  O76  1  0.734144  0.610871  0.549802  1
  O  O77  1  0.489252  0.238995  0.777913  1
  O  O78  1  0.890856  0.952497  0.915554  1
  O  O79  1  0.356755  0.560728  0.944112  1
  O  O80  1  0.827797  0.958971  0.163892  1
  O  O81  1  0.185215  0.927345  0.190193  1
  O  O82  1  0.256378  0.366214  0.665360  1
  O  O83  1  0.536738  0.252057  0.637633  1
  O  O84  1  0.634798  0.576595  0.154939  1
  O  O85  1  0.311540  0.150882  0.228870  1
  O  O86  1  0.014481  0.926250  0.329647  1
  O  O87  1  0.672203  0.458971  0.336108  1
