# generated using pymatgen
data_CoCuP2O7
_symmetry_space_group_name_H-M   'P 1'
_cell_length_a   4.58433910
_cell_length_b   5.34911055
_cell_length_c   5.38827625
_cell_angle_alpha   101.71388719
_cell_angle_beta   100.74258138
_cell_angle_gamma   100.74528752
_symmetry_Int_Tables_number   1
_chemical_formula_structural   CoCuP2O7
_chemical_formula_sum   'Co1 Cu1 P2 O7'
_cell_volume   123.60986110
_cell_formula_units_Z   1
loop_
 _symmetry_equiv_pos_site_id
 _symmetry_equiv_pos_as_xyz
  1  'x, y, z'
loop_
 _atom_site_type_symbol
 _atom_site_label
 _atom_site_symmetry_multiplicity
 _atom_site_fract_x
 _atom_site_fract_y
 _atom_site_fract_z
 _atom_site_occupancy
  O  O0  1  0.938806  0.859297  0.974139  1
  O  O1  1  0.964252  0.133043  0.640005  1
  O  O2  1  0.440584  0.174800  0.974839  1
  O  O3  1  0.232704  0.748621  0.643754  1
  O  O4  1  0.003430  0.418688  0.218935  1
  O  O5  1  0.484270  0.750277  0.252966  1
  O  O6  1  0.511022  0.411203  0.523534  1
  P  P7  1  0.133718  0.988320  0.809122  1
  P  P8  1  0.315499  0.580672  0.397546  1
  Co  Co9  1  0.717789  0.115654  0.294000  1
  Cu  Cu10  1  0.718025  0.486523  0.907359  1
