# generated using pymatgen
data_Cs2ZnN12
_symmetry_space_group_name_H-M   'P 1'
_cell_length_a   6.86149208
_cell_length_b   7.53408197
_cell_length_c   22.22776045
_cell_angle_alpha   90.00000000
_cell_angle_beta   90.00000000
_cell_angle_gamma   90.00000000
_symmetry_Int_Tables_number   1
_chemical_formula_structural   Cs2ZnN12
_chemical_formula_sum   'Cs8 Zn4 N48'
_cell_volume   1149.06504931
_cell_formula_units_Z   4
loop_
 _symmetry_equiv_pos_site_id
 _symmetry_equiv_pos_as_xyz
  1  'x, y, z'
loop_
 _atom_site_type_symbol
 _atom_site_label
 _atom_site_symmetry_multiplicity
 _atom_site_fract_x
 _atom_site_fract_y
 _atom_site_fract_z
 _atom_site_occupancy
  Cs  Cs0  1  0.322538  0.888619  0.485247  1
  Cs  Cs1  1  0.307170  0.614086  0.305425  1
  Cs  Cs2  1  0.692830  0.114086  0.694575  1
  Cs  Cs3  1  0.677462  0.388619  0.514753  1
  Cs  Cs4  1  0.692830  0.614086  0.805425  1
  Cs  Cs5  1  0.677462  0.888619  0.985247  1
  Cs  Cs6  1  0.307170  0.114086  0.194575  1
  Cs  Cs7  1  0.322538  0.388619  0.014753  1
  Zn  Zn8  1  0.927022  0.619982  0.131375  1
  Zn  Zn9  1  0.072978  0.619982  0.631375  1
  Zn  Zn10  1  0.072978  0.119982  0.868625  1
  Zn  Zn11  1  0.927022  0.119982  0.368625  1
  N  N12  1  0.691733  0.174492  0.095322  1
  N  N13  1  0.326547  0.383313  0.749272  1
  N  N14  1  0.262000  0.480493  0.447806  1
  N  N15  1  0.344967  0.080854  0.339380  1
  N  N16  1  0.176689  0.265410  0.608749  1
  N  N17  1  0.812624  0.321218  0.271140  1
  N  N18  1  0.944215  0.228391  0.942424  1
  N  N19  1  0.507597  0.612790  0.635748  1
  N  N20  1  0.655033  0.080854  0.839380  1
  N  N21  1  0.363426  0.645067  0.607232  1
  N  N22  1  0.673453  0.883313  0.250728  1
  N  N23  1  0.691733  0.674492  0.404678  1
  N  N24  1  0.944215  0.728391  0.557576  1
  N  N25  1  0.738000  0.980493  0.552194  1
  N  N26  1  0.308267  0.674492  0.904678  1
  N  N27  1  0.187376  0.321218  0.771140  1
  N  N28  1  0.960950  0.261115  0.292304  1
  N  N29  1  0.655033  0.580854  0.660620  1
  N  N30  1  0.262000  0.980493  0.052194  1
  N  N31  1  0.055785  0.728391  0.057576  1
  N  N32  1  0.823311  0.265410  0.108749  1
  N  N33  1  0.823311  0.765410  0.391251  1
  N  N34  1  0.636574  0.645067  0.107232  1
  N  N35  1  0.492403  0.112790  0.364252  1
  N  N36  1  0.840155  0.356348  0.943823  1
  N  N37  1  0.492403  0.612790  0.135748  1
  N  N38  1  0.037670  0.854224  0.877765  1
  N  N39  1  0.507597  0.112790  0.864252  1
  N  N40  1  0.636574  0.145067  0.392768  1
  N  N41  1  0.055785  0.228391  0.442424  1
  N  N42  1  0.962330  0.854224  0.377765  1
  N  N43  1  0.039050  0.261115  0.792304  1
  N  N44  1  0.812624  0.821218  0.228860  1
  N  N45  1  0.039050  0.761115  0.707696  1
  N  N46  1  0.960950  0.761115  0.207696  1
  N  N47  1  0.738000  0.480493  0.947806  1
  N  N48  1  0.344967  0.580854  0.160620  1
  N  N49  1  0.159845  0.356348  0.443823  1
  N  N50  1  0.176689  0.765410  0.891251  1
  N  N51  1  0.037670  0.354224  0.622235  1
  N  N52  1  0.308267  0.174492  0.595322  1
  N  N53  1  0.363426  0.145067  0.892768  1
  N  N54  1  0.962330  0.354224  0.122235  1
  N  N55  1  0.326547  0.883313  0.750728  1
  N  N56  1  0.187376  0.821218  0.728860  1
  N  N57  1  0.673453  0.383313  0.249272  1
  N  N58  1  0.840155  0.856348  0.556177  1
  N  N59  1  0.159845  0.856348  0.056177  1
