# generated using pymatgen
data_Na3Co2SbO6
_symmetry_space_group_name_H-M   'P 1'
_cell_length_a   5.43504976
_cell_length_b   5.28184511
_cell_length_c   5.73406966
_cell_angle_alpha   98.96305405
_cell_angle_beta   99.61873702
_cell_angle_gamma   118.93937494
_symmetry_Int_Tables_number   1
_chemical_formula_structural   Na3Co2SbO6
_chemical_formula_sum   'Na3 Co2 Sb1 O6'
_cell_volume   136.58244583
_cell_formula_units_Z   1
loop_
 _symmetry_equiv_pos_site_id
 _symmetry_equiv_pos_as_xyz
  1  'x, y, z'
loop_
 _atom_site_type_symbol
 _atom_site_label
 _atom_site_symmetry_multiplicity
 _atom_site_fract_x
 _atom_site_fract_y
 _atom_site_fract_z
 _atom_site_occupancy
  Na  Na0  1  0.173434  0.822966  0.500081  1
  Na  Na1  1  0.826578  0.176990  0.499903  1
  Na  Na2  1  0.499916  0.500007  0.500020  1
  Co  Co3  1  0.650260  0.326985  1.000440  1
  Co  Co4  1  0.349798  0.673083  0.999586  1
  Sb  Sb5  1  1.000074  0.000033  0.000046  1
  O  O6  1  0.618950  0.936970  0.793083  1
  O  O7  1  0.068497  0.385076  0.205414  1
  O  O8  1  0.931417  0.614887  0.794514  1
  O  O9  1  0.381028  0.063113  0.206963  1
  O  O10  1  0.758037  0.752419  0.206752  1
  O  O11  1  0.242012  0.247471  0.793199  1
