# generated using pymatgen
data_Ag2Te4O11
_symmetry_space_group_name_H-M   'P 1'
_cell_length_a   7.39367258
_cell_length_b   7.52813567
_cell_length_c   9.85878375
_cell_angle_alpha   95.52796961
_cell_angle_beta   94.15344717
_cell_angle_gamma   119.43749358
_symmetry_Int_Tables_number   1
_chemical_formula_structural   Ag2Te4O11
_chemical_formula_sum   'Ag4 Te8 O22'
_cell_volume   471.11324458
_cell_formula_units_Z   2
loop_
 _symmetry_equiv_pos_site_id
 _symmetry_equiv_pos_as_xyz
  1  'x, y, z'
loop_
 _atom_site_type_symbol
 _atom_site_label
 _atom_site_symmetry_multiplicity
 _atom_site_fract_x
 _atom_site_fract_y
 _atom_site_fract_z
 _atom_site_occupancy
  Ag  Ag0  1  0.995958  0.180940  0.351281  1
  Ag  Ag1  1  0.769342  0.277067  0.013809  1
  Ag  Ag2  1  0.004042  0.819060  0.648719  1
  Ag  Ag3  1  0.230658  0.722933  0.986191  1
  Te  Te4  1  0.494186  0.694919  0.313165  1
  Te  Te5  1  0.772556  0.788605  0.001129  1
  Te  Te6  1  0.505814  0.305081  0.686835  1
  Te  Te7  1  0.492640  0.191277  0.311272  1
  Te  Te8  1  0.507360  0.808723  0.688728  1
  Te  Te9  1  0.227444  0.211395  0.998871  1
  Te  Te10  1  0.002864  0.686682  0.324497  1
  Te  Te11  1  0.997136  0.313318  0.675503  1
  O  O12  1  0.934970  0.689694  0.133143  1
  O  O13  1  0.533983  0.689599  0.117883  1
  O  O14  1  0.223002  0.230048  0.620443  1
  O  O15  1  0.220903  0.633360  0.727017  1
  O  O16  1  0.781893  0.992360  0.643326  1
  O  O17  1  0.075414  0.936576  0.899221  1
  O  O18  1  0.065030  0.310306  0.866857  1
  O  O19  1  0.792233  0.390766  0.761705  1
  O  O20  1  0.924586  0.063424  0.100779  1
  O  O21  1  0.401735  0.096114  0.114902  1
  O  O22  1  0.779097  0.366640  0.272983  1
  O  O23  1  0.776998  0.769952  0.379557  1
  O  O24  1  0.207767  0.609234  0.238295  1
  O  O25  1  0.596523  0.995761  0.334706  1
  O  O26  1  0.218107  0.007640  0.356674  1
  O  O27  1  0.610074  0.321086  0.505679  1
  O  O28  1  0.598265  0.903886  0.885098  1
  O  O29  1  0.389926  0.678914  0.494321  1
  O  O30  1  0.610350  0.607758  0.706110  1
  O  O31  1  0.466017  0.310401  0.882117  1
  O  O32  1  0.403477  0.004240  0.665294  1
  O  O33  1  0.389650  0.392242  0.293890  1
