# generated using pymatgen
data_GdCo2
_symmetry_space_group_name_H-M   'P 1'
_cell_length_a   5.10130617
_cell_length_b   5.10130602
_cell_length_c   5.10130566
_cell_angle_alpha   60.00000234
_cell_angle_beta   60.00000329
_cell_angle_gamma   60.00000498
_symmetry_Int_Tables_number   1
_chemical_formula_structural   GdCo2
_chemical_formula_sum   'Gd2 Co4'
_cell_volume   93.87050408
_cell_formula_units_Z   2
loop_
 _symmetry_equiv_pos_site_id
 _symmetry_equiv_pos_as_xyz
  1  'x, y, z'
loop_
 _atom_site_type_symbol
 _atom_site_label
 _atom_site_symmetry_multiplicity
 _atom_site_fract_x
 _atom_site_fract_y
 _atom_site_fract_z
 _atom_site_occupancy
  Co  Co0  1  0.500000  0.500000  0.500000  1
  Co  Co1  1  0.500000  0.500000  0.000000  1
  Co  Co2  1  0.000000  0.500000  0.500000  1
  Co  Co3  1  0.500000  0.000000  0.500000  1
  Gd  Gd4  1  0.875000  0.875000  0.875000  1
  Gd  Gd5  1  0.125000  0.125000  0.125000  1
