# generated using pymatgen
data_KSeNO2
_symmetry_space_group_name_H-M   'P 1'
_cell_length_a   7.60158315
_cell_length_b   11.40278481
_cell_length_c   13.04565361
_cell_angle_alpha   90.00000000
_cell_angle_beta   90.00000000
_cell_angle_gamma   103.65585823
_symmetry_Int_Tables_number   1
_chemical_formula_structural   KSeNO2
_chemical_formula_sum   'K12 Se12 N12 O24'
_cell_volume   1098.82115435
_cell_formula_units_Z   12
loop_
 _symmetry_equiv_pos_site_id
 _symmetry_equiv_pos_as_xyz
  1  'x, y, z'
loop_
 _atom_site_type_symbol
 _atom_site_label
 _atom_site_symmetry_multiplicity
 _atom_site_fract_x
 _atom_site_fract_y
 _atom_site_fract_z
 _atom_site_occupancy
  K  K0  1  0.171002  0.570053  0.859852  1
  K  K1  1  0.903156  0.095695  0.249562  1
  K  K2  1  0.671002  0.070053  0.640148  1
  K  K3  1  0.328998  0.929947  0.359852  1
  K  K4  1  0.596844  0.404305  0.749562  1
  K  K5  1  0.828998  0.429947  0.140148  1
  K  K6  1  0.096844  0.904305  0.750438  1
  K  K7  1  0.850771  0.129963  0.922336  1
  K  K8  1  0.649229  0.370037  0.422336  1
  K  K9  1  0.403156  0.595695  0.250438  1
  K  K10  1  0.149229  0.870037  0.077664  1
  K  K11  1  0.350771  0.629963  0.577664  1
  Se  Se12  1  0.728489  0.843429  0.438766  1
  Se  Se13  1  0.771511  0.656571  0.938766  1
  Se  Se14  1  0.625900  0.833894  0.063727  1
  Se  Se15  1  0.069994  0.316902  0.666031  1
  Se  Se16  1  0.930006  0.683098  0.333969  1
  Se  Se17  1  0.125900  0.333894  0.436273  1
  Se  Se18  1  0.430006  0.183098  0.166031  1
  Se  Se19  1  0.874100  0.666106  0.563727  1
  Se  Se20  1  0.271511  0.156571  0.561234  1
  Se  Se21  1  0.569994  0.816902  0.833969  1
  Se  Se22  1  0.374100  0.166106  0.936273  1
  Se  Se23  1  0.228489  0.343429  0.061234  1
  N  N24  1  0.120293  0.169448  0.665731  1
  N  N25  1  0.879707  0.830552  0.334269  1
  N  N26  1  0.620293  0.669448  0.834269  1
  N  N27  1  0.189623  0.189622  0.437091  1
  N  N28  1  0.810377  0.810378  0.562909  1
  N  N29  1  0.518099  0.149878  0.043928  1
  N  N30  1  0.379707  0.330552  0.165731  1
  N  N31  1  0.018099  0.649878  0.456072  1
  N  N32  1  0.310377  0.310378  0.937091  1
  N  N33  1  0.981901  0.350122  0.543928  1
  N  N34  1  0.481901  0.850122  0.956072  1
  N  N35  1  0.689623  0.689622  0.062909  1
  O  O36  1  0.225444  0.488416  0.058607  1
  O  O37  1  0.310092  0.446901  0.428240  1
  O  O38  1  0.774556  0.511584  0.941393  1
  O  O39  1  0.755174  0.572425  0.297204  1
  O  O40  1  0.810092  0.946901  0.071760  1
  O  O41  1  0.011218  0.671703  0.663029  1
  O  O42  1  0.896974  0.299248  0.746602  1
  O  O43  1  0.744826  0.927575  0.797204  1
  O  O44  1  0.988782  0.328297  0.336971  1
  O  O45  1  0.480931  0.239809  0.582866  1
  O  O46  1  0.689908  0.553099  0.571760  1
  O  O47  1  0.603026  0.200752  0.246602  1
  O  O48  1  0.019069  0.260191  0.082866  1
  O  O49  1  0.244826  0.427575  0.702796  1
  O  O50  1  0.255174  0.072425  0.202796  1
  O  O51  1  0.103026  0.700752  0.253398  1
  O  O52  1  0.396974  0.799248  0.753398  1
  O  O53  1  0.488782  0.828297  0.163029  1
  O  O54  1  0.980931  0.739809  0.917134  1
  O  O55  1  0.725444  0.988416  0.441393  1
  O  O56  1  0.511218  0.171703  0.836971  1
  O  O57  1  0.519069  0.760191  0.417134  1
  O  O58  1  0.189908  0.053099  0.928240  1
  O  O59  1  0.274556  0.011584  0.558607  1
