# generated using pymatgen
data_SiO2
_symmetry_space_group_name_H-M   'P 1'
_cell_length_a   8.64761635
_cell_length_b   12.74227673
_cell_length_c   12.74227610
_cell_angle_alpha   109.46535614
_cell_angle_beta   90.00000000
_cell_angle_gamma   90.00000000
_symmetry_Int_Tables_number   1
_chemical_formula_structural   SiO2
_chemical_formula_sum   'Si24 O48'
_cell_volume   1323.82296277
_cell_formula_units_Z   24
loop_
 _symmetry_equiv_pos_site_id
 _symmetry_equiv_pos_as_xyz
  1  'x, y, z'
loop_
 _atom_site_type_symbol
 _atom_site_label
 _atom_site_symmetry_multiplicity
 _atom_site_fract_x
 _atom_site_fract_y
 _atom_site_fract_z
 _atom_site_occupancy
  Si  Si0  1  0.063540  0.379606  0.239831  1
  Si  Si1  1  0.436460  0.760169  0.620394  1
  Si  Si2  1  0.936882  0.382024  0.005213  1
  Si  Si3  1  0.936882  0.994787  0.617976  1
  Si  Si4  1  0.936460  0.239831  0.379606  1
  Si  Si5  1  0.063118  0.617976  0.994787  1
  Si  Si6  1  0.563540  0.620394  0.760169  1
  Si  Si7  1  0.063118  0.005213  0.382024  1
  Si  Si8  1  0.436648  0.377180  0.622820  1
  Si  Si9  1  0.437437  0.227784  0.772216  1
  Si  Si10  1  0.563352  0.622820  0.377180  1
  Si  Si11  1  0.562563  0.772216  0.227784  1
  Si  Si12  1  0.563118  0.382024  0.005213  1
  Si  Si13  1  0.436882  0.005213  0.382024  1
  Si  Si14  1  0.936648  0.622820  0.377180  1
  Si  Si15  1  0.063540  0.760169  0.620394  1
  Si  Si16  1  0.937437  0.772216  0.227784  1
  Si  Si17  1  0.563118  0.994787  0.617976  1
  Si  Si18  1  0.436882  0.617976  0.994787  1
  Si  Si19  1  0.563540  0.239831  0.379606  1
  Si  Si20  1  0.063352  0.377180  0.622820  1
  Si  Si21  1  0.062563  0.227784  0.772216  1
  Si  Si22  1  0.936460  0.620394  0.760169  1
  Si  Si23  1  0.436460  0.379606  0.239831  1
  O  O24  1  0.996137  0.114455  0.360011  1
  O  O25  1  1.000540  0.497069  0.324778  1
  O  O26  1  1.005649  0.302613  0.697387  1
  O  O27  1  0.500540  0.502931  0.675222  1
  O  O28  1  0.505679  0.102917  0.719304  1
  O  O29  1  0.500000  0.000000  0.500000  1
  O  O30  1  0.503863  0.114455  0.360011  1
  O  O31  1  0.505679  0.280696  0.897083  1
  O  O32  1  0.494351  0.302613  0.697387  1
  O  O33  1  0.994321  0.102917  0.719304  1
  O  O34  1  0.250000  0.380771  0.242215  1
  O  O35  1  0.994321  0.280696  0.897083  1
  O  O36  1  0.000000  0.278134  0.278134  1
  O  O37  1  0.503863  0.639989  0.885545  1
  O  O38  1  0.000000  0.721866  0.721866  1
  O  O39  1  -0.000540  0.502931  0.675222  1
  O  O40  1  0.250000  0.010435  0.385606  1
  O  O41  1  0.250000  0.614394  0.989565  1
  O  O42  1  0.500000  0.721866  0.721866  1
  O  O43  1  -0.005649  0.697387  0.302613  1
  O  O44  1  0.250000  0.224097  0.775903  1
  O  O45  1  0.494321  0.897083  0.280696  1
  O  O46  1  0.003863  0.360011  0.114455  1
  O  O47  1  0.499460  0.497069  0.324778  1
  O  O48  1  0.750000  0.619229  0.757785  1
  O  O49  1  0.750000  0.620723  0.379277  1
  O  O50  1  0.005679  0.897083  0.280696  1
  O  O51  1  0.750000  0.242215  0.380771  1
  O  O52  1  0.505649  0.697387  0.302613  1
  O  O53  1  0.750000  0.989565  0.614394  1
  O  O54  1  0.750000  0.385606  0.010435  1
  O  O55  1  0.496137  0.885545  0.639989  1
  O  O56  1  1.000540  0.675222  0.502931  1
  O  O57  1  0.750000  0.775903  0.224097  1
  O  O58  1  0.500000  0.500000  0.000000  1
  O  O59  1  0.250000  0.379277  0.620723  1
  O  O60  1  0.500000  0.278134  0.278134  1
  O  O61  1  0.500540  0.324778  0.497069  1
  O  O62  1  0.000000  0.000000  0.500000  1
  O  O63  1  0.250000  0.757785  0.619229  1
  O  O64  1  0.005679  0.719304  0.102917  1
  O  O65  1  -0.000540  0.324778  0.497069  1
  O  O66  1  0.003863  0.885545  0.639989  1
  O  O67  1  0.496137  0.360011  0.114455  1
  O  O68  1  0.499460  0.675222  0.502931  1
  O  O69  1  0.996137  0.639989  0.885545  1
  O  O70  1  0.494321  0.719304  0.102917  1
  O  O71  1  0.000000  0.500000  0.000000  1
