# generated using pymatgen
data_Na3Sb3(AsO7)2
_symmetry_space_group_name_H-M   'P 1'
_cell_length_a   6.56692539
_cell_length_b   7.38225097
_cell_length_c   12.48089002
_cell_angle_alpha   90.00000000
_cell_angle_beta   103.03266076
_cell_angle_gamma   90.00000000
_symmetry_Int_Tables_number   1
_chemical_formula_structural   Na3Sb3(AsO7)2
_chemical_formula_sum   'Na6 Sb6 As4 O28'
_cell_volume   589.47195476
_cell_formula_units_Z   2
loop_
 _symmetry_equiv_pos_site_id
 _symmetry_equiv_pos_as_xyz
  1  'x, y, z'
loop_
 _atom_site_type_symbol
 _atom_site_label
 _atom_site_symmetry_multiplicity
 _atom_site_fract_x
 _atom_site_fract_y
 _atom_site_fract_z
 _atom_site_occupancy
  Na  Na0  1  0.000000  0.000000  0.000000  1
  Na  Na1  1  0.897120  0.713219  0.432747  1
  Na  Na2  1  0.102880  0.286781  0.567253  1
  Na  Na3  1  0.397120  0.786781  0.932747  1
  Na  Na4  1  0.500000  0.500000  0.500000  1
  Na  Na5  1  0.602880  0.213219  0.067253  1
  Sb  Sb6  1  0.230181  0.240729  0.253284  1
  Sb  Sb7  1  0.730181  0.259271  0.753284  1
  Sb  Sb8  1  0.769819  0.759271  0.746716  1
  Sb  Sb9  1  0.269819  0.740729  0.246716  1
  Sb  Sb10  1  0.500000  0.000000  0.500000  1
  Sb  Sb11  1  0.000000  0.500000  0.000000  1
  As  As12  1  0.244771  0.765131  0.660453  1
  As  As13  1  0.744771  0.734869  0.160453  1
  As  As14  1  0.255229  0.265131  0.839547  1
  As  As15  1  0.755229  0.234869  0.339547  1
  O  O16  1  0.263378  0.994174  0.196592  1
  O  O17  1  0.774939  0.531335  0.092053  1
  O  O18  1  0.532090  0.273708  0.237206  1
  O  O19  1  0.319304  0.095121  0.929344  1
  O  O20  1  0.074237  0.812136  0.744308  1
  O  O21  1  0.372257  0.795533  0.405348  1
  O  O22  1  0.274939  0.968665  0.592053  1
  O  O23  1  0.725061  0.031335  0.407947  1
  O  O24  1  0.180696  0.595121  0.570656  1
  O  O25  1  0.685091  0.810238  0.584241  1
  O  O26  1  0.425763  0.312136  0.755692  1
  O  O27  1  0.574237  0.687864  0.244308  1
  O  O28  1  0.967910  0.773708  0.262794  1
  O  O29  1  0.680696  0.904879  0.070656  1
  O  O30  1  0.736622  0.005826  0.803408  1
  O  O31  1  0.225061  0.468665  0.907947  1
  O  O32  1  0.627743  0.204467  0.594652  1
  O  O33  1  0.236622  0.494174  0.303408  1
  O  O34  1  0.185091  0.689762  0.084241  1
  O  O35  1  0.819304  0.404879  0.429344  1
  O  O36  1  0.032090  0.226292  0.737206  1
  O  O37  1  0.814909  0.310238  0.915759  1
  O  O38  1  0.467910  0.726292  0.762794  1
  O  O39  1  0.127743  0.295533  0.094652  1
  O  O40  1  0.763378  0.505826  0.696592  1
  O  O41  1  0.872257  0.704467  0.905348  1
  O  O42  1  0.314909  0.189762  0.415759  1
  O  O43  1  0.925763  0.187864  0.255692  1
