# generated using pymatgen
data_LiMnFeF6
_symmetry_space_group_name_H-M   'P 1'
_cell_length_a   8.84373132
_cell_length_b   8.84373168
_cell_length_c   4.73132928
_cell_angle_alpha   90.00000000
_cell_angle_beta   90.00000000
_cell_angle_gamma   119.99999866
_symmetry_Int_Tables_number   1
_chemical_formula_structural   LiMnFeF6
_chemical_formula_sum   'Li3 Mn3 Fe3 F18'
_cell_volume   320.46817633
_cell_formula_units_Z   3
loop_
 _symmetry_equiv_pos_site_id
 _symmetry_equiv_pos_as_xyz
  1  'x, y, z'
loop_
 _atom_site_type_symbol
 _atom_site_label
 _atom_site_symmetry_multiplicity
 _atom_site_fract_x
 _atom_site_fract_y
 _atom_site_fract_z
 _atom_site_occupancy
  Li  Li0  1  0.666667  0.333333  0.495334  1
  Li  Li1  1  0.000000  0.000000  0.000000  1
  Li  Li2  1  0.333333  0.666667  0.504666  1
  Mn  Mn3  1  1.000000  0.353941  0.000000  1
  Mn  Mn4  1  0.353941  0.000000  0.000000  1
  Mn  Mn5  1  0.646059  0.646059  0.000000  1
  Fe  Fe6  1  0.313341  0.313341  0.500000  1
  Fe  Fe7  1  0.686659  0.000000  0.500000  1
  Fe  Fe8  1  0.000000  0.686659  0.500000  1
  F  F9  1  0.891821  0.468373  0.271460  1
  F  F10  1  0.784165  0.562503  0.721658  1
  F  F11  1  0.437497  0.221662  0.721658  1
  F  F12  1  0.886021  0.107962  0.242897  1
  F  F13  1  0.215835  0.778338  0.278342  1
  F  F14  1  0.468373  0.891821  0.728540  1
  F  F15  1  0.576552  0.108179  0.271460  1
  F  F16  1  0.892038  0.778059  0.242897  1
  F  F17  1  0.531627  0.423448  0.271460  1
  F  F18  1  0.778338  0.215835  0.721658  1
  F  F19  1  0.113979  0.221941  0.757103  1
  F  F20  1  0.108179  0.576552  0.728540  1
  F  F21  1  0.107962  0.886021  0.757103  1
  F  F22  1  0.221662  0.437497  0.278342  1
  F  F23  1  0.221941  0.113979  0.242897  1
  F  F24  1  0.423448  0.531627  0.728540  1
  F  F25  1  0.562503  0.784165  0.278342  1
  F  F26  1  0.778059  0.892038  0.757103  1
