# generated using pymatgen
data_Rb4(Mo7Se8)3
_symmetry_space_group_name_H-M   'P 1'
_cell_length_a   29.99462683
_cell_length_b   29.99462662
_cell_length_c   29.99462749
_cell_angle_alpha   18.71025953
_cell_angle_beta   18.71026075
_cell_angle_gamma   18.71026054
_symmetry_Int_Tables_number   1
_chemical_formula_structural   Rb4(Mo7Se8)3
_chemical_formula_sum   'Rb8 Mo42 Se48'
_cell_volume   2426.18647999
_cell_formula_units_Z   2
loop_
 _symmetry_equiv_pos_site_id
 _symmetry_equiv_pos_as_xyz
  1  'x, y, z'
loop_
 _atom_site_type_symbol
 _atom_site_label
 _atom_site_symmetry_multiplicity
 _atom_site_fract_x
 _atom_site_fract_y
 _atom_site_fract_z
 _atom_site_occupancy
  Rb  Rb0  1  0.343046  0.343046  0.343046  1
  Rb  Rb1  1  0.107020  0.107020  0.107020  1
  Rb  Rb2  1  0.467217  0.467217  0.467217  1
  Rb  Rb3  1  0.892980  0.892980  0.892980  1
  Rb  Rb4  1  0.412997  0.412997  0.412997  1
  Rb  Rb5  1  0.587003  0.587003  0.587003  1
  Rb  Rb6  1  0.656954  0.656954  0.656954  1
  Rb  Rb7  1  0.532783  0.532783  0.532783  1
  Mo  Mo8  1  0.153776  0.028912  0.342246  1
  Mo  Mo9  1  0.205711  0.017574  0.893462  1
  Mo  Mo10  1  0.153828  0.972026  0.836428  1
  Mo  Mo11  1  0.207741  0.078469  0.393283  1
  Mo  Mo12  1  0.731242  0.597843  0.914739  1
  Mo  Mo13  1  0.868617  0.554339  0.742963  1
  Mo  Mo14  1  0.649057  0.965888  0.782233  1
  Mo  Mo15  1  0.965888  0.782233  0.649057  1
  Mo  Mo16  1  0.792259  0.921531  0.606717  1
  Mo  Mo17  1  0.027974  0.163572  0.846172  1
  Mo  Mo18  1  0.393283  0.207741  0.078469  1
  Mo  Mo19  1  0.921531  0.606717  0.792259  1
  Mo  Mo20  1  0.554339  0.742963  0.868617  1
  Mo  Mo21  1  0.597843  0.914739  0.731242  1
  Mo  Mo22  1  0.131383  0.445661  0.257037  1
  Mo  Mo23  1  0.982425  0.106538  0.794289  1
  Mo  Mo24  1  0.742963  0.868617  0.554339  1
  Mo  Mo25  1  0.914739  0.731242  0.597843  1
  Mo  Mo26  1  0.657754  0.846224  0.971088  1
  Mo  Mo27  1  0.846224  0.971088  0.657754  1
  Mo  Mo28  1  0.794289  0.982425  0.106538  1
  Mo  Mo29  1  0.971088  0.657754  0.846224  1
  Mo  Mo30  1  0.078469  0.393283  0.207741  1
  Mo  Mo31  1  0.257037  0.131383  0.445661  1
  Mo  Mo32  1  0.972026  0.836428  0.153828  1
  Mo  Mo33  1  0.028912  0.342246  0.153776  1
  Mo  Mo34  1  0.342246  0.153776  0.028912  1
  Mo  Mo35  1  0.893462  0.205711  0.017574  1
  Mo  Mo36  1  0.782233  0.649057  0.965888  1
  Mo  Mo37  1  0.085261  0.268758  0.402157  1
  Mo  Mo38  1  0.268758  0.402157  0.085261  1
  Mo  Mo39  1  0.445661  0.257037  0.131383  1
  Mo  Mo40  1  0.606717  0.792259  0.921531  1
  Mo  Mo41  1  0.350943  0.034112  0.217767  1
  Mo  Mo42  1  0.217767  0.350943  0.034112  1
  Mo  Mo43  1  0.106538  0.794289  0.982425  1
  Mo  Mo44  1  0.034112  0.217767  0.350943  1
  Mo  Mo45  1  0.163572  0.846172  0.027974  1
  Mo  Mo46  1  0.402157  0.085261  0.268758  1
  Mo  Mo47  1  0.017574  0.893462  0.205711  1
  Mo  Mo48  1  0.836428  0.153828  0.972026  1
  Mo  Mo49  1  0.846172  0.027974  0.163572  1
  Se  Se50  1  0.264603  0.518718  0.896238  1
  Se  Se51  1  0.300944  0.300944  0.300944  1
  Se  Se52  1  0.673440  0.291274  0.925215  1
  Se  Se53  1  0.103762  0.735397  0.481282  1
  Se  Se54  1  0.896238  0.264603  0.518718  1
  Se  Se55  1  0.326560  0.708726  0.074785  1
  Se  Se56  1  0.565319  0.948212  0.314808  1
  Se  Se57  1  0.577490  0.218236  0.961229  1
  Se  Se58  1  0.422510  0.781764  0.038771  1
  Se  Se59  1  0.848742  0.215836  0.466049  1
  Se  Se60  1  0.314808  0.565319  0.948212  1
  Se  Se61  1  0.720909  0.337042  0.982077  1
  Se  Se62  1  0.525967  0.166284  0.909814  1
  Se  Se63  1  0.781764  0.038771  0.422510  1
  Se  Se64  1  0.925215  0.673440  0.291274  1
  Se  Se65  1  0.215836  0.466049  0.848742  1
  Se  Se66  1  0.685192  0.434681  0.051788  1
  Se  Se67  1  0.533951  0.151258  0.784164  1
  Se  Se68  1  0.961229  0.577490  0.218236  1
  Se  Se69  1  0.847972  0.847972  0.847972  1
  Se  Se70  1  0.474033  0.833716  0.090186  1
  Se  Se71  1  0.074785  0.326560  0.708726  1
  Se  Se72  1  0.038771  0.422510  0.781764  1
  Se  Se73  1  0.481282  0.103762  0.735397  1
  Se  Se74  1  0.938133  0.938133  0.938133  1
  Se  Se75  1  0.735397  0.481282  0.103762  1
  Se  Se76  1  0.699056  0.699056  0.699056  1
  Se  Se77  1  0.017923  0.279091  0.662958  1
  Se  Se78  1  0.151258  0.784164  0.533951  1
  Se  Se79  1  0.061867  0.061867  0.061867  1
  Se  Se80  1  0.833716  0.090186  0.474033  1
  Se  Se81  1  0.948212  0.314808  0.565319  1
  Se  Se82  1  0.152028  0.152028  0.152028  1
  Se  Se83  1  0.982077  0.720909  0.337042  1
  Se  Se84  1  0.909814  0.525967  0.166284  1
  Se  Se85  1  0.518718  0.896238  0.264603  1
  Se  Se86  1  0.279091  0.662958  0.017923  1
  Se  Se87  1  0.662958  0.017923  0.279091  1
  Se  Se88  1  0.291274  0.925215  0.673440  1
  Se  Se89  1  0.466049  0.848742  0.215836  1
  Se  Se90  1  0.051788  0.685192  0.434681  1
  Se  Se91  1  0.708726  0.074785  0.326560  1
  Se  Se92  1  0.090186  0.474033  0.833716  1
  Se  Se93  1  0.337042  0.982077  0.720909  1
  Se  Se94  1  0.434681  0.051788  0.685192  1
  Se  Se95  1  0.784164  0.533951  0.151258  1
  Se  Se96  1  0.166284  0.909814  0.525967  1
  Se  Se97  1  0.218236  0.961229  0.577490  1
