# generated using pymatgen
data_KEr(PO3)4
_symmetry_space_group_name_H-M   'P 1'
_cell_length_a   7.90384101
_cell_length_b   7.90384192
_cell_length_c   17.43929650
_cell_angle_alpha   90.00000000
_cell_angle_beta   90.00000000
_cell_angle_gamma   97.59094720
_symmetry_Int_Tables_number   1
_chemical_formula_structural   KEr(PO3)4
_chemical_formula_sum   'K4 Er4 P16 O48'
_cell_volume   1079.89779582
_cell_formula_units_Z   4
loop_
 _symmetry_equiv_pos_site_id
 _symmetry_equiv_pos_as_xyz
  1  'x, y, z'
loop_
 _atom_site_type_symbol
 _atom_site_label
 _atom_site_symmetry_multiplicity
 _atom_site_fract_x
 _atom_site_fract_y
 _atom_site_fract_z
 _atom_site_occupancy
  K  K0  1  0.028136  0.763767  0.618081  1
  K  K1  1  0.971864  0.236233  0.118081  1
  K  K2  1  0.236233  0.971864  0.381919  1
  K  K3  1  0.763767  0.028136  0.881919  1
  Er  Er4  1  0.028829  0.402666  0.392268  1
  Er  Er5  1  0.971171  0.597334  0.892268  1
  Er  Er6  1  0.597334  0.971171  0.607732  1
  Er  Er7  1  0.402666  0.028829  0.107732  1
  P  P8  1  0.220388  0.680679  0.235224  1
  P  P9  1  0.963725  0.264198  0.592107  1
  P  P10  1  0.366800  0.633201  0.500000  1
  P  P11  1  0.679823  0.717190  0.055754  1
  P  P12  1  0.648718  0.648718  0.750000  1
  P  P13  1  0.680679  0.220388  0.264776  1
  P  P14  1  0.633201  0.366800  0.000000  1
  P  P15  1  0.320177  0.282810  0.555754  1
  P  P16  1  0.717190  0.679823  0.444246  1
  P  P17  1  0.351282  0.351282  0.250000  1
  P  P18  1  0.735802  0.036275  0.407893  1
  P  P19  1  0.779612  0.319321  0.735224  1
  P  P20  1  0.282810  0.320177  0.944246  1
  P  P21  1  0.319321  0.779612  0.764776  1
  P  P22  1  0.264198  0.963725  0.907893  1
  P  P23  1  0.036275  0.735802  0.092107  1
  O  O24  1  0.367267  0.947320  0.978553  1
  O  O25  1  0.838443  0.735334  0.115736  1
  O  O26  1  0.632733  0.052680  0.478553  1
  O  O27  1  0.879677  0.081910  0.597695  1
  O  O28  1  0.375125  0.902511  0.837656  1
  O  O29  1  0.161557  0.264666  0.615736  1
  O  O30  1  0.395045  0.800520  0.541776  1
  O  O31  1  0.142585  0.687111  0.775891  1
  O  O32  1  0.052680  0.632733  0.021447  1
  O  O33  1  0.604955  0.199480  0.041776  1
  O  O34  1  0.806275  0.546193  0.406862  1
  O  O35  1  0.687111  0.142585  0.724109  1
  O  O36  1  0.918090  0.120323  0.402305  1
  O  O37  1  0.800520  0.395045  0.958224  1
  O  O38  1  0.236630  0.311095  0.318348  1
  O  O39  1  0.119295  0.640512  0.307298  1
  O  O40  1  0.512925  0.613829  0.437812  1
  O  O41  1  0.487075  0.386171  0.937812  1
  O  O42  1  0.453807  0.193725  0.593138  1
  O  O43  1  0.613829  0.512925  0.062188  1
  O  O44  1  0.640512  0.119295  0.192702  1
  O  O45  1  0.199480  0.604955  0.458224  1
  O  O46  1  0.735334  0.838443  0.384264  1
  O  O47  1  0.264666  0.161557  0.884264  1
  O  O48  1  0.081910  0.879677  0.902305  1
  O  O49  1  0.546193  0.806275  0.093138  1
  O  O50  1  0.386171  0.487075  0.562188  1
  O  O51  1  0.688905  0.763370  0.681652  1
  O  O52  1  0.759218  0.743009  0.523779  1
  O  O53  1  0.240782  0.256991  0.023779  1
  O  O54  1  0.357538  0.547152  0.225035  1
  O  O55  1  0.120323  0.918090  0.097695  1
  O  O56  1  0.547152  0.357538  0.274965  1
  O  O57  1  0.359488  0.880705  0.692702  1
  O  O58  1  0.193725  0.453807  0.906862  1
  O  O59  1  0.312889  0.857415  0.224109  1
  O  O60  1  0.311095  0.236630  0.181652  1
  O  O61  1  0.624875  0.097489  0.337656  1
  O  O62  1  0.880705  0.359488  0.807298  1
  O  O63  1  0.947320  0.367267  0.521447  1
  O  O64  1  0.857415  0.312889  0.275891  1
  O  O65  1  0.452848  0.642462  0.774965  1
  O  O66  1  0.642462  0.452848  0.725035  1
  O  O67  1  0.743009  0.759218  0.976221  1
  O  O68  1  0.256991  0.240782  0.476221  1
  O  O69  1  0.902511  0.375125  0.662344  1
  O  O70  1  0.763370  0.688905  0.818348  1
  O  O71  1  0.097489  0.624875  0.162344  1
