# generated using pymatgen
data_Ba17Ho16Zn8Pt4O57
_symmetry_space_group_name_H-M   'P 1'
_cell_length_a   5.75533466
_cell_length_b   16.57443304
_cell_length_c   16.57437248
_cell_angle_alpha   88.27273602
_cell_angle_beta   80.00216701
_cell_angle_gamma   80.00057091
_symmetry_Int_Tables_number   1
_chemical_formula_structural   Ba17Ho16Zn8Pt4O57
_chemical_formula_sum   'Ba17 Ho16 Zn8 Pt4 O57'
_cell_volume   1533.39108824
_cell_formula_units_Z   1
loop_
 _symmetry_equiv_pos_site_id
 _symmetry_equiv_pos_as_xyz
  1  'x, y, z'
loop_
 _atom_site_type_symbol
 _atom_site_label
 _atom_site_symmetry_multiplicity
 _atom_site_fract_x
 _atom_site_fract_y
 _atom_site_fract_z
 _atom_site_occupancy
  Ba  Ba0  1  0.888127  0.388275  0.835473  1
  Ba  Ba1  1  0.932273  0.509477  0.625912  1
  Ba  Ba2  1  0.342160  0.008390  0.307314  1
  Ba  Ba3  1  0.267779  0.543144  0.921302  1
  Ba  Ba4  1  0.810917  0.921296  0.456856  1
  Ba  Ba5  1  0.558210  0.374081  0.509480  1
  Ba  Ba6  1  0.723606  0.164527  0.388275  1
  Ba  Ba7  1  0.649477  0.692681  0.008392  1
  Ba  Ba8  1  0.276394  0.835473  0.611725  1
  Ba  Ba9  1  0.350523  0.307319  0.991608  1
  Ba  Ba10  1  0.189083  0.078704  0.543144  1
  Ba  Ba11  1  0.067727  0.490523  0.374088  1
  Ba  Ba12  1  0.732221  0.456856  0.078698  1
  Ba  Ba13  1  0.657840  0.991610  0.692686  1
  Ba  Ba14  1  0.441790  0.625919  0.490520  1
  Ba  Ba15  1  0.000000  0.000000  0.000000  1
  Ba  Ba16  1  0.111873  0.611725  0.164527  1
  Ho  Ho17  1  0.250759  0.243018  0.255500  1
  Ho  Ho18  1  0.171854  0.775909  0.880357  1
  Ho  Ho19  1  0.674135  0.375496  0.276274  1
  Ho  Ho20  1  0.828146  0.224091  0.119643  1
  Ho  Ho21  1  0.599565  0.911898  0.888982  1
  Ho  Ho22  1  0.049621  0.276279  0.624502  1
  Ho  Ho23  1  0.488530  0.111027  0.911893  1
  Ho  Ho24  1  0.493744  0.255508  0.756990  1
  Ho  Ho25  1  0.325865  0.624504  0.723726  1
  Ho  Ho26  1  0.947781  0.880353  0.224091  1
  Ho  Ho27  1  0.511470  0.888973  0.088107  1
  Ho  Ho28  1  0.400435  0.088102  0.111018  1
  Ho  Ho29  1  0.749241  0.756982  0.744500  1
  Ho  Ho30  1  0.506256  0.744492  0.243010  1
  Ho  Ho31  1  0.950379  0.723721  0.375498  1
  Ho  Ho32  1  0.052219  0.119647  0.775909  1
  Zn  Zn33  1  0.212284  0.408317  0.167145  1
  Zn  Zn34  1  0.379381  0.832858  0.408316  1
  Zn  Zn35  1  0.866700  0.057698  0.208909  1
  Zn  Zn36  1  0.924387  0.208912  0.942304  1
  Zn  Zn37  1  0.787716  0.591683  0.832855  1
  Zn  Zn38  1  0.075613  0.791088  0.057696  1
  Zn  Zn39  1  0.133300  0.942302  0.791091  1
  Zn  Zn40  1  0.620619  0.167142  0.591684  1
  Pt  Pt41  1  0.855685  0.727046  0.561559  1
  Pt  Pt42  1  0.144315  0.272954  0.438441  1
  Pt  Pt43  1  0.417268  0.438421  0.727037  1
  Pt  Pt44  1  0.582732  0.561579  0.272963  1
  O  O45  1  0.299042  0.940402  0.461572  1
  O  O46  1  0.231424  0.160986  0.376217  1
  O  O47  1  0.409248  0.310599  0.354306  1
  O  O48  1  0.925877  0.310589  0.354297  1
  O  O49  1  0.222069  0.202928  0.851753  1
  O  O50  1  0.435201  0.509984  0.619553  1
  O  O51  1  0.392340  0.376228  0.839019  1
  O  O52  1  0.366934  0.232630  0.521149  1
  O  O53  1  0.768576  0.839014  0.623783  1
  O  O54  1  0.319380  0.176036  0.681230  1
  O  O55  1  0.157518  0.683176  0.001715  1
  O  O56  1  0.607661  0.623772  0.160981  1
  O  O57  1  0.074123  0.689411  0.645703  1
  O  O58  1  0.316244  0.024515  0.845096  1
  O  O59  1  0.777931  0.797072  0.148247  1
  O  O60  1  0.838747  0.845112  0.975492  1
  O  O61  1  0.239394  0.461567  0.059601  1
  O  O62  1  0.424970  0.851750  0.797091  1
  O  O63  1  0.659228  0.154907  0.024510  1
  O  O64  1  0.760606  0.538433  0.940399  1
  O  O65  1  0.842482  0.316824  0.998285  1
  O  O66  1  0.683756  0.975485  0.154904  1
  O  O67  1  0.054734  0.380451  0.509977  1
  O  O68  1  0.840802  0.001719  0.316820  1
  O  O69  1  0.280166  0.645690  0.310589  1
  O  O70  1  0.590752  0.689401  0.645694  1
  O  O71  1  0.176615  0.823956  0.318768  1
  O  O72  1  0.763528  0.645695  0.310599  1
  O  O73  1  0.814222  0.024520  0.845110  1
  O  O74  1  0.495343  0.681223  0.823955  1
  O  O75  1  0.120691  0.767376  0.478862  1
  O  O76  1  0.680620  0.823964  0.318770  1
  O  O77  1  0.340772  0.845093  0.975490  1
  O  O78  1  0.723236  0.202926  0.851754  1
  O  O79  1  0.504657  0.318777  0.176045  1
  O  O80  1  0.945265  0.619549  0.490023  1
  O  O81  1  0.823385  0.176044  0.681232  1
  O  O82  1  0.999407  0.681223  0.823951  1
  O  O83  1  0.575030  0.148250  0.202909  1
  O  O84  1  0.111900  0.521148  0.767373  1
  O  O85  1  0.500000  0.000000  0.000000  1
  O  O86  1  0.879309  0.232624  0.521138  1
  O  O87  1  0.888100  0.478852  0.232627  1
  O  O88  1  0.185778  0.975480  0.154890  1
  O  O89  1  0.633066  0.767370  0.478851  1
  O  O90  1  0.700958  0.059598  0.538428  1
  O  O91  1  0.276764  0.797074  0.148246  1
  O  O92  1  0.400449  0.478855  0.232625  1
  O  O93  1  0.161253  0.154888  0.024508  1
  O  O94  1  0.599551  0.521145  0.767375  1
  O  O95  1  0.000593  0.318777  0.176049  1
  O  O96  1  0.159198  0.998281  0.683180  1
  O  O97  1  0.719834  0.354310  0.689411  1
  O  O98  1  0.926128  0.851750  0.797089  1
  O  O99  1  0.564799  0.490016  0.380447  1
  O  O100  1  0.236472  0.354305  0.689401  1
  O  O101  1  0.073872  0.148250  0.202911  1
