# generated using pymatgen
data_Cu2S
_symmetry_space_group_name_H-M   'P 1'
_cell_length_a   11.91582681
_cell_length_b   13.35222503
_cell_length_c   15.13403569
_cell_angle_alpha   116.19370673
_cell_angle_beta   90.00000000
_cell_angle_gamma   90.00000000
_symmetry_Int_Tables_number   1
_chemical_formula_structural   Cu2S
_chemical_formula_sum   'Cu96 S48'
_cell_volume   2160.59599453
_cell_formula_units_Z   48
loop_
 _symmetry_equiv_pos_site_id
 _symmetry_equiv_pos_as_xyz
  1  'x, y, z'
loop_
 _atom_site_type_symbol
 _atom_site_label
 _atom_site_symmetry_multiplicity
 _atom_site_fract_x
 _atom_site_fract_y
 _atom_site_fract_z
 _atom_site_occupancy
  Cu  Cu0  1  0.461782  0.644527  0.827595  1
  Cu  Cu1  1  0.398438  0.956892  0.138293  1
  Cu  Cu2  1  0.296647  0.755842  0.023250  1
  Cu  Cu3  1  0.038218  0.144527  0.827595  1
  Cu  Cu4  1  0.547102  0.325414  0.686724  1
  Cu  Cu5  1  0.586913  0.716196  0.997374  1
  Cu  Cu6  1  0.855125  0.561203  0.055103  1
  Cu  Cu7  1  0.659599  0.993303  0.552831  1
  Cu  Cu8  1  0.420791  0.722007  0.502738  1
  Cu  Cu9  1  0.749422  0.924861  0.140804  1
  Cu  Cu10  1  0.291421  0.569358  0.207372  1
  Cu  Cu11  1  0.736082  0.213962  0.639337  1
  Cu  Cu12  1  0.250104  0.851854  0.770773  1
  Cu  Cu13  1  0.399149  0.947017  0.609649  1
  Cu  Cu14  1  0.577223  0.842271  0.899044  1
  Cu  Cu15  1  0.870461  0.060973  0.071066  1
  Cu  Cu16  1  0.644875  0.061203  0.055103  1
  Cu  Cu17  1  0.697271  0.363540  0.290593  1
  Cu  Cu18  1  0.086913  0.783804  0.002626  1
  Cu  Cu19  1  0.790423  0.232787  0.477020  1
  Cu  Cu20  1  0.263809  0.914623  0.264831  1
  Cu  Cu21  1  0.934384  0.065350  0.388342  1
  Cu  Cu22  1  0.958176  0.326004  0.699643  1
  Cu  Cu23  1  0.412610  0.689595  0.131389  1
  Cu  Cu24  1  0.579209  0.277993  0.497262  1
  Cu  Cu25  1  0.763918  0.713962  0.639337  1
  Cu  Cu26  1  0.144875  0.438797  0.944897  1
  Cu  Cu27  1  0.209577  0.767213  0.522980  1
  Cu  Cu28  1  0.159599  0.506697  0.447169  1
  Cu  Cu29  1  0.390101  0.163715  0.622444  1
  Cu  Cu30  1  0.750104  0.648146  0.229227  1
  Cu  Cu31  1  0.791421  0.930642  0.792628  1
  Cu  Cu32  1  0.422777  0.157729  0.100956  1
  Cu  Cu33  1  0.749896  0.148146  0.229227  1
  Cu  Cu34  1  0.263918  0.786038  0.360663  1
  Cu  Cu35  1  0.236191  0.414623  0.264831  1
  Cu  Cu36  1  0.565616  0.565350  0.388342  1
  Cu  Cu37  1  0.249422  0.575139  0.859196  1
  Cu  Cu38  1  0.375601  0.484559  0.420636  1
  Cu  Cu39  1  0.087390  0.189595  0.131389  1
  Cu  Cu40  1  0.875601  0.015441  0.579364  1
  Cu  Cu41  1  0.538218  0.355473  0.172405  1
  Cu  Cu42  1  0.763809  0.585377  0.735169  1
  Cu  Cu43  1  0.750578  0.424861  0.140804  1
  Cu  Cu44  1  0.438745  0.118382  0.781921  1
  Cu  Cu45  1  0.236082  0.286038  0.360663  1
  Cu  Cu46  1  0.452898  0.674586  0.313277  1
  Cu  Cu47  1  0.796647  0.744158  0.976750  1
  Cu  Cu48  1  0.922777  0.342271  0.899044  1
  Cu  Cu49  1  0.629539  0.560973  0.071066  1
  Cu  Cu50  1  0.413087  0.283804  0.002626  1
  Cu  Cu51  1  0.624399  0.515441  0.579364  1
  Cu  Cu52  1  0.561255  0.881618  0.218079  1
  Cu  Cu53  1  0.079209  0.222007  0.502738  1
  Cu  Cu54  1  0.736191  0.085377  0.735169  1
  Cu  Cu55  1  0.587390  0.310405  0.868611  1
  Cu  Cu56  1  0.041824  0.673996  0.300357  1
  Cu  Cu57  1  0.047102  0.174586  0.313277  1
  Cu  Cu58  1  0.109899  0.663715  0.622444  1
  Cu  Cu59  1  0.355125  0.938797  0.944897  1
  Cu  Cu60  1  0.898438  0.543108  0.861707  1
  Cu  Cu61  1  0.541824  0.826004  0.699643  1
  Cu  Cu62  1  0.913087  0.216196  0.997374  1
  Cu  Cu63  1  0.952898  0.825414  0.686724  1
  Cu  Cu64  1  0.061255  0.618382  0.781921  1
  Cu  Cu65  1  0.601562  0.043108  0.861707  1
  Cu  Cu66  1  0.600851  0.052983  0.390351  1
  Cu  Cu67  1  0.340401  0.006697  0.447169  1
  Cu  Cu68  1  0.709577  0.732787  0.477020  1
  Cu  Cu69  1  0.703353  0.244158  0.976750  1
  Cu  Cu70  1  0.920791  0.777993  0.497262  1
  Cu  Cu71  1  0.203353  0.255842  0.023250  1
  Cu  Cu72  1  0.208579  0.069358  0.207372  1
  Cu  Cu73  1  0.290423  0.267213  0.522980  1
  Cu  Cu74  1  0.609899  0.836285  0.377556  1
  Cu  Cu75  1  0.458176  0.173996  0.300357  1
  Cu  Cu76  1  0.101562  0.456892  0.138293  1
  Cu  Cu77  1  0.961782  0.855473  0.172405  1
  Cu  Cu78  1  0.197271  0.136460  0.709407  1
  Cu  Cu79  1  0.434384  0.434650  0.611658  1
  Cu  Cu80  1  0.100851  0.447017  0.609649  1
  Cu  Cu81  1  0.912610  0.810405  0.868611  1
  Cu  Cu82  1  0.065616  0.934650  0.611658  1
  Cu  Cu83  1  0.249896  0.351854  0.770773  1
  Cu  Cu84  1  0.302729  0.636460  0.709407  1
  Cu  Cu85  1  0.938745  0.381618  0.218079  1
  Cu  Cu86  1  0.840401  0.493303  0.552831  1
  Cu  Cu87  1  0.250578  0.075139  0.859196  1
  Cu  Cu88  1  0.708579  0.430642  0.792628  1
  Cu  Cu89  1  0.370461  0.439027  0.928934  1
  Cu  Cu90  1  0.124399  0.984559  0.420636  1
  Cu  Cu91  1  0.899149  0.552983  0.390351  1
  Cu  Cu92  1  0.129539  0.939027  0.928934  1
  Cu  Cu93  1  0.890101  0.336285  0.377556  1
  Cu  Cu94  1  0.077223  0.657729  0.100956  1
  Cu  Cu95  1  0.802729  0.863540  0.290593  1
  S  S96  1  0.573572  0.906371  0.065999  1
  S  S97  1  0.214025  0.131380  0.551342  1
  S  S98  1  0.566701  0.146143  0.555025  1
  S  S99  1  0.081001  0.290062  0.795590  1
  S  S100  1  0.714025  0.368620  0.448658  1
  S  S101  1  0.418999  0.790062  0.795590  1
  S  S102  1  0.770915  0.080474  0.949973  1
  S  S103  1  0.235515  0.724154  0.194028  1
  S  S104  1  0.573220  0.986842  0.692154  1
  S  S105  1  0.577050  0.711489  0.211402  1
  S  S106  1  0.073572  0.593629  0.934001  1
  S  S107  1  0.738773  0.536947  0.308968  1
  S  S108  1  0.426428  0.093629  0.934001  1
  S  S109  1  0.080603  0.991865  0.276840  1
  S  S110  1  0.926780  0.486842  0.692154  1
  S  S111  1  0.084208  0.114550  0.959440  1
  S  S112  1  0.077050  0.788511  0.788598  1
  S  S113  1  0.090163  0.830681  0.444809  1
  S  S114  1  0.409837  0.330681  0.444809  1
  S  S115  1  0.229085  0.919526  0.050027  1
  S  S116  1  0.918999  0.709938  0.204410  1
  S  S117  1  0.238773  0.963053  0.691032  1
  S  S118  1  0.729085  0.580474  0.949973  1
  S  S119  1  0.264485  0.224154  0.194028  1
  S  S120  1  0.915792  0.885450  0.040560  1
  S  S121  1  0.919397  0.008135  0.723160  1
  S  S122  1  0.580603  0.508135  0.723160  1
  S  S123  1  0.066701  0.353857  0.444975  1
  S  S124  1  0.073220  0.513158  0.307846  1
  S  S125  1  0.590163  0.669319  0.555191  1
  S  S126  1  0.433299  0.853857  0.444975  1
  S  S127  1  0.922950  0.211489  0.211402  1
  S  S128  1  0.926428  0.406371  0.065999  1
  S  S129  1  0.909837  0.169319  0.555191  1
  S  S130  1  0.270915  0.419526  0.050027  1
  S  S131  1  0.584208  0.385450  0.040560  1
  S  S132  1  0.422950  0.288511  0.788598  1
  S  S133  1  0.419397  0.491865  0.276840  1
  S  S134  1  0.426780  0.013158  0.307846  1
  S  S135  1  0.415792  0.614550  0.959440  1
  S  S136  1  0.785975  0.868620  0.448658  1
  S  S137  1  0.933299  0.646143  0.555025  1
  S  S138  1  0.764485  0.275846  0.805972  1
  S  S139  1  0.261227  0.463053  0.691032  1
  S  S140  1  0.735515  0.775846  0.805972  1
  S  S141  1  0.285975  0.631380  0.551342  1
  S  S142  1  0.761227  0.036947  0.308968  1
  S  S143  1  0.581001  0.209938  0.204410  1
