# generated using pymatgen
data_PNCl2
_symmetry_space_group_name_H-M   'P 1'
_cell_length_a   6.32929967
_cell_length_b   11.40364560
_cell_length_c   11.40364560
_cell_angle_alpha   90.00000000
_cell_angle_beta   90.00000000
_cell_angle_gamma   90.00000000
_symmetry_Int_Tables_number   1
_chemical_formula_structural   PNCl2
_chemical_formula_sum   'P8 N8 Cl16'
_cell_volume   823.08195860
_cell_formula_units_Z   8
loop_
 _symmetry_equiv_pos_site_id
 _symmetry_equiv_pos_as_xyz
  1  'x, y, z'
loop_
 _atom_site_type_symbol
 _atom_site_label
 _atom_site_symmetry_multiplicity
 _atom_site_fract_x
 _atom_site_fract_y
 _atom_site_fract_z
 _atom_site_occupancy
  P  P0  1  0.307109  0.581359  0.790850  1
  P  P1  1  0.807109  0.290850  0.418641  1
  P  P2  1  0.692891  0.418641  0.209150  1
  P  P3  1  0.807109  0.209150  0.081359  1
  P  P4  1  0.692891  0.081359  0.290850  1
  P  P5  1  0.307109  0.918641  0.709150  1
  P  P6  1  0.192891  0.790850  0.918641  1
  P  P7  1  0.192891  0.709150  0.581359  1
  N  N8  1  0.674825  0.380879  0.342426  1
  N  N9  1  0.325175  0.619121  0.657574  1
  N  N10  1  0.674825  0.119121  0.157574  1
  N  N11  1  0.825175  0.157574  0.380879  1
  N  N12  1  0.825175  0.342426  0.119121  1
  N  N13  1  0.325175  0.880879  0.842426  1
  N  N14  1  0.174825  0.657574  0.880879  1
  N  N15  1  0.174825  0.842426  0.619121  1
  Cl  Cl16  1  0.606689  0.944025  0.653728  1
  Cl  Cl17  1  0.182382  0.418809  0.800535  1
  Cl  Cl18  1  0.606689  0.555975  0.846272  1
  Cl  Cl19  1  0.817618  0.918809  0.300535  1
  Cl  Cl20  1  0.893311  0.846272  0.944025  1
  Cl  Cl21  1  0.317618  0.800535  0.081191  1
  Cl  Cl22  1  0.182382  0.081191  0.699465  1
  Cl  Cl23  1  0.106689  0.153728  0.055975  1
  Cl  Cl24  1  0.682382  0.300535  0.581191  1
  Cl  Cl25  1  0.393311  0.055975  0.346272  1
  Cl  Cl26  1  0.682382  0.199465  0.918809  1
  Cl  Cl27  1  0.817618  0.581191  0.199465  1
  Cl  Cl28  1  0.317618  0.699465  0.418809  1
  Cl  Cl29  1  0.106689  0.346272  0.444025  1
  Cl  Cl30  1  0.893311  0.653728  0.555975  1
  Cl  Cl31  1  0.393311  0.444025  0.153728  1
