# generated using pymatgen
data_K2MnH4(SeO5)2
_symmetry_space_group_name_H-M   'P 1'
_cell_length_a   6.11362778
_cell_length_b   7.93097831
_cell_length_c   8.66690199
_cell_angle_alpha   124.37504846
_cell_angle_beta   94.04045914
_cell_angle_gamma   101.46638923
_symmetry_Int_Tables_number   1
_chemical_formula_structural   K2MnH4(SeO5)2
_chemical_formula_sum   'K2 Mn1 H4 Se2 O10'
_cell_volume   331.13621250
_cell_formula_units_Z   1
loop_
 _symmetry_equiv_pos_site_id
 _symmetry_equiv_pos_as_xyz
  1  'x, y, z'
loop_
 _atom_site_type_symbol
 _atom_site_label
 _atom_site_symmetry_multiplicity
 _atom_site_fract_x
 _atom_site_fract_y
 _atom_site_fract_z
 _atom_site_occupancy
  K  K0  1  0.842885  0.386807  0.753002  1
  K  K1  1  0.157115  0.613193  0.246998  1
  Mn  Mn2  1  0.000000  0.000000  0.000000  1
  H  H3  1  0.599766  0.923158  0.658556  1
  H  H4  1  0.400234  0.076842  0.341444  1
  H  H5  1  0.603495  0.691905  0.481677  1
  H  H6  1  0.396505  0.308095  0.518323  1
  Se  Se7  1  0.599340  0.264807  0.176152  1
  Se  Se8  1  0.400660  0.735193  0.823848  1
  O  O9  1  0.497507  0.214803  0.452462  1
  O  O10  1  0.502493  0.785197  0.547538  1
  O  O11  1  0.744745  0.523942  0.334554  1
  O  O12  1  0.255255  0.476058  0.665446  1
  O  O13  1  0.317676  0.253209  0.130545  1
  O  O14  1  0.682324  0.746791  0.869455  1
  O  O15  1  0.900679  0.206013  0.953582  1
  O  O16  1  0.099321  0.793987  0.046418  1
  O  O17  1  0.657469  0.206121  0.937270  1
  O  O18  1  0.342531  0.793879  0.062730  1
