# generated using pymatgen
data_Sm2B5
_symmetry_space_group_name_H-M   'P 1'
_cell_length_a   7.24964863
_cell_length_b   7.21330347
_cell_length_c   7.22120749
_cell_angle_alpha   90.00000000
_cell_angle_beta   90.00000000
_cell_angle_gamma   102.06412190
_symmetry_Int_Tables_number   1
_chemical_formula_structural   Sm2B5
_chemical_formula_sum   'Sm8 B20'
_cell_volume   369.28510023
_cell_formula_units_Z   4
loop_
 _symmetry_equiv_pos_site_id
 _symmetry_equiv_pos_as_xyz
  1  'x, y, z'
loop_
 _atom_site_type_symbol
 _atom_site_label
 _atom_site_symmetry_multiplicity
 _atom_site_fract_x
 _atom_site_fract_y
 _atom_site_fract_z
 _atom_site_occupancy
  Sm  Sm0  1  0.242888  0.758789  0.815597  1
  Sm  Sm1  1  0.757112  0.241211  0.184403  1
  Sm  Sm2  1  0.742888  0.758789  0.684403  1
  Sm  Sm3  1  0.868764  0.766293  0.191432  1
  Sm  Sm4  1  0.368764  0.766293  0.308568  1
  Sm  Sm5  1  0.257112  0.241211  0.315597  1
  Sm  Sm6  1  0.631236  0.233707  0.691432  1
  Sm  Sm7  1  0.131236  0.233707  0.808568  1
  B  B8  1  0.039584  0.502539  0.327375  1
  B  B9  1  0.826838  0.497122  0.461628  1
  B  B10  1  0.460416  0.497461  0.827375  1
  B  B11  1  0.539584  0.502539  0.172625  1
  B  B12  1  0.410034  0.500909  0.589983  1
  B  B13  1  0.037678  0.683703  0.501728  1
  B  B14  1  0.931071  0.078446  0.492444  1
  B  B15  1  0.962322  0.316297  0.498272  1
  B  B16  1  0.173162  0.502878  0.538372  1
  B  B17  1  0.568929  0.921554  0.992444  1
  B  B18  1  0.068929  0.921554  0.507556  1
  B  B19  1  0.431071  0.078446  0.007556  1
  B  B20  1  0.910034  0.500909  0.910017  1
  B  B21  1  0.589966  0.499091  0.410017  1
  B  B22  1  0.673162  0.502878  0.961628  1
  B  B23  1  0.326838  0.497122  0.038372  1
  B  B24  1  0.462322  0.316297  0.001728  1
  B  B25  1  0.537678  0.683703  0.998272  1
  B  B26  1  0.089966  0.499091  0.089983  1
  B  B27  1  0.960416  0.497461  0.672625  1
