# generated using pymatgen
data_RbC2I3N2
_symmetry_space_group_name_H-M   'P 1'
_cell_length_a   4.61245142
_cell_length_b   7.36225231
_cell_length_c   16.09482567
_cell_angle_alpha   90.00000000
_cell_angle_beta   90.00000000
_cell_angle_gamma   90.00000000
_symmetry_Int_Tables_number   1
_chemical_formula_structural   RbC2I3N2
_chemical_formula_sum   'Rb2 C4 I6 N4'
_cell_volume   546.54859100
_cell_formula_units_Z   2
loop_
 _symmetry_equiv_pos_site_id
 _symmetry_equiv_pos_as_xyz
  1  'x, y, z'
loop_
 _atom_site_type_symbol
 _atom_site_label
 _atom_site_symmetry_multiplicity
 _atom_site_fract_x
 _atom_site_fract_y
 _atom_site_fract_z
 _atom_site_occupancy
  Rb  Rb0  1  0.151972  0.250000  0.750000  1
  Rb  Rb1  1  0.848028  0.750000  0.250000  1
  C  C2  1  0.283985  0.750000  0.050575  1
  C  C3  1  0.283985  0.750000  0.449425  1
  C  C4  1  0.716015  0.250000  0.949425  1
  C  C5  1  0.716015  0.250000  0.550575  1
  I  I6  1  0.876895  0.250000  0.430400  1
  I  I7  1  0.173664  0.250000  0.250000  1
  I  I8  1  0.123105  0.750000  0.569600  1
  I  I9  1  0.123105  0.750000  0.930400  1
  I  I10  1  0.876895  0.250000  0.069600  1
  I  I11  1  0.826336  0.750000  0.750000  1
  N  N12  1  0.368702  0.750000  0.119346  1
  N  N13  1  0.631298  0.250000  0.880654  1
  N  N14  1  0.368702  0.750000  0.380654  1
  N  N15  1  0.631298  0.250000  0.619346  1
