# generated using pymatgen
data_RbZnSClO4
_symmetry_space_group_name_H-M   'P 1'
_cell_length_a   7.36784396
_cell_length_b   8.50137272
_cell_length_c   9.81872415
_cell_angle_alpha   90.00000000
_cell_angle_beta   90.00000000
_cell_angle_gamma   95.68939793
_symmetry_Int_Tables_number   1
_chemical_formula_structural   RbZnSClO4
_chemical_formula_sum   'Rb4 Zn4 S4 Cl4 O16'
_cell_volume   611.98374140
_cell_formula_units_Z   4
loop_
 _symmetry_equiv_pos_site_id
 _symmetry_equiv_pos_as_xyz
  1  'x, y, z'
loop_
 _atom_site_type_symbol
 _atom_site_label
 _atom_site_symmetry_multiplicity
 _atom_site_fract_x
 _atom_site_fract_y
 _atom_site_fract_z
 _atom_site_occupancy
  Rb  Rb0  1  0.362819  0.698979  0.418728  1
  Rb  Rb1  1  0.637181  0.801021  0.918728  1
  Rb  Rb2  1  0.362819  0.198979  0.081272  1
  Rb  Rb3  1  0.637181  0.301021  0.581272  1
  Zn  Zn4  1  0.094458  0.044083  0.695906  1
  Zn  Zn5  1  0.094458  0.544083  0.804094  1
  Zn  Zn6  1  0.905542  0.455917  0.195906  1
  Zn  Zn7  1  0.905542  0.955917  0.304094  1
  S  S8  1  0.894684  0.234259  0.929328  1
  S  S9  1  0.105316  0.765741  0.070672  1
  S  S10  1  0.105316  0.265741  0.429328  1
  S  S11  1  0.894684  0.734259  0.570672  1
  Cl  Cl12  1  0.626817  0.529112  0.183204  1
  Cl  Cl13  1  0.373183  0.470888  0.816796  1
  Cl  Cl14  1  0.373183  0.970888  0.683204  1
  Cl  Cl15  1  0.626817  0.029112  0.316796  1
  O  O16  1  0.033487  0.631479  0.623932  1
  O  O17  1  0.887966  0.376866  0.838535  1
  O  O18  1  0.887966  0.876866  0.661465  1
  O  O19  1  0.967314  0.786450  0.432966  1
  O  O20  1  0.287144  0.350383  0.436481  1
  O  O21  1  0.712856  0.649617  0.563519  1
  O  O22  1  0.112034  0.623134  0.161465  1
  O  O23  1  0.112034  0.123134  0.338535  1
  O  O24  1  0.966513  0.368522  0.376068  1
  O  O25  1  0.966513  0.868521  0.123932  1
  O  O26  1  0.033487  0.131478  0.876068  1
  O  O27  1  0.032686  0.213550  0.567034  1
  O  O28  1  0.032686  0.713550  0.932966  1
  O  O29  1  0.287144  0.850383  0.063519  1
  O  O30  1  0.712856  0.149617  0.936481  1
  O  O31  1  0.967314  0.286450  0.067034  1
