# generated using pymatgen
data_Cu2Pb(SeO3)3
_symmetry_space_group_name_H-M   'P 1'
_cell_length_a   7.91247865
_cell_length_b   9.46063580
_cell_length_c   12.72787616
_cell_angle_alpha   82.74248760
_cell_angle_beta   73.21442682
_cell_angle_gamma   89.85582369
_symmetry_Int_Tables_number   1
_chemical_formula_structural   Cu2Pb(SeO3)3
_chemical_formula_sum   'Cu8 Pb4 Se12 O36'
_cell_volume   904.28927931
_cell_formula_units_Z   4
loop_
 _symmetry_equiv_pos_site_id
 _symmetry_equiv_pos_as_xyz
  1  'x, y, z'
loop_
 _atom_site_type_symbol
 _atom_site_label
 _atom_site_symmetry_multiplicity
 _atom_site_fract_x
 _atom_site_fract_y
 _atom_site_fract_z
 _atom_site_occupancy
  Cu  Cu0  1  0.557501  0.559318  0.297158  1
  Cu  Cu1  1  0.620494  0.169049  0.303154  1
  Cu  Cu2  1  0.774265  0.169571  0.038996  1
  Cu  Cu3  1  0.379506  0.830951  0.696846  1
  Cu  Cu4  1  0.442499  0.440682  0.702842  1
  Cu  Cu5  1  0.225735  0.830429  0.961004  1
  Cu  Cu6  1  0.165367  0.241552  0.013707  1
  Cu  Cu7  1  0.834633  0.758448  0.986293  1
  Pb  Pb8  1  0.051837  0.140632  0.341970  1
  Pb  Pb9  1  0.125320  0.662026  0.348782  1
  Pb  Pb10  1  0.874680  0.337974  0.651218  1
  Pb  Pb11  1  0.948163  0.859368  0.658030  1
  Se  Se12  1  0.677436  0.626067  0.506187  1
  Se  Se13  1  0.914788  0.444567  0.175262  1
  Se  Se14  1  0.125033  0.105539  0.805169  1
  Se  Se15  1  0.085212  0.555433  0.824738  1
  Se  Se16  1  0.434338  0.875308  0.127715  1
  Se  Se17  1  0.874967  0.894461  0.194831  1
  Se  Se18  1  0.551667  0.629368  0.871391  1
  Se  Se19  1  0.637421  0.091353  0.553859  1
  Se  Se20  1  0.362579  0.908647  0.446141  1
  Se  Se21  1  0.448333  0.370632  0.128609  1
  Se  Se22  1  0.322564  0.373933  0.493813  1
  Se  Se23  1  0.565662  0.124692  0.872285  1
  O  O24  1  0.987084  0.830600  0.069033  1
  O  O25  1  0.850661  0.139895  0.549726  1
  O  O26  1  0.257666  0.381226  0.636056  1
  O  O27  1  0.246094  0.286269  0.139845  1
  O  O28  1  0.632911  0.442669  0.560429  1
  O  O29  1  0.431072  0.779134  0.838356  1
  O  O30  1  0.042716  0.642177  0.940248  1
  O  O31  1  0.367089  0.557331  0.439571  1
  O  O32  1  0.732326  0.536618  0.157425  1
  O  O33  1  0.343262  0.108962  0.950841  1
  O  O34  1  0.957284  0.357823  0.059752  1
  O  O35  1  0.149339  0.860105  0.450274  1
  O  O36  1  0.131586  0.922867  0.840554  1
  O  O37  1  0.302971  0.953050  0.582957  1
  O  O38  1  0.343394  0.749180  0.068730  1
  O  O39  1  0.119429  0.346841  0.474688  1
  O  O40  1  0.563233  0.226798  0.750283  1
  O  O41  1  0.622663  0.923812  0.631289  1
  O  O42  1  0.568928  0.220866  0.161644  1
  O  O43  1  0.697029  0.046950  0.417043  1
  O  O44  1  0.656606  0.250820  0.931270  1
  O  O45  1  0.436767  0.773202  0.249717  1
  O  O46  1  0.040731  0.899102  0.257287  1
  O  O47  1  0.012916  0.169400  0.930967  1
  O  O48  1  0.753906  0.713731  0.860155  1
  O  O49  1  0.267674  0.463382  0.842575  1
  O  O50  1  0.180418  0.690043  0.713799  1
  O  O51  1  0.742334  0.618774  0.363944  1
  O  O52  1  0.377337  0.076188  0.368711  1
  O  O53  1  0.385918  0.435302  0.253988  1
  O  O54  1  0.656738  0.891038  0.049159  1
  O  O55  1  0.819582  0.309957  0.286201  1
  O  O56  1  0.880571  0.653159  0.525312  1
  O  O57  1  0.959269  0.100898  0.742713  1
  O  O58  1  0.868414  0.077133  0.159446  1
  O  O59  1  0.614082  0.564698  0.746012  1
