# generated using pymatgen
data_Hg2PO3F
_symmetry_space_group_name_H-M   'P 1'
_cell_length_a   8.85208484
_cell_length_b   9.02679190
_cell_length_c   9.02679170
_cell_angle_alpha   64.37141203
_cell_angle_beta   60.63819136
_cell_angle_gamma   60.63819242
_symmetry_Int_Tables_number   1
_chemical_formula_structural   Hg2PO3F
_chemical_formula_sum   'Hg8 P4 O12 F4'
_cell_volume   530.06889316
_cell_formula_units_Z   4
loop_
 _symmetry_equiv_pos_site_id
 _symmetry_equiv_pos_as_xyz
  1  'x, y, z'
loop_
 _atom_site_type_symbol
 _atom_site_label
 _atom_site_symmetry_multiplicity
 _atom_site_fract_x
 _atom_site_fract_y
 _atom_site_fract_z
 _atom_site_occupancy
  Hg  Hg0  1  0.119320  0.898379  0.306471  1
  Hg  Hg1  1  0.324169  0.101621  0.693529  1
  Hg  Hg2  1  0.675831  0.898379  0.306471  1
  Hg  Hg3  1  0.619320  0.306471  0.898379  1
  Hg  Hg4  1  0.175831  0.306471  0.898379  1
  Hg  Hg5  1  0.824169  0.693529  0.101621  1
  Hg  Hg6  1  0.380680  0.693529  0.101621  1
  Hg  Hg7  1  0.880680  0.101621  0.693529  1
  P  P8  1  0.758413  0.790271  0.692904  1
  P  P9  1  0.741587  0.307096  0.209729  1
  P  P10  1  0.241587  0.209729  0.307096  1
  P  P11  1  0.258413  0.692904  0.790271  1
  O  O12  1  0.907907  0.874000  0.601340  1
  O  O13  1  0.331220  0.227534  0.110027  1
  O  O14  1  0.616752  0.874000  0.601340  1
  O  O15  1  0.383248  0.126000  0.398660  1
  O  O16  1  0.168780  0.889973  0.772466  1
  O  O17  1  0.831220  0.110027  0.227534  1
  O  O18  1  0.092093  0.126000  0.398660  1
  O  O19  1  0.592093  0.398660  0.126000  1
  O  O20  1  0.407907  0.601340  0.874000  1
  O  O21  1  0.116752  0.601340  0.874000  1
  O  O22  1  0.883248  0.398660  0.126000  1
  O  O23  1  0.668780  0.772466  0.889973  1
  F  F24  1  0.370060  0.663192  0.596688  1
  F  F25  1  0.129940  0.403312  0.336808  1
  F  F26  1  0.629940  0.336808  0.403312  1
  F  F27  1  0.870060  0.596688  0.663192  1
