# generated using pymatgen
data_GeS2
_symmetry_space_group_name_H-M   'P 1'
_cell_length_a   6.95126296
_cell_length_b   6.95091573
_cell_length_c   11.99565955
_cell_angle_alpha   99.92480856
_cell_angle_beta   99.92434075
_cell_angle_gamma   113.89652624
_symmetry_Int_Tables_number   1
_chemical_formula_structural   GeS2
_chemical_formula_sum   'Ge6 S12'
_cell_volume   502.76216087
_cell_formula_units_Z   6
loop_
 _symmetry_equiv_pos_site_id
 _symmetry_equiv_pos_as_xyz
  1  'x, y, z'
loop_
 _atom_site_type_symbol
 _atom_site_label
 _atom_site_symmetry_multiplicity
 _atom_site_fract_x
 _atom_site_fract_y
 _atom_site_fract_z
 _atom_site_occupancy
  Ge  Ge0  1  0.993706  0.993727  0.999976  1
  Ge  Ge1  1  0.243572  0.743576  0.500022  1
  Ge  Ge2  1  0.979940  0.731824  0.722799  1
  Ge  Ge3  1  0.009112  0.257180  0.277196  1
  Ge  Ge4  1  0.981898  0.729988  0.222783  1
  Ge  Ge5  1  0.507131  0.759039  0.777226  1
  S  S6  1  0.141484  0.065901  0.850085  1
  S  S7  1  0.215814  0.291421  0.149869  1
  S  S8  1  0.315868  0.891412  0.350144  1
  S  S9  1  0.541208  0.965737  0.649908  1
  S  S10  1  1.018505  0.697789  0.039445  1
  S  S11  1  0.658307  0.979073  0.960535  1
  S  S12  1  0.947571  0.768278  0.539436  1
  S  S13  1  0.228880  0.408158  0.460575  1
  S  S14  1  0.645537  0.520547  0.738658  1
  S  S15  1  0.781961  0.906913  0.261346  1
  S  S16  1  0.770650  0.395538  0.238638  1
  S  S17  1  0.156857  0.531900  0.761359  1
