# generated using pymatgen
data_SiO2
_symmetry_space_group_name_H-M   'P 1'
_cell_length_a   4.25179855
_cell_length_b   4.30370529
_cell_length_c   7.12274004
_cell_angle_alpha   90.93231610
_cell_angle_beta   90.00000000
_cell_angle_gamma   90.00000000
_symmetry_Int_Tables_number   1
_chemical_formula_structural   SiO2
_chemical_formula_sum   'Si4 O8'
_cell_volume   130.31811799
_cell_formula_units_Z   4
loop_
 _symmetry_equiv_pos_site_id
 _symmetry_equiv_pos_as_xyz
  1  'x, y, z'
loop_
 _atom_site_type_symbol
 _atom_site_label
 _atom_site_symmetry_multiplicity
 _atom_site_fract_x
 _atom_site_fract_y
 _atom_site_fract_z
 _atom_site_occupancy
  Si  Si0  1  0.862206  0.577561  0.879293  1
  Si  Si1  1  0.452557  0.987350  0.004329  1
  Si  Si2  1  0.547443  0.487350  0.504329  1
  Si  Si3  1  0.137794  0.077561  0.379293  1
  O  O4  1  0.752260  0.671733  0.663541  1
  O  O5  1  0.284452  0.238176  0.573303  1
  O  O6  1  0.715548  0.738176  0.073303  1
  O  O7  1  0.308066  0.729375  0.391436  1
  O  O8  1  0.215407  0.743626  0.883289  1
  O  O9  1  0.784593  0.243626  0.383289  1
  O  O10  1  0.247740  0.171733  0.163541  1
  O  O11  1  0.691934  0.229375  0.891436  1
