# generated using pymatgen
data_Np(CrGe)2
_symmetry_space_group_name_H-M   'P 1'
_cell_length_a   3.88610611
_cell_length_b   3.88610587
_cell_length_c   6.19024826
_cell_angle_alpha   108.29377735
_cell_angle_beta   108.29377531
_cell_angle_gamma   89.99999641
_symmetry_Int_Tables_number   1
_chemical_formula_structural   Np(CrGe)2
_chemical_formula_sum   'Np1 Cr2 Ge2'
_cell_volume   83.76850969
_cell_formula_units_Z   1
loop_
 _symmetry_equiv_pos_site_id
 _symmetry_equiv_pos_as_xyz
  1  'x, y, z'
loop_
 _atom_site_type_symbol
 _atom_site_label
 _atom_site_symmetry_multiplicity
 _atom_site_fract_x
 _atom_site_fract_y
 _atom_site_fract_z
 _atom_site_occupancy
  Np  Np0  1  0.000000  0.000000  0.000000  1
  Cr  Cr1  1  0.750000  0.250000  0.500000  1
  Cr  Cr2  1  0.250000  0.750000  0.500000  1
  Ge  Ge3  1  0.384513  0.384513  0.769025  1
  Ge  Ge4  1  0.615487  0.615487  0.230975  1
