# generated using pymatgen
data_CdHg4(AsI2)2
_symmetry_space_group_name_H-M   'P 1'
_cell_length_a   8.22331293
_cell_length_b   8.31548376
_cell_length_c   13.42812586
_cell_angle_alpha   90.00000000
_cell_angle_beta   90.00000000
_cell_angle_gamma   117.14158058
_symmetry_Int_Tables_number   1
_chemical_formula_structural   CdHg4(AsI2)2
_chemical_formula_sum   'Cd2 Hg8 As4 I8'
_cell_volume   817.11305461
_cell_formula_units_Z   2
loop_
 _symmetry_equiv_pos_site_id
 _symmetry_equiv_pos_as_xyz
  1  'x, y, z'
loop_
 _atom_site_type_symbol
 _atom_site_label
 _atom_site_symmetry_multiplicity
 _atom_site_fract_x
 _atom_site_fract_y
 _atom_site_fract_z
 _atom_site_occupancy
  Cd  Cd0  1  0.999369  0.002034  0.835822  1
  Cd  Cd1  1  0.000631  0.997966  0.335822  1
  Hg  Hg2  1  0.326173  0.667817  0.790701  1
  Hg  Hg3  1  0.972602  0.574116  0.549773  1
  Hg  Hg4  1  0.027398  0.425884  0.049773  1
  Hg  Hg5  1  0.486699  0.053994  0.555076  1
  Hg  Hg6  1  0.673827  0.332183  0.290701  1
  Hg  Hg7  1  0.525277  0.447729  0.021547  1
  Hg  Hg8  1  0.474723  0.552271  0.521547  1
  Hg  Hg9  1  0.513301  0.946006  0.055076  1
  As  As10  1  0.651337  0.373308  0.479408  1
  As  As11  1  0.310205  0.717737  0.602629  1
  As  As12  1  0.348663  0.626692  0.979408  1
  As  As13  1  0.689795  0.282263  0.102629  1
  I  I14  1  0.676040  0.743943  0.242601  1
  I  I15  1  0.291592  0.911595  0.312725  1
  I  I16  1  0.114040  0.064574  0.040286  1
  I  I17  1  0.323960  0.256057  0.742601  1
  I  I18  1  0.885960  0.935426  0.540286  1
  I  I19  1  0.708408  0.088405  0.812725  1
  I  I20  1  0.880413  0.630127  0.808162  1
  I  I21  1  0.119587  0.369873  0.308162  1
