# generated using pymatgen
data_K2UAs2O9
_symmetry_space_group_name_H-M   'P 1'
_cell_length_a   5.79354124
_cell_length_b   13.51120658
_cell_length_c   12.77036441
_cell_angle_alpha   90.00000000
_cell_angle_beta   90.00000000
_cell_angle_gamma   90.00000000
_symmetry_Int_Tables_number   1
_chemical_formula_structural   K2UAs2O9
_chemical_formula_sum   'K8 U4 As8 O36'
_cell_volume   999.63516951
_cell_formula_units_Z   4
loop_
 _symmetry_equiv_pos_site_id
 _symmetry_equiv_pos_as_xyz
  1  'x, y, z'
loop_
 _atom_site_type_symbol
 _atom_site_label
 _atom_site_symmetry_multiplicity
 _atom_site_fract_x
 _atom_site_fract_y
 _atom_site_fract_z
 _atom_site_occupancy
  K  K0  1  0.504471  0.420707  0.750000  1
  K  K1  1  0.495529  0.579293  0.250000  1
  K  K2  1  0.495529  0.920707  0.250000  1
  K  K3  1  0.504471  0.079293  0.750000  1
  K  K4  1  0.483515  0.750000  0.578652  1
  K  K5  1  0.483515  0.750000  0.921348  1
  K  K6  1  0.516485  0.250000  0.078652  1
  K  K7  1  0.516485  0.250000  0.421348  1
  U  U8  1  0.000000  0.000000  0.500000  1
  U  U9  1  0.000000  0.000000  0.000000  1
  U  U10  1  0.000000  0.500000  0.500000  1
  U  U11  1  0.000000  0.500000  0.000000  1
  As  As12  1  0.021557  0.369672  0.250000  1
  As  As13  1  0.004731  0.750000  0.378606  1
  As  As14  1  0.021557  0.130328  0.250000  1
  As  As15  1  0.995269  0.250000  0.621394  1
  As  As16  1  0.995269  0.250000  0.878606  1
  As  As17  1  0.978443  0.869672  0.750000  1
  As  As18  1  0.978443  0.630328  0.750000  1
  As  As19  1  0.004731  0.750000  0.121394  1
  O  O20  1  0.271320  0.481599  0.930418  1
  O  O21  1  0.846042  0.578883  0.858156  1
  O  O22  1  0.717018  0.750000  0.374266  1
  O  O23  1  0.136823  0.648899  0.435955  1
  O  O24  1  0.139501  0.750000  0.250000  1
  O  O25  1  0.282982  0.250000  0.874266  1
  O  O26  1  0.728680  0.518401  0.069582  1
  O  O27  1  0.863177  0.351101  0.564045  1
  O  O28  1  0.863177  0.148899  0.935955  1
  O  O29  1  0.271320  0.018401  0.569582  1
  O  O30  1  0.734809  0.361739  0.250000  1
  O  O31  1  0.846042  0.921117  0.641844  1
  O  O32  1  0.837768  0.750000  0.750000  1
  O  O33  1  0.162232  0.250000  0.250000  1
  O  O34  1  0.860499  0.250000  0.750000  1
  O  O35  1  0.728680  0.981599  0.430418  1
  O  O36  1  0.136823  0.851101  0.435955  1
  O  O37  1  0.136823  0.851101  0.064045  1
  O  O38  1  0.728680  0.981599  0.069582  1
  O  O39  1  0.153958  0.078883  0.141844  1
  O  O40  1  0.846042  0.578883  0.641844  1
  O  O41  1  0.863177  0.148899  0.564045  1
  O  O42  1  0.846042  0.921117  0.858156  1
  O  O43  1  0.153958  0.078883  0.358156  1
  O  O44  1  0.271320  0.018401  0.930418  1
  O  O45  1  0.734809  0.138261  0.250000  1
  O  O46  1  0.153958  0.421117  0.141844  1
  O  O47  1  0.265191  0.638261  0.750000  1
  O  O48  1  0.717018  0.750000  0.125734  1
  O  O49  1  0.136823  0.648899  0.064045  1
  O  O50  1  0.863177  0.351101  0.935955  1
  O  O51  1  0.265191  0.861739  0.750000  1
  O  O52  1  0.153958  0.421117  0.358156  1
  O  O53  1  0.282982  0.250000  0.625734  1
  O  O54  1  0.728680  0.518401  0.430418  1
  O  O55  1  0.271320  0.481599  0.569582  1
