# generated using pymatgen
data_RbNa5Be8O11
_symmetry_space_group_name_H-M   'P 1'
_cell_length_a   6.48690087
_cell_length_b   9.50995531
_cell_length_c   10.76093759
_cell_angle_alpha   64.45628978
_cell_angle_beta   89.11189906
_cell_angle_gamma   70.23980780
_symmetry_Int_Tables_number   1
_chemical_formula_structural   RbNa5Be8O11
_chemical_formula_sum   'Rb2 Na10 Be16 O22'
_cell_volume   557.01392150
_cell_formula_units_Z   2
loop_
 _symmetry_equiv_pos_site_id
 _symmetry_equiv_pos_as_xyz
  1  'x, y, z'
loop_
 _atom_site_type_symbol
 _atom_site_label
 _atom_site_symmetry_multiplicity
 _atom_site_fract_x
 _atom_site_fract_y
 _atom_site_fract_z
 _atom_site_occupancy
  Rb  Rb0  1  0.749895  0.236130  0.060683  1
  Rb  Rb1  1  0.250105  0.763870  0.939317  1
  Na  Na2  1  0.872837  0.139446  0.372944  1
  Na  Na3  1  0.753512  0.446791  0.483499  1
  Na  Na4  1  0.092988  0.362836  0.142774  1
  Na  Na5  1  0.263874  0.260070  0.460631  1
  Na  Na6  1  0.251437  0.054487  0.024253  1
  Na  Na7  1  0.246488  0.553209  0.516501  1
  Na  Na8  1  0.736126  0.739930  0.539369  1
  Na  Na9  1  0.907012  0.637164  0.857226  1
  Na  Na10  1  0.127163  0.860554  0.627056  1
  Na  Na11  1  0.748563  0.945513  0.975747  1
  Be  Be12  1  0.908832  0.843028  0.298555  1
  Be  Be13  1  0.549710  0.912997  0.724789  1
  Be  Be14  1  0.450290  0.087003  0.275211  1
  Be  Be15  1  0.725900  0.612910  0.149204  1
  Be  Be16  1  0.780384  0.110423  0.646374  1
  Be  Be17  1  0.383387  0.215402  0.728147  1
  Be  Be18  1  0.616613  0.784598  0.271853  1
  Be  Be19  1  0.495802  0.408230  0.250896  1
  Be  Be20  1  0.219616  0.889577  0.353626  1
  Be  Be21  1  0.504198  0.591770  0.749104  1
  Be  Be22  1  0.335318  0.718075  0.239452  1
  Be  Be23  1  0.091168  0.156972  0.701445  1
  Be  Be24  1  0.664682  0.281925  0.760548  1
  Be  Be25  1  0.958544  0.343292  0.785775  1
  Be  Be26  1  0.041456  0.656708  0.214225  1
  Be  Be27  1  0.274100  0.387090  0.850796  1
  O  O28  1  0.481239  0.231136  0.861883  1
  O  O29  1  0.073726  0.847137  0.178009  1
  O  O30  1  0.472229  0.241678  0.279035  1
  O  O31  1  0.020115  0.850610  0.426741  1
  O  O32  1  0.357913  0.040617  0.754401  1
  O  O33  1  0.122642  0.342470  0.666764  1
  O  O34  1  0.642087  0.959383  0.245599  1
  O  O35  1  0.877358  0.657530  0.333236  1
  O  O36  1  0.527771  0.758322  0.720965  1
  O  O37  1  0.220320  0.070178  0.287192  1
  O  O38  1  0.932597  0.645230  0.085849  1
  O  O39  1  0.779680  0.929822  0.712808  1
  O  O40  1  0.518761  0.768864  0.138117  1
  O  O41  1  0.563841  0.265781  0.625894  1
  O  O42  1  0.712564  0.436598  0.207072  1
  O  O43  1  0.287436  0.563402  0.792928  1
  O  O44  1  0.305398  0.540979  0.275558  1
  O  O45  1  0.926274  0.152863  0.821991  1
  O  O46  1  0.694602  0.459021  0.724442  1
  O  O47  1  0.067403  0.354770  0.914151  1
  O  O48  1  0.436159  0.734219  0.374106  1
  O  O49  1  0.979885  0.149390  0.573259  1
