# generated using pymatgen
data_Na4Ga3Si3B(HO3)4
_symmetry_space_group_name_H-M   'P 1'
_cell_length_a   9.04077794
_cell_length_b   9.04077794
_cell_length_c   9.04077794
_cell_angle_alpha   90.00000000
_cell_angle_beta   90.00000000
_cell_angle_gamma   90.00000000
_symmetry_Int_Tables_number   1
_chemical_formula_structural   Na4Ga3Si3B(HO3)4
_chemical_formula_sum   'Na8 Ga6 Si6 B2 H8 O24'
_cell_volume   738.95400392
_cell_formula_units_Z   2
loop_
 _symmetry_equiv_pos_site_id
 _symmetry_equiv_pos_as_xyz
  1  'x, y, z'
loop_
 _atom_site_type_symbol
 _atom_site_label
 _atom_site_symmetry_multiplicity
 _atom_site_fract_x
 _atom_site_fract_y
 _atom_site_fract_z
 _atom_site_occupancy
  B  B0  1  0.000000  0.000000  0.000000  1
  B  B1  1  0.500000  0.500000  0.500000  1
  Ga  Ga2  1  0.750000  0.000000  0.500000  1
  Ga  Ga3  1  0.000000  0.500000  0.750000  1
  Ga  Ga4  1  0.250000  0.000000  0.500000  1
  Ga  Ga5  1  0.500000  0.250000  0.000000  1
  Ga  Ga6  1  0.500000  0.750000  0.000000  1
  Ga  Ga7  1  0.000000  0.500000  0.250000  1
  H  H8  1  0.578513  0.578513  0.421487  1
  H  H9  1  0.578513  0.421487  0.578513  1
  H  H10  1  0.078513  0.078513  0.921487  1
  H  H11  1  0.078513  0.921487  0.078513  1
  H  H12  1  0.421487  0.578513  0.578513  1
  H  H13  1  0.421487  0.421487  0.421487  1
  H  H14  1  0.921487  0.921487  0.921487  1
  H  H15  1  0.921487  0.078513  0.078513  1
  Na  Na16  1  0.827881  0.827881  0.172119  1
  Na  Na17  1  0.827881  0.172119  0.827881  1
  Na  Na18  1  0.172119  0.827881  0.827881  1
  Na  Na19  1  0.172119  0.172119  0.172119  1
  Na  Na20  1  0.327881  0.327881  0.672119  1
  Na  Na21  1  0.327881  0.672119  0.327881  1
  Na  Na22  1  0.672119  0.327881  0.327881  1
  Na  Na23  1  0.672119  0.672119  0.672119  1
  O  O24  1  0.573603  0.866018  0.151203  1
  O  O25  1  0.573603  0.133982  0.848797  1
  O  O26  1  0.848797  0.573603  0.133982  1
  O  O27  1  0.848797  0.426397  0.866018  1
  O  O28  1  0.866018  0.151203  0.573603  1
  O  O29  1  0.866018  0.848797  0.426397  1
  O  O30  1  0.073603  0.348797  0.633982  1
  O  O31  1  0.073603  0.651203  0.366018  1
  O  O32  1  0.133982  0.848797  0.573603  1
  O  O33  1  0.133982  0.151203  0.426397  1
  O  O34  1  0.151203  0.573603  0.866018  1
  O  O35  1  0.151203  0.426397  0.133982  1
  O  O36  1  0.348797  0.366018  0.926397  1
  O  O37  1  0.348797  0.633982  0.073603  1
  O  O38  1  0.366018  0.073603  0.651203  1
  O  O39  1  0.366018  0.926397  0.348797  1
  O  O40  1  0.426397  0.866018  0.848797  1
  O  O41  1  0.426397  0.133982  0.151203  1
  O  O42  1  0.633982  0.073603  0.348797  1
  O  O43  1  0.633982  0.926397  0.651203  1
  O  O44  1  0.651203  0.366018  0.073603  1
  O  O45  1  0.651203  0.633982  0.926397  1
  O  O46  1  0.926397  0.348797  0.366018  1
  O  O47  1  0.926397  0.651203  0.633982  1
  Si  Si48  1  0.750000  0.500000  0.000000  1
  Si  Si49  1  0.000000  0.750000  0.500000  1
  Si  Si50  1  0.250000  0.500000  0.000000  1
  Si  Si51  1  0.500000  0.000000  0.250000  1
  Si  Si52  1  0.500000  0.000000  0.750000  1
  Si  Si53  1  0.000000  0.250000  0.500000  1
