# generated using pymatgen
data_Cs2Te2O5
_symmetry_space_group_name_H-M   'P 1'
_cell_length_a   11.17834931
_cell_length_b   12.26721299
_cell_length_c   12.30793726
_cell_angle_alpha   90.00000000
_cell_angle_beta   90.00000000
_cell_angle_gamma   90.00000000
_symmetry_Int_Tables_number   1
_chemical_formula_structural   Cs2Te2O5
_chemical_formula_sum   'Cs16 Te16 O40'
_cell_volume   1687.75287408
_cell_formula_units_Z   8
loop_
 _symmetry_equiv_pos_site_id
 _symmetry_equiv_pos_as_xyz
  1  'x, y, z'
loop_
 _atom_site_type_symbol
 _atom_site_label
 _atom_site_symmetry_multiplicity
 _atom_site_fract_x
 _atom_site_fract_y
 _atom_site_fract_z
 _atom_site_occupancy
  Cs  Cs0  1  0.749117  0.752079  0.752744  1
  Cs  Cs1  1  0.249117  0.247921  0.747256  1
  Cs  Cs2  1  0.750883  0.252079  0.247256  1
  Cs  Cs3  1  0.250883  0.747921  0.252744  1
  Cs  Cs4  1  0.250883  0.247921  0.247256  1
  Cs  Cs5  1  0.750883  0.752079  0.252744  1
  Cs  Cs6  1  0.249117  0.747921  0.752744  1
  Cs  Cs7  1  0.749117  0.252079  0.747256  1
  Cs  Cs8  1  0.787760  0.503990  0.502683  1
  Cs  Cs9  1  0.287760  0.496010  0.997317  1
  Cs  Cs10  1  0.712240  0.003990  0.497317  1
  Cs  Cs11  1  0.212240  0.996010  0.002683  1
  Cs  Cs12  1  0.212240  0.496010  0.497317  1
  Cs  Cs13  1  0.712240  0.503990  0.002683  1
  Cs  Cs14  1  0.287760  0.996010  0.502683  1
  Cs  Cs15  1  0.787760  0.003990  0.997317  1
  Te  Te16  1  0.996041  0.988924  0.738758  1
  Te  Te17  1  0.496041  0.011076  0.761242  1
  Te  Te18  1  0.503959  0.488924  0.261242  1
  Te  Te19  1  0.003959  0.511076  0.238758  1
  Te  Te20  1  0.003959  0.011076  0.261242  1
  Te  Te21  1  0.503959  0.988924  0.238758  1
  Te  Te22  1  0.496041  0.511076  0.738758  1
  Te  Te23  1  0.996041  0.488924  0.761242  1
  Te  Te24  1  0.994381  0.762250  0.513998  1
  Te  Te25  1  0.494381  0.237750  0.986002  1
  Te  Te26  1  0.505619  0.262250  0.486002  1
  Te  Te27  1  0.005619  0.737750  0.013998  1
  Te  Te28  1  0.005619  0.237750  0.486002  1
  Te  Te29  1  0.505619  0.762250  0.013998  1
  Te  Te30  1  0.494381  0.737750  0.513998  1
  Te  Te31  1  0.994381  0.262250  0.986002  1
  O  O32  1  0.828880  0.772580  0.503283  1
  O  O33  1  0.328880  0.227420  0.996717  1
  O  O34  1  0.671120  0.272580  0.496717  1
  O  O35  1  0.171120  0.727420  0.003283  1
  O  O36  1  0.171120  0.227420  0.496717  1
  O  O37  1  0.671120  0.772580  0.003283  1
  O  O38  1  0.328880  0.727420  0.503283  1
  O  O39  1  0.828880  0.272580  0.996717  1
  O  O40  1  0.007950  0.884509  0.849094  1
  O  O41  1  0.507950  0.115491  0.650906  1
  O  O42  1  0.492050  0.384509  0.150906  1
  O  O43  1  0.992050  0.615491  0.349094  1
  O  O44  1  0.992050  0.115491  0.150906  1
  O  O45  1  0.492050  0.884509  0.349094  1
  O  O46  1  0.507950  0.615491  0.849094  1
  O  O47  1  0.007950  0.384509  0.650906  1
  O  O48  1  0.831187  0.005198  0.726760  1
  O  O49  1  0.331187  0.994802  0.773240  1
  O  O50  1  0.668813  0.505198  0.273240  1
  O  O51  1  0.168813  0.494802  0.226760  1
  O  O52  1  0.168813  0.994802  0.273240  1
  O  O53  1  0.668813  0.005198  0.226760  1
  O  O54  1  0.331187  0.494802  0.726760  1
  O  O55  1  0.831187  0.505198  0.773240  1
  O  O56  1  0.014086  0.651123  0.617005  1
  O  O57  1  0.514086  0.348877  0.882995  1
  O  O58  1  0.485914  0.151123  0.382995  1
  O  O59  1  0.985914  0.848877  0.117005  1
  O  O60  1  0.985914  0.348877  0.382995  1
  O  O61  1  0.485914  0.651123  0.117005  1
  O  O62  1  0.514086  0.848877  0.617005  1
  O  O63  1  0.014086  0.151123  0.882995  1
  O  O64  1  0.032289  0.891835  0.609203  1
  O  O65  1  0.532289  0.108165  0.890797  1
  O  O66  1  0.467711  0.391835  0.390797  1
  O  O67  1  0.967711  0.608165  0.109203  1
  O  O68  1  0.967711  0.108165  0.390797  1
  O  O69  1  0.467711  0.891835  0.109203  1
  O  O70  1  0.532289  0.608165  0.609203  1
  O  O71  1  0.032289  0.391835  0.890797  1
