# generated using pymatgen
data_GaSe3N2Cl5
_symmetry_space_group_name_H-M   'P 1'
_cell_length_a   9.80894097
_cell_length_b   11.17585562
_cell_length_c   11.83961793
_cell_angle_alpha   90.00000000
_cell_angle_beta   90.95225621
_cell_angle_gamma   90.00000000
_symmetry_Int_Tables_number   1
_chemical_formula_structural   GaSe3N2Cl5
_chemical_formula_sum   'Ga4 Se12 N8 Cl20'
_cell_volume   1297.71883256
_cell_formula_units_Z   4
loop_
 _symmetry_equiv_pos_site_id
 _symmetry_equiv_pos_as_xyz
  1  'x, y, z'
loop_
 _atom_site_type_symbol
 _atom_site_label
 _atom_site_symmetry_multiplicity
 _atom_site_fract_x
 _atom_site_fract_y
 _atom_site_fract_z
 _atom_site_occupancy
  Ga  Ga0  1  0.027654  0.365569  0.312280  1
  Ga  Ga1  1  0.527654  0.134431  0.812280  1
  Ga  Ga2  1  0.472346  0.865569  0.187720  1
  Ga  Ga3  1  0.972346  0.634431  0.687720  1
  Se  Se4  1  0.542126  0.250371  0.186433  1
  Se  Se5  1  0.442333  0.773855  0.604387  1
  Se  Se6  1  0.957874  0.750371  0.313567  1
  Se  Se7  1  0.457874  0.749629  0.813567  1
  Se  Se8  1  0.057667  0.273855  0.895613  1
  Se  Se9  1  0.557667  0.226145  0.395613  1
  Se  Se10  1  0.485063  0.481682  0.317223  1
  Se  Se11  1  0.985063  0.018318  0.817223  1
  Se  Se12  1  0.514937  0.518318  0.682777  1
  Se  Se13  1  0.942333  0.726145  0.104387  1
  Se  Se14  1  0.014937  0.981682  0.182777  1
  Se  Se15  1  0.042126  0.249629  0.686433  1
  N  N16  1  0.997611  0.097285  0.691722  1
  N  N17  1  0.538816  0.378696  0.425530  1
  N  N18  1  0.961184  0.878696  0.074470  1
  N  N19  1  0.502389  0.597285  0.808278  1
  N  N20  1  0.461184  0.621304  0.574470  1
  N  N21  1  0.038816  0.121304  0.925530  1
  N  N22  1  0.497611  0.402715  0.191722  1
  N  N23  1  0.002389  0.902715  0.308278  1
  Cl  Cl24  1  0.637316  0.986383  0.252320  1
  Cl  Cl25  1  0.143314  0.292728  0.170302  1
  Cl  Cl26  1  0.571056  0.715816  0.099291  1
  Cl  Cl27  1  0.835384  0.532435  0.575551  1
  Cl  Cl28  1  0.928944  0.215816  0.400709  1
  Cl  Cl29  1  0.335384  0.967565  0.075551  1
  Cl  Cl30  1  0.351658  0.137616  0.425887  1
  Cl  Cl31  1  0.862684  0.486383  0.247680  1
  Cl  Cl32  1  0.362684  0.013617  0.747680  1
  Cl  Cl33  1  0.356686  0.792728  0.329698  1
  Cl  Cl34  1  0.137316  0.513617  0.752320  1
  Cl  Cl35  1  0.856686  0.707272  0.829698  1
  Cl  Cl36  1  0.164616  0.467565  0.424449  1
  Cl  Cl37  1  0.643314  0.207272  0.670302  1
  Cl  Cl38  1  0.851658  0.362384  0.925887  1
  Cl  Cl39  1  0.148342  0.637616  0.074113  1
  Cl  Cl40  1  0.071056  0.784184  0.599291  1
  Cl  Cl41  1  0.428944  0.284184  0.900709  1
  Cl  Cl42  1  0.648342  0.862384  0.574113  1
  Cl  Cl43  1  0.664616  0.032435  0.924449  1
