# generated using pymatgen
data_BaFeCuF7
_symmetry_space_group_name_H-M   'P 1'
_cell_length_a   5.73830864
_cell_length_b   7.44499329
_cell_length_c   7.44499288
_cell_angle_alpha   86.30029205
_cell_angle_beta   69.42861735
_cell_angle_gamma   69.42862367
_symmetry_Int_Tables_number   1
_chemical_formula_structural   BaFeCuF7
_chemical_formula_sum   'Ba2 Fe2 Cu2 F14'
_cell_volume   278.16242874
_cell_formula_units_Z   2
loop_
 _symmetry_equiv_pos_site_id
 _symmetry_equiv_pos_as_xyz
  1  'x, y, z'
loop_
 _atom_site_type_symbol
 _atom_site_label
 _atom_site_symmetry_multiplicity
 _atom_site_fract_x
 _atom_site_fract_y
 _atom_site_fract_z
 _atom_site_occupancy
  Ba  Ba0  1  0.741271  0.312002  0.674799  1
  Ba  Ba1  1  0.241271  0.674799  0.312002  1
  Fe  Fe2  1  0.880483  0.699303  0.919238  1
  Fe  Fe3  1  0.380483  0.919238  0.699303  1
  Cu  Cu4  1  0.113804  0.282360  0.086372  1
  Cu  Cu5  1  0.613804  0.086372  0.282360  1
  F  F6  1  0.261919  0.030703  0.483706  1
  F  F7  1  0.722225  0.818683  0.186117  1
  F  F8  1  0.478700  0.670436  0.584953  1
  F  F9  1  0.989213  0.057374  0.198627  1
  F  F10  1  0.008232  0.414508  0.326126  1
  F  F11  1  0.761919  0.483706  0.030703  1
  F  F12  1  0.978700  0.584953  0.670436  1
  F  F13  1  0.005548  0.915873  0.822946  1
  F  F14  1  0.508232  0.326126  0.414508  1
  F  F15  1  0.712004  0.957951  0.563523  1
  F  F16  1  0.489213  0.198627  0.057374  1
  F  F17  1  0.212004  0.563523  0.957951  1
  F  F18  1  0.505548  0.822946  0.915873  1
  F  F19  1  0.222225  0.186117  0.818683  1
