# generated using pymatgen
data_Cs4CO4
_symmetry_space_group_name_H-M   'P 1'
_cell_length_a   5.12243484
_cell_length_b   7.17658085
_cell_length_c   8.80904086
_cell_angle_alpha   55.22692165
_cell_angle_beta   73.08976579
_cell_angle_gamma   69.08026659
_symmetry_Int_Tables_number   1
_chemical_formula_structural   Cs4CO4
_chemical_formula_sum   'Cs4 C1 O4'
_cell_volume   246.85742582
_cell_formula_units_Z   1
loop_
 _symmetry_equiv_pos_site_id
 _symmetry_equiv_pos_as_xyz
  1  'x, y, z'
loop_
 _atom_site_type_symbol
 _atom_site_label
 _atom_site_symmetry_multiplicity
 _atom_site_fract_x
 _atom_site_fract_y
 _atom_site_fract_z
 _atom_site_occupancy
  Cs  Cs0  1  0.227623  0.408097  0.821863  1
  Cs  Cs1  1  0.508166  0.931223  0.363527  1
  Cs  Cs2  1  0.802973  0.068892  0.636364  1
  Cs  Cs3  1  0.457701  0.591852  0.178114  1
  C  C4  1  0.997995  0.499934  0.500150  1
  O  O5  1  0.088268  0.703316  0.439846  1
  O  O6  1  0.898817  0.533052  0.348565  1
  O  O7  1  0.231487  0.296688  0.560197  1
  O  O8  1  0.780289  0.466945  0.651374  1
