# generated using pymatgen
data_KInS2
_symmetry_space_group_name_H-M   'P 1'
_cell_length_a   7.93080998
_cell_length_b   7.93080995
_cell_length_c   15.12043731
_cell_angle_alpha   83.67925068
_cell_angle_beta   83.67925081
_cell_angle_gamma   89.92141845
_symmetry_Int_Tables_number   1
_chemical_formula_structural   KInS2
_chemical_formula_sum   'K8 In8 S16'
_cell_volume   939.45848424
_cell_formula_units_Z   8
loop_
 _symmetry_equiv_pos_site_id
 _symmetry_equiv_pos_as_xyz
  1  'x, y, z'
loop_
 _atom_site_type_symbol
 _atom_site_label
 _atom_site_symmetry_multiplicity
 _atom_site_fract_x
 _atom_site_fract_y
 _atom_site_fract_z
 _atom_site_occupancy
  K  K0  1  0.308669  0.147510  0.376664  1
  K  K1  1  0.353604  0.705984  0.120549  1
  K  K2  1  0.852490  0.691331  0.123336  1
  K  K3  1  0.705984  0.353604  0.620549  1
  K  K4  1  0.294016  0.646396  0.379451  1
  K  K5  1  0.147510  0.308669  0.876664  1
  K  K6  1  0.646396  0.294016  0.879451  1
  K  K7  1  0.691331  0.852490  0.623336  1
  In  In8  1  0.800931  0.406098  0.348652  1
  In  In9  1  0.593902  0.199069  0.151348  1
  In  In10  1  0.801760  0.914268  0.347603  1
  In  In11  1  0.085732  0.198240  0.152397  1
  In  In12  1  0.914268  0.801760  0.847603  1
  In  In13  1  0.198240  0.085732  0.652397  1
  In  In14  1  0.406098  0.800931  0.848652  1
  In  In15  1  0.199069  0.593902  0.651348  1
  S  S16  1  0.567365  0.921243  0.247270  1
  S  S17  1  0.563510  0.436490  0.250000  1
  S  S18  1  0.860559  0.235864  0.049790  1
  S  S19  1  0.641308  0.781266  0.945877  1
  S  S20  1  0.764136  0.139441  0.450210  1
  S  S21  1  0.781266  0.641308  0.445877  1
  S  S22  1  0.922806  0.077194  0.750000  1
  S  S23  1  0.078757  0.432635  0.252730  1
  S  S24  1  0.921243  0.567365  0.747270  1
  S  S25  1  0.077194  0.922806  0.250000  1
  S  S26  1  0.218734  0.358692  0.554123  1
  S  S27  1  0.235864  0.860559  0.549790  1
  S  S28  1  0.358692  0.218734  0.054123  1
  S  S29  1  0.139441  0.764136  0.950210  1
  S  S30  1  0.436490  0.563510  0.750000  1
  S  S31  1  0.432635  0.078757  0.752730  1
