# generated using pymatgen
data_Fe7Se8
_symmetry_space_group_name_H-M   'P 1'
_cell_length_a   7.26311098
_cell_length_b   7.26311084
_cell_length_c   16.02479417
_cell_angle_alpha   90.00000000
_cell_angle_beta   90.00000000
_cell_angle_gamma   120.00000063
_symmetry_Int_Tables_number   1
_chemical_formula_structural   Fe7Se8
_chemical_formula_sum   'Fe21 Se24'
_cell_volume   732.09668566
_cell_formula_units_Z   3
loop_
 _symmetry_equiv_pos_site_id
 _symmetry_equiv_pos_as_xyz
  1  'x, y, z'
loop_
 _atom_site_type_symbol
 _atom_site_label
 _atom_site_symmetry_multiplicity
 _atom_site_fract_x
 _atom_site_fract_y
 _atom_site_fract_z
 _atom_site_occupancy
  Fe  Fe0  1  0.986736  0.986629  0.000035  1
  Fe  Fe1  1  0.013371  0.000107  0.333368  1
  Fe  Fe2  1  0.999893  0.013264  0.666702  1
  Fe  Fe3  1  0.512852  0.996129  0.004631  1
  Fe  Fe4  1  0.003871  0.516723  0.337964  1
  Fe  Fe5  1  0.483277  0.487148  0.671298  1
  Fe  Fe6  1  0.996778  0.513705  0.995409  1
  Fe  Fe7  1  0.486295  0.483073  0.328742  1
  Fe  Fe8  1  0.516927  0.003222  0.662076  1
  Fe  Fe9  1  0.999844  0.029490  0.166667  1
  Fe  Fe10  1  0.970510  0.970354  0.500000  1
  Fe  Fe11  1  0.029646  0.000156  0.833334  1
  Fe  Fe12  1  0.527935  0.527702  0.500058  1
  Fe  Fe13  1  0.472298  0.000233  0.833391  1
  Fe  Fe14  1  0.999767  0.472065  0.166725  1
  Fe  Fe15  1  0.519437  0.006421  0.170546  1
  Fe  Fe16  1  0.993579  0.513016  0.503879  1
  Fe  Fe17  1  0.486984  0.480563  0.837213  1
  Fe  Fe18  1  0.513049  0.993853  0.496153  1
  Fe  Fe19  1  0.006147  0.519196  0.829486  1
  Fe  Fe20  1  0.480804  0.486951  0.162820  1
  Se  Se21  1  0.166507  0.342380  0.076293  1
  Se  Se22  1  0.657620  0.824127  0.409626  1
  Se  Se23  1  0.175873  0.833493  0.742960  1
  Se  Se24  1  0.171097  0.339562  0.425565  1
  Se  Se25  1  0.660438  0.831534  0.758898  1
  Se  Se26  1  0.168466  0.828903  0.092232  1
  Se  Se27  1  0.162039  0.337518  0.755580  1
  Se  Se28  1  0.662482  0.824522  0.088913  1
  Se  Se29  1  0.175478  0.837961  0.422247  1
  Se  Se30  1  0.337326  0.162033  0.244412  1
  Se  Se31  1  0.837967  0.175293  0.577745  1
  Se  Se32  1  0.824707  0.662674  0.911079  1
  Se  Se33  1  0.339703  0.171103  0.574625  1
  Se  Se34  1  0.828897  0.168600  0.907958  1
  Se  Se35  1  0.831400  0.660297  0.241292  1
  Se  Se36  1  0.342274  0.166544  0.923803  1
  Se  Se37  1  0.833456  0.175730  0.257136  1
  Se  Se38  1  0.824270  0.657726  0.590470  1
  Se  Se39  1  0.673340  0.335884  0.087377  1
  Se  Se40  1  0.664116  0.337457  0.420710  1
  Se  Se41  1  0.662543  0.326660  0.754044  1
  Se  Se42  1  0.326666  0.662463  0.245845  1
  Se  Se43  1  0.337537  0.664203  0.579178  1
  Se  Se44  1  0.335797  0.673334  0.912512  1
