# generated using pymatgen
data_TbMg4Cu
_symmetry_space_group_name_H-M   'P 1'
_cell_length_a   4.03729907
_cell_length_b   11.99471381
_cell_length_c   11.99471323
_cell_angle_alpha   112.80880189
_cell_angle_beta   90.00000000
_cell_angle_gamma   90.00000000
_symmetry_Int_Tables_number   1
_chemical_formula_structural   TbMg4Cu
_chemical_formula_sum   'Tb4 Mg16 Cu4'
_cell_volume   535.43787195
_cell_formula_units_Z   4
loop_
 _symmetry_equiv_pos_site_id
 _symmetry_equiv_pos_as_xyz
  1  'x, y, z'
loop_
 _atom_site_type_symbol
 _atom_site_label
 _atom_site_symmetry_multiplicity
 _atom_site_fract_x
 _atom_site_fract_y
 _atom_site_fract_z
 _atom_site_occupancy
  Tb  Tb0  1  0.000000  0.697443  0.697443  1
  Tb  Tb1  1  0.000000  0.302557  0.302557  1
  Tb  Tb2  1  0.000000  0.632071  0.367929  1
  Tb  Tb3  1  0.000000  0.367929  0.632071  1
  Mg  Mg4  1  0.500000  0.625284  0.135349  1
  Mg  Mg5  1  0.500000  0.864651  0.374716  1
  Mg  Mg6  1  0.000000  0.835471  0.164529  1
  Mg  Mg7  1  0.000000  0.164529  0.835471  1
  Mg  Mg8  1  0.500000  0.050122  0.210364  1
  Mg  Mg9  1  0.500000  0.135349  0.625284  1
  Mg  Mg10  1  0.000000  0.075571  0.412665  1
  Mg  Mg11  1  0.500000  0.789636  0.949878  1
  Mg  Mg12  1  0.500000  0.374716  0.864651  1
  Mg  Mg13  1  0.500000  0.500000  0.500000  1
  Mg  Mg14  1  0.500000  0.210364  0.050122  1
  Mg  Mg15  1  0.500000  0.949878  0.789636  1
  Mg  Mg16  1  0.000000  0.412665  0.075571  1
  Mg  Mg17  1  0.000000  0.587335  0.924429  1
  Mg  Mg18  1  0.000000  0.924429  0.587335  1
  Mg  Mg19  1  0.000000  0.000000  0.000000  1
  Cu  Cu20  1  0.500000  0.554145  0.765414  1
  Cu  Cu21  1  0.500000  0.765414  0.554145  1
  Cu  Cu22  1  0.500000  0.445855  0.234586  1
  Cu  Cu23  1  0.500000  0.234586  0.445855  1
