# generated using pymatgen
data_Yb4Ge3(O3F2)3
_symmetry_space_group_name_H-M   'P 1'
_cell_length_a   7.09978106
_cell_length_b   9.37337029
_cell_length_c   9.37336999
_cell_angle_alpha   108.62255296
_cell_angle_beta   90.00000000
_cell_angle_gamma   90.00000000
_symmetry_Int_Tables_number   1
_chemical_formula_structural   Yb4Ge3(O3F2)3
_chemical_formula_sum   'Yb8 Ge6 O18 F12'
_cell_volume   591.12748354
_cell_formula_units_Z   2
loop_
 _symmetry_equiv_pos_site_id
 _symmetry_equiv_pos_as_xyz
  1  'x, y, z'
loop_
 _atom_site_type_symbol
 _atom_site_label
 _atom_site_symmetry_multiplicity
 _atom_site_fract_x
 _atom_site_fract_y
 _atom_site_fract_z
 _atom_site_occupancy
  Yb  Yb0  1  0.750000  0.088892  0.819983  1
  Yb  Yb1  1  0.750000  0.149954  0.393938  1
  Yb  Yb2  1  0.250000  0.606062  0.850046  1
  Yb  Yb3  1  0.750000  0.393938  0.149954  1
  Yb  Yb4  1  0.250000  0.180017  0.911108  1
  Yb  Yb5  1  0.750000  0.819983  0.088892  1
  Yb  Yb6  1  0.250000  0.850046  0.606062  1
  Yb  Yb7  1  0.250000  0.911108  0.180017  1
  Ge  Ge8  1  0.250000  0.231804  0.534514  1
  Ge  Ge9  1  0.250000  0.534514  0.231804  1
  Ge  Ge10  1  0.500000  0.500000  0.500000  1
  Ge  Ge11  1  0.750000  0.465486  0.768196  1
  Ge  Ge12  1  0.000000  0.500000  0.500000  1
  Ge  Ge13  1  0.750000  0.768196  0.465486  1
  O  O14  1  0.750000  0.442054  0.442054  1
  O  O15  1  0.750000  0.968390  0.544435  1
  O  O16  1  0.459534  0.289033  0.464212  1
  O  O17  1  0.750000  0.544435  0.968390  1
  O  O18  1  0.459534  0.464212  0.289033  1
  O  O19  1  0.250000  0.323375  0.731466  1
  O  O20  1  0.250000  0.455565  0.031610  1
  O  O21  1  0.540466  0.535788  0.710967  1
  O  O22  1  0.959534  0.535788  0.710967  1
  O  O23  1  0.250000  0.557946  0.557946  1
  O  O24  1  0.750000  0.268534  0.676625  1
  O  O25  1  0.250000  0.731466  0.323375  1
  O  O26  1  0.750000  0.676625  0.268534  1
  O  O27  1  0.250000  0.031610  0.455565  1
  O  O28  1  0.540466  0.710967  0.535788  1
  O  O29  1  0.040466  0.289033  0.464212  1
  O  O30  1  0.959534  0.710967  0.535788  1
  O  O31  1  0.040466  0.464212  0.289033  1
  F  F32  1  0.250000  0.827080  0.827080  1
  F  F33  1  0.050307  0.724927  0.037305  1
  F  F34  1  0.750000  0.172920  0.172920  1
  F  F35  1  0.550307  0.962695  0.275073  1
  F  F36  1  0.949693  0.962695  0.275073  1
  F  F37  1  0.050307  0.037305  0.724927  1
  F  F38  1  0.449693  0.724927  0.037305  1
  F  F39  1  0.449693  0.037305  0.724927  1
  F  F40  1  0.550307  0.275073  0.962695  1
  F  F41  1  0.250000  0.103376  0.103376  1
  F  F42  1  0.750000  0.896624  0.896624  1
  F  F43  1  0.949693  0.275073  0.962695  1
