# generated using pymatgen
data_Sr3GaSb3
_symmetry_space_group_name_H-M   'P 1'
_cell_length_a   11.83728722
_cell_length_b   11.85945042
_cell_length_c   14.78414385
_cell_angle_alpha   90.00000000
_cell_angle_beta   90.00000000
_cell_angle_gamma   109.88036272
_symmetry_Int_Tables_number   1
_chemical_formula_structural   Sr3GaSb3
_chemical_formula_sum   'Sr24 Ga8 Sb24'
_cell_volume   1951.76593833
_cell_formula_units_Z   8
loop_
 _symmetry_equiv_pos_site_id
 _symmetry_equiv_pos_as_xyz
  1  'x, y, z'
loop_
 _atom_site_type_symbol
 _atom_site_label
 _atom_site_symmetry_multiplicity
 _atom_site_fract_x
 _atom_site_fract_y
 _atom_site_fract_z
 _atom_site_occupancy
  Sr  Sr0  1  0.413141  0.335860  0.433198  1
  Sr  Sr1  1  0.312562  0.908588  0.283347  1
  Sr  Sr2  1  0.687438  0.091412  0.716653  1
  Sr  Sr3  1  0.521288  0.658001  0.250127  1
  Sr  Sr4  1  0.327056  0.977047  0.575447  1
  Sr  Sr5  1  0.978712  0.841999  0.750127  1
  Sr  Sr6  1  0.457704  0.318362  0.071114  1
  Sr  Sr7  1  0.586859  0.664140  0.566802  1
  Sr  Sr8  1  0.343502  0.961940  0.904575  1
  Sr  Sr9  1  0.021288  0.158001  0.249873  1
  Sr  Sr10  1  0.843502  0.461940  0.595425  1
  Sr  Sr11  1  0.812562  0.408588  0.216653  1
  Sr  Sr12  1  0.542296  0.681638  0.928886  1
  Sr  Sr13  1  0.656498  0.038060  0.095425  1
  Sr  Sr14  1  0.827056  0.477047  0.924553  1
  Sr  Sr15  1  0.172944  0.522953  0.075447  1
  Sr  Sr16  1  0.478712  0.341999  0.749873  1
  Sr  Sr17  1  0.957704  0.818362  0.428886  1
  Sr  Sr18  1  0.086859  0.164140  0.933198  1
  Sr  Sr19  1  0.913141  0.835860  0.066802  1
  Sr  Sr20  1  0.672944  0.022953  0.424553  1
  Sr  Sr21  1  0.156498  0.538060  0.404575  1
  Sr  Sr22  1  0.187438  0.591412  0.783347  1
  Sr  Sr23  1  0.042296  0.181638  0.571114  1
  Ga  Ga24  1  0.192143  0.321663  0.754931  1
  Ga  Ga25  1  0.316930  0.688467  0.591234  1
  Ga  Ga26  1  0.683070  0.311533  0.408766  1
  Ga  Ga27  1  0.816930  0.188467  0.908766  1
  Ga  Ga28  1  0.307857  0.178337  0.254931  1
  Ga  Ga29  1  0.807857  0.678337  0.245069  1
  Ga  Ga30  1  0.692143  0.821663  0.745069  1
  Ga  Ga31  1  0.183070  0.811533  0.091234  1
  Sb  Sb32  1  0.205548  0.050439  0.099462  1
  Sb  Sb33  1  0.594966  0.204416  0.906434  1
  Sb  Sb34  1  0.188139  0.073500  0.409622  1
  Sb  Sb35  1  0.210957  0.100549  0.741480  1
  Sb  Sb36  1  0.710957  0.600549  0.758520  1
  Sb  Sb37  1  0.688139  0.573500  0.090378  1
  Sb  Sb38  1  0.794452  0.949561  0.900538  1
  Sb  Sb39  1  0.076228  0.726418  0.932631  1
  Sb  Sb40  1  0.423772  0.773582  0.432631  1
  Sb  Sb41  1  0.545888  0.179150  0.262322  1
  Sb  Sb42  1  0.311861  0.426500  0.909622  1
  Sb  Sb43  1  0.954112  0.320850  0.762322  1
  Sb  Sb44  1  0.045888  0.679150  0.237678  1
  Sb  Sb45  1  0.789043  0.899451  0.258520  1
  Sb  Sb46  1  0.094966  0.704416  0.593566  1
  Sb  Sb47  1  0.811861  0.926500  0.590378  1
  Sb  Sb48  1  0.705548  0.550439  0.400538  1
  Sb  Sb49  1  0.294452  0.449561  0.599462  1
  Sb  Sb50  1  0.905034  0.295584  0.406434  1
  Sb  Sb51  1  0.576228  0.226418  0.567369  1
  Sb  Sb52  1  0.289043  0.399451  0.241480  1
  Sb  Sb53  1  0.405034  0.795584  0.093566  1
  Sb  Sb54  1  0.454112  0.820850  0.737678  1
  Sb  Sb55  1  0.923772  0.273582  0.067369  1
