# generated using pymatgen
data_Nd3BWO9
_symmetry_space_group_name_H-M   'P 1'
_cell_length_a   8.79589903
_cell_length_b   8.79589913
_cell_length_c   5.59047533
_cell_angle_alpha   90.00000000
_cell_angle_beta   90.00000000
_cell_angle_gamma   119.99999967
_symmetry_Int_Tables_number   1
_chemical_formula_structural   Nd3BWO9
_chemical_formula_sum   'Nd6 B2 W2 O18'
_cell_volume   374.57591069
_cell_formula_units_Z   2
loop_
 _symmetry_equiv_pos_site_id
 _symmetry_equiv_pos_as_xyz
  1  'x, y, z'
loop_
 _atom_site_type_symbol
 _atom_site_label
 _atom_site_symmetry_multiplicity
 _atom_site_fract_x
 _atom_site_fract_y
 _atom_site_fract_z
 _atom_site_occupancy
  Nd  Nd0  1  0.724757  0.643203  0.204384  1
  Nd  Nd1  1  0.081554  0.724757  0.704384  1
  Nd  Nd2  1  0.356797  0.081554  0.204384  1
  Nd  Nd3  1  0.918446  0.275243  0.204384  1
  Nd  Nd4  1  0.643203  0.918446  0.704384  1
  Nd  Nd5  1  0.275243  0.356797  0.704384  1
  B  B6  1  0.000000  0.000000  0.367682  1
  B  B7  1  0.000000  0.000000  0.867682  1
  W  W8  1  0.666667  0.333333  0.747603  1
  W  W9  1  0.333333  0.666667  0.247603  1
  O  O10  1  0.175564  0.047644  0.859544  1
  O  O11  1  0.796263  0.532848  0.543711  1
  O  O12  1  0.127920  0.175564  0.359544  1
  O  O13  1  0.736585  0.203737  0.543711  1
  O  O14  1  0.135768  0.519026  0.472033  1
  O  O15  1  0.616742  0.135768  0.972033  1
  O  O16  1  0.263415  0.796263  0.043711  1
  O  O17  1  0.952356  0.127920  0.859544  1
  O  O18  1  0.203737  0.467152  0.043711  1
  O  O19  1  0.864232  0.480974  0.972033  1
  O  O20  1  0.872080  0.824436  0.859544  1
  O  O21  1  0.532848  0.736585  0.043711  1
  O  O22  1  0.519026  0.383258  0.972033  1
  O  O23  1  0.383258  0.864232  0.472033  1
  O  O24  1  0.047644  0.872080  0.359544  1
  O  O25  1  0.480974  0.616742  0.472033  1
  O  O26  1  0.467152  0.263415  0.543711  1
  O  O27  1  0.824436  0.952356  0.359544  1
