# generated using pymatgen
data_KSbO3
_symmetry_space_group_name_H-M   'P 1'
_cell_length_a   6.95059619
_cell_length_b   6.95059632
_cell_length_c   6.95059600
_cell_angle_alpha   46.39881306
_cell_angle_beta   46.39881198
_cell_angle_gamma   46.39881640
_symmetry_Int_Tables_number   1
_chemical_formula_structural   KSbO3
_chemical_formula_sum   'K2 Sb2 O6'
_cell_volume   160.75383363
_cell_formula_units_Z   2
loop_
 _symmetry_equiv_pos_site_id
 _symmetry_equiv_pos_as_xyz
  1  'x, y, z'
loop_
 _atom_site_type_symbol
 _atom_site_label
 _atom_site_symmetry_multiplicity
 _atom_site_fract_x
 _atom_site_fract_y
 _atom_site_fract_z
 _atom_site_occupancy
  K  K0  1  0.639939  0.639939  0.639939  1
  K  K1  1  0.360061  0.360061  0.360061  1
  Sb  Sb2  1  0.164351  0.164351  0.164351  1
  Sb  Sb3  1  0.835649  0.835649  0.835649  1
  O  O4  1  0.442777  0.034427  0.834950  1
  O  O5  1  0.557223  0.965573  0.165050  1
  O  O6  1  0.034427  0.834950  0.442777  1
  O  O7  1  0.965573  0.165050  0.557223  1
  O  O8  1  0.834950  0.442777  0.034427  1
  O  O9  1  0.165050  0.557223  0.965573  1
