# generated using pymatgen
data_TiS3
_symmetry_space_group_name_H-M   'P 1'
_cell_length_a   7.01607614
_cell_length_b   7.01607615
_cell_length_c   7.01607700
_cell_angle_alpha   117.96758689
_cell_angle_beta   117.96758693
_cell_angle_gamma   117.96757809
_symmetry_Int_Tables_number   1
_chemical_formula_structural   TiS3
_chemical_formula_sum   'Ti1 S3'
_cell_volume   126.38301334
_cell_formula_units_Z   1
loop_
 _symmetry_equiv_pos_site_id
 _symmetry_equiv_pos_as_xyz
  1  'x, y, z'
loop_
 _atom_site_type_symbol
 _atom_site_label
 _atom_site_symmetry_multiplicity
 _atom_site_fract_x
 _atom_site_fract_y
 _atom_site_fract_z
 _atom_site_occupancy
  Ti  Ti0  1  0.999903  0.999903  0.999903  1
  S  S1  1  0.411414  0.677269  0.411414  1
  S  S2  1  0.677269  0.411414  0.411414  1
  S  S3  1  0.411414  0.411414  0.677269  1
