# generated using pymatgen
data_Dy(Zn10Rh)2
_symmetry_space_group_name_H-M   'P 1'
_cell_length_a   10.23924100
_cell_length_b   10.23924142
_cell_length_c   10.23924060
_cell_angle_alpha   60.00000265
_cell_angle_beta   60.00000130
_cell_angle_gamma   60.00000023
_symmetry_Int_Tables_number   1
_chemical_formula_structural   Dy(Zn10Rh)2
_chemical_formula_sum   'Dy2 Zn40 Rh4'
_cell_volume   759.08133395
_cell_formula_units_Z   2
loop_
 _symmetry_equiv_pos_site_id
 _symmetry_equiv_pos_as_xyz
  1  'x, y, z'
loop_
 _atom_site_type_symbol
 _atom_site_label
 _atom_site_symmetry_multiplicity
 _atom_site_fract_x
 _atom_site_fract_y
 _atom_site_fract_z
 _atom_site_occupancy
  Dy  Dy0  1  0.125000  0.125000  0.125000  1
  Dy  Dy1  1  0.875000  0.875000  0.875000  1
  Zn  Zn2  1  0.676186  0.676186  0.943383  1
  Zn  Zn3  1  0.323814  0.056617  0.795756  1
  Zn  Zn4  1  0.056617  0.795756  0.323814  1
  Zn  Zn5  1  0.795756  0.323814  0.323814  1
  Zn  Zn6  1  0.323814  0.056617  0.323814  1
  Zn  Zn7  1  0.204244  0.943383  0.676186  1
  Zn  Zn8  1  0.500000  0.000000  0.000000  1
  Zn  Zn9  1  0.676186  0.676186  0.204244  1
  Zn  Zn10  1  0.512939  0.237061  0.512939  1
  Zn  Zn11  1  0.204244  0.676186  0.943383  1
  Zn  Zn12  1  0.000000  0.500000  0.000000  1
  Zn  Zn13  1  0.487061  0.762939  0.762939  1
  Zn  Zn14  1  0.487061  0.487061  0.762939  1
  Zn  Zn15  1  0.512939  0.512939  0.237061  1
  Zn  Zn16  1  0.762939  0.487061  0.762939  1
  Zn  Zn17  1  0.795756  0.056617  0.323814  1
  Zn  Zn18  1  0.762939  0.762939  0.487061  1
  Zn  Zn19  1  0.795756  0.323814  0.056617  1
  Zn  Zn20  1  0.323814  0.323814  0.795756  1
  Zn  Zn21  1  0.676186  0.943383  0.204244  1
  Zn  Zn22  1  0.056617  0.323814  0.323814  1
  Zn  Zn23  1  0.943383  0.204244  0.676186  1
  Zn  Zn24  1  0.056617  0.323814  0.795756  1
  Zn  Zn25  1  0.237061  0.237061  0.512939  1
  Zn  Zn26  1  0.323814  0.323814  0.056617  1
  Zn  Zn27  1  0.943383  0.676186  0.204244  1
  Zn  Zn28  1  0.323814  0.795756  0.056617  1
  Zn  Zn29  1  0.000000  0.000000  0.500000  1
  Zn  Zn30  1  0.676186  0.943383  0.676186  1
  Zn  Zn31  1  0.237061  0.512939  0.237061  1
  Zn  Zn32  1  0.512939  0.237061  0.237061  1
  Zn  Zn33  1  0.204244  0.676186  0.676186  1
  Zn  Zn34  1  0.762939  0.487061  0.487061  1
  Zn  Zn35  1  0.487061  0.762939  0.487061  1
  Zn  Zn36  1  0.676186  0.204244  0.676186  1
  Zn  Zn37  1  0.237061  0.512939  0.512939  1
  Zn  Zn38  1  0.000000  0.000000  0.000000  1
  Zn  Zn39  1  0.943383  0.676186  0.676186  1
  Zn  Zn40  1  0.323814  0.795756  0.323814  1
  Zn  Zn41  1  0.676186  0.204244  0.943383  1
  Rh  Rh42  1  0.500000  0.500000  0.500000  1
  Rh  Rh43  1  0.500000  0.500000  0.000000  1
  Rh  Rh44  1  0.000000  0.500000  0.500000  1
  Rh  Rh45  1  0.500000  0.000000  0.500000  1
