# generated using pymatgen
data_H9C3S2BrN2
_symmetry_space_group_name_H-M   'P 1'
_cell_length_a   5.79470348
_cell_length_b   8.43731143
_cell_length_c   9.30985177
_cell_angle_alpha   69.86952108
_cell_angle_beta   82.27764359
_cell_angle_gamma   79.05160862
_symmetry_Int_Tables_number   1
_chemical_formula_structural   H9C3S2BrN2
_chemical_formula_sum   'H18 C6 S4 Br2 N4'
_cell_volume   418.41255993
_cell_formula_units_Z   2
loop_
 _symmetry_equiv_pos_site_id
 _symmetry_equiv_pos_as_xyz
  1  'x, y, z'
loop_
 _atom_site_type_symbol
 _atom_site_label
 _atom_site_symmetry_multiplicity
 _atom_site_fract_x
 _atom_site_fract_y
 _atom_site_fract_z
 _atom_site_occupancy
  H  H0  1  0.211404  0.862497  0.788068  1
  H  H1  1  0.026911  0.307756  0.929804  1
  H  H2  1  0.611285  0.659866  0.513095  1
  H  H3  1  0.535461  0.052200  0.330363  1
  H  H4  1  0.973089  0.692244  0.070196  1
  H  H5  1  0.234323  0.216284  0.804287  1
  H  H6  1  0.765677  0.783716  0.195713  1
  H  H7  1  0.152963  0.276610  0.418180  1
  H  H8  1  0.388715  0.340134  0.486905  1
  H  H9  1  0.464539  0.947800  0.669637  1
  H  H10  1  0.186231  0.501650  0.360030  1
  H  H11  1  0.211662  0.103607  0.009853  1
  H  H12  1  0.847037  0.723390  0.581820  1
  H  H13  1  0.788596  0.137503  0.211932  1
  H  H14  1  0.788338  0.896393  0.990147  1
  H  H15  1  0.268367  0.851874  0.595291  1
  H  H16  1  0.731633  0.148126  0.404709  1
  H  H17  1  0.813769  0.498350  0.639970  1
  C  C18  1  0.651986  0.149799  0.302793  1
  C  C19  1  0.723701  0.631367  0.608164  1
  C  C20  1  0.197436  0.228730  0.918643  1
  C  C21  1  0.348014  0.850201  0.697207  1
  C  C22  1  0.802564  0.771270  0.081357  1
  C  C23  1  0.276299  0.368633  0.391836  1
  S  S24  1  0.582241  0.665726  0.053324  1
  S  S25  1  0.528814  0.649985  0.767356  1
  S  S26  1  0.417759  0.334274  0.946676  1
  S  S27  1  0.471186  0.350015  0.232644  1
  Br  Br28  1  0.230891  0.847850  0.315768  1
  Br  Br29  1  0.769109  0.152150  0.684232  1
  N  N30  1  0.341544  0.522048  0.814989  1
  N  N31  1  0.658456  0.477952  0.185011  1
  N  N32  1  0.705348  0.640078  0.887046  1
  N  N33  1  0.294652  0.359922  0.112954  1
