# generated using pymatgen
data_S4N2O3F
_symmetry_space_group_name_H-M   'P 1'
_cell_length_a   6.34123956
_cell_length_b   10.07549452
_cell_length_c   11.71737377
_cell_angle_alpha   90.00000000
_cell_angle_beta   90.00000000
_cell_angle_gamma   102.32086048
_symmetry_Int_Tables_number   1
_chemical_formula_structural   S4N2O3F
_chemical_formula_sum   'S16 N8 O12 F4'
_cell_volume   731.39355915
_cell_formula_units_Z   4
loop_
 _symmetry_equiv_pos_site_id
 _symmetry_equiv_pos_as_xyz
  1  'x, y, z'
loop_
 _atom_site_type_symbol
 _atom_site_label
 _atom_site_symmetry_multiplicity
 _atom_site_fract_x
 _atom_site_fract_y
 _atom_site_fract_z
 _atom_site_occupancy
  S  S0  1  0.334896  0.500850  0.870799  1
  S  S1  1  0.834896  0.000850  0.629201  1
  S  S2  1  0.665104  0.499150  0.129201  1
  S  S3  1  0.180441  0.987073  0.769142  1
  S  S4  1  0.866618  0.850662  0.416182  1
  S  S5  1  0.678642  0.273856  0.427044  1
  S  S6  1  0.319559  0.512927  0.269142  1
  S  S7  1  0.165104  0.999150  0.370799  1
  S  S8  1  0.133382  0.149338  0.583818  1
  S  S9  1  0.821358  0.226144  0.927044  1
  S  S10  1  0.321358  0.726144  0.572956  1
  S  S11  1  0.819559  0.012927  0.230858  1
  S  S12  1  0.366618  0.350662  0.083818  1
  S  S13  1  0.680441  0.487073  0.730858  1
  S  S14  1  0.633382  0.649338  0.916182  1
  S  S15  1  0.178642  0.773856  0.072956  1
  N  N16  1  0.722784  0.894574  0.316575  1
  N  N17  1  0.277216  0.105427  0.683425  1
  N  N18  1  0.777216  0.605426  0.816575  1
  N  N19  1  0.934749  0.936106  0.735759  1
  N  N20  1  0.434749  0.436106  0.764241  1
  N  N21  1  0.222784  0.394574  0.183425  1
  N  N22  1  0.065251  0.063894  0.264241  1
  N  N23  1  0.565251  0.563894  0.235759  1
  O  O24  1  0.064132  0.750714  0.180797  1
  O  O25  1  0.435868  0.749286  0.680797  1
  O  O26  1  0.935868  0.249286  0.819203  1
  O  O27  1  0.566504  0.323811  0.519906  1
  O  O28  1  0.066504  0.823811  0.980094  1
  O  O29  1  0.792169  0.166153  0.457496  1
  O  O30  1  0.292169  0.666153  0.042504  1
  O  O31  1  0.707831  0.333847  0.957496  1
  O  O32  1  0.564132  0.250714  0.319203  1
  O  O33  1  0.433496  0.676189  0.480094  1
  O  O34  1  0.933496  0.176189  0.019906  1
  O  O35  1  0.207831  0.833847  0.542504  1
  F  F36  1  0.379351  0.901405  0.100388  1
  F  F37  1  0.879351  0.401405  0.399612  1
  F  F38  1  0.120649  0.598595  0.600388  1
  F  F39  1  0.620649  0.098595  0.899612  1
