# generated using pymatgen
data_Li3Ga(BO3)2
_symmetry_space_group_name_H-M   'P 1'
_cell_length_a   4.97584924
_cell_length_b   6.51940196
_cell_length_c   8.07645770
_cell_angle_alpha   106.96806544
_cell_angle_beta   90.86019753
_cell_angle_gamma   89.62903377
_symmetry_Int_Tables_number   1
_chemical_formula_structural   Li3Ga(BO3)2
_chemical_formula_sum   'Li6 Ga2 B4 O12'
_cell_volume   250.56254694
_cell_formula_units_Z   2
loop_
 _symmetry_equiv_pos_site_id
 _symmetry_equiv_pos_as_xyz
  1  'x, y, z'
loop_
 _atom_site_type_symbol
 _atom_site_label
 _atom_site_symmetry_multiplicity
 _atom_site_fract_x
 _atom_site_fract_y
 _atom_site_fract_z
 _atom_site_occupancy
  Li  Li0  1  0.662718  0.602658  0.423607  1
  Li  Li1  1  0.840955  0.747784  0.113638  1
  Li  Li2  1  0.159045  0.252216  0.886362  1
  Li  Li3  1  0.148066  0.468942  0.269338  1
  Li  Li4  1  0.337282  0.397342  0.576393  1
  Li  Li5  1  0.851934  0.531058  0.730662  1
  Ga  Ga6  1  0.639453  0.952924  0.778264  1
  Ga  Ga7  1  0.360547  0.047076  0.221736  1
  B  B8  1  0.656247  0.322148  0.072393  1
  B  B9  1  0.843077  0.181649  0.403404  1
  B  B10  1  0.343753  0.677852  0.927607  1
  B  B11  1  0.156923  0.818351  0.596596  1
  O  O12  1  0.288178  0.659989  0.479742  1
  O  O13  1  0.874861  0.807881  0.608672  1
  O  O14  1  0.125139  0.192119  0.391328  1
  O  O15  1  0.288411  0.991813  0.714403  1
  O  O16  1  0.216430  0.510652  0.815623  1
  O  O17  1  0.391891  0.259123  0.101343  1
  O  O18  1  0.783570  0.489348  0.184377  1
  O  O19  1  0.780145  0.206919  0.918332  1
  O  O20  1  0.711589  0.008187  0.285597  1
  O  O21  1  0.219855  0.793081  0.081668  1
  O  O22  1  0.608109  0.740877  0.898657  1
  O  O23  1  0.711822  0.340011  0.520258  1
