# generated using pymatgen
data_Pb5SO8
_symmetry_space_group_name_H-M   'P 1'
_cell_length_a   7.48502221
_cell_length_b   11.91545485
_cell_length_c   12.00588105
_cell_angle_alpha   90.00000000
_cell_angle_beta   90.00000000
_cell_angle_gamma   90.94127714
_symmetry_Int_Tables_number   1
_chemical_formula_structural   Pb5SO8
_chemical_formula_sum   'Pb20 S4 O32'
_cell_volume   1070.62935216
_cell_formula_units_Z   4
loop_
 _symmetry_equiv_pos_site_id
 _symmetry_equiv_pos_as_xyz
  1  'x, y, z'
loop_
 _atom_site_type_symbol
 _atom_site_label
 _atom_site_symmetry_multiplicity
 _atom_site_fract_x
 _atom_site_fract_y
 _atom_site_fract_z
 _atom_site_occupancy
  Pb  Pb0  1  0.891672  0.612143  0.758636  1
  Pb  Pb1  1  0.108328  0.887857  0.258636  1
  Pb  Pb2  1  0.108328  0.387857  0.241364  1
  Pb  Pb3  1  0.891672  0.112143  0.741364  1
  Pb  Pb4  1  0.876833  0.607018  0.089620  1
  Pb  Pb5  1  0.123167  0.892982  0.589620  1
  Pb  Pb6  1  0.123167  0.392982  0.910380  1
  Pb  Pb7  1  0.876833  0.107018  0.410380  1
  Pb  Pb8  1  0.367341  0.611780  0.741444  1
  Pb  Pb9  1  0.632659  0.888220  0.241444  1
  Pb  Pb10  1  0.632659  0.388220  0.258556  1
  Pb  Pb11  1  0.367341  0.111780  0.758556  1
  Pb  Pb12  1  0.624443  0.385991  0.939443  1
  Pb  Pb13  1  0.375557  0.114009  0.439443  1
  Pb  Pb14  1  0.375557  0.614009  0.060557  1
  Pb  Pb15  1  0.624443  0.885991  0.560557  1
  Pb  Pb16  1  0.138692  0.371250  0.583380  1
  Pb  Pb17  1  0.861308  0.128750  0.083380  1
  Pb  Pb18  1  0.861308  0.628750  0.416620  1
  Pb  Pb19  1  0.138692  0.871250  0.916620  1
  S  S20  1  0.643808  0.846761  0.895111  1
  S  S21  1  0.356192  0.653239  0.395111  1
  S  S22  1  0.356192  0.153239  0.104889  1
  S  S23  1  0.643808  0.346761  0.604889  1
  O  O24  1  0.132928  0.491843  0.083781  1
  O  O25  1  0.867072  0.008157  0.583781  1
  O  O26  1  0.867072  0.508157  0.916219  1
  O  O27  1  0.132928  0.991843  0.416219  1
  O  O28  1  0.390887  0.502095  0.901033  1
  O  O29  1  0.609113  0.997905  0.401033  1
  O  O30  1  0.609113  0.497905  0.098967  1
  O  O31  1  0.390887  0.002095  0.598967  1
  O  O32  1  0.127195  0.488910  0.727264  1
  O  O33  1  0.872805  0.011090  0.227264  1
  O  O34  1  0.872805  0.511090  0.272736  1
  O  O35  1  0.127195  0.988910  0.772736  1
  O  O36  1  0.137427  0.708344  0.823997  1
  O  O37  1  0.862573  0.791656  0.323997  1
  O  O38  1  0.862573  0.291656  0.176003  1
  O  O39  1  0.137427  0.208344  0.676003  1
  O  O40  1  0.625809  0.721441  0.908624  1
  O  O41  1  0.374191  0.778559  0.408624  1
  O  O42  1  0.374191  0.278559  0.091376  1
  O  O43  1  0.625809  0.221441  0.591376  1
  O  O44  1  0.761734  0.871997  0.797270  1
  O  O45  1  0.238266  0.628003  0.297270  1
  O  O46  1  0.238266  0.128003  0.202730  1
  O  O47  1  0.761734  0.371997  0.702730  1
  O  O48  1  0.462002  0.893678  0.871418  1
  O  O49  1  0.537998  0.606322  0.371418  1
  O  O50  1  0.537998  0.106322  0.128582  1
  O  O51  1  0.462002  0.393678  0.628582  1
  O  O52  1  0.723567  0.896876  0.997305  1
  O  O53  1  0.276433  0.603124  0.497305  1
  O  O54  1  0.276433  0.103124  0.002695  1
  O  O55  1  0.723567  0.396876  0.502695  1
