# generated using pymatgen
data_K2Co3H6S3O16
_symmetry_space_group_name_H-M   'P 1'
_cell_length_a   7.70020133
_cell_length_b   9.77401478
_cell_length_c   9.91399299
_cell_angle_alpha   90.00000000
_cell_angle_beta   90.00000000
_cell_angle_gamma   113.19461954
_symmetry_Int_Tables_number   1
_chemical_formula_structural   K2Co3H6S3O16
_chemical_formula_sum   'K4 Co6 H12 S6 O32'
_cell_volume   685.83654271
_cell_formula_units_Z   2
loop_
 _symmetry_equiv_pos_site_id
 _symmetry_equiv_pos_as_xyz
  1  'x, y, z'
loop_
 _atom_site_type_symbol
 _atom_site_label
 _atom_site_symmetry_multiplicity
 _atom_site_fract_x
 _atom_site_fract_y
 _atom_site_fract_z
 _atom_site_occupancy
  Co  Co0  1  0.198142  0.999994  0.029157  1
  Co  Co1  1  0.801858  0.000006  0.529157  1
  Co  Co2  1  0.448063  0.829232  0.814254  1
  Co  Co3  1  0.551937  0.170768  0.314254  1
  Co  Co4  1  0.381188  0.829236  0.314237  1
  Co  Co5  1  0.618812  0.170764  0.814237  1
  K  K6  1  0.235022  0.385670  0.769708  1
  K  K7  1  0.764978  0.614330  0.269708  1
  K  K8  1  0.150782  0.385673  0.269716  1
  K  K9  1  0.849218  0.614327  0.769716  1
  O  O10  1  0.640326  0.756026  0.918931  1
  O  O11  1  0.359674  0.243974  0.418931  1
  O  O12  1  0.115734  0.756024  0.418916  1
  O  O13  1  0.884266  0.243976  0.918916  1
  H  H14  1  0.570897  0.670226  0.978956  1
  H  H15  1  0.429103  0.329774  0.478956  1
  H  H16  1  0.099334  0.670210  0.478937  1
  H  H17  1  0.900666  0.329790  0.978937  1
  H  H18  1  0.736194  0.831153  0.975461  1
  H  H19  1  0.263806  0.168847  0.475461  1
  H  H20  1  0.094979  0.831147  0.475446  1
  H  H21  1  0.905021  0.168853  0.975446  1
  O  O22  1  0.313389  0.000019  0.227264  1
  O  O23  1  0.686611  0.999981  0.727264  1
  H  H24  1  0.203237  0.000023  0.276867  1
  H  H25  1  0.796763  0.999977  0.776867  1
  O  O26  1  0.450974  0.999979  0.948486  1
  O  O27  1  0.549026  0.000021  0.448486  1
  H  H28  1  0.524411  1.000012  0.028667  1
  H  H29  1  0.475589  -0.000012  0.528667  1
  S  S30  1  0.131397  0.650422  0.043636  1
  S  S31  1  0.868603  0.349578  0.543636  1
  S  S32  1  0.519045  0.650410  0.543640  1
  S  S33  1  0.480955  0.349590  0.043640  1
  O  O34  1  0.048802  0.766562  0.036542  1
  O  O35  1  0.951198  0.233438  0.536542  1
  O  O36  1  0.717753  0.766570  0.536533  1
  O  O37  1  0.282247  0.233430  0.036533  1
  O  O38  1  0.227696  0.648375  0.912956  1
  O  O39  1  0.772304  0.351625  0.412956  1
  O  O40  1  0.420651  0.648353  0.412976  1
  O  O41  1  0.579349  0.351647  0.912976  1
  O  O42  1  0.975295  0.503363  0.064970  1
  O  O43  1  0.024705  0.496637  0.564970  1
  O  O44  1  0.528137  0.503370  0.564962  1
  O  O45  1  0.471863  0.496630  0.064962  1
  O  O46  1  0.266091  0.681141  0.157922  1
  O  O47  1  0.733909  0.318859  0.657922  1
  O  O48  1  0.415078  0.681124  0.657946  1
  O  O49  1  0.584922  0.318876  0.157946  1
  S  S50  1  0.816689  1.000000  0.209705  1
  S  S51  1  0.183311  0.000000  0.709705  1
  O  O52  1  0.919984  0.999989  0.081104  1
  O  O53  1  0.080016  0.000011  0.581104  1
  O  O54  1  0.936127  1.000000  0.328334  1
  O  O55  1  0.063873  -0.000000  0.828334  1
  O  O56  1  0.774513  0.136170  0.209791  1
  O  O57  1  0.225487  0.863830  0.709791  1
  O  O58  1  0.361627  0.136184  0.709812  1
  O  O59  1  0.638373  0.863816  0.209812  1
