# generated using pymatgen
data_Li5B7S13
_symmetry_space_group_name_H-M   'P 1'
_cell_length_a   12.44121130
_cell_length_b   12.45103882
_cell_length_c   14.04503257
_cell_angle_alpha   116.24261176
_cell_angle_beta   116.22702617
_cell_angle_gamma   90.06599936
_symmetry_Int_Tables_number   1
_chemical_formula_structural   Li5B7S13
_chemical_formula_sum   'Li20 B28 S52'
_cell_volume   1697.47518950
_cell_formula_units_Z   4
loop_
 _symmetry_equiv_pos_site_id
 _symmetry_equiv_pos_as_xyz
  1  'x, y, z'
loop_
 _atom_site_type_symbol
 _atom_site_label
 _atom_site_symmetry_multiplicity
 _atom_site_fract_x
 _atom_site_fract_y
 _atom_site_fract_z
 _atom_site_occupancy
  B  B0  1  0.118791  0.693519  0.946480  1
  B  B1  1  0.067529  0.207433  0.751984  1
  B  B2  1  0.025459  0.273317  0.548622  1
  B  B3  1  0.224796  0.475046  0.951057  1
  B  B4  1  0.183893  0.544012  0.750910  1
  B  B5  1  0.327402  0.252616  0.947070  1
  B  B6  1  0.043815  0.566892  0.250617  1
  B  B7  1  0.293524  0.316353  0.749267  1
  B  B8  1  0.193757  0.826889  0.446637  1
  B  B9  1  0.247631  0.380242  0.553127  1
  B  B10  1  0.245225  0.984627  0.150581  1
  B  B11  1  0.330450  0.254214  0.345700  1
  B  B12  1  0.483901  0.909318  0.654431  1
  B  B13  1  0.593703  0.834659  0.849688  1
  B  B14  1  0.408889  0.168338  0.153501  1
  B  B15  1  0.514306  0.093927  0.348896  1
  B  B16  1  0.664352  0.745550  0.651205  1
  B  B17  1  0.754178  0.015365  0.846531  1
  B  B18  1  0.752538  0.618975  0.447792  1
  B  B19  1  0.805608  0.171422  0.552606  1
  B  B20  1  0.707815  0.684566  0.253058  1
  B  B21  1  0.955256  0.431712  0.747169  1
  B  B22  1  0.671928  0.747040  0.053559  1
  B  B23  1  0.815466  0.455560  0.248549  1
  B  B24  1  0.773236  0.523855  0.048985  1
  B  B25  1  0.976459  0.724484  0.451460  1
  B  B26  1  0.932438  0.792705  0.248710  1
  B  B27  1  0.879931  0.305583  0.053010  1
  Li  Li28  1  0.056297  0.315913  0.282688  1
  Li  Li29  1  0.272645  0.033175  0.717084  1
  Li  Li30  1  0.446481  0.977793  0.987286  1
  Li  Li31  1  0.221563  0.114266  0.435335  1
  Li  Li32  1  0.286853  0.679692  0.564986  1
  Li  Li33  1  0.186246  0.776618  0.219432  1
  Li  Li34  1  0.466485  0.557505  0.780753  1
  Li  Li35  1  0.178368  0.281436  0.064379  1
  Li  Li36  1  0.613932  0.217303  0.936631  1
  Li  Li37  1  0.514611  0.948442  0.493743  1
  Li  Li38  1  0.520966  0.452911  0.504365  1
  Li  Li39  1  0.387310  0.773849  0.071862  1
  Li  Li40  1  0.814193  0.700368  0.926894  1
  Li  Li41  1  0.528195  0.445890  0.224217  1
  Li  Li42  1  0.802589  0.221096  0.775015  1
  Li  Li43  1  0.729786  0.314891  0.427729  1
  Li  Li44  1  0.801864  0.887736  0.572363  1
  Li  Li45  1  0.717866  0.971379  0.273153  1
  Li  Li46  1  0.944065  0.698350  0.727081  1
  Li  Li47  1  0.957022  0.988902  0.011679  1
  S  S48  1  0.058353  0.370956  0.854044  1
  S  S49  1  0.016697  0.439756  0.644434  1
  S  S50  1  0.166062  0.139233  0.849182  1
  S  S51  1  0.183249  0.709314  0.849476  1
  S  S52  1  0.129585  0.204711  0.646272  1
  S  S53  1  0.086464  0.269040  0.446056  1
  S  S54  1  0.139832  0.822786  0.553917  1
  S  S55  1  0.294869  0.483375  0.854576  1
  S  S56  1  0.095864  0.896392  0.347742  1
  S  S57  1  0.248291  0.548590  0.651695  1
  S  S58  1  0.048293  0.403411  0.151792  1
  S  S59  1  0.396562  0.251315  0.847830  1
  S  S60  1  0.209022  0.666087  0.347986  1
  S  S61  1  0.099662  0.847903  0.052825  1
  S  S62  1  0.361427  0.318130  0.651856  1
  S  S63  1  0.189369  0.114903  0.245258  1
  S  S64  1  0.294929  0.401082  0.446792  1
  S  S65  1  0.347012  0.954393  0.552740  1
  S  S66  1  0.443195  0.870470  0.755092  1
  S  S67  1  0.546131  0.795028  0.947323  1
  S  S68  1  0.227072  0.637704  0.053545  1
  S  S69  1  0.275180  0.023792  0.045473  1
  S  S70  1  0.672818  0.584024  0.946511  1
  S  S71  1  0.368462  0.309304  0.251391  1
  S  S72  1  0.383418  0.943255  0.251773  1
  S  S73  1  0.473694  0.227102  0.453874  1
  S  S74  1  0.518837  0.773919  0.546287  1
  S  S75  1  0.616017  0.058604  0.748594  1
  S  S76  1  0.630609  0.692217  0.748516  1
  S  S77  1  0.323230  0.414101  0.053428  1
  S  S78  1  0.728347  0.978995  0.954722  1
  S  S79  1  0.769214  0.360624  0.946624  1
  S  S80  1  0.454636  0.204973  0.052799  1
  S  S81  1  0.558487  0.132817  0.250379  1
  S  S82  1  0.651054  0.046027  0.446318  1
  S  S83  1  0.704048  0.600253  0.554215  1
  S  S84  1  0.806901  0.882883  0.749649  1
  S  S85  1  0.640554  0.684435  0.351573  1
  S  S86  1  0.900975  0.152047  0.947201  1
  S  S87  1  0.789600  0.333078  0.648632  1
  S  S88  1  0.604794  0.750121  0.154705  1
  S  S89  1  0.950552  0.595497  0.845753  1
  S  S90  1  0.749042  0.450913  0.346514  1
  S  S91  1  0.903329  0.104899  0.654190  1
  S  S92  1  0.704099  0.516967  0.146374  1
  S  S93  1  0.863003  0.172432  0.446329  1
  S  S94  1  0.916126  0.726136  0.553860  1
  S  S95  1  0.871894  0.795084  0.355510  1
  S  S96  1  0.816972  0.290328  0.151445  1
  S  S97  1  0.833360  0.859448  0.149980  1
  S  S98  1  0.983081  0.558328  0.353930  1
  S  S99  1  0.939716  0.628479  0.145141  1
