# generated using pymatgen
data_Al2SnCl6O
_symmetry_space_group_name_H-M   'P 1'
_cell_length_a   9.68643812
_cell_length_b   9.57824367
_cell_length_c   12.62857072
_cell_angle_alpha   90.00000000
_cell_angle_beta   90.00000000
_cell_angle_gamma   96.50727364
_symmetry_Int_Tables_number   1
_chemical_formula_structural   Al2SnCl6O
_chemical_formula_sum   'Al8 Sn4 Cl24 O4'
_cell_volume   1164.11848626
_cell_formula_units_Z   4
loop_
 _symmetry_equiv_pos_site_id
 _symmetry_equiv_pos_as_xyz
  1  'x, y, z'
loop_
 _atom_site_type_symbol
 _atom_site_label
 _atom_site_symmetry_multiplicity
 _atom_site_fract_x
 _atom_site_fract_y
 _atom_site_fract_z
 _atom_site_occupancy
  Al  Al0  1  0.725458  0.360876  0.108227  1
  Al  Al1  1  0.225458  0.860876  0.391773  1
  Al  Al2  1  0.577364  0.624001  0.007441  1
  Al  Al3  1  0.274542  0.639124  0.891773  1
  Al  Al4  1  0.422636  0.375999  0.992559  1
  Al  Al5  1  0.077364  0.124001  0.492559  1
  Al  Al6  1  0.774542  0.139124  0.608227  1
  Al  Al7  1  0.922636  0.875999  0.507441  1
  Sn  Sn8  1  0.796496  0.016206  0.977228  1
  Sn  Sn9  1  0.296496  0.516206  0.522772  1
  Sn  Sn10  1  0.203504  0.983794  0.022772  1
  Sn  Sn11  1  0.703504  0.483794  0.477228  1
  Cl  Cl12  1  0.643114  0.158344  0.166861  1
  Cl  Cl13  1  0.326923  -0.000341  0.277344  1
  Cl  Cl14  1  0.967832  0.978522  0.133505  1
  Cl  Cl15  1  0.173077  0.500341  0.777344  1
  Cl  Cl16  1  0.532168  0.521478  0.633505  1
  Cl  Cl17  1  0.130893  0.687624  0.017856  1
  Cl  Cl18  1  0.869107  0.312376  0.982144  1
  Cl  Cl19  1  0.826923  0.499659  0.222656  1
  Cl  Cl20  1  0.630893  0.187624  0.482144  1
  Cl  Cl21  1  0.445685  0.218348  0.878167  1
  Cl  Cl22  1  0.255396  0.305061  0.097044  1
  Cl  Cl23  1  0.054315  0.281652  0.378167  1
  Cl  Cl24  1  0.244604  0.194939  0.597044  1
  Cl  Cl25  1  0.032168  0.021478  0.866495  1
  Cl  Cl26  1  0.755396  0.805061  0.402956  1
  Cl  Cl27  1  0.554315  0.781652  0.121833  1
  Cl  Cl28  1  0.143114  0.658344  0.333139  1
  Cl  Cl29  1  0.467832  0.478522  0.366495  1
  Cl  Cl30  1  0.744604  0.694939  0.902956  1
  Cl  Cl31  1  0.945685  0.718348  0.621833  1
  Cl  Cl32  1  0.369107  0.812376  0.517856  1
  Cl  Cl33  1  0.356886  0.841656  0.833139  1
  Cl  Cl34  1  0.673077  1.000341  0.722656  1
  Cl  Cl35  1  0.856886  0.341656  0.666861  1
  O  O36  1  0.411987  0.555280  0.948559  1
  O  O37  1  0.911987  0.055280  0.551441  1
  O  O38  1  0.088013  0.944720  0.448559  1
  O  O39  1  0.588013  0.444720  0.051441  1
