# generated using pymatgen
data_NaTiP2O7
_symmetry_space_group_name_H-M   'P 1'
_cell_length_a   5.31362276
_cell_length_b   8.81078007
_cell_length_c   12.34029069
_cell_angle_alpha   102.60670061
_cell_angle_beta   90.00000000
_cell_angle_gamma   90.00000000
_symmetry_Int_Tables_number   1
_chemical_formula_structural   NaTiP2O7
_chemical_formula_sum   'Na4 Ti4 P8 O28'
_cell_volume   563.80885272
_cell_formula_units_Z   4
loop_
 _symmetry_equiv_pos_site_id
 _symmetry_equiv_pos_as_xyz
  1  'x, y, z'
loop_
 _atom_site_type_symbol
 _atom_site_label
 _atom_site_symmetry_multiplicity
 _atom_site_fract_x
 _atom_site_fract_y
 _atom_site_fract_z
 _atom_site_occupancy
  Na  Na0  1  0.229614  0.363814  0.810203  1
  Na  Na1  1  0.270386  0.863814  0.310203  1
  Na  Na2  1  0.770386  0.636186  0.189797  1
  Na  Na3  1  0.729614  0.136186  0.689797  1
  Ti  Ti4  1  0.735671  0.734029  0.471289  1
  Ti  Ti5  1  0.235671  0.765971  0.028711  1
  Ti  Ti6  1  0.264329  0.265971  0.528711  1
  Ti  Ti7  1  0.764329  0.234029  0.971289  1
  P  P8  1  0.778320  0.068192  0.384709  1
  P  P9  1  0.221680  0.931808  0.615291  1
  P  P10  1  0.278320  0.431808  0.115291  1
  P  P11  1  0.244656  0.021855  0.854744  1
  P  P12  1  0.255344  0.521855  0.354744  1
  P  P13  1  0.755344  0.978145  0.145256  1
  P  P14  1  0.744656  0.478145  0.645256  1
  P  P15  1  0.721680  0.568192  0.884709  1
  O  O16  1  0.096525  0.331198  0.036516  1
  O  O17  1  0.596525  0.168802  0.463484  1
  O  O18  1  0.943925  0.895575  0.588497  1
  O  O19  1  0.403475  0.831198  0.536516  1
  O  O20  1  0.756034  0.576731  0.558222  1
  O  O21  1  0.512502  0.598452  0.346854  1
  O  O22  1  0.718698  0.101867  0.262910  1
  O  O23  1  0.443925  0.604425  0.911503  1
  O  O24  1  0.012502  0.901548  0.153146  1
  O  O25  1  0.903475  0.668802  0.963484  1
  O  O26  1  0.743966  0.076731  0.058222  1
  O  O27  1  0.459979  0.139777  0.865683  1
  O  O28  1  0.987498  0.098452  0.846854  1
  O  O29  1  0.556075  0.395575  0.088497  1
  O  O30  1  0.273878  0.108129  0.629181  1
  O  O31  1  0.726122  0.891871  0.370819  1
  O  O32  1  0.773878  0.391871  0.870819  1
  O  O33  1  0.056075  0.104425  0.411503  1
  O  O34  1  0.040021  0.639777  0.365683  1
  O  O35  1  0.226122  0.608129  0.129181  1
  O  O36  1  0.256034  0.923269  0.941778  1
  O  O37  1  0.959979  0.360223  0.634317  1
  O  O38  1  0.781302  0.601867  0.762910  1
  O  O39  1  0.218698  0.398133  0.237090  1
  O  O40  1  0.540021  0.860223  0.134317  1
  O  O41  1  0.487498  0.401548  0.653146  1
  O  O42  1  0.243966  0.423269  0.441778  1
  O  O43  1  0.281302  0.898133  0.737090  1
