# generated using pymatgen
data_CaZrAl9BO18
_symmetry_space_group_name_H-M   'P 1'
_cell_length_a   8.80807996
_cell_length_b   8.80807961
_cell_length_c   8.56268989
_cell_angle_alpha   90.00000000
_cell_angle_beta   90.00000000
_cell_angle_gamma   120.00000133
_symmetry_Int_Tables_number   1
_chemical_formula_structural   CaZrAl9BO18
_chemical_formula_sum   'Ca2 Zr2 Al18 B2 O36'
_cell_volume   575.31185257
_cell_formula_units_Z   2
loop_
 _symmetry_equiv_pos_site_id
 _symmetry_equiv_pos_as_xyz
  1  'x, y, z'
loop_
 _atom_site_type_symbol
 _atom_site_label
 _atom_site_symmetry_multiplicity
 _atom_site_fract_x
 _atom_site_fract_y
 _atom_site_fract_z
 _atom_site_occupancy
  Ca  Ca0  1  0.000000  0.000000  0.994665  1
  Ca  Ca1  1  0.000000  0.000000  0.494665  1
  Zr  Zr2  1  0.666667  0.333333  0.249664  1
  Zr  Zr3  1  0.333333  0.666667  0.749664  1
  Al  Al4  1  0.360577  0.017645  0.577689  1
  Al  Al5  1  0.017645  0.657068  0.077689  1
  Al  Al6  1  0.336789  0.004281  0.249398  1
  Al  Al7  1  0.656592  0.638875  0.921510  1
  Al  Al8  1  0.638875  0.982283  0.421510  1
  Al  Al9  1  0.639423  0.982355  0.077689  1
  Al  Al10  1  0.361125  0.017717  0.921510  1
  Al  Al11  1  0.982283  0.343408  0.921510  1
  Al  Al12  1  0.342932  0.360577  0.077689  1
  Al  Al13  1  0.657068  0.639423  0.577689  1
  Al  Al14  1  0.667492  0.663211  0.249398  1
  Al  Al15  1  0.017717  0.656592  0.421510  1
  Al  Al16  1  0.663211  0.995719  0.749398  1
  Al  Al17  1  0.995719  0.332508  0.249398  1
  Al  Al18  1  0.343408  0.361125  0.421510  1
  Al  Al19  1  0.982355  0.342932  0.577689  1
  Al  Al20  1  0.332508  0.336789  0.749398  1
  Al  Al21  1  0.004281  0.667492  0.749398  1
  B  B22  1  0.333333  0.666667  0.249538  1
  B  B23  1  0.666667  0.333333  0.749538  1
  O  O24  1  0.889819  0.670412  0.249741  1
  O  O25  1  0.192360  0.892768  0.417150  1
  O  O26  1  0.405252  0.522437  0.592261  1
  O  O27  1  0.594922  0.477742  0.406937  1
  O  O28  1  0.670412  0.780593  0.749741  1
  O  O29  1  0.700408  0.807640  0.417150  1
  O  O30  1  0.477742  0.882820  0.906937  1
  O  O31  1  0.892768  0.700408  0.917150  1
  O  O32  1  0.893223  0.701186  0.581704  1
  O  O33  1  0.446857  0.845725  0.249521  1
  O  O34  1  0.882820  0.405078  0.406937  1
  O  O35  1  0.117180  0.594922  0.906937  1
  O  O36  1  0.219407  0.889819  0.749741  1
  O  O37  1  0.107232  0.299592  0.417150  1
  O  O38  1  0.299592  0.192360  0.917150  1
  O  O39  1  0.110181  0.329588  0.749741  1
  O  O40  1  0.106777  0.298814  0.081704  1
  O  O41  1  0.117186  0.594748  0.592261  1
  O  O42  1  0.882814  0.405252  0.092261  1
  O  O43  1  0.192037  0.893223  0.081704  1
  O  O44  1  0.553143  0.154275  0.749521  1
  O  O45  1  0.845725  0.398868  0.749521  1
  O  O46  1  0.154275  0.601132  0.249521  1
  O  O47  1  0.398868  0.553143  0.249521  1
  O  O48  1  0.701186  0.807963  0.081704  1
  O  O49  1  0.405078  0.522258  0.906937  1
  O  O50  1  0.807640  0.107232  0.917150  1
  O  O51  1  0.601132  0.446857  0.749521  1
  O  O52  1  0.522258  0.117180  0.406937  1
  O  O53  1  0.477563  0.882814  0.592261  1
  O  O54  1  0.780593  0.110181  0.249741  1
  O  O55  1  0.594748  0.477563  0.092261  1
  O  O56  1  0.329588  0.219407  0.249741  1
  O  O57  1  0.522437  0.117186  0.092261  1
  O  O58  1  0.807963  0.106777  0.581704  1
  O  O59  1  0.298814  0.192037  0.581704  1
