# generated using pymatgen
data_Rb2AgSbS4
_symmetry_space_group_name_H-M   'P 1'
_cell_length_a   8.38154325
_cell_length_b   10.63665909
_cell_length_c   10.99247265
_cell_angle_alpha   90.00000000
_cell_angle_beta   90.00000000
_cell_angle_gamma   91.46574530
_symmetry_Int_Tables_number   1
_chemical_formula_structural   Rb2AgSbS4
_chemical_formula_sum   'Rb8 Ag4 Sb4 S16'
_cell_volume   979.67606691
_cell_formula_units_Z   4
loop_
 _symmetry_equiv_pos_site_id
 _symmetry_equiv_pos_as_xyz
  1  'x, y, z'
loop_
 _atom_site_type_symbol
 _atom_site_label
 _atom_site_symmetry_multiplicity
 _atom_site_fract_x
 _atom_site_fract_y
 _atom_site_fract_z
 _atom_site_occupancy
  Rb  Rb0  1  0.624903  0.737408  0.008001  1
  Rb  Rb1  1  0.359532  0.989405  0.271172  1
  Rb  Rb2  1  0.859532  0.489405  0.228828  1
  Rb  Rb3  1  0.124903  0.237408  0.491999  1
  Rb  Rb4  1  0.140468  0.510595  0.771172  1
  Rb  Rb5  1  0.640468  0.010595  0.728828  1
  Rb  Rb6  1  0.375097  0.262592  0.991999  1
  Rb  Rb7  1  0.875097  0.762592  0.508001  1
  Ag  Ag8  1  0.870679  0.220177  0.967630  1
  Ag  Ag9  1  0.129321  0.779823  0.032370  1
  Ag  Ag10  1  0.370679  0.720177  0.532370  1
  Ag  Ag11  1  0.629321  0.279823  0.467630  1
  Sb  Sb12  1  0.355961  0.540179  0.276022  1
  Sb  Sb13  1  0.644039  0.459821  0.723978  1
  Sb  Sb14  1  0.855961  0.040179  0.223978  1
  Sb  Sb15  1  0.144039  0.959821  0.776022  1
  S  S16  1  0.483459  0.343436  0.275206  1
  S  S17  1  0.241647  0.562309  0.077864  1
  S  S18  1  0.741647  0.062309  0.422136  1
  S  S19  1  0.838373  0.449037  0.568459  1
  S  S20  1  0.516541  0.656564  0.724794  1
  S  S21  1  0.161627  0.550963  0.431541  1
  S  S22  1  0.539943  0.707596  0.316677  1
  S  S23  1  0.258353  0.937691  0.577864  1
  S  S24  1  0.338373  0.949037  0.931541  1
  S  S25  1  0.983459  0.843436  0.224794  1
  S  S26  1  0.016541  0.156564  0.775206  1
  S  S27  1  0.960057  0.792404  0.816677  1
  S  S28  1  0.758353  0.437691  0.922136  1
  S  S29  1  0.039943  0.207596  0.183323  1
  S  S30  1  0.460057  0.292404  0.683323  1
  S  S31  1  0.661627  0.050963  0.068459  1
