# generated using pymatgen
data_Eu2(MoO4)3
_symmetry_space_group_name_H-M   'P 1'
_cell_length_a   6.97641460
_cell_length_b   6.97641415
_cell_length_c   11.61792824
_cell_angle_alpha   100.58263375
_cell_angle_beta   100.58263313
_cell_angle_gamma   112.62834674
_symmetry_Int_Tables_number   1
_chemical_formula_structural   Eu2(MoO4)3
_chemical_formula_sum   'Eu4 Mo6 O24'
_cell_volume   492.47774174
_cell_formula_units_Z   2
loop_
 _symmetry_equiv_pos_site_id
 _symmetry_equiv_pos_as_xyz
  1  'x, y, z'
loop_
 _atom_site_type_symbol
 _atom_site_label
 _atom_site_symmetry_multiplicity
 _atom_site_fract_x
 _atom_site_fract_y
 _atom_site_fract_z
 _atom_site_occupancy
  Eu  Eu0  1  0.803154  0.048730  0.590498  1
  Eu  Eu1  1  0.451270  0.696846  0.909502  1
  Eu  Eu2  1  0.196846  0.951270  0.409502  1
  Eu  Eu3  1  0.548730  0.303154  0.090498  1
  Mo  Mo4  1  0.620286  0.879714  0.250000  1
  Mo  Mo5  1  0.379714  0.120286  0.750000  1
  Mo  Mo6  1  0.301637  0.516132  0.555677  1
  Mo  Mo7  1  0.983868  0.198363  0.944323  1
  Mo  Mo8  1  0.698363  0.483868  0.444323  1
  Mo  Mo9  1  0.016132  0.801637  0.055677  1
  O  O10  1  0.527245  0.946212  0.110982  1
  O  O11  1  0.553788  0.972755  0.389018  1
  O  O12  1  0.472755  0.053788  0.889018  1
  O  O13  1  0.446212  0.027245  0.610982  1
  O  O14  1  0.175354  0.608396  0.447087  1
  O  O15  1  0.891604  0.324646  0.052913  1
  O  O16  1  0.824646  0.391604  0.552913  1
  O  O17  1  0.108396  0.675354  0.947087  1
  O  O18  1  0.852855  0.210823  0.799236  1
  O  O19  1  0.289177  0.647145  0.700764  1
  O  O20  1  0.147145  0.789177  0.200764  1
  O  O21  1  0.710823  0.352855  0.299236  1
  O  O22  1  0.398455  0.325578  0.419681  1
  O  O23  1  0.174422  0.101545  0.080319  1
  O  O24  1  0.601545  0.674422  0.580319  1
  O  O25  1  0.825578  0.898455  0.919681  1
  O  O26  1  0.093993  0.010511  0.720288  1
  O  O27  1  0.489489  0.406007  0.779712  1
  O  O28  1  0.906007  0.989489  0.279712  1
  O  O29  1  0.510511  0.593993  0.220288  1
  O  O30  1  0.724309  0.632886  0.043094  1
  O  O31  1  0.867114  0.775691  0.456906  1
  O  O32  1  0.275691  0.367114  0.956906  1
  O  O33  1  0.132886  0.224309  0.543094  1
