# generated using pymatgen
data_Sr8Fe3N8
_symmetry_space_group_name_H-M   'P 1'
_cell_length_a   5.35799329
_cell_length_b   7.49106349
_cell_length_c   9.79639147
_cell_angle_alpha   105.30027127
_cell_angle_beta   105.87055845
_cell_angle_gamma   89.99961980
_symmetry_Int_Tables_number   1
_chemical_formula_structural   Sr8Fe3N8
_chemical_formula_sum   'Sr8 Fe3 N8'
_cell_volume   363.70035622
_cell_formula_units_Z   1
loop_
 _symmetry_equiv_pos_site_id
 _symmetry_equiv_pos_as_xyz
  1  'x, y, z'
loop_
 _atom_site_type_symbol
 _atom_site_label
 _atom_site_symmetry_multiplicity
 _atom_site_fract_x
 _atom_site_fract_y
 _atom_site_fract_z
 _atom_site_occupancy
  Sr  Sr0  1  0.030788  0.263897  0.061580  1
  Sr  Sr1  1  0.800334  0.192987  0.600660  1
  Sr  Sr2  1  0.405058  0.036184  0.810126  1
  Sr  Sr3  1  0.667218  0.467954  0.334460  1
  Sr  Sr4  1  0.332782  0.532046  0.665540  1
  Sr  Sr5  1  0.594942  0.963816  0.189874  1
  Sr  Sr6  1  0.969212  0.736103  0.938420  1
  Sr  Sr7  1  0.199666  0.807013  0.399340  1
  Fe  Fe8  1  0.811635  0.793225  0.623322  1
  Fe  Fe9  1  0.500000  0.500000  0.000000  1
  Fe  Fe10  1  0.188365  0.206775  0.376678  1
  N  N11  1  0.276511  0.171174  0.552995  1
  N  N12  1  0.473507  0.719442  0.947000  1
  N  N13  1  0.526493  0.280558  0.053000  1
  N  N14  1  0.108726  0.016730  0.217423  1
  N  N15  1  0.891274  0.983270  0.782577  1
  N  N16  1  0.723489  0.828826  0.447005  1
  N  N17  1  0.821500  0.569400  0.643005  1
  N  N18  1  0.178500  0.430600  0.356995  1
