# generated using pymatgen
data_TaTl2AgS4
_symmetry_space_group_name_H-M   'P 1'
_cell_length_a   8.12681757
_cell_length_b   10.29554431
_cell_length_c   10.62038951
_cell_angle_alpha   90.00000000
_cell_angle_beta   90.00000000
_cell_angle_gamma   90.99868057
_symmetry_Int_Tables_number   1
_chemical_formula_structural   TaTl2AgS4
_chemical_formula_sum   'Ta4 Tl8 Ag4 S16'
_cell_volume   888.47311821
_cell_formula_units_Z   4
loop_
 _symmetry_equiv_pos_site_id
 _symmetry_equiv_pos_as_xyz
  1  'x, y, z'
loop_
 _atom_site_type_symbol
 _atom_site_label
 _atom_site_symmetry_multiplicity
 _atom_site_fract_x
 _atom_site_fract_y
 _atom_site_fract_z
 _atom_site_occupancy
  Ta  Ta0  1  0.622976  0.546552  0.725692  1
  Ta  Ta1  1  0.877024  0.953448  0.225692  1
  Ta  Ta2  1  0.122976  0.046552  0.774308  1
  Ta  Ta3  1  0.377024  0.453448  0.274308  1
  Tl  Tl4  1  0.106047  0.502627  0.770918  1
  Tl  Tl5  1  0.613922  0.274457  0.994731  1
  Tl  Tl6  1  0.386078  0.725543  0.005269  1
  Tl  Tl7  1  0.893953  0.497373  0.229082  1
  Tl  Tl8  1  0.113922  0.774457  0.505269  1
  Tl  Tl9  1  0.886078  0.225543  0.494731  1
  Tl  Tl10  1  0.606047  0.002627  0.729082  1
  Tl  Tl11  1  0.393953  0.997373  0.270918  1
  Ag  Ag12  1  0.623012  0.711978  0.487863  1
  Ag  Ag13  1  0.376988  0.288022  0.512137  1
  Ag  Ag14  1  0.876988  0.788022  0.987863  1
  Ag  Ag15  1  0.123012  0.211978  0.012137  1
  S  S16  1  0.975741  0.855801  0.765333  1
  S  S17  1  0.750985  0.564942  0.918575  1
  S  S18  1  0.524259  0.644199  0.265333  1
  S  S19  1  0.556119  0.285430  0.310415  1
  S  S20  1  0.749015  0.935058  0.418575  1
  S  S21  1  0.318729  0.034103  0.929227  1
  S  S22  1  0.181271  0.465897  0.429227  1
  S  S23  1  0.024259  0.144199  0.234667  1
  S  S24  1  0.250985  0.064942  0.581425  1
  S  S25  1  0.056119  0.785430  0.189585  1
  S  S26  1  0.943881  0.214570  0.810415  1
  S  S27  1  0.249015  0.435058  0.081425  1
  S  S28  1  0.443881  0.714570  0.689585  1
  S  S29  1  0.475741  0.355801  0.734667  1
  S  S30  1  0.681271  0.965897  0.070773  1
  S  S31  1  0.818729  0.534103  0.570773  1
