# generated using pymatgen
data_Be2BO3F
_symmetry_space_group_name_H-M   'P 1'
_cell_length_a   4.47064106
_cell_length_b   4.47064051
_cell_length_c   8.78333333
_cell_angle_alpha   75.28662149
_cell_angle_beta   75.28662334
_cell_angle_gamma   59.98857473
_symmetry_Int_Tables_number   1
_chemical_formula_structural   Be2BO3F
_chemical_formula_sum   'Be4 B2 O6 F2'
_cell_volume   145.32908147
_cell_formula_units_Z   2
loop_
 _symmetry_equiv_pos_site_id
 _symmetry_equiv_pos_as_xyz
  1  'x, y, z'
loop_
 _atom_site_type_symbol
 _atom_site_label
 _atom_site_symmetry_multiplicity
 _atom_site_fract_x
 _atom_site_fract_y
 _atom_site_fract_z
 _atom_site_occupancy
  Be  Be0  1  0.004724  0.620593  0.061063  1
  Be  Be1  1  0.379407  0.995276  0.938937  1
  Be  Be2  1  0.878331  0.494867  0.439084  1
  Be  Be3  1  0.505133  0.121669  0.560916  1
  B  B4  1  0.192935  0.807065  0.500000  1
  B  B5  1  0.693372  0.306628  0.000000  1
  O  O6  1  0.500766  0.805637  0.502975  1
  O  O7  1  0.383864  0.305267  0.002802  1
  O  O8  1  0.694733  0.616136  0.997198  1
  O  O9  1  0.002059  0.997941  1.000000  1
  O  O10  1  0.194363  0.499234  0.497025  1
  O  O11  1  0.884476  0.115524  0.500000  1
  F  F12  1  0.437285  0.068049  0.749887  1
  F  F13  1  0.931951  0.562715  0.250113  1
