# generated using pymatgen
data_K3NiO2
_symmetry_space_group_name_H-M   'P 1'
_cell_length_a   6.10241176
_cell_length_b   6.10241176
_cell_length_c   14.06997603
_cell_angle_alpha   90.00000000
_cell_angle_beta   90.00000000
_cell_angle_gamma   90.00000000
_symmetry_Int_Tables_number   1
_chemical_formula_structural   K3NiO2
_chemical_formula_sum   'K12 Ni4 O8'
_cell_volume   523.95787746
_cell_formula_units_Z   4
loop_
 _symmetry_equiv_pos_site_id
 _symmetry_equiv_pos_as_xyz
  1  'x, y, z'
loop_
 _atom_site_type_symbol
 _atom_site_label
 _atom_site_symmetry_multiplicity
 _atom_site_fract_x
 _atom_site_fract_y
 _atom_site_fract_z
 _atom_site_occupancy
  Ni  Ni0  1  0.995767  0.995767  0.000000  1
  Ni  Ni1  1  0.504233  0.495767  0.250000  1
  Ni  Ni2  1  0.495767  0.504233  0.750000  1
  Ni  Ni3  1  0.004233  0.004233  0.500000  1
  K  K4  1  0.448670  0.448670  0.000000  1
  K  K5  1  0.051330  0.948670  0.250000  1
  K  K6  1  0.948670  0.051330  0.750000  1
  K  K7  1  0.551330  0.551330  0.500000  1
  K  K8  1  0.977621  0.520801  0.876233  1
  K  K9  1  0.979199  0.477621  0.126233  1
  K  K10  1  0.020801  0.522379  0.626233  1
  K  K11  1  0.477621  0.979199  0.873767  1
  K  K12  1  0.522379  0.020801  0.373767  1
  K  K13  1  0.022379  0.479199  0.376233  1
  K  K14  1  0.520801  0.977621  0.123767  1
  K  K15  1  0.479199  0.022379  0.623767  1
  O  O16  1  0.786539  0.201264  0.989373  1
  O  O17  1  0.298736  0.286539  0.239373  1
  O  O18  1  0.701264  0.713461  0.739373  1
  O  O19  1  0.286539  0.298736  0.760627  1
  O  O20  1  0.713461  0.701264  0.260627  1
  O  O21  1  0.213461  0.798736  0.489373  1
  O  O22  1  0.201264  0.786539  0.010627  1
  O  O23  1  0.798736  0.213461  0.510627  1
