# generated using pymatgen
data_AsSe2S(NF3)2
_symmetry_space_group_name_H-M   'P 1'
_cell_length_a   10.12706031
_cell_length_b   10.58257583
_cell_length_c   16.59412882
_cell_angle_alpha   90.00000000
_cell_angle_beta   90.00000000
_cell_angle_gamma   98.16236574
_symmetry_Int_Tables_number   1
_chemical_formula_structural   AsSe2S(NF3)2
_chemical_formula_sum   'As8 Se16 S8 N16 F48'
_cell_volume   1760.38343891
_cell_formula_units_Z   8
loop_
 _symmetry_equiv_pos_site_id
 _symmetry_equiv_pos_as_xyz
  1  'x, y, z'
loop_
 _atom_site_type_symbol
 _atom_site_label
 _atom_site_symmetry_multiplicity
 _atom_site_fract_x
 _atom_site_fract_y
 _atom_site_fract_z
 _atom_site_occupancy
  As  As0  1  0.747645  0.635220  0.845410  1
  As  As1  1  0.247645  0.135220  0.654590  1
  As  As2  1  0.267038  0.696237  0.438816  1
  As  As3  1  0.732962  0.303763  0.561184  1
  As  As4  1  0.232962  0.803763  0.938816  1
  As  As5  1  0.767038  0.196237  0.061184  1
  As  As6  1  0.752355  0.864780  0.345410  1
  As  As7  1  0.252355  0.364780  0.154590  1
  Se  Se8  1  0.377025  0.039613  0.193698  1
  Se  Se9  1  0.862642  0.031362  0.795892  1
  Se  Se10  1  0.137358  0.968638  0.204108  1
  Se  Se11  1  0.117640  0.396296  0.881120  1
  Se  Se12  1  0.362642  0.531362  0.704108  1
  Se  Se13  1  0.637358  0.468638  0.295892  1
  Se  Se14  1  0.877025  0.539613  0.306302  1
  Se  Se15  1  0.882360  0.603704  0.118880  1
  Se  Se16  1  0.644552  0.528068  0.111760  1
  Se  Se17  1  0.617640  0.896296  0.618880  1
  Se  Se18  1  0.855448  0.971932  0.611760  1
  Se  Se19  1  0.144552  0.028068  0.388240  1
  Se  Se20  1  0.122975  0.460387  0.693698  1
  Se  Se21  1  0.622975  0.960387  0.806302  1
  Se  Se22  1  0.355448  0.471932  0.888240  1
  Se  Se23  1  0.382360  0.103704  0.381120  1
  S  S24  1  0.285064  0.194837  0.897926  1
  S  S25  1  0.300459  0.763135  0.187647  1
  S  S26  1  0.714936  0.805163  0.102074  1
  S  S27  1  0.199541  0.736865  0.687647  1
  S  S28  1  0.214936  0.305163  0.397926  1
  S  S29  1  0.699541  0.236865  0.812353  1
  S  S30  1  0.785064  0.694837  0.602074  1
  S  S31  1  0.800459  0.263135  0.312353  1
  N  N32  1  0.103682  0.186284  0.398849  1
  N  N33  1  0.657971  0.303622  0.304386  1
  N  N34  1  0.641318  0.732411  0.609891  1
  N  N35  1  0.896318  0.813716  0.601151  1
  N  N36  1  0.603682  0.686284  0.101151  1
  N  N37  1  0.086212  0.619956  0.684687  1
  N  N38  1  0.858682  0.767589  0.109891  1
  N  N39  1  0.157971  0.803622  0.195614  1
  N  N40  1  0.586212  0.119956  0.815313  1
  N  N41  1  0.358682  0.267589  0.390109  1
  N  N42  1  0.141318  0.232411  0.890109  1
  N  N43  1  0.396318  0.313716  0.898849  1
  N  N44  1  0.342029  0.696378  0.695614  1
  N  N45  1  0.842029  0.196378  0.804386  1
  N  N46  1  0.913788  0.380044  0.315313  1
  N  N47  1  0.413788  0.880044  0.184687  1
  F  F48  1  0.631919  0.259161  0.016276  1
  F  F49  1  0.229065  0.260262  0.071336  1
  F  F50  1  0.215058  0.668938  0.868931  1
  F  F51  1  0.368081  0.740839  0.983724  1
  F  F52  1  0.729065  0.760262  0.428664  1
  F  F53  1  0.784942  0.331062  0.131069  1
  F  F54  1  0.378409  0.788498  0.505314  1
  F  F55  1  0.596190  0.915150  0.361489  1
  F  F56  1  0.284942  0.831062  0.368931  1
  F  F57  1  0.099534  0.862552  0.890419  1
  F  F58  1  0.400466  0.637448  0.390419  1
  F  F59  1  0.345736  0.890100  0.869651  1
  F  F60  1  0.278083  0.464561  0.240239  1
  F  F61  1  0.589629  0.687283  0.826038  1
  F  F62  1  0.121591  0.711502  0.005314  1
  F  F63  1  0.677787  0.735357  0.281859  1
  F  F64  1  0.900466  0.137448  0.109581  1
  F  F65  1  0.868081  0.240839  0.516276  1
  F  F66  1  0.089629  0.187283  0.673962  1
  F  F67  1  0.131919  0.759161  0.483724  1
  F  F68  1  0.252674  0.933692  0.007151  1
  F  F69  1  0.822213  0.764643  0.781859  1
  F  F70  1  0.599534  0.362552  0.609581  1
  F  F71  1  0.247326  0.566308  0.507151  1
  F  F72  1  0.221917  0.035439  0.740239  1
  F  F73  1  0.096190  0.415150  0.138511  1
  F  F74  1  0.903810  0.584850  0.861489  1
  F  F75  1  0.878409  0.288498  0.994686  1
  F  F76  1  0.166669  0.011530  0.592583  1
  F  F77  1  0.333331  0.488470  0.092583  1
  F  F78  1  0.177787  0.235357  0.218141  1
  F  F79  1  0.666669  0.511530  0.907417  1
  F  F80  1  0.410371  0.312717  0.173962  1
  F  F81  1  0.654264  0.109900  0.130349  1
  F  F82  1  0.322213  0.264643  0.718141  1
  F  F83  1  0.770935  0.739738  0.928664  1
  F  F84  1  0.747326  0.066308  0.992849  1
  F  F85  1  0.910371  0.812717  0.326038  1
  F  F86  1  0.270935  0.239738  0.571336  1
  F  F87  1  0.845736  0.390100  0.630349  1
  F  F88  1  0.403810  0.084850  0.638511  1
  F  F89  1  0.778083  0.964561  0.259761  1
  F  F90  1  0.154264  0.609900  0.369651  1
  F  F91  1  0.621591  0.211502  0.494686  1
  F  F92  1  0.833331  0.988470  0.407417  1
  F  F93  1  0.715058  0.168938  0.631069  1
  F  F94  1  0.721917  0.535439  0.759761  1
  F  F95  1  0.752674  0.433692  0.492849  1
