# generated using pymatgen
data_Rb(WO3)3
_symmetry_space_group_name_H-M   'P 1'
_cell_length_a   7.53211471
_cell_length_b   7.53211449
_cell_length_c   7.76795073
_cell_angle_alpha   90.00000000
_cell_angle_beta   90.00000000
_cell_angle_gamma   120.00000093
_symmetry_Int_Tables_number   1
_chemical_formula_structural   Rb(WO3)3
_chemical_formula_sum   'Rb2 W6 O18'
_cell_volume   381.65497512
_cell_formula_units_Z   2
loop_
 _symmetry_equiv_pos_site_id
 _symmetry_equiv_pos_as_xyz
  1  'x, y, z'
loop_
 _atom_site_type_symbol
 _atom_site_label
 _atom_site_symmetry_multiplicity
 _atom_site_fract_x
 _atom_site_fract_y
 _atom_site_fract_z
 _atom_site_occupancy
  Rb  Rb0  1  0.000000  0.000000  0.500000  1
  Rb  Rb1  1  0.000000  0.000000  0.000000  1
  W  W2  1  0.498753  0.498753  0.750000  1
  W  W3  1  0.498753  0.000000  0.250000  1
  W  W4  1  0.000000  0.501247  0.750000  1
  W  W5  1  1.000000  0.498753  0.250000  1
  W  W6  1  0.501247  0.501247  0.250000  1
  W  W7  1  0.501247  0.000000  0.750000  1
  O  O8  1  0.209994  0.789265  0.250000  1
  O  O9  1  0.420729  0.209994  0.750000  1
  O  O10  1  0.500000  0.000000  0.000000  1
  O  O11  1  0.789265  0.579271  0.750000  1
  O  O12  1  0.500000  0.500000  0.000000  1
  O  O13  1  0.000000  0.500000  0.500000  1
  O  O14  1  0.420729  0.210735  0.250000  1
  O  O15  1  0.579271  0.789265  0.750000  1
  O  O16  1  0.000000  0.500000  0.000000  1
  O  O17  1  0.790006  0.579271  0.250000  1
  O  O18  1  0.790006  0.210735  0.750000  1
  O  O19  1  0.500000  0.500000  0.500000  1
  O  O20  1  0.210735  0.790006  0.750000  1
  O  O21  1  0.209994  0.420729  0.750000  1
  O  O22  1  0.789265  0.209994  0.250000  1
  O  O23  1  0.500000  0.000000  0.500000  1
  O  O24  1  0.210735  0.420729  0.250000  1
  O  O25  1  0.579271  0.790006  0.250000  1
