# generated using pymatgen
data_SmCuS2
_symmetry_space_group_name_H-M   'P 1'
_cell_length_a   6.45408389
_cell_length_b   6.83519938
_cell_length_c   7.12722180
_cell_angle_alpha   90.00000000
_cell_angle_beta   90.00000000
_cell_angle_gamma   97.45117664
_symmetry_Int_Tables_number   1
_chemical_formula_structural   SmCuS2
_chemical_formula_sum   'Sm4 Cu4 S8'
_cell_volume   311.76201160
_cell_formula_units_Z   4
loop_
 _symmetry_equiv_pos_site_id
 _symmetry_equiv_pos_as_xyz
  1  'x, y, z'
loop_
 _atom_site_type_symbol
 _atom_site_label
 _atom_site_symmetry_multiplicity
 _atom_site_fract_x
 _atom_site_fract_y
 _atom_site_fract_z
 _atom_site_occupancy
  S  S0  1  0.919415  0.001614  0.726217  1
  S  S1  1  0.080585  0.498386  0.226217  1
  S  S2  1  0.080585  0.998386  0.273783  1
  S  S3  1  0.919415  0.501614  0.773783  1
  S  S4  1  0.590571  0.778940  0.113907  1
  S  S5  1  0.590571  0.278940  0.386093  1
  S  S6  1  0.409429  0.221060  0.886093  1
  S  S7  1  0.409429  0.721060  0.613907  1
  Cu  Cu8  1  0.577174  0.050084  0.662307  1
  Cu  Cu9  1  0.422826  0.949916  0.337693  1
  Cu  Cu10  1  0.422826  0.449916  0.162307  1
  Cu  Cu11  1  0.577174  0.550084  0.837693  1
  Sm  Sm12  1  0.191942  0.800339  0.950729  1
  Sm  Sm13  1  0.808058  0.699661  0.450729  1
  Sm  Sm14  1  0.808058  0.199661  0.049271  1
  Sm  Sm15  1  0.191942  0.300339  0.549271  1
