# generated using pymatgen
data_NaY(IO3)4
_symmetry_space_group_name_H-M   'P 1'
_cell_length_a   5.65320654
_cell_length_b   12.64819236
_cell_length_c   16.12066064
_cell_angle_alpha   90.81297917
_cell_angle_beta   100.10204057
_cell_angle_gamma   90.00008882
_symmetry_Int_Tables_number   1
_chemical_formula_structural   NaY(IO3)4
_chemical_formula_sum   'Na4 Y4 I16 O48'
_cell_volume   1134.68524693
_cell_formula_units_Z   4
loop_
 _symmetry_equiv_pos_site_id
 _symmetry_equiv_pos_as_xyz
  1  'x, y, z'
loop_
 _atom_site_type_symbol
 _atom_site_label
 _atom_site_symmetry_multiplicity
 _atom_site_fract_x
 _atom_site_fract_y
 _atom_site_fract_z
 _atom_site_occupancy
  Na  Na0  1  0.593586  0.029314  0.627983  1
  Na  Na1  1  0.161936  0.934925  0.777878  1
  Na  Na2  1  0.034450  0.529344  0.628035  1
  Na  Na3  1  0.615940  0.434924  0.777897  1
  Y  Y4  1  0.562192  0.323793  0.546268  1
  Y  Y5  1  0.984023  0.823816  0.546214  1
  Y  Y6  1  0.787808  0.829513  0.955082  1
  Y  Y7  1  0.167271  0.329516  0.955127  1
  I  I8  1  0.114552  0.624451  0.831093  1
  I  I9  1  0.294827  0.035492  0.991854  1
  I  I10  1  0.697023  0.535484  0.991862  1
  I  I11  1  0.789477  0.231043  0.109520  1
  I  I12  1  0.599476  0.783006  0.715003  1
  I  I13  1  0.438065  0.915682  0.393949  1
  I  I14  1  0.060949  0.119635  0.506385  1
  I  I15  1  0.320058  0.731069  0.109463  1
  I  I16  1  0.115477  0.282986  0.715060  1
  I  I17  1  0.842020  0.687497  0.315126  1
  I  I18  1  0.920931  0.961831  0.188399  1
  I  I19  1  0.267566  0.461853  0.188411  1
  I  I20  1  0.445435  0.619620  0.506413  1
  I  I21  1  0.473141  0.187525  0.315092  1
  I  I22  1  0.716538  0.124489  0.831113  1
  I  I23  1  0.955781  0.415637  0.393988  1
  O  O24  1  0.896067  0.079706  0.754290  1
  O  O25  1  0.325975  0.349050  0.657461  1
  O  O26  1  0.191098  0.666850  0.553156  1
  O  O27  1  0.097107  0.083915  0.194436  1
  O  O28  1  0.644118  0.769432  0.240088  1
  O  O29  1  0.024385  0.764148  0.841071  1
  O  O30  1  0.127432  0.877723  0.259300  1
  O  O31  1  0.659291  0.567728  0.313280  1
  O  O32  1  0.635904  0.657184  0.930338  1
  O  O33  1  0.097184  0.406910  0.088132  1
  O  O34  1  0.876209  0.465499  0.921930  1
  O  O35  1  0.991002  0.906904  0.088122  1
  O  O36  1  0.535788  0.975845  0.945515  1
  O  O37  1  0.409715  0.475830  0.945547  1
  O  O38  1  0.461985  0.498575  0.567540  1
  O  O39  1  0.045696  0.965496  0.921918  1
  O  O40  1  0.257260  0.036067  0.400264  1
  O  O41  1  0.596182  0.269440  0.240084  1
  O  O42  1  0.555429  0.319687  0.056044  1
  O  O43  1  0.582827  0.857900  0.813650  1
  O  O44  1  0.858189  0.579674  0.754265  1
  O  O45  1  0.883502  0.192052  0.576110  1
  O  O46  1  0.851440  0.366291  0.672050  1
  O  O47  1  0.767296  0.749980  0.412539  1
  O  O48  1  0.142937  0.536019  0.400318  1
  O  O49  1  0.105528  0.998569  0.567495  1
  O  O50  1  0.294427  0.157208  0.930357  1
  O  O51  1  0.483325  0.606067  0.101161  1
  O  O52  1  0.671396  0.943339  0.487934  1
  O  O53  1  0.692665  0.692046  0.576113  1
  O  O54  1  0.132129  0.377718  0.259325  1
  O  O55  1  0.331409  0.849110  0.657412  1
  O  O56  1  0.816403  0.443318  0.487952  1
  O  O57  1  0.952414  0.204949  0.020811  1
  O  O58  1  0.256157  0.822217  0.443558  1
  O  O59  1  0.816761  0.264175  0.841088  1
  O  O60  1  0.321506  0.630450  0.755772  1
  O  O61  1  0.500649  0.819686  0.055981  1
  O  O62  1  0.068373  0.704989  0.020771  1
  O  O63  1  0.187290  0.322174  0.443611  1
  O  O64  1  0.230847  0.357902  0.813689  1
  O  O65  1  0.434254  0.130480  0.755790  1
  O  O66  1  0.645217  0.249979  0.412527  1
  O  O67  1  0.617803  0.106061  0.101205  1
  O  O68  1  0.362059  0.166823  0.553136  1
  O  O69  1  0.653980  0.067732  0.313262  1
  O  O70  1  0.820552  0.866309  0.672026  1
  O  O71  1  0.097354  0.583911  0.194437  1
