# generated using pymatgen
data_Gd
_symmetry_space_group_name_H-M   'P 1'
_cell_length_a   8.88299909
_cell_length_b   8.88299894
_cell_length_c   8.88299866
_cell_angle_alpha   23.25118700
_cell_angle_beta   23.25118924
_cell_angle_gamma   23.25118897
_symmetry_Int_Tables_number   1
_chemical_formula_structural   Gd
_chemical_formula_sum   Gd3
_cell_volume   95.89559044
_cell_formula_units_Z   3
loop_
 _symmetry_equiv_pos_site_id
 _symmetry_equiv_pos_as_xyz
  1  'x, y, z'
loop_
 _atom_site_type_symbol
 _atom_site_label
 _atom_site_symmetry_multiplicity
 _atom_site_fract_x
 _atom_site_fract_y
 _atom_site_fract_z
 _atom_site_occupancy
  Gd  Gd0  1  0.000000  0.000000  0.000000  1
  Gd  Gd1  1  0.221969  0.221969  0.221969  1
  Gd  Gd2  1  0.778031  0.778031  0.778031  1
