# generated using pymatgen
data_Al45V7
_symmetry_space_group_name_H-M   'P 1'
_cell_length_a   7.60321681
_cell_length_b   11.08407523
_cell_length_c   11.10571162
_cell_angle_alpha   105.92151157
_cell_angle_beta   110.00685321
_cell_angle_gamma   90.00256836
_symmetry_Int_Tables_number   1
_chemical_formula_structural   Al45V7
_chemical_formula_sum   'Al45 V7'
_cell_volume   841.13231642
_cell_formula_units_Z   1
loop_
 _symmetry_equiv_pos_site_id
 _symmetry_equiv_pos_as_xyz
  1  'x, y, z'
loop_
 _atom_site_type_symbol
 _atom_site_label
 _atom_site_symmetry_multiplicity
 _atom_site_fract_x
 _atom_site_fract_y
 _atom_site_fract_z
 _atom_site_occupancy
  Al  Al0  1  0.386533  0.989639  0.137474  1
  Al  Al1  1  0.613467  0.010361  0.862526  1
  Al  Al2  1  0.249133  0.010342  0.862535  1
  Al  Al3  1  0.149389  0.376833  0.909270  1
  Al  Al4  1  0.707220  0.489640  0.414338  1
  Al  Al5  1  0.365391  0.351648  0.360943  1
  Al  Al6  1  0.240143  0.623266  0.090687  1
  Al  Al7  1  0.777662  0.794400  0.928239  1
  Al  Al8  1  0.141513  0.143731  0.669933  1
  Al  Al9  1  0.520046  0.132761  0.411162  1
  Al  Al10  1  0.528652  0.143847  0.670149  1
  Al  Al11  1  0.471348  0.856153  0.329852  1
  Al  Al12  1  0.625055  0.638272  0.250013  1
  Al  Al13  1  0.625740  0.378146  0.620038  1
  Al  Al14  1  0.890902  0.132953  0.411122  1
  Al  Al15  1  0.871220  0.887165  0.742542  1
  Al  Al16  1  0.128780  0.112835  0.257458  1
  Al  Al17  1  0.479396  0.243199  0.958548  1
  Al  Al18  1  0.775312  0.007775  0.550718  1
  Al  Al19  1  0.005714  0.621767  0.380117  1
  Al  Al20  1  0.858487  0.856269  0.330068  1
  Al  Al21  1  0.634609  0.648352  0.639057  1
  Al  Al22  1  0.384423  0.772059  0.768849  1
  Al  Al23  1  0.994286  0.378233  0.619883  1
  Al  Al24  1  0.090361  0.845477  0.180916  1
  Al  Al25  1  0.222338  0.205600  0.071761  1
  Al  Al26  1  0.374945  0.361728  0.749987  1
  Al  Al27  1  0.520604  0.756801  0.041452  1
  Al  Al28  1  0.082716  0.442030  0.165143  1
  Al  Al29  1  0.615577  0.227941  0.231151  1
  Al  Al30  1  0.500000  0.500000  0.000000  1
  Al  Al31  1  0.850611  0.623167  0.090730  1
  Al  Al32  1  0.224688  0.992225  0.449282  1
  Al  Al33  1  0.374260  0.621854  0.379962  1
  Al  Al34  1  0.750867  0.989658  0.137465  1
  Al  Al35  1  0.995638  0.351909  0.361035  1
  Al  Al36  1  0.150357  0.794369  0.927983  1
  Al  Al37  1  0.759857  0.376734  0.909313  1
  Al  Al38  1  0.917284  0.557970  0.834857  1
  Al  Al39  1  0.909639  0.154523  0.819084  1
  Al  Al40  1  0.109098  0.867047  0.588878  1
  Al  Al41  1  0.292780  0.510360  0.585662  1
  Al  Al42  1  0.849643  0.205631  0.072017  1
  Al  Al43  1  0.004362  0.648091  0.638965  1
  Al  Al44  1  0.479954  0.867239  0.588838  1
  V  V45  1  0.748995  0.760543  0.497979  1
  V  V46  1  0.755771  0.419061  0.171591  1
  V  V47  1  0.244229  0.580939  0.828409  1
  V  V48  1  0.251005  0.239457  0.502021  1
  V  V49  1  0.416159  0.418962  0.171836  1
  V  V50  1  0.000000  0.000000  0.000000  1
  V  V51  1  0.583841  0.581038  0.828164  1
