# generated using pymatgen
data_SrFeP(O2F)2
_symmetry_space_group_name_H-M   'P 1'
_cell_length_a   5.26642379
_cell_length_b   7.14007812
_cell_length_c   12.44168429
_cell_angle_alpha   90.00000000
_cell_angle_beta   90.00000000
_cell_angle_gamma   103.27630002
_symmetry_Int_Tables_number   1
_chemical_formula_structural   SrFeP(O2F)2
_chemical_formula_sum   'Sr4 Fe4 P4 O16 F8'
_cell_volume   455.33710550
_cell_formula_units_Z   4
loop_
 _symmetry_equiv_pos_site_id
 _symmetry_equiv_pos_as_xyz
  1  'x, y, z'
loop_
 _atom_site_type_symbol
 _atom_site_label
 _atom_site_symmetry_multiplicity
 _atom_site_fract_x
 _atom_site_fract_y
 _atom_site_fract_z
 _atom_site_occupancy
  Sr  Sr0  1  0.457961  0.312471  0.206228  1
  Sr  Sr1  1  0.542039  0.687529  0.793772  1
  Sr  Sr2  1  0.042039  0.187529  0.706228  1
  Sr  Sr3  1  0.957961  0.812471  0.293772  1
  Fe  Fe4  1  0.000000  0.000000  0.000000  1
  Fe  Fe5  1  0.500000  0.500000  0.500000  1
  Fe  Fe6  1  0.500000  0.000000  0.500000  1
  Fe  Fe7  1  0.000000  0.500000  0.000000  1
  P  P8  1  0.934315  0.304754  0.385227  1
  P  P9  1  0.565685  0.195246  0.885227  1
  P  P10  1  0.065685  0.695246  0.614773  1
  P  P11  1  0.434315  0.804754  0.114773  1
  O  O12  1  0.238059  0.942227  0.122759  1
  O  O13  1  0.925942  0.188643  0.281639  1
  O  O14  1  0.074058  0.811357  0.718361  1
  O  O15  1  0.738059  0.442227  0.377241  1
  O  O16  1  0.788594  0.564669  0.600644  1
  O  O17  1  0.853749  0.171783  0.484909  1
  O  O18  1  0.646251  0.328217  0.984909  1
  O  O19  1  0.288594  0.064669  0.899356  1
  O  O20  1  0.425942  0.688643  0.218361  1
  O  O21  1  0.761941  0.057773  0.877241  1
  O  O22  1  0.353749  0.671783  0.015091  1
  O  O23  1  0.211406  0.435331  0.399356  1
  O  O24  1  0.146251  0.828217  0.515091  1
  O  O25  1  0.261941  0.557773  0.622759  1
  O  O26  1  0.574058  0.311357  0.781639  1
  O  O27  1  0.711406  0.935331  0.100644  1
  F  F28  1  0.881780  0.550825  0.144735  1
  F  F29  1  0.618220  0.949175  0.644735  1
  F  F30  1  0.388265  0.228238  0.559365  1
  F  F31  1  0.381780  0.050825  0.355265  1
  F  F32  1  0.118220  0.449175  0.855265  1
  F  F33  1  0.888265  0.728238  0.940635  1
  F  F34  1  0.111735  0.271762  0.059365  1
  F  F35  1  0.611735  0.771762  0.440635  1
