# generated using pymatgen
data_Sr2IN
_symmetry_space_group_name_H-M   'P 1'
_cell_length_a   8.17158570
_cell_length_b   8.17158608
_cell_length_c   8.17158615
_cell_angle_alpha   28.56820112
_cell_angle_beta   28.56819669
_cell_angle_gamma   28.56820054
_symmetry_Int_Tables_number   1
_chemical_formula_structural   Sr2IN
_chemical_formula_sum   'Sr2 I1 N1'
_cell_volume   110.29912264
_cell_formula_units_Z   1
loop_
 _symmetry_equiv_pos_site_id
 _symmetry_equiv_pos_as_xyz
  1  'x, y, z'
loop_
 _atom_site_type_symbol
 _atom_site_label
 _atom_site_symmetry_multiplicity
 _atom_site_fract_x
 _atom_site_fract_y
 _atom_site_fract_z
 _atom_site_occupancy
  Sr  Sr0  1  0.223002  0.223002  0.223002  1
  Sr  Sr1  1  0.776998  0.776998  0.776998  1
  I  I2  1  0.000000  0.000000  0.000000  1
  N  N3  1  0.500000  0.500000  0.500000  1
