# generated using pymatgen
data_Cs4Sb2O5
_symmetry_space_group_name_H-M   'P 1'
_cell_length_a   6.50075299
_cell_length_b   6.50075293
_cell_length_c   8.28712139
_cell_angle_alpha   83.47476952
_cell_angle_beta   83.47476956
_cell_angle_gamma   65.76411065
_symmetry_Int_Tables_number   1
_chemical_formula_structural   Cs4Sb2O5
_chemical_formula_sum   'Cs4 Sb2 O5'
_cell_volume   316.40805050
_cell_formula_units_Z   1
loop_
 _symmetry_equiv_pos_site_id
 _symmetry_equiv_pos_as_xyz
  1  'x, y, z'
loop_
 _atom_site_type_symbol
 _atom_site_label
 _atom_site_symmetry_multiplicity
 _atom_site_fract_x
 _atom_site_fract_y
 _atom_site_fract_z
 _atom_site_occupancy
  Cs  Cs0  1  0.994836  0.994836  0.004483  1
  Cs  Cs1  1  1.000317  1.000317  0.500379  1
  Cs  Cs2  1  0.336504  0.336504  0.153261  1
  Cs  Cs3  1  0.665613  0.665613  0.846481  1
  Sb  Sb4  1  0.353514  0.353514  0.671779  1
  Sb  Sb5  1  0.647954  0.647954  0.330033  1
  O  O6  1  0.196883  0.625672  0.787491  1
  O  O7  1  0.835870  0.408749  0.191030  1
  O  O8  1  0.408749  0.835870  0.191030  1
  O  O9  1  0.625672  0.196883  0.787491  1
  O  O10  1  0.477168  0.477168  0.465260  1
