# generated using pymatgen
data_Al2Tl3(PO4)3
_symmetry_space_group_name_H-M   'P 1'
_cell_length_a   6.22303930
_cell_length_b   10.54622139
_cell_length_c   18.06112031
_cell_angle_alpha   90.00000000
_cell_angle_beta   90.00000000
_cell_angle_gamma   90.00000000
_symmetry_Int_Tables_number   1
_chemical_formula_structural   Al2Tl3(PO4)3
_chemical_formula_sum   'Al8 Tl12 P12 O48'
_cell_volume   1185.34320163
_cell_formula_units_Z   4
loop_
 _symmetry_equiv_pos_site_id
 _symmetry_equiv_pos_as_xyz
  1  'x, y, z'
loop_
 _atom_site_type_symbol
 _atom_site_label
 _atom_site_symmetry_multiplicity
 _atom_site_fract_x
 _atom_site_fract_y
 _atom_site_fract_z
 _atom_site_occupancy
  Al  Al0  1  0.239590  0.582983  0.454355  1
  Al  Al1  1  0.245714  0.583072  0.788669  1
  Al  Al2  1  0.260410  0.082983  0.954355  1
  Al  Al3  1  0.754286  0.416928  0.288669  1
  Al  Al4  1  0.739590  0.917017  0.454355  1
  Al  Al5  1  0.760410  0.417017  0.954355  1
  Al  Al6  1  0.745714  0.916928  0.788669  1
  Al  Al7  1  0.254286  0.083072  0.288669  1
  Tl  Tl8  1  0.761807  0.341914  0.512865  1
  Tl  Tl9  1  0.231078  0.359434  0.121323  1
  Tl  Tl10  1  0.261807  0.158086  0.512865  1
  Tl  Tl11  1  0.268922  0.859434  0.621323  1
  Tl  Tl12  1  0.760211  0.340182  0.729523  1
  Tl  Tl13  1  0.239789  0.659818  0.229523  1
  Tl  Tl14  1  0.238193  0.658086  0.012865  1
  Tl  Tl15  1  0.260211  0.159818  0.729523  1
  Tl  Tl16  1  0.738193  0.841914  0.012865  1
  Tl  Tl17  1  0.768922  0.640566  0.621323  1
  Tl  Tl18  1  0.739789  0.840182  0.229523  1
  Tl  Tl19  1  0.731078  0.140566  0.121323  1
  P  P20  1  0.245618  0.872667  0.411814  1
  P  P21  1  0.238867  0.993760  0.121663  1
  P  P22  1  0.254382  0.372667  0.911814  1
  P  P23  1  0.745618  0.627333  0.411814  1
  P  P24  1  0.261133  0.493760  0.621663  1
  P  P25  1  0.747693  0.126983  0.331184  1
  P  P26  1  0.252307  0.873017  0.831184  1
  P  P27  1  0.752307  0.626983  0.831184  1
  P  P28  1  0.247693  0.373017  0.331184  1
  P  P29  1  0.761133  0.006240  0.621663  1
  P  P30  1  0.738867  0.506240  0.121663  1
  P  P31  1  0.754382  0.127333  0.911814  1
  O  O32  1  0.957356  0.074568  0.949531  1
  O  O33  1  0.235500  0.727536  0.400412  1
  O  O34  1  0.243306  0.087000  0.054022  1
  O  O35  1  0.067365  0.409512  0.964553  1
  O  O36  1  0.031040  0.913966  0.120939  1
  O  O37  1  0.785359  0.569925  0.909482  1
  O  O38  1  0.439193  0.910096  0.778610  1
  O  O39  1  0.554605  0.087534  0.622604  1
  O  O40  1  0.214641  0.430075  0.409482  1
  O  O41  1  0.714641  0.069926  0.409482  1
  O  O42  1  0.256694  0.587000  0.554022  1
  O  O43  1  0.468960  0.413966  0.620939  1
  O  O44  1  0.778755  0.569839  0.333680  1
  O  O45  1  0.531040  0.586034  0.120939  1
  O  O46  1  0.721245  0.069839  0.833680  1
  O  O47  1  0.560807  0.089904  0.278610  1
  O  O48  1  0.450946  0.425873  0.293607  1
  O  O49  1  0.042644  0.925432  0.449531  1
  O  O50  1  0.221245  0.430161  0.833680  1
  O  O51  1  0.060807  0.410096  0.278610  1
  O  O52  1  0.457356  0.425432  0.949531  1
  O  O53  1  0.567365  0.090488  0.964553  1
  O  O54  1  0.945395  0.587534  0.122604  1
  O  O55  1  0.764500  0.272464  0.900412  1
  O  O56  1  0.950946  0.074127  0.293607  1
  O  O57  1  0.264500  0.227536  0.900412  1
  O  O58  1  0.237156  0.087666  0.188987  1
  O  O59  1  0.549054  0.574127  0.793607  1
  O  O60  1  0.742110  0.772192  0.842416  1
  O  O61  1  0.756694  0.913000  0.554022  1
  O  O62  1  0.262844  0.587666  0.688987  1
  O  O63  1  0.242110  0.727808  0.842416  1
  O  O64  1  0.257890  0.227808  0.342416  1
  O  O65  1  0.735500  0.772464  0.400412  1
  O  O66  1  0.542644  0.574568  0.449531  1
  O  O67  1  0.432635  0.909512  0.464553  1
  O  O68  1  0.445395  0.912466  0.122604  1
  O  O69  1  0.968960  0.086034  0.620939  1
  O  O70  1  0.049054  0.925873  0.793607  1
  O  O71  1  0.054605  0.412466  0.622604  1
  O  O72  1  0.737156  0.412334  0.188987  1
  O  O73  1  0.932635  0.590488  0.464553  1
  O  O74  1  0.285359  0.930075  0.909482  1
  O  O75  1  0.757890  0.272192  0.342416  1
  O  O76  1  0.939193  0.589904  0.778610  1
  O  O77  1  0.278755  0.930161  0.333680  1
  O  O78  1  0.743306  0.413000  0.054022  1
  O  O79  1  0.762844  0.912334  0.688987  1
