# generated using pymatgen
data_Na2S2O3
_symmetry_space_group_name_H-M   'P 1'
_cell_length_a   8.07325925
_cell_length_b   10.80937417
_cell_length_c   16.08266765
_cell_angle_alpha   90.00000000
_cell_angle_beta   90.00000000
_cell_angle_gamma   90.00000000
_symmetry_Int_Tables_number   1
_chemical_formula_structural   Na2S2O3
_chemical_formula_sum   'Na24 S24 O36'
_cell_volume   1403.48422797
_cell_formula_units_Z   12
loop_
 _symmetry_equiv_pos_site_id
 _symmetry_equiv_pos_as_xyz
  1  'x, y, z'
loop_
 _atom_site_type_symbol
 _atom_site_label
 _atom_site_symmetry_multiplicity
 _atom_site_fract_x
 _atom_site_fract_y
 _atom_site_fract_z
 _atom_site_occupancy
  Na  Na0  1  0.702596  0.985407  0.878667  1
  Na  Na1  1  0.788650  0.455643  0.863255  1
  Na  Na2  1  0.944793  0.751938  0.015923  1
  Na  Na3  1  0.788650  0.955643  0.636745  1
  Na  Na4  1  0.951635  0.749970  0.454879  1
  Na  Na5  1  0.584630  0.259084  0.233611  1
  Na  Na6  1  0.951635  0.249970  0.045121  1
  Na  Na7  1  0.944793  0.251938  0.484077  1
  Na  Na8  1  0.288650  0.044357  0.363255  1
  Na  Na9  1  0.084630  0.740916  0.766389  1
  Na  Na10  1  0.084630  0.240916  0.733611  1
  Na  Na11  1  0.881524  0.486538  0.249606  1
  Na  Na12  1  0.202596  0.514593  0.378667  1
  Na  Na13  1  0.288650  0.544357  0.136745  1
  Na  Na14  1  0.202596  0.014593  0.121333  1
  Na  Na15  1  0.451635  0.750030  0.954879  1
  Na  Na16  1  0.381524  0.013462  0.749606  1
  Na  Na17  1  0.381524  0.513462  0.750394  1
  Na  Na18  1  0.451635  0.250030  0.545121  1
  Na  Na19  1  0.444793  0.748062  0.515923  1
  Na  Na20  1  0.702596  0.485407  0.621333  1
  Na  Na21  1  0.444793  0.248062  0.984077  1
  Na  Na22  1  0.584630  0.759084  0.266389  1
  Na  Na23  1  0.881524  0.986538  0.250394  1
  S  S24  1  0.661780  0.221255  0.739145  1
  S  S25  1  0.161780  0.278745  0.239145  1
  S  S26  1  0.231768  0.984907  0.933559  1
  S  S27  1  0.635566  0.126054  0.411205  1
  S  S28  1  0.066462  0.994365  0.838724  1
  S  S29  1  0.456400  0.274704  0.803127  1
  S  S30  1  0.066462  0.494365  0.661276  1
  S  S31  1  0.956400  0.225296  0.303127  1
  S  S32  1  0.731768  0.515093  0.433559  1
  S  S33  1  0.161780  0.778745  0.260855  1
  S  S34  1  0.661780  0.721255  0.760855  1
  S  S35  1  0.647146  0.440507  0.077467  1
  S  S36  1  0.731768  0.015093  0.066441  1
  S  S37  1  0.231768  0.484907  0.566441  1
  S  S38  1  0.456400  0.774704  0.696873  1
  S  S39  1  0.647146  0.940507  0.422533  1
  S  S40  1  0.135566  0.873946  0.588795  1
  S  S41  1  0.566462  0.005635  0.161276  1
  S  S42  1  0.147146  0.059493  0.577467  1
  S  S43  1  0.135566  0.373946  0.911205  1
  S  S44  1  0.956400  0.725296  0.196873  1
  S  S45  1  0.566462  0.505635  0.338724  1
  S  S46  1  0.635566  0.626054  0.088795  1
  S  S47  1  0.147146  0.559493  0.922533  1
  O  O48  1  0.810043  0.774652  0.719428  1
  O  O49  1  0.225108  0.600757  0.516493  1
  O  O50  1  0.151613  0.235673  0.151764  1
  O  O51  1  0.987267  0.114611  0.607041  1
  O  O52  1  0.668099  0.082180  0.742553  1
  O  O53  1  0.674733  0.405864  0.989300  1
  O  O54  1  0.674733  0.905864  0.510700  1
  O  O55  1  0.668099  0.582180  0.757447  1
  O  O56  1  0.284422  0.609384  0.869764  1
  O  O57  1  0.174733  0.094136  0.489300  1
  O  O58  1  0.310043  0.725348  0.219428  1
  O  O59  1  0.487267  0.385389  0.107041  1
  O  O60  1  0.284422  0.109384  0.630236  1
  O  O61  1  0.899098  0.533117  0.396260  1
  O  O62  1  0.899098  0.033117  0.103740  1
  O  O63  1  0.784422  0.390616  0.130236  1
  O  O64  1  0.174733  0.594136  0.010700  1
  O  O65  1  0.168099  0.417820  0.242553  1
  O  O66  1  0.692565  0.122719  0.011680  1
  O  O67  1  0.692565  0.622719  0.488320  1
  O  O68  1  0.725108  0.399243  0.483507  1
  O  O69  1  0.151613  0.735673  0.348236  1
  O  O70  1  0.310043  0.225348  0.280572  1
  O  O71  1  0.725108  0.899243  0.016493  1
  O  O72  1  0.192565  0.377281  0.511680  1
  O  O73  1  0.399098  0.466883  0.603740  1
  O  O74  1  0.168099  0.917820  0.257447  1
  O  O75  1  0.651613  0.764327  0.848236  1
  O  O76  1  0.192565  0.877281  0.988320  1
  O  O77  1  0.225108  0.100757  0.983507  1
  O  O78  1  0.399098  0.966883  0.896260  1
  O  O79  1  0.651613  0.264327  0.651764  1
  O  O80  1  0.487267  0.885389  0.392959  1
  O  O81  1  0.784422  0.890616  0.369764  1
  O  O82  1  0.987267  0.614611  0.892959  1
  O  O83  1  0.810043  0.274652  0.780572  1
