# generated using pymatgen
data_ZnS
_symmetry_space_group_name_H-M   'P 1'
_cell_length_a   25.28356787
_cell_length_b   25.28356780
_cell_length_c   25.28356842
_cell_angle_alpha   8.74246979
_cell_angle_beta   8.74247085
_cell_angle_gamma   8.74246997
_symmetry_Int_Tables_number   1
_chemical_formula_structural   ZnS
_chemical_formula_sum   'Zn8 S8'
_cell_volume   323.99439907
_cell_formula_units_Z   8
loop_
 _symmetry_equiv_pos_site_id
 _symmetry_equiv_pos_as_xyz
  1  'x, y, z'
loop_
 _atom_site_type_symbol
 _atom_site_label
 _atom_site_symmetry_multiplicity
 _atom_site_fract_x
 _atom_site_fract_y
 _atom_site_fract_z
 _atom_site_occupancy
  Zn  Zn0  1  0.541679  0.541679  0.541679  1
  Zn  Zn1  1  0.000019  0.000019  0.000019  1
  Zn  Zn2  1  0.458347  0.458347  0.458347  1
  Zn  Zn3  1  0.833350  0.833350  0.833350  1
  Zn  Zn4  1  0.625020  0.625020  0.625020  1
  Zn  Zn5  1  0.916682  0.916682  0.916682  1
  Zn  Zn6  1  0.750003  0.750003  0.750003  1
  Zn  Zn7  1  0.375011  0.375011  0.375011  1
  S  S8  1  0.656261  0.656261  0.656261  1
  S  S9  1  0.572900  0.572900  0.572900  1
  S  S10  1  0.489569  0.489569  0.489569  1
  S  S11  1  0.864571  0.864571  0.864571  1
  S  S12  1  0.781235  0.781235  0.781235  1
  S  S13  1  0.406217  0.406217  0.406217  1
  S  S14  1  0.031238  0.031238  0.031238  1
  S  S15  1  0.947904  0.947904  0.947904  1
