# generated using pymatgen
data_Ge8Pd21
_symmetry_space_group_name_H-M   'P 1'
_cell_length_a   10.17223354
_cell_length_b   10.68359455
_cell_length_c   10.67853931
_cell_angle_alpha   76.89567675
_cell_angle_beta   61.57543690
_cell_angle_gamma   61.56094318
_symmetry_Int_Tables_number   1
_chemical_formula_structural   Ge8Pd21
_chemical_formula_sum   'Ge16 Pd42'
_cell_volume   897.43510115
_cell_formula_units_Z   2
loop_
 _symmetry_equiv_pos_site_id
 _symmetry_equiv_pos_as_xyz
  1  'x, y, z'
loop_
 _atom_site_type_symbol
 _atom_site_label
 _atom_site_symmetry_multiplicity
 _atom_site_fract_x
 _atom_site_fract_y
 _atom_site_fract_z
 _atom_site_occupancy
  Ge  Ge0  1  0.566519  0.030742  0.778054  1
  Ge  Ge1  1  0.726109  0.643543  0.550315  1
  Ge  Ge2  1  0.655424  0.277988  0.969351  1
  Ge  Ge3  1  0.433481  0.969258  0.221946  1
  Ge  Ge4  1  0.080294  0.143278  0.050433  1
  Ge  Ge5  1  0.130377  0.449473  0.143399  1
  Ge  Ge6  1  0.869623  0.550527  0.856601  1
  Ge  Ge7  1  0.919706  0.856722  0.949567  1
  Ge  Ge8  1  0.276558  0.949531  0.643398  1
  Ge  Ge9  1  0.097136  0.778060  0.469515  1
  Ge  Ge10  1  0.273891  0.356457  0.449685  1
  Ge  Ge11  1  0.723442  0.050469  0.356602  1
  Ge  Ge12  1  0.344576  0.722012  0.030649  1
  Ge  Ge13  1  0.375268  0.469428  0.722030  1
  Ge  Ge14  1  0.624732  0.530572  0.277970  1
  Ge  Ge15  1  0.902864  0.221940  0.530485  1
  Pd  Pd16  1  0.017478  0.406297  0.412290  1
  Pd  Pd17  1  0.831143  0.232278  0.325772  1
  Pd  Pd18  1  0.157031  0.174350  0.232061  1
  Pd  Pd19  1  0.388980  0.268078  0.174336  1
  Pd  Pd20  1  0.570400  0.912192  0.593681  1
  Pd  Pd21  1  0.605987  0.516704  0.043574  1
  Pd  Pd22  1  0.933387  0.284782  0.892798  1
  Pd  Pd23  1  0.833530  0.016688  0.543830  1
  Pd  Pd24  1  0.173841  0.392887  0.715303  1
  Pd  Pd25  1  0.236169  0.559902  0.274022  1
  Pd  Pd26  1  0.394013  0.483296  0.956426  1
  Pd  Pd27  1  0.296146  0.273967  0.940042  1
  Pd  Pd28  1  0.510114  0.225975  0.559994  1
  Pd  Pd29  1  0.436682  0.674203  0.732162  1
  Pd  Pd30  1  0.929972  0.059660  0.773687  1
  Pd  Pd31  1  0.889081  0.784964  0.392800  1
  Pd  Pd32  1  0.281895  0.107003  0.784930  1
  Pd  Pd33  1  0.923529  0.412307  0.093639  1
  Pd  Pd34  1  0.982522  0.593703  0.587710  1
  Pd  Pd35  1  0.350336  0.543592  0.483299  1
  Pd  Pd36  1  0.763831  0.440098  0.725978  1
  Pd  Pd37  1  0.649664  0.456408  0.516701  1
  Pd  Pd38  1  0.718105  0.892997  0.215069  1
  Pd  Pd39  1  0.842969  0.825650  0.767939  1
  Pd  Pd40  1  0.066613  0.715218  0.107202  1
  Pd  Pd41  1  0.611020  0.731922  0.825664  1
  Pd  Pd42  1  0.836073  0.093851  0.087782  1
  Pd  Pd43  1  0.163927  0.906149  0.912218  1
  Pd  Pd44  1  0.625057  0.250043  0.749939  1
  Pd  Pd45  1  0.166470  0.983312  0.456170  1
  Pd  Pd46  1  0.377527  0.956037  0.016724  1
  Pd  Pd47  1  0.703854  0.726033  0.059958  1
  Pd  Pd48  1  0.563318  0.325797  0.267838  1
  Pd  Pd49  1  0.622473  0.043963  0.983276  1
  Pd  Pd50  1  0.070028  0.940340  0.226313  1
  Pd  Pd51  1  0.110919  0.215036  0.607200  1
  Pd  Pd52  1  0.076471  0.587693  0.906361  1
  Pd  Pd53  1  0.168857  0.767722  0.674228  1
  Pd  Pd54  1  0.429600  0.087808  0.406319  1
  Pd  Pd55  1  0.374943  0.749957  0.250061  1
  Pd  Pd56  1  0.489886  0.774025  0.440006  1
  Pd  Pd57  1  0.826159  0.607113  0.284697  1
