# generated using pymatgen
data_P2SN3Cl5O
_symmetry_space_group_name_H-M   'P 1'
_cell_length_a   7.94727316
_cell_length_b   8.86119821
_cell_length_c   17.26615200
_cell_angle_alpha   90.00000000
_cell_angle_beta   90.00000000
_cell_angle_gamma   90.00000000
_symmetry_Int_Tables_number   1
_chemical_formula_structural   P2SN3Cl5O
_chemical_formula_sum   'P8 S4 N12 Cl20 O4'
_cell_volume   1215.92321857
_cell_formula_units_Z   4
loop_
 _symmetry_equiv_pos_site_id
 _symmetry_equiv_pos_as_xyz
  1  'x, y, z'
loop_
 _atom_site_type_symbol
 _atom_site_label
 _atom_site_symmetry_multiplicity
 _atom_site_fract_x
 _atom_site_fract_y
 _atom_site_fract_z
 _atom_site_occupancy
  P  P0  1  0.312182  0.296699  0.119688  1
  P  P1  1  0.912322  0.953784  0.287781  1
  P  P2  1  0.687818  0.796699  0.380312  1
  P  P3  1  0.187818  0.703301  0.619688  1
  P  P4  1  0.412322  0.546216  0.712219  1
  P  P5  1  0.087678  0.453784  0.212219  1
  P  P6  1  0.812182  0.203301  0.880312  1
  P  P7  1  0.587678  0.046216  0.787781  1
  S  S8  1  0.176994  0.390637  0.624150  1
  S  S9  1  0.823006  0.890637  0.875850  1
  S  S10  1  0.676994  0.109363  0.375850  1
  S  S11  1  0.323006  0.609363  0.124150  1
  N  N12  1  0.306223  0.394944  0.692516  1
  N  N13  1  0.151369  0.300292  0.174367  1
  N  N14  1  0.409487  0.454719  0.104888  1
  N  N15  1  0.651369  0.199708  0.825633  1
  N  N16  1  0.193777  0.605056  0.192516  1
  N  N17  1  0.590513  0.954719  0.395112  1
  N  N18  1  0.090513  0.545281  0.604888  1
  N  N19  1  0.848631  0.800292  0.325633  1
  N  N20  1  0.693777  0.894944  0.807484  1
  N  N21  1  0.806223  0.105056  0.307484  1
  N  N22  1  0.909487  0.045281  0.895112  1
  N  N23  1  0.348631  0.699708  0.674367  1
  Cl  Cl24  1  0.748042  0.297353  0.981856  1
  Cl  Cl25  1  0.180433  0.662053  0.025791  1
  Cl  Cl26  1  0.014953  0.846280  0.660039  1
  Cl  Cl27  1  0.819567  0.162053  0.474209  1
  Cl  Cl28  1  0.154669  0.983660  0.315461  1
  Cl  Cl29  1  0.751958  0.702647  0.481856  1
  Cl  Cl30  1  0.654669  0.516340  0.684539  1
  Cl  Cl31  1  0.845331  0.483660  0.184539  1
  Cl  Cl32  1  0.915351  0.938084  0.172513  1
  Cl  Cl33  1  0.680433  0.837947  0.974209  1
  Cl  Cl34  1  0.485047  0.153720  0.160039  1
  Cl  Cl35  1  0.251958  0.797353  0.518144  1
  Cl  Cl36  1  0.345331  0.016340  0.815461  1
  Cl  Cl37  1  0.415351  0.561916  0.827487  1
  Cl  Cl38  1  0.985047  0.346280  0.839961  1
  Cl  Cl39  1  0.248042  0.202647  0.018144  1
  Cl  Cl40  1  0.514953  0.653720  0.339961  1
  Cl  Cl41  1  0.084649  0.438084  0.327487  1
  Cl  Cl42  1  0.584649  0.061916  0.672513  1
  Cl  Cl43  1  0.319567  0.337947  0.525791  1
  O  O44  1  0.558131  0.229979  0.368513  1
  O  O45  1  0.058131  0.270021  0.631487  1
  O  O46  1  0.941869  0.770021  0.868513  1
  O  O47  1  0.441869  0.729979  0.131487  1
