# generated using pymatgen
data_SrAlH5
_symmetry_space_group_name_H-M   'P 1'
_cell_length_a   12.67900000
_cell_length_b   5.20000000
_cell_length_c   4.50800000
_cell_angle_alpha   90.00000000
_cell_angle_beta   90.00000000
_cell_angle_gamma   90.00000000
_symmetry_Int_Tables_number   1
_chemical_formula_structural   SrAlH5
_chemical_formula_sum   'Sr4 Al4 H20'
_cell_volume   297.21604640
_cell_formula_units_Z   4
loop_
 _symmetry_equiv_pos_site_id
 _symmetry_equiv_pos_as_xyz
  1  'x, y, z'
loop_
 _atom_site_type_symbol
 _atom_site_label
 _atom_site_symmetry_multiplicity
 _atom_site_fract_x
 _atom_site_fract_y
 _atom_site_fract_z
 _atom_site_occupancy
  Sr  Sr0  1  0.092000  0.604000  0.464000  1
  Sr  Sr1  1  0.408000  0.396000  0.964000  1
  Sr  Sr2  1  0.592000  0.896000  0.536000  1
  Sr  Sr3  1  0.908000  0.104000  0.036000  1
  Al  Al4  1  0.835000  0.617000  0.429000  1
  Al  Al5  1  0.665000  0.383000  0.929000  1
  Al  Al6  1  0.335000  0.883000  0.571000  1
  Al  Al7  1  0.165000  0.117000  0.071000  1
  H  H8  1  0.237000  0.359000  0.222000  1
  H  H9  1  0.263000  0.641000  0.722000  1
  H  H10  1  0.737000  0.141000  0.778000  1
  H  H11  1  0.763000  0.859000  0.278000  1
  H  H12  1  0.922000  0.837000  0.582000  1
  H  H13  1  0.578000  0.163000  0.082000  1
  H  H14  1  0.422000  0.663000  0.418000  1
  H  H15  1  0.078000  0.337000  0.918000  1
  H  H16  1  0.907000  0.360000  0.555000  1
  H  H17  1  0.593000  0.640000  0.055000  1
  H  H18  1  0.407000  0.140000  0.445000  1
  H  H19  1  0.093000  0.860000  0.945000  1
  H  H20  1  0.921000  0.614000  0.126000  1
  H  H21  1  0.579000  0.386000  0.626000  1
  H  H22  1  0.421000  0.886000  0.874000  1
  H  H23  1  0.079000  0.114000  0.374000  1
  H  H24  1  0.746000  0.616000  0.732000  1
  H  H25  1  0.754000  0.384000  0.232000  1
  H  H26  1  0.246000  0.884000  0.268000  1
  H  H27  1  0.254000  0.116000  0.768000  1
