# generated using pymatgen
data_KAlSiO4
_symmetry_space_group_name_H-M   'P 1'
_cell_length_a   8.68051328
_cell_length_b   9.17007001
_cell_length_c   15.89870584
_cell_angle_alpha   90.00000000
_cell_angle_beta   89.79058729
_cell_angle_gamma   90.00000000
_symmetry_Int_Tables_number   1
_chemical_formula_structural   KAlSiO4
_chemical_formula_sum   'K12 Al12 Si12 O48'
_cell_volume   1265.54307083
_cell_formula_units_Z   12
loop_
 _symmetry_equiv_pos_site_id
 _symmetry_equiv_pos_as_xyz
  1  'x, y, z'
loop_
 _atom_site_type_symbol
 _atom_site_label
 _atom_site_symmetry_multiplicity
 _atom_site_fract_x
 _atom_site_fract_y
 _atom_site_fract_z
 _atom_site_occupancy
  K  K0  1  0.245518  -0.000018  0.938487  1
  K  K1  1  0.747772  0.003544  0.548400  1
  K  K2  1  0.746244  0.983225  0.891901  1
  K  K3  1  0.752012  0.969501  0.293661  1
  K  K4  1  0.247988  0.469501  0.706339  1
  K  K5  1  0.247707  0.012964  0.604515  1
  K  K6  1  0.252228  0.503544  0.451600  1
  K  K7  1  0.746837  0.530521  0.792034  1
  K  K8  1  0.752293  0.512964  0.395485  1
  K  K9  1  0.754482  0.499982  0.061513  1
  K  K10  1  0.253163  0.030521  0.207966  1
  K  K11  1  0.253756  0.483225  0.108099  1
  Al  Al12  1  0.562708  0.342478  0.563346  1
  Al  Al13  1  0.435081  0.334362  0.887328  1
  Al  Al14  1  0.938574  0.164883  0.055211  1
  Al  Al15  1  0.564919  0.834362  0.112672  1
  Al  Al16  1  0.065376  0.657166  0.274566  1
  Al  Al17  1  0.061426  0.664883  0.944789  1
  Al  Al18  1  0.437292  0.842478  0.436654  1
  Al  Al19  1  0.433204  0.823439  0.768710  1
  Al  Al20  1  0.932933  0.674353  0.600396  1
  Al  Al21  1  0.067067  0.174353  0.399604  1
  Al  Al22  1  0.934624  0.157166  0.725434  1
  Al  Al23  1  0.566796  0.323439  0.231290  1
  Si  Si24  1  0.056488  0.822895  0.769424  1
  Si  Si25  1  0.443626  0.174982  0.400370  1
  Si  Si26  1  0.053372  0.333505  0.887085  1
  Si  Si27  1  0.552437  0.167168  0.055469  1
  Si  Si28  1  0.056176  0.842372  0.436061  1
  Si  Si29  1  0.946628  0.833505  0.112915  1
  Si  Si30  1  0.943824  0.342372  0.563939  1
  Si  Si31  1  0.943512  0.322895  0.230576  1
  Si  Si32  1  0.554835  0.155796  0.725512  1
  Si  Si33  1  0.445165  0.655796  0.274488  1
  Si  Si34  1  0.447563  0.667168  0.944531  1
  Si  Si35  1  0.556374  0.674982  0.599630  1
  O  O36  1  0.237813  0.779093  0.756345  1
  O  O37  1  0.033759  0.996590  0.751106  1
  O  O38  1  0.976644  0.706978  0.042320  1
  O  O39  1  0.476644  0.514577  0.581199  1
  O  O40  1  0.738557  0.168063  0.039471  1
  O  O41  1  0.533635  0.705472  0.033094  1
  O  O42  1  0.262201  0.175581  0.427305  1
  O  O43  1  0.022101  0.502079  0.584473  1
  O  O44  1  0.529187  0.300284  0.456909  1
  O  O45  1  0.261443  0.668063  0.960529  1
  O  O46  1  0.504442  0.288900  0.126981  1
  O  O47  1  0.531206  0.288166  0.793367  1
  O  O48  1  0.237349  0.343455  0.866036  1
  O  O49  1  0.019126  0.805806  0.534837  1
  O  O50  1  0.003262  0.792390  0.867738  1
  O  O51  1  0.262398  0.610771  0.279994  1
  O  O52  1  0.470813  0.800284  0.543091  1
  O  O53  1  0.996738  0.292390  0.132262  1
  O  O54  1  0.495558  0.788900  0.873019  1
  O  O55  1  0.012590  0.216310  0.627283  1
  O  O56  1  0.240321  0.849885  0.421592  1
  O  O57  1  0.466365  0.205472  0.966906  1
  O  O58  1  0.489678  0.208807  0.632873  1
  O  O59  1  0.038965  0.796133  0.199964  1
  O  O60  1  0.737799  0.675581  0.572695  1
  O  O61  1  0.966241  0.496590  0.248894  1
  O  O62  1  0.759679  0.349885  0.578408  1
  O  O63  1  0.468794  0.788166  0.206633  1
  O  O64  1  0.977899  0.002079  0.415527  1
  O  O65  1  0.509952  0.505786  0.916246  1
  O  O66  1  0.523356  0.014577  0.418801  1
  O  O67  1  0.046175  0.220016  0.292883  1
  O  O68  1  0.543392  0.511209  0.247142  1
  O  O69  1  0.762651  0.843455  0.133964  1
  O  O70  1  0.023356  0.206978  0.957680  1
  O  O71  1  0.987659  0.491050  0.920948  1
  O  O72  1  0.463000  0.210264  0.300062  1
  O  O73  1  0.537000  0.710264  0.699938  1
  O  O74  1  0.762187  0.279093  0.243655  1
  O  O75  1  0.953825  0.720016  0.707117  1
  O  O76  1  0.510322  0.708807  0.367127  1
  O  O77  1  0.987410  0.716310  0.372717  1
  O  O78  1  0.737602  0.110771  0.720006  1
  O  O79  1  0.012341  0.991050  0.079052  1
  O  O80  1  0.456608  0.011209  0.752858  1
  O  O81  1  0.961035  0.296133  0.800036  1
  O  O82  1  0.980874  0.305806  0.465163  1
  O  O83  1  0.490048  0.005786  0.083754  1
