# generated using pymatgen
data_ZnS
_symmetry_space_group_name_H-M   'P 1'
_cell_length_a   37.82863160
_cell_length_b   37.82863158
_cell_length_c   37.82863220
_cell_angle_alpha   5.84871469
_cell_angle_beta   5.84871498
_cell_angle_gamma   5.84871460
_symmetry_Int_Tables_number   1
_chemical_formula_structural   ZnS
_chemical_formula_sum   'Zn12 S12'
_cell_volume   487.23233702
_cell_formula_units_Z   12
loop_
 _symmetry_equiv_pos_site_id
 _symmetry_equiv_pos_as_xyz
  1  'x, y, z'
loop_
 _atom_site_type_symbol
 _atom_site_label
 _atom_site_symmetry_multiplicity
 _atom_site_fract_x
 _atom_site_fract_y
 _atom_site_fract_z
 _atom_site_occupancy
  Zn  Zn0  1  0.083336  0.083336  0.083336  1
  Zn  Zn1  1  0.861114  0.861114  0.861114  1
  Zn  Zn2  1  0.166669  0.166669  0.166669  1
  Zn  Zn3  1  0.388889  0.388889  0.388889  1
  Zn  Zn4  1  0.916679  0.916679  0.916679  1
  Zn  Zn5  1  0.777783  0.777783  0.777783  1
  Zn  Zn6  1  0.277787  0.277787  0.277787  1
  Zn  Zn7  1  0.000004  0.000004  0.000004  1
  Zn  Zn8  1  0.694459  0.694459  0.694459  1
  Zn  Zn9  1  0.555552  0.555552  0.555552  1
  Zn  Zn10  1  0.638890  0.638890  0.638890  1
  Zn  Zn11  1  0.472221  0.472221  0.472221  1
  S  S12  1  0.298609  0.298609  0.298609  1
  S  S13  1  0.409716  0.409716  0.409716  1
  S  S14  1  0.937498  0.937498  0.937498  1
  S  S15  1  0.798606  0.798606  0.798606  1
  S  S16  1  0.659700  0.659700  0.659700  1
  S  S17  1  0.020848  0.020848  0.020848  1
  S  S18  1  0.493047  0.493047  0.493047  1
  S  S19  1  0.104164  0.104164  0.104164  1
  S  S20  1  0.187496  0.187496  0.187496  1
  S  S21  1  0.715275  0.715275  0.715275  1
  S  S22  1  0.576396  0.576396  0.576396  1
  S  S23  1  0.881922  0.881922  0.881922  1
