# generated using pymatgen
data_Ti3Mn3O
_symmetry_space_group_name_H-M   'P 1'
_cell_length_a   8.10704061
_cell_length_b   8.10704041
_cell_length_c   8.10703950
_cell_angle_alpha   59.99999487
_cell_angle_beta   59.99999568
_cell_angle_gamma   59.99999633
_symmetry_Int_Tables_number   1
_chemical_formula_structural   Ti3Mn3O
_chemical_formula_sum   'Ti12 Mn12 O4'
_cell_volume   376.76619981
_cell_formula_units_Z   4
loop_
 _symmetry_equiv_pos_site_id
 _symmetry_equiv_pos_as_xyz
  1  'x, y, z'
loop_
 _atom_site_type_symbol
 _atom_site_label
 _atom_site_symmetry_multiplicity
 _atom_site_fract_x
 _atom_site_fract_y
 _atom_site_fract_z
 _atom_site_occupancy
  Mn  Mn0  1  0.500000  0.500000  0.500000  1
  Mn  Mn1  1  0.500000  0.500000  0.000000  1
  Mn  Mn2  1  0.000000  0.500000  0.500000  1
  Mn  Mn3  1  0.500000  0.000000  0.500000  1
  Mn  Mn4  1  0.712479  0.712479  0.712479  1
  Mn  Mn5  1  0.287521  0.287521  0.637438  1
  Mn  Mn6  1  0.637438  0.287521  0.287521  1
  Mn  Mn7  1  0.287521  0.637438  0.287521  1
  Mn  Mn8  1  0.362562  0.712479  0.712479  1
  Mn  Mn9  1  0.712479  0.362562  0.712479  1
  Mn  Mn10  1  0.712479  0.712479  0.362562  1
  Mn  Mn11  1  0.287521  0.287521  0.287521  1
  Ti  Ti12  1  0.689786  0.060214  0.060214  1
  Ti  Ti13  1  0.939786  0.939786  0.310214  1
  Ti  Ti14  1  0.310214  0.310214  0.939786  1
  Ti  Ti15  1  0.939786  0.310214  0.310214  1
  Ti  Ti16  1  0.939786  0.310214  0.939786  1
  Ti  Ti17  1  0.310214  0.939786  0.310214  1
  Ti  Ti18  1  0.060214  0.689786  0.060214  1
  Ti  Ti19  1  0.060214  0.060214  0.689786  1
  Ti  Ti20  1  0.689786  0.689786  0.060214  1
  Ti  Ti21  1  0.689786  0.060214  0.689786  1
  Ti  Ti22  1  0.310214  0.939786  0.939786  1
  Ti  Ti23  1  0.060214  0.689786  0.689786  1
  O  O24  1  0.000000  0.000000  0.000000  1
  O  O25  1  0.000000  0.000000  0.500000  1
  O  O26  1  0.500000  0.000000  0.000000  1
  O  O27  1  0.000000  0.500000  0.000000  1
