# generated using pymatgen
data_Ce10(B3C4)3
_symmetry_space_group_name_H-M   'P 1'
_cell_length_a   8.31673863
_cell_length_b   8.31673863
_cell_length_c   24.67878851
_cell_angle_alpha   90.00000000
_cell_angle_beta   90.00000000
_cell_angle_gamma   90.00000000
_symmetry_Int_Tables_number   1
_chemical_formula_structural   Ce10(B3C4)3
_chemical_formula_sum   'Ce40 B36 C48'
_cell_volume   1706.98593422
_cell_formula_units_Z   4
loop_
 _symmetry_equiv_pos_site_id
 _symmetry_equiv_pos_as_xyz
  1  'x, y, z'
loop_
 _atom_site_type_symbol
 _atom_site_label
 _atom_site_symmetry_multiplicity
 _atom_site_fract_x
 _atom_site_fract_y
 _atom_site_fract_z
 _atom_site_occupancy
  Ce  Ce0  1  0.492324  0.189397  0.580577  1
  Ce  Ce1  1  0.007676  0.689397  0.669423  1
  Ce  Ce2  1  0.798763  0.295039  0.680904  1
  Ce  Ce3  1  0.603032  0.916793  0.707781  1
  Ce  Ce4  1  0.189397  0.492324  0.419423  1
  Ce  Ce5  1  0.398564  0.704688  0.945259  1
  Ce  Ce6  1  0.989806  0.100546  0.440584  1
  Ce  Ce7  1  0.795039  0.701237  0.430904  1
  Ce  Ce8  1  0.701237  0.795039  0.569096  1
  Ce  Ce9  1  0.298763  0.204961  0.069096  1
  Ce  Ce10  1  0.704688  0.398564  0.054741  1
  Ce  Ce11  1  0.916793  0.603032  0.292219  1
  Ce  Ce12  1  0.510194  0.600546  0.809416  1
  Ce  Ce13  1  0.810603  0.507676  0.919423  1
  Ce  Ce14  1  0.204688  0.101436  0.695259  1
  Ce  Ce15  1  0.010194  0.899454  0.940584  1
  Ce  Ce16  1  0.204961  0.298763  0.930904  1
  Ce  Ce17  1  0.101436  0.204688  0.304741  1
  Ce  Ce18  1  0.507676  0.810603  0.080577  1
  Ce  Ce19  1  0.795312  0.898564  0.195259  1
  Ce  Ce20  1  0.396968  0.083207  0.207781  1
  Ce  Ce21  1  0.992324  0.310603  0.169423  1
  Ce  Ce22  1  0.083207  0.396968  0.792219  1
  Ce  Ce23  1  0.295312  0.601436  0.554741  1
  Ce  Ce24  1  0.899454  0.010194  0.059416  1
  Ce  Ce25  1  0.583207  0.103032  0.957781  1
  Ce  Ce26  1  0.489806  0.399454  0.309416  1
  Ce  Ce27  1  0.896968  0.416793  0.542219  1
  Ce  Ce28  1  0.103032  0.583207  0.042219  1
  Ce  Ce29  1  0.201237  0.704961  0.180904  1
  Ce  Ce30  1  0.399454  0.489806  0.690584  1
  Ce  Ce31  1  0.704961  0.201237  0.819096  1
  Ce  Ce32  1  0.600546  0.510194  0.190584  1
  Ce  Ce33  1  0.295039  0.798763  0.319096  1
  Ce  Ce34  1  0.310603  0.992324  0.830577  1
  Ce  Ce35  1  0.898564  0.795312  0.804741  1
  Ce  Ce36  1  0.601436  0.295312  0.445259  1
  Ce  Ce37  1  0.416793  0.896968  0.457781  1
  Ce  Ce38  1  0.100546  0.989806  0.559416  1
  Ce  Ce39  1  0.689397  0.007676  0.330577  1
  B  B40  1  0.904205  0.212523  0.969050  1
  B  B41  1  0.370688  0.501981  0.110822  1
  B  B42  1  0.595795  0.712523  0.280950  1
  B  B43  1  0.081642  0.918358  0.250000  1
  B  B44  1  0.498019  0.629312  0.389178  1
  B  B45  1  0.870688  0.998019  0.639178  1
  B  B46  1  0.918358  0.081642  0.750000  1
  B  B47  1  0.628808  0.124189  0.116706  1
  B  B48  1  0.787477  0.095795  0.530950  1
  B  B49  1  0.287477  0.404205  0.219050  1
  B  B50  1  0.404205  0.287477  0.780950  1
  B  B51  1  0.124189  0.628808  0.883294  1
  B  B52  1  0.291730  0.200182  0.476200  1
  B  B53  1  0.624189  0.871192  0.866706  1
  B  B54  1  0.208270  0.700182  0.773800  1
  B  B55  1  0.001981  0.129312  0.860822  1
  B  B56  1  0.418358  0.418358  0.000000  1
  B  B57  1  0.712523  0.595795  0.719050  1
  B  B58  1  0.871192  0.624189  0.133294  1
  B  B59  1  0.875811  0.371192  0.383294  1
  B  B60  1  0.700182  0.208270  0.226200  1
  B  B61  1  0.791730  0.299818  0.273800  1
  B  B62  1  0.128808  0.375811  0.633294  1
  B  B63  1  0.799818  0.708270  0.023800  1
  B  B64  1  0.212523  0.904205  0.030950  1
  B  B65  1  0.998019  0.870688  0.360822  1
  B  B66  1  0.095795  0.787477  0.469050  1
  B  B67  1  0.371192  0.875811  0.616706  1
  B  B68  1  0.129312  0.001981  0.139178  1
  B  B69  1  0.501981  0.370688  0.889178  1
  B  B70  1  0.708270  0.799818  0.976200  1
  B  B71  1  0.629312  0.498019  0.610822  1
  B  B72  1  0.299818  0.791730  0.726200  1
  B  B73  1  0.581642  0.581642  0.500000  1
  B  B74  1  0.375811  0.128808  0.366706  1
  B  B75  1  0.200182  0.291730  0.523800  1
  C  C76  1  0.301201  0.994162  0.928562  1
  C  C77  1  0.408873  0.505562  0.052360  1
  C  C78  1  0.708740  0.002506  0.484879  1
  C  C79  1  0.801201  0.505838  0.821438  1
  C  C80  1  0.908873  0.994438  0.697640  1
  C  C81  1  0.892746  0.398876  0.441812  1
  C  C82  1  0.698799  0.005838  0.428562  1
  C  C83  1  0.005838  0.698799  0.571438  1
  C  C84  1  0.994162  0.301201  0.071438  1
  C  C85  1  0.090899  0.800184  0.408102  1
  C  C86  1  0.409101  0.300184  0.841898  1
  C  C87  1  0.005562  0.091127  0.802360  1
  C  C88  1  0.800184  0.090899  0.591898  1
  C  C89  1  0.997494  0.291260  0.015121  1
  C  C90  1  0.316117  0.800330  0.666867  1
  C  C91  1  0.590899  0.699816  0.341898  1
  C  C92  1  0.497494  0.208740  0.734879  1
  C  C93  1  0.601124  0.107254  0.058188  1
  C  C94  1  0.199670  0.683883  0.833133  1
  C  C95  1  0.107254  0.601124  0.941812  1
  C  C96  1  0.607254  0.898876  0.808188  1
  C  C97  1  0.091127  0.005562  0.197640  1
  C  C98  1  0.208740  0.497494  0.265121  1
  C  C99  1  0.699816  0.590899  0.658102  1
  C  C100  1  0.002506  0.708740  0.515121  1
  C  C101  1  0.699670  0.816117  0.916867  1
  C  C102  1  0.300184  0.409101  0.158102  1
  C  C103  1  0.494162  0.198799  0.678562  1
  C  C104  1  0.505838  0.801201  0.178562  1
  C  C105  1  0.994438  0.908873  0.302360  1
  C  C106  1  0.398876  0.892746  0.558188  1
  C  C107  1  0.101124  0.392746  0.691812  1
  C  C108  1  0.502506  0.791260  0.234879  1
  C  C109  1  0.198799  0.494162  0.321438  1
  C  C110  1  0.909101  0.199816  0.908102  1
  C  C111  1  0.816117  0.699670  0.083133  1
  C  C112  1  0.791260  0.502506  0.765121  1
  C  C113  1  0.898876  0.607254  0.191812  1
  C  C114  1  0.183883  0.300330  0.583133  1
  C  C115  1  0.591127  0.494438  0.552360  1
  C  C116  1  0.199816  0.909101  0.091898  1
  C  C117  1  0.505562  0.408873  0.947640  1
  C  C118  1  0.392746  0.101124  0.308188  1
  C  C119  1  0.291260  0.997494  0.984879  1
  C  C120  1  0.800330  0.316117  0.333133  1
  C  C121  1  0.494438  0.591127  0.447640  1
  C  C122  1  0.300330  0.183883  0.416867  1
  C  C123  1  0.683883  0.199670  0.166867  1
