# generated using pymatgen
data_TlPb8Br9O4
_symmetry_space_group_name_H-M   'P 1'
_cell_length_a   8.40530234
_cell_length_b   12.60143919
_cell_length_c   12.60143919
_cell_angle_alpha   90.00000000
_cell_angle_beta   90.00000000
_cell_angle_gamma   90.00000000
_symmetry_Int_Tables_number   1
_chemical_formula_structural   TlPb8Br9O4
_chemical_formula_sum   'Tl2 Pb16 Br18 O8'
_cell_volume   1334.73065695
_cell_formula_units_Z   2
loop_
 _symmetry_equiv_pos_site_id
 _symmetry_equiv_pos_as_xyz
  1  'x, y, z'
loop_
 _atom_site_type_symbol
 _atom_site_label
 _atom_site_symmetry_multiplicity
 _atom_site_fract_x
 _atom_site_fract_y
 _atom_site_fract_z
 _atom_site_occupancy
  Tl  Tl0  1  0.668198  0.750000  0.750000  1
  Tl  Tl1  1  0.331802  0.250000  0.250000  1
  Pb  Pb2  1  0.822729  0.333706  0.981567  1
  Pb  Pb3  1  0.354301  0.194806  0.612875  1
  Pb  Pb4  1  0.177271  0.666294  0.018433  1
  Pb  Pb5  1  0.645699  0.387125  0.694806  1
  Pb  Pb6  1  0.645699  0.112875  0.805194  1
  Pb  Pb7  1  0.645699  0.805194  0.387125  1
  Pb  Pb8  1  0.177271  0.833706  0.481567  1
  Pb  Pb9  1  0.822729  0.981567  0.166294  1
  Pb  Pb10  1  0.354301  0.612875  0.305194  1
  Pb  Pb11  1  0.177271  0.481567  0.666294  1
  Pb  Pb12  1  0.822729  0.166294  0.518433  1
  Pb  Pb13  1  0.354301  0.887125  0.194806  1
  Pb  Pb14  1  0.354301  0.305194  0.887125  1
  Pb  Pb15  1  0.177271  0.018433  0.833706  1
  Pb  Pb16  1  0.645699  0.694806  0.112875  1
  Pb  Pb17  1  0.822729  0.518433  0.333706  1
  Br  Br18  1  0.885620  0.867545  0.961825  1
  Br  Br19  1  0.114380  0.132455  0.038175  1
  Br  Br20  1  0.114380  0.461825  0.132455  1
  Br  Br21  1  0.598546  0.431984  0.130242  1
  Br  Br22  1  0.401454  0.568016  0.869758  1
  Br  Br23  1  0.401454  0.630242  0.568016  1
  Br  Br24  1  0.114380  0.367545  0.461825  1
  Br  Br25  1  0.114380  0.038175  0.367545  1
  Br  Br26  1  0.598546  0.068016  0.369758  1
  Br  Br27  1  0.000000  0.750000  0.250000  1
  Br  Br28  1  0.885620  0.961825  0.632455  1
  Br  Br29  1  0.401454  0.931984  0.630242  1
  Br  Br30  1  0.885620  0.538175  0.867545  1
  Br  Br31  1  0.598546  0.369758  0.431984  1
  Br  Br32  1  0.401454  0.869758  0.931984  1
  Br  Br33  1  0.885620  0.632455  0.538175  1
  Br  Br34  1  0.598546  0.130242  0.068016  1
  Br  Br35  1  0.000000  0.250000  0.750000  1
  O  O36  1  0.628246  0.204285  0.641765  1
  O  O37  1  0.371754  0.141765  0.795715  1
  O  O38  1  0.371754  0.704285  0.141765  1
  O  O39  1  0.628246  0.641765  0.295715  1
  O  O40  1  0.628246  0.858235  0.204285  1
  O  O41  1  0.371754  0.358235  0.704285  1
  O  O42  1  0.628246  0.295715  0.858235  1
  O  O43  1  0.371754  0.795715  0.358235  1
