# generated using pymatgen
data_SiO2
_symmetry_space_group_name_H-M   'P 1'
_cell_length_a   5.03895105
_cell_length_b   5.51942805
_cell_length_c   6.23271407
_cell_angle_alpha   90.70493521
_cell_angle_beta   90.16490176
_cell_angle_gamma   89.39180993
_symmetry_Int_Tables_number   1
_chemical_formula_structural   SiO2
_chemical_formula_sum   'Si4 O8'
_cell_volume   173.32150055
_cell_formula_units_Z   4
loop_
 _symmetry_equiv_pos_site_id
 _symmetry_equiv_pos_as_xyz
  1  'x, y, z'
loop_
 _atom_site_type_symbol
 _atom_site_label
 _atom_site_symmetry_multiplicity
 _atom_site_fract_x
 _atom_site_fract_y
 _atom_site_fract_z
 _atom_site_occupancy
  Si  Si0  1  0.486638  0.734944  0.117054  1
  Si  Si1  1  0.208540  0.242258  0.115153  1
  Si  Si2  1  0.849334  0.493052  0.825391  1
  Si  Si3  1  0.348168  0.492966  0.527423  1
  O  O4  1  0.771846  0.722383  0.989501  1
  O  O5  1  0.607414  0.406408  0.665961  1
  O  O6  1  0.925337  0.264082  0.985283  1
  O  O7  1  0.356761  0.483321  0.031247  1
  O  O8  1  0.462830  0.715065  0.378790  1
  O  O9  1  0.227520  0.270430  0.377277  1
  O  O10  1  0.341887  0.984957  0.045223  1
  O  O11  1  0.095045  0.580845  0.673117  1
