# generated using pymatgen
data_CaNb2Bi2O9
_symmetry_space_group_name_H-M   'P 1'
_cell_length_a   3.91888401
_cell_length_b   3.91963060
_cell_length_c   13.83610090
_cell_angle_alpha   98.11640525
_cell_angle_beta   98.09556936
_cell_angle_gamma   89.98858731
_symmetry_Int_Tables_number   1
_chemical_formula_structural   CaNb2Bi2O9
_chemical_formula_sum   'Ca1 Nb2 Bi2 O9'
_cell_volume   208.26288634
_cell_formula_units_Z   1
loop_
 _symmetry_equiv_pos_site_id
 _symmetry_equiv_pos_as_xyz
  1  'x, y, z'
loop_
 _atom_site_type_symbol
 _atom_site_label
 _atom_site_symmetry_multiplicity
 _atom_site_fract_x
 _atom_site_fract_y
 _atom_site_fract_z
 _atom_site_occupancy
  Ca  Ca0  1  0.500000  0.500000  0.000000  1
  Nb  Nb1  1  0.927703  0.927567  0.855061  1
  Nb  Nb2  1  0.072297  0.072433  0.144939  1
  Bi  Bi3  1  0.204458  0.204385  0.406475  1
  Bi  Bi4  1  0.795542  0.795615  0.593525  1
  O  O5  1  0.929960  0.429978  0.859884  1
  O  O6  1  0.330293  0.330448  0.658191  1
  O  O7  1  0.250011  0.749976  0.499984  1
  O  O8  1  0.749989  0.250024  0.500016  1
  O  O9  1  0.429889  0.929837  0.859525  1
  O  O10  1  0.070040  0.570022  0.140116  1
  O  O11  1  0.570111  0.070163  0.140475  1
  O  O12  1  0.669707  0.669552  0.341809  1
  O  O13  1  0.000000  0.000000  0.000000  1
