# generated using pymatgen
data_SiO2
_symmetry_space_group_name_H-M   'P 1'
_cell_length_a   18.13657756
_cell_length_b   18.13657701
_cell_length_c   18.13657692
_cell_angle_alpha   109.47122053
_cell_angle_beta   109.47121992
_cell_angle_gamma   109.47122196
_symmetry_Int_Tables_number   1
_chemical_formula_structural   SiO2
_chemical_formula_sum   'Si48 O96'
_cell_volume   4592.44633807
_cell_formula_units_Z   48
loop_
 _symmetry_equiv_pos_site_id
 _symmetry_equiv_pos_as_xyz
  1  'x, y, z'
loop_
 _atom_site_type_symbol
 _atom_site_label
 _atom_site_symmetry_multiplicity
 _atom_site_fract_x
 _atom_site_fract_y
 _atom_site_fract_z
 _atom_site_occupancy
  Si  Si0  1  0.168114  0.154616  0.857913  1
  Si  Si1  1  0.154616  0.857913  0.168114  1
  Si  Si2  1  0.703297  0.857913  0.189799  1
  Si  Si3  1  0.513499  0.703297  0.345384  1
  Si  Si4  1  0.689799  0.831886  0.486501  1
  Si  Si5  1  0.345384  0.513499  0.703297  1
  Si  Si6  1  0.845384  0.203297  0.013499  1
  Si  Si7  1  0.203297  0.013499  0.845384  1
  Si  Si8  1  0.986501  0.331886  0.189799  1
  Si  Si9  1  0.831886  0.845384  0.142087  1
  Si  Si10  1  0.857913  0.168114  0.154616  1
  Si  Si11  1  0.845384  0.142087  0.831886  1
  Si  Si12  1  0.654616  0.486501  0.296703  1
  Si  Si13  1  0.296703  0.142087  0.810201  1
  Si  Si14  1  0.654616  0.668114  0.357913  1
  Si  Si15  1  0.986501  0.154616  0.796703  1
  Si  Si16  1  0.642087  0.796703  0.310201  1
  Si  Si17  1  0.331886  0.642087  0.345384  1
  Si  Si18  1  0.810201  0.013499  0.668114  1
  Si  Si19  1  0.513499  0.310201  0.168114  1
  Si  Si20  1  0.310201  0.168114  0.513499  1
  Si  Si21  1  0.296703  0.654616  0.486501  1
  Si  Si22  1  0.013499  0.845384  0.203297  1
  Si  Si23  1  0.331886  0.189799  0.986501  1
  Si  Si24  1  0.357913  0.203297  0.689799  1
  Si  Si25  1  0.154616  0.796703  0.986501  1
  Si  Si26  1  0.203297  0.689799  0.357913  1
  Si  Si27  1  0.689799  0.357913  0.203297  1
  Si  Si28  1  0.703297  0.345384  0.513499  1
  Si  Si29  1  0.345384  0.331886  0.642087  1
  Si  Si30  1  0.486501  0.689799  0.831886  1
  Si  Si31  1  0.189799  0.986501  0.331886  1
  Si  Si32  1  0.168114  0.513499  0.310201  1
  Si  Si33  1  0.810201  0.296703  0.142087  1
  Si  Si34  1  0.831886  0.486501  0.689799  1
  Si  Si35  1  0.857913  0.189799  0.703297  1
  Si  Si36  1  0.142087  0.831886  0.845384  1
  Si  Si37  1  0.668114  0.357913  0.654616  1
  Si  Si38  1  0.796703  0.310201  0.642087  1
  Si  Si39  1  0.357913  0.654616  0.668114  1
  Si  Si40  1  0.642087  0.345384  0.331886  1
  Si  Si41  1  0.310201  0.642087  0.796703  1
  Si  Si42  1  0.486501  0.296703  0.654616  1
  Si  Si43  1  0.796703  0.986501  0.154616  1
  Si  Si44  1  0.013499  0.668114  0.810201  1
  Si  Si45  1  0.668114  0.810201  0.013499  1
  Si  Si46  1  0.142087  0.810201  0.296703  1
  Si  Si47  1  0.189799  0.703297  0.857913  1
  O  O48  1  0.783706  0.452921  0.580604  1
  O  O49  1  0.830785  0.127683  0.047079  1
  O  O50  1  0.750000  0.964886  0.214886  1
  O  O51  1  0.214886  0.964886  0.250000  1
  O  O52  1  0.372317  0.669215  0.452921  1
  O  O53  1  0.035114  0.785114  0.250000  1
  O  O54  1  0.250000  0.035114  0.785114  1
  O  O55  1  0.169215  0.796898  0.216294  1
  O  O56  1  0.591605  0.750000  0.908395  1
  O  O57  1  0.080604  0.952921  0.283706  1
  O  O58  1  0.330785  0.547079  0.627683  1
  O  O59  1  0.535114  0.750000  0.285114  1
  O  O60  1  0.183210  0.841605  0.091605  1
  O  O61  1  0.203102  0.783706  0.830785  1
  O  O62  1  0.964886  0.250000  0.214886  1
  O  O63  1  0.580604  0.296898  0.127683  1
  O  O64  1  0.952921  0.283706  0.080604  1
  O  O65  1  0.669215  0.716294  0.296898  1
  O  O66  1  0.785114  0.250000  0.035114  1
  O  O67  1  0.047079  0.716294  0.919396  1
  O  O68  1  0.250000  0.091605  0.408395  1
  O  O69  1  0.283706  0.080604  0.952921  1
  O  O70  1  0.872317  0.419396  0.703102  1
  O  O71  1  0.547079  0.419396  0.216294  1
  O  O72  1  0.158395  0.750000  0.341605  1
  O  O73  1  0.216294  0.169215  0.796898  1
  O  O74  1  0.658395  0.316790  0.408395  1
  O  O75  1  0.964886  0.214886  0.750000  1
  O  O76  1  0.716294  0.919396  0.047079  1
  O  O77  1  0.841605  0.250000  0.658395  1
  O  O78  1  0.047079  0.830785  0.127683  1
  O  O79  1  0.419396  0.216294  0.547079  1
  O  O80  1  0.285114  0.535114  0.750000  1
  O  O81  1  0.919396  0.372317  0.203102  1
  O  O82  1  0.464886  0.714886  0.750000  1
  O  O83  1  0.330785  0.283706  0.703102  1
  O  O84  1  0.785114  0.035114  0.750000  1
  O  O85  1  0.214886  0.750000  0.964886  1
  O  O86  1  0.341605  0.683210  0.591605  1
  O  O87  1  0.750000  0.785114  0.035114  1
  O  O88  1  0.591605  0.341605  0.683210  1
  O  O89  1  0.250000  0.535114  0.285114  1
  O  O90  1  0.408395  0.658395  0.316790  1
  O  O91  1  0.452921  0.372317  0.669215  1
  O  O92  1  0.547079  0.627683  0.330785  1
  O  O93  1  0.250000  0.214886  0.964886  1
  O  O94  1  0.464886  0.250000  0.714886  1
  O  O95  1  0.830785  0.203102  0.783706  1
  O  O96  1  0.816790  0.158395  0.908395  1
  O  O97  1  0.216294  0.547079  0.419396  1
  O  O98  1  0.908395  0.816790  0.158395  1
  O  O99  1  0.452921  0.580604  0.783706  1
  O  O100  1  0.158395  0.908395  0.816790  1
  O  O101  1  0.250000  0.658395  0.841605  1
  O  O102  1  0.714886  0.750000  0.464886  1
  O  O103  1  0.783706  0.830785  0.203102  1
  O  O104  1  0.283706  0.703102  0.330785  1
  O  O105  1  0.580604  0.783706  0.452921  1
  O  O106  1  0.419396  0.703102  0.872317  1
  O  O107  1  0.203102  0.919396  0.372317  1
  O  O108  1  0.250000  0.714886  0.464886  1
  O  O109  1  0.127683  0.047079  0.830785  1
  O  O110  1  0.296898  0.669215  0.716294  1
  O  O111  1  0.127683  0.580604  0.296898  1
  O  O112  1  0.372317  0.203102  0.919396  1
  O  O113  1  0.750000  0.908395  0.591605  1
  O  O114  1  0.919396  0.047079  0.716294  1
  O  O115  1  0.796898  0.216294  0.169215  1
  O  O116  1  0.669215  0.452921  0.372317  1
  O  O117  1  0.796898  0.080604  0.627683  1
  O  O118  1  0.750000  0.341605  0.158395  1
  O  O119  1  0.750000  0.285114  0.535114  1
  O  O120  1  0.908395  0.591605  0.750000  1
  O  O121  1  0.091605  0.183210  0.841605  1
  O  O122  1  0.952921  0.169215  0.872317  1
  O  O123  1  0.872317  0.952921  0.169215  1
  O  O124  1  0.627683  0.330785  0.547079  1
  O  O125  1  0.035114  0.750000  0.785114  1
  O  O126  1  0.169215  0.872317  0.952921  1
  O  O127  1  0.285114  0.250000  0.535114  1
  O  O128  1  0.296898  0.127683  0.580604  1
  O  O129  1  0.627683  0.796898  0.080604  1
  O  O130  1  0.341605  0.158395  0.750000  1
  O  O131  1  0.316790  0.408395  0.658395  1
  O  O132  1  0.703102  0.872317  0.419396  1
  O  O133  1  0.841605  0.091605  0.183210  1
  O  O134  1  0.683210  0.591605  0.341605  1
  O  O135  1  0.703102  0.330785  0.283706  1
  O  O136  1  0.080604  0.627683  0.796898  1
  O  O137  1  0.408395  0.250000  0.091605  1
  O  O138  1  0.750000  0.464886  0.714886  1
  O  O139  1  0.658395  0.841605  0.250000  1
  O  O140  1  0.716294  0.296898  0.669215  1
  O  O141  1  0.535114  0.285114  0.250000  1
  O  O142  1  0.091605  0.408395  0.250000  1
  O  O143  1  0.714886  0.464886  0.250000  1
