# generated using pymatgen
data_KCrF3
_symmetry_space_group_name_H-M   'P 1'
_cell_length_a   5.94157361
_cell_length_b   5.96440779
_cell_length_c   5.98207609
_cell_angle_alpha   118.25591162
_cell_angle_beta   118.12557248
_cell_angle_gamma   92.89854451
_symmetry_Int_Tables_number   1
_chemical_formula_structural   KCrF3
_chemical_formula_sum   'K2 Cr2 F6'
_cell_volume   154.11907463
_cell_formula_units_Z   2
loop_
 _symmetry_equiv_pos_site_id
 _symmetry_equiv_pos_as_xyz
  1  'x, y, z'
loop_
 _atom_site_type_symbol
 _atom_site_label
 _atom_site_symmetry_multiplicity
 _atom_site_fract_x
 _atom_site_fract_y
 _atom_site_fract_z
 _atom_site_occupancy
  K  K0  1  0.748670  0.748670  0.497341  1
  K  K1  1  0.251330  0.251330  0.502659  1
  Cr  Cr2  1  0.000000  0.500000  0.000000  1
  Cr  Cr3  1  0.500000  0.000000  0.000000  1
  F  F4  1  0.231500  0.731500  0.463000  1
  F  F5  1  0.719086  0.279562  0.000000  1
  F  F6  1  0.280914  0.720438  1.000000  1
  F  F7  1  0.238655  0.203012  1.000000  1
  F  F8  1  0.768500  0.268500  0.537000  1
  F  F9  1  0.761345  0.796988  0.000000  1
