# generated using pymatgen
data_K10In5Sb9
_symmetry_space_group_name_H-M   'P 1'
_cell_length_a   12.53481421
_cell_length_b   17.09083198
_cell_length_c   17.93041981
_cell_angle_alpha   114.60578830
_cell_angle_beta   90.00000000
_cell_angle_gamma   90.00000000
_symmetry_Int_Tables_number   1
_chemical_formula_structural   K10In5Sb9
_chemical_formula_sum   'K40 In20 Sb36'
_cell_volume   3492.43352501
_cell_formula_units_Z   4
loop_
 _symmetry_equiv_pos_site_id
 _symmetry_equiv_pos_as_xyz
  1  'x, y, z'
loop_
 _atom_site_type_symbol
 _atom_site_label
 _atom_site_symmetry_multiplicity
 _atom_site_fract_x
 _atom_site_fract_y
 _atom_site_fract_z
 _atom_site_occupancy
  K  K0  1  0.851154  0.432459  0.672591  1
  K  K1  1  0.406276  0.429410  0.677127  1
  K  K2  1  0.633145  0.060941  0.964500  1
  K  K3  1  0.110076  0.189891  0.389724  1
  K  K4  1  0.140227  0.671115  0.034631  1
  K  K5  1  0.097126  0.832802  0.475973  1
  K  K6  1  0.620401  0.453315  0.533142  1
  K  K7  1  0.093724  0.929410  0.177127  1
  K  K8  1  0.866189  0.459801  0.213942  1
  K  K9  1  0.133811  0.540199  0.786058  1
  K  K10  1  0.859773  0.328885  0.965369  1
  K  K11  1  0.648846  0.932459  0.172591  1
  K  K12  1  0.633811  0.959801  0.713942  1
  K  K13  1  0.866855  0.560941  0.464500  1
  K  K14  1  0.363585  0.580185  0.142541  1
  K  K15  1  0.906276  0.070590  0.822873  1
  K  K16  1  0.353118  0.812773  0.604530  1
  K  K17  1  0.879599  0.953315  0.033142  1
  K  K18  1  0.366189  0.040199  0.286058  1
  K  K19  1  0.853118  0.687227  0.895470  1
  K  K20  1  0.863585  0.919815  0.357459  1
  K  K21  1  0.351154  0.067541  0.827409  1
  K  K22  1  0.366855  0.939059  0.035500  1
  K  K23  1  0.389924  0.689891  0.889724  1
  K  K24  1  0.597126  0.667198  0.024027  1
  K  K25  1  0.902874  0.167198  0.524027  1
  K  K26  1  0.148846  0.567541  0.327409  1
  K  K27  1  0.359773  0.171115  0.534631  1
  K  K28  1  0.379599  0.546685  0.466858  1
  K  K29  1  0.146882  0.312773  0.104530  1
  K  K30  1  0.136415  0.080185  0.642541  1
  K  K31  1  0.402874  0.332802  0.975973  1
  K  K32  1  0.120401  0.046685  0.966858  1
  K  K33  1  0.610076  0.310109  0.110276  1
  K  K34  1  0.646882  0.187227  0.395470  1
  K  K35  1  0.640227  0.828885  0.465369  1
  K  K36  1  0.636415  0.419815  0.857459  1
  K  K37  1  0.133145  0.439059  0.535500  1
  K  K38  1  0.593724  0.570590  0.322873  1
  K  K39  1  0.889924  0.810109  0.610276  1
  In  In40  1  0.979717  0.291459  0.771258  1
  In  In41  1  0.479717  0.208541  0.728742  1
  In  In42  1  0.499004  0.685223  0.693183  1
  In  In43  1  0.722367  0.691173  0.223741  1
  In  In44  1  0.748982  0.177838  0.189950  1
  In  In45  1  0.520283  0.791459  0.271258  1
  In  In46  1  0.248982  0.322162  0.310050  1
  In  In47  1  0.500996  0.314777  0.306817  1
  In  In48  1  0.630721  0.060517  0.552264  1
  In  In49  1  0.222367  0.808827  0.276259  1
  In  In50  1  0.251018  0.822162  0.810050  1
  In  In51  1  -0.000996  0.814777  0.806817  1
  In  In52  1  0.751018  0.677838  0.689950  1
  In  In53  1  0.020283  0.708541  0.228742  1
  In  In54  1  0.869279  0.560517  0.052264  1
  In  In55  1  0.777633  0.191173  0.723741  1
  In  In56  1  0.369279  0.939483  0.447736  1
  In  In57  1  1.000996  0.185223  0.193183  1
  In  In58  1  0.277633  0.308827  0.776259  1
  In  In59  1  0.130721  0.439483  0.947736  1
  Sb  Sb60  1  0.876354  0.697600  0.352859  1
  Sb  Sb61  1  0.482000  0.863318  0.825395  1
  Sb  Sb62  1  0.877215  0.076955  0.254252  1
  Sb  Sb63  1  0.518000  0.136682  0.174605  1
  Sb  Sb64  1  0.125499  0.654886  0.555741  1
  Sb  Sb65  1  0.833877  0.013501  0.601001  1
  Sb  Sb66  1  0.769577  0.857226  0.822931  1
  Sb  Sb67  1  0.568169  0.981017  0.379174  1
  Sb  Sb68  1  0.431831  0.018983  0.620826  1
  Sb  Sb69  1  0.377215  0.423045  0.245748  1
  Sb  Sb70  1  0.666123  0.513501  0.101001  1
  Sb  Sb71  1  0.068169  0.518983  0.120826  1
  Sb  Sb72  1  0.376354  0.802400  0.147141  1
  Sb  Sb73  1  0.625499  0.845114  0.944259  1
  Sb  Sb74  1  0.138537  0.247094  0.877613  1
  Sb  Sb75  1  0.333877  0.486499  0.898999  1
  Sb  Sb76  1  0.874501  0.345114  0.444259  1
  Sb  Sb77  1  0.166123  0.986499  0.398999  1
  Sb  Sb78  1  0.377267  0.319196  0.445843  1
  Sb  Sb79  1  0.361463  0.747094  0.377613  1
  Sb  Sb80  1  0.931831  0.481017  0.879174  1
  Sb  Sb81  1  0.269577  0.642774  0.677069  1
  Sb  Sb82  1  0.982000  0.636682  0.674605  1
  Sb  Sb83  1  0.622785  0.576955  0.754252  1
  Sb  Sb84  1  0.622733  0.680804  0.554157  1
  Sb  Sb85  1  0.638537  0.252906  0.622387  1
  Sb  Sb86  1  0.122785  0.923045  0.745748  1
  Sb  Sb87  1  0.122733  0.819196  0.945843  1
  Sb  Sb88  1  0.230423  0.142774  0.177069  1
  Sb  Sb89  1  0.123647  0.302400  0.647141  1
  Sb  Sb90  1  0.018000  0.363318  0.325395  1
  Sb  Sb91  1  0.623646  0.197600  0.852859  1
  Sb  Sb92  1  0.861463  0.752906  0.122387  1
  Sb  Sb93  1  0.730423  0.357226  0.322931  1
  Sb  Sb94  1  0.877267  0.180804  0.054157  1
  Sb  Sb95  1  0.374501  0.154886  0.055741  1
