# generated using pymatgen
data_Ba14Na17CaN6
_symmetry_space_group_name_H-M   'P 1'
_cell_length_a   11.17379603
_cell_length_b   12.04399352
_cell_length_c   13.72688480
_cell_angle_alpha   66.68601435
_cell_angle_beta   67.61054621
_cell_angle_gamma   78.80058796
_symmetry_Int_Tables_number   1
_chemical_formula_structural   Ba14Na17CaN6
_chemical_formula_sum   'Ba14 Na17 Ca1 N6'
_cell_volume   1566.54494043
_cell_formula_units_Z   1
loop_
 _symmetry_equiv_pos_site_id
 _symmetry_equiv_pos_as_xyz
  1  'x, y, z'
loop_
 _atom_site_type_symbol
 _atom_site_label
 _atom_site_symmetry_multiplicity
 _atom_site_fract_x
 _atom_site_fract_y
 _atom_site_fract_z
 _atom_site_occupancy
  Ba  Ba0  1  0.369228  0.779110  0.445663  1
  Ba  Ba1  1  0.630772  0.220890  0.554337  1
  Ba  Ba2  1  0.276388  0.309015  0.696518  1
  Ba  Ba3  1  0.723612  0.690985  0.303482  1
  Ba  Ba4  1  0.262634  0.520826  0.405712  1
  Ba  Ba5  1  0.737366  0.479174  0.594288  1
  Ba  Ba6  1  0.384769  0.568868  0.733584  1
  Ba  Ba7  1  0.615231  0.431132  0.266416  1
  Ba  Ba8  1  0.341926  0.162458  0.456567  1
  Ba  Ba9  1  0.658074  0.837542  0.543433  1
  Ba  Ba10  1  0.476298  0.788709  0.119320  1
  Ba  Ba11  1  0.523702  0.211291  0.880680  1
  Ba  Ba12  1  0.030160  0.618207  0.677684  1
  Ba  Ba13  1  0.969839  0.381793  0.322316  1
  Ca  Ca14  1  0.500000  0.500000  0.500000  1
  Na  Na15  1  0.000000  0.000000  0.500000  1
  Na  Na16  1  0.236583  0.095817  0.209046  1
  Na  Na17  1  0.763417  0.904183  0.790954  1
  Na  Na18  1  0.630576  0.598859  0.894601  1
  Na  Na19  1  0.369424  0.401141  0.105399  1
  Na  Na20  1  0.040356  0.815500  0.311157  1
  Na  Na21  1  0.959644  0.184500  0.688843  1
  Na  Na22  1  0.136113  0.892645  0.754189  1
  Na  Na23  1  0.863887  0.107355  0.245811  1
  Na  Na24  1  0.587136  0.086176  0.186800  1
  Na  Na25  1  0.412864  0.913824  0.813200  1
  Na  Na26  1  0.904807  0.645081  0.984463  1
  Na  Na27  1  0.095193  0.354919  0.015537  1
  Na  Na28  1  0.852151  0.971633  0.991626  1
  Na  Na29  1  0.147849  0.028367  0.008374  1
  Na  Na30  1  0.169069  0.689376  0.055955  1
  Na  Na31  1  0.830931  0.310624  0.944045  1
  N  N32  1  0.488189  0.641957  0.306888  1
  N  N33  1  0.511811  0.358043  0.693112  1
  N  N34  1  0.426406  0.327142  0.476039  1
  N  N35  1  0.573594  0.672858  0.523961  1
  N  N36  1  0.736600  0.441086  0.406726  1
  N  N37  1  0.263400  0.558914  0.593274  1
