# generated using pymatgen
data_K3Sm(AsS4)2
_symmetry_space_group_name_H-M   'P 1'
_cell_length_a   9.06354008
_cell_length_b   10.25813603
_cell_length_c   10.97742022
_cell_angle_alpha   107.44116819
_cell_angle_beta   102.89919940
_cell_angle_gamma   113.93923694
_symmetry_Int_Tables_number   1
_chemical_formula_structural   K3Sm(AsS4)2
_chemical_formula_sum   'K6 Sm2 As4 S16'
_cell_volume   817.38218745
_cell_formula_units_Z   2
loop_
 _symmetry_equiv_pos_site_id
 _symmetry_equiv_pos_as_xyz
  1  'x, y, z'
loop_
 _atom_site_type_symbol
 _atom_site_label
 _atom_site_symmetry_multiplicity
 _atom_site_fract_x
 _atom_site_fract_y
 _atom_site_fract_z
 _atom_site_occupancy
  K  K0  1  0.254675  0.004675  0.009351  1
  K  K1  1  0.489310  0.739310  0.478621  1
  K  K2  1  0.500000  0.500000  0.000000  1
  K  K3  1  0.510690  0.260690  0.521379  1
  K  K4  1  0.745325  0.995325  0.990649  1
  K  K5  1  0.000000  0.500000  0.000000  1
  Sm  Sm6  1  0.992841  0.242841  0.485683  1
  Sm  Sm7  1  0.007159  0.757159  0.514317  1
  As  As8  1  0.991374  0.094185  0.751351  1
  As  As9  1  0.740023  0.342834  0.248649  1
  As  As10  1  0.259977  0.657166  0.751351  1
  As  As11  1  0.008626  0.905815  0.248649  1
  S  S12  1  0.361551  0.733569  0.973066  1
  S  S13  1  0.136376  0.157207  0.290134  1
  S  S14  1  0.347752  0.503319  0.643900  1
  S  S15  1  0.888485  0.760502  0.026934  1
  S  S16  1  0.346242  0.867073  0.709866  1
  S  S17  1  0.203851  0.859419  0.356100  1
  S  S18  1  0.970995  0.529014  0.654448  1
  S  S19  1  0.816547  0.874566  0.345552  1
  S  S20  1  0.652248  0.496681  0.356100  1
  S  S21  1  0.029005  0.470986  0.345552  1
  S  S22  1  0.183453  0.125434  0.654448  1
  S  S23  1  0.796149  0.140581  0.643900  1
  S  S24  1  0.638449  0.266431  0.026934  1
  S  S25  1  0.111515  0.239498  0.973066  1
  S  S26  1  0.653758  0.132927  0.290134  1
  S  S27  1  0.863624  0.842793  0.709866  1
