# generated using pymatgen
data_Ce3Ni2Sn7
_symmetry_space_group_name_H-M   'P 1'
_cell_length_a   4.61834201
_cell_length_b   4.59159556
_cell_length_c   13.84644972
_cell_angle_alpha   90.00000000
_cell_angle_beta   99.60006645
_cell_angle_gamma   90.00000000
_symmetry_Int_Tables_number   1
_chemical_formula_structural   Ce3Ni2Sn7
_chemical_formula_sum   'Ce3 Ni2 Sn7'
_cell_volume   289.50977784
_cell_formula_units_Z   1
loop_
 _symmetry_equiv_pos_site_id
 _symmetry_equiv_pos_as_xyz
  1  'x, y, z'
loop_
 _atom_site_type_symbol
 _atom_site_label
 _atom_site_symmetry_multiplicity
 _atom_site_fract_x
 _atom_site_fract_y
 _atom_site_fract_z
 _atom_site_occupancy
  Ce  Ce0  1  0.500000  0.500000  0.000000  1
  Ce  Ce1  1  0.814825  0.000000  0.629650  1
  Ce  Ce2  1  0.185175  0.000000  0.370350  1
  Ni  Ni3  1  0.627536  0.500000  0.255071  1
  Ni  Ni4  1  0.372464  0.500000  0.744929  1
  Sn  Sn5  1  0.000000  0.000000  0.000000  1
  Sn  Sn6  1  0.588387  0.000000  0.176773  1
  Sn  Sn7  1  0.411613  0.000000  0.823227  1
  Sn  Sn8  1  0.910933  0.500000  0.821866  1
  Sn  Sn9  1  0.089067  0.500000  0.178134  1
  Sn  Sn10  1  0.718509  0.500000  0.437018  1
  Sn  Sn11  1  0.281491  0.500000  0.562982  1
