# generated using pymatgen
data_CeP5
_symmetry_space_group_name_H-M   'P 1'
_cell_length_a   4.60790064
_cell_length_b   5.57480990
_cell_length_c   9.57692510
_cell_angle_alpha   90.00000000
_cell_angle_beta   90.00000000
_cell_angle_gamma   108.93770540
_symmetry_Int_Tables_number   1
_chemical_formula_structural   CeP5
_chemical_formula_sum   'Ce2 P10'
_cell_volume   232.69745002
_cell_formula_units_Z   2
loop_
 _symmetry_equiv_pos_site_id
 _symmetry_equiv_pos_as_xyz
  1  'x, y, z'
loop_
 _atom_site_type_symbol
 _atom_site_label
 _atom_site_symmetry_multiplicity
 _atom_site_fract_x
 _atom_site_fract_y
 _atom_site_fract_z
 _atom_site_occupancy
  P  P0  1  0.235905  0.553452  0.250000  1
  P  P1  1  0.764095  0.446548  0.750000  1
  P  P2  1  0.133041  0.480493  0.905511  1
  P  P3  1  0.866959  0.519507  0.405511  1
  P  P4  1  0.866959  0.519507  0.094489  1
  P  P5  1  0.133041  0.480493  0.594489  1
  P  P6  1  0.209238  0.111811  0.942935  1
  P  P7  1  0.790762  0.888189  0.442935  1
  P  P8  1  0.790762  0.888189  0.057065  1
  P  P9  1  0.209238  0.111811  0.557065  1
  Ce  Ce10  1  0.402899  0.094557  0.250000  1
  Ce  Ce11  1  0.597101  0.905443  0.750000  1
