# generated using pymatgen
data_Si3N4
_symmetry_space_group_name_H-M   'P 1'
_cell_length_a   12.52608157
_cell_length_b   12.52608144
_cell_length_c   8.09143121
_cell_angle_alpha   90.00000000
_cell_angle_beta   90.00000000
_cell_angle_gamma   120.00000040
_symmetry_Int_Tables_number   1
_chemical_formula_structural   Si3N4
_chemical_formula_sum   'Si18 N24'
_cell_volume   1099.47774390
_cell_formula_units_Z   6
loop_
 _symmetry_equiv_pos_site_id
 _symmetry_equiv_pos_as_xyz
  1  'x, y, z'
loop_
 _atom_site_type_symbol
 _atom_site_label
 _atom_site_symmetry_multiplicity
 _atom_site_fract_x
 _atom_site_fract_y
 _atom_site_fract_z
 _atom_site_occupancy
  Si  Si0  1  0.010519  0.238369  0.455134  1
  Si  Si1  1  0.163468  0.122842  0.607239  1
  Si  Si2  1  0.040626  0.163468  0.107239  1
  Si  Si3  1  0.959374  0.836532  0.607239  1
  Si  Si4  1  0.772150  0.010519  0.955134  1
  Si  Si5  1  0.836532  0.877158  0.107239  1
  Si  Si6  1  0.772116  0.010511  0.259322  1
  Si  Si7  1  0.122842  0.959374  0.107239  1
  Si  Si8  1  0.761605  0.772116  0.759322  1
  Si  Si9  1  0.238395  0.227884  0.259322  1
  Si  Si10  1  0.010511  0.238395  0.759322  1
  Si  Si11  1  0.761631  0.772150  0.455134  1
  Si  Si12  1  0.989489  0.761605  0.259322  1
  Si  Si13  1  0.877158  0.040626  0.607239  1
  Si  Si14  1  0.227850  0.989481  0.455134  1
  Si  Si15  1  0.989481  0.761631  0.955134  1
  Si  Si16  1  0.227884  0.989489  0.759322  1
  Si  Si17  1  0.238369  0.227850  0.955134  1
  N  N18  1  0.315886  0.981526  0.607210  1
  N  N19  1  0.144504  0.103924  0.107240  1
  N  N20  1  0.098642  0.246849  0.927374  1
  N  N21  1  0.684114  0.018474  0.107210  1
  N  N22  1  0.665639  0.684114  0.607210  1
  N  N23  1  0.246861  0.148203  0.787082  1
  N  N24  1  0.246849  0.148207  0.427374  1
  N  N25  1  0.103924  0.959420  0.607240  1
  N  N26  1  0.855496  0.896076  0.607240  1
  N  N27  1  0.896076  0.040580  0.107240  1
  N  N28  1  0.148207  0.901358  0.927374  1
  N  N29  1  0.334361  0.315886  0.107210  1
  N  N30  1  0.901358  0.753151  0.427374  1
  N  N31  1  0.018474  0.334361  0.607210  1
  N  N32  1  0.851793  0.098642  0.427374  1
  N  N33  1  0.098658  0.246861  0.287082  1
  N  N34  1  0.753151  0.851793  0.927374  1
  N  N35  1  0.753139  0.851797  0.287082  1
  N  N36  1  0.148203  0.901342  0.287082  1
  N  N37  1  0.901342  0.753139  0.787082  1
  N  N38  1  0.851797  0.098658  0.787082  1
  N  N39  1  0.981526  0.665639  0.107210  1
  N  N40  1  0.959420  0.855496  0.107240  1
  N  N41  1  0.040580  0.144504  0.607240  1
