# generated using pymatgen
data_Ba2Co(PO4)2
_symmetry_space_group_name_H-M   'P 1'
_cell_length_a   5.38556878
_cell_length_b   9.01969433
_cell_length_c   16.32079188
_cell_angle_alpha   89.99915155
_cell_angle_beta   90.98807009
_cell_angle_gamma   89.99998405
_symmetry_Int_Tables_number   1
_chemical_formula_structural   Ba2Co(PO4)2
_chemical_formula_sum   'Ba8 Co4 P8 O32'
_cell_volume   792.68390792
_cell_formula_units_Z   4
loop_
 _symmetry_equiv_pos_site_id
 _symmetry_equiv_pos_as_xyz
  1  'x, y, z'
loop_
 _atom_site_type_symbol
 _atom_site_label
 _atom_site_symmetry_multiplicity
 _atom_site_fract_x
 _atom_site_fract_y
 _atom_site_fract_z
 _atom_site_occupancy
  O  O0  1  0.849616  0.975169  0.743342  1
  O  O1  1  0.650395  0.475172  0.756642  1
  O  O2  1  0.150386  0.024830  0.256658  1
  O  O3  1  0.349606  0.524829  0.243358  1
  O  O4  1  0.458949  0.887929  0.665715  1
  O  O5  1  0.041046  0.387938  0.834275  1
  O  O6  1  0.541052  0.112070  0.334285  1
  O  O7  1  0.958953  0.612061  0.165725  1
  O  O8  1  0.856473  0.729003  0.670271  1
  O  O9  1  0.643519  0.229015  0.829718  1
  O  O10  1  0.143526  0.270997  0.329729  1
  O  O11  1  0.356482  0.770986  0.170282  1
  O  O12  1  0.846721  0.969063  0.588260  1
  O  O13  1  0.653273  0.469081  0.911726  1
  O  O14  1  0.153279  0.030938  0.411739  1
  O  O15  1  0.346726  0.530920  0.088274  1
  O  O16  1  0.479170  0.867267  0.874763  1
  O  O17  1  0.020833  0.367274  0.625228  1
  O  O18  1  0.520832  0.132732  0.125237  1
  O  O19  1  0.979166  0.632726  0.374772  1
  O  O20  1  0.798563  0.598811  0.515456  1
  O  O21  1  0.701422  0.098826  0.984548  1
  O  O22  1  0.201436  0.401190  0.484544  1
  O  O23  1  0.298577  0.901174  0.015452  1
  O  O24  1  0.533044  0.707564  0.399582  1
  O  O25  1  0.966961  0.207576  0.100424  1
  O  O26  1  0.143108  0.061526  0.892927  1
  O  O27  1  0.033041  0.792423  0.899576  1
  O  O28  1  0.643093  0.438467  0.392929  1
  O  O29  1  0.856891  0.938474  0.107073  1
  O  O30  1  0.356908  0.561534  0.607071  1
  O  O31  1  0.466955  0.292436  0.600419  1
  P  P32  1  0.748199  0.890398  0.666122  1
  P  P33  1  0.751798  0.390406  0.833869  1
  P  P34  1  0.251800  0.109603  0.333878  1
  P  P35  1  0.248203  0.609594  0.166130  1
  P  P36  1  0.238032  0.906651  0.923402  1
  P  P37  1  0.738028  0.593335  0.423406  1
  P  P38  1  0.761969  0.093349  0.076598  1
  P  P39  1  0.261972  0.406666  0.576594  1
  Co  Co40  1  0.768860  0.017115  0.864457  1
  Co  Co41  1  0.731135  0.517116  0.635538  1
  Co  Co42  1  0.268864  0.482883  0.364462  1
  Co  Co43  1  0.231140  0.982884  0.135543  1
  Ba  Ba44  1  0.791847  0.202211  0.481360  1
  Ba  Ba45  1  0.708153  0.702209  0.018641  1
  Ba  Ba46  1  0.208155  0.797789  0.518640  1
  Ba  Ba47  1  0.291848  0.297790  0.981359  1
  Ba  Ba48  1  0.248274  0.655960  0.769425  1
  Ba  Ba49  1  0.251723  0.155959  0.730565  1
  Ba  Ba50  1  0.751727  0.344040  0.230574  1
  Ba  Ba51  1  0.748276  0.844040  0.269434  1
