# generated using pymatgen
data_KBa2(PO3)5
_symmetry_space_group_name_H-M   'P 1'
_cell_length_a   7.44069985
_cell_length_b   8.79104893
_cell_length_c   10.96215491
_cell_angle_alpha   90.62786468
_cell_angle_beta   90.00000000
_cell_angle_gamma   90.00000000
_symmetry_Int_Tables_number   1
_chemical_formula_structural   KBa2(PO3)5
_chemical_formula_sum   'K2 Ba4 P10 O30'
_cell_volume   717.00856138
_cell_formula_units_Z   2
loop_
 _symmetry_equiv_pos_site_id
 _symmetry_equiv_pos_as_xyz
  1  'x, y, z'
loop_
 _atom_site_type_symbol
 _atom_site_label
 _atom_site_symmetry_multiplicity
 _atom_site_fract_x
 _atom_site_fract_y
 _atom_site_fract_z
 _atom_site_occupancy
  K  K0  1  0.355992  0.942907  0.879577  1
  K  K1  1  0.644008  0.442907  0.379577  1
  Ba  Ba2  1  0.163938  0.747118  0.501459  1
  Ba  Ba3  1  0.871430  0.747290  0.089239  1
  Ba  Ba4  1  0.836062  0.247118  0.001458  1
  Ba  Ba5  1  0.128570  0.247290  0.589239  1
  P  P6  1  0.658601  0.845828  0.397210  1
  P  P7  1  0.843869  0.586748  0.758962  1
  P  P8  1  0.347896  0.578272  0.097838  1
  P  P9  1  0.898528  0.929873  0.771370  1
  P  P10  1  0.549775  0.063059  0.194751  1
  P  P11  1  0.450225  0.563059  0.694751  1
  P  P12  1  0.341399  0.345828  0.897210  1
  P  P13  1  0.652104  0.078272  0.597838  1
  P  P14  1  0.156131  0.086748  0.258962  1
  P  P15  1  0.101472  0.429873  0.271370  1
  O  O16  1  0.057156  0.463565  0.402985  1
  O  O17  1  0.801311  0.767449  0.764437  1
  O  O18  1  0.173567  0.271057  0.847155  1
  O  O19  1  0.612756  0.999904  0.325261  1
  O  O20  1  0.710872  0.920434  0.527961  1
  O  O21  1  0.387244  0.499904  0.825261  1
  O  O22  1  0.951556  0.444330  0.179858  1
  O  O23  1  0.268292  0.537479  0.235090  1
  O  O24  1  0.336286  0.027040  0.192590  1
  O  O25  1  0.663714  0.527040  0.692590  1
  O  O26  1  0.731708  0.037479  0.735090  1
  O  O27  1  0.375244  0.470126  0.590238  1
  O  O28  1  0.826433  0.771057  0.347155  1
  O  O29  1  0.410395  0.729751  0.697626  1
  O  O30  1  0.547358  0.590571  0.109270  1
  O  O31  1  0.763021  0.206976  0.549627  1
  O  O32  1  0.048444  0.944330  0.679858  1
  O  O33  1  0.505167  0.247759  0.907509  1
  O  O34  1  0.851446  0.532342  0.888540  1
  O  O35  1  0.198689  0.267449  0.264437  1
  O  O36  1  0.494833  0.747759  0.407509  1
  O  O37  1  0.624756  0.970126  0.090238  1
  O  O38  1  0.236979  0.706975  0.049627  1
  O  O39  1  0.004974  0.053833  0.172337  1
  O  O40  1  0.942844  0.963565  0.902985  1
  O  O41  1  0.452642  0.090571  0.609270  1
  O  O42  1  0.289128  0.420434  0.027961  1
  O  O43  1  0.589605  0.229751  0.197626  1
  O  O44  1  0.995026  0.553833  0.672337  1
  O  O45  1  0.148554  0.032342  0.388540  1
