# generated using pymatgen
data_Fe2CoAs2(H5O7)2
_symmetry_space_group_name_H-M   'P 1'
_cell_length_a   5.65080149
_cell_length_b   9.63935470
_cell_length_c   10.35218699
_cell_angle_alpha   90.00000000
_cell_angle_beta   93.26379226
_cell_angle_gamma   90.00000000
_symmetry_Int_Tables_number   1
_chemical_formula_structural   Fe2CoAs2(H5O7)2
_chemical_formula_sum   'Fe4 Co2 As4 H20 O28'
_cell_volume   562.96982912
_cell_formula_units_Z   2
loop_
 _symmetry_equiv_pos_site_id
 _symmetry_equiv_pos_as_xyz
  1  'x, y, z'
loop_
 _atom_site_type_symbol
 _atom_site_label
 _atom_site_symmetry_multiplicity
 _atom_site_fract_x
 _atom_site_fract_y
 _atom_site_fract_z
 _atom_site_occupancy
  Co  Co0  1  0.000000  0.000000  0.000000  1
  Co  Co1  1  0.500000  0.500000  0.000000  1
  Fe  Fe2  1  0.661157  0.864612  0.549529  1
  Fe  Fe3  1  0.838843  0.364612  0.450471  1
  Fe  Fe4  1  0.338843  0.135388  0.450471  1
  Fe  Fe5  1  0.161157  0.635388  0.549529  1
  As  As6  1  0.668286  0.568760  0.708395  1
  As  As7  1  0.831714  0.068760  0.291605  1
  As  As8  1  0.331714  0.431240  0.291605  1
  As  As9  1  0.168286  0.931240  0.708395  1
  O  O10  1  0.878981  0.513041  0.601459  1
  O  O11  1  0.621019  0.013041  0.398541  1
  O  O12  1  0.121019  0.486959  0.398541  1
  O  O13  1  0.378981  0.986959  0.601459  1
  O  O14  1  0.395023  0.504471  0.650456  1
  O  O15  1  0.104977  0.004471  0.349544  1
  O  O16  1  0.604977  0.495529  0.349544  1
  O  O17  1  0.895023  0.995529  0.650456  1
  O  O18  1  0.737565  0.499028  0.856883  1
  O  O19  1  0.762435  0.999028  0.143117  1
  O  O20  1  0.262435  0.500972  0.143117  1
  O  O21  1  0.237565  0.000972  0.856883  1
  O  O22  1  0.676533  0.747401  0.711785  1
  O  O23  1  0.823467  0.247401  0.288215  1
  O  O24  1  0.323467  0.252599  0.288215  1
  O  O25  1  0.176533  0.752599  0.711785  1
  O  O26  1  0.929829  0.771216  0.465264  1
  O  O27  1  0.570171  0.271216  0.534736  1
  O  O28  1  0.070171  0.228784  0.534736  1
  O  O29  1  0.429829  0.728784  0.465264  1
  O  O30  1  0.705391  0.101681  0.874439  1
  O  O31  1  0.794609  0.601681  0.125561  1
  O  O32  1  0.294609  0.898319  0.125561  1
  O  O33  1  0.205391  0.398319  0.874439  1
  O  O34  1  0.885085  0.811202  0.954329  1
  O  O35  1  0.614915  0.311202  0.045671  1
  O  O36  1  0.114915  0.188798  0.045671  1
  O  O37  1  0.385085  0.688798  0.954329  1
  H  H38  1  0.017979  0.841287  0.416711  1
  H  H39  1  0.482021  0.341287  0.583289  1
  H  H40  1  0.982021  0.158713  0.583289  1
  H  H41  1  0.517979  0.658713  0.416711  1
  H  H42  1  0.753578  0.086617  0.785032  1
  H  H43  1  0.746422  0.586617  0.214968  1
  H  H44  1  0.246422  0.913383  0.214968  1
  H  H45  1  0.253578  0.413383  0.785032  1
  H  H46  1  0.542229  0.062407  0.875296  1
  H  H47  1  0.957771  0.562407  0.124704  1
  H  H48  1  0.457771  0.937593  0.124704  1
  H  H49  1  0.042229  0.437593  0.875296  1
  H  H50  1  0.785387  0.793256  0.873989  1
  H  H51  1  0.714613  0.293256  0.126011  1
  H  H52  1  0.214613  0.206744  0.126011  1
  H  H53  1  0.285387  0.706744  0.873989  1
  H  H54  1  0.823610  0.753357  0.024214  1
  H  H55  1  0.676390  0.253357  0.975786  1
  H  H56  1  0.176390  0.246643  0.975786  1
  H  H57  1  0.323610  0.746643  0.024214  1
