# generated using pymatgen
data_NaCuF3
_symmetry_space_group_name_H-M   'P 1'
_cell_length_a   5.43940617
_cell_length_b   5.62870814
_cell_length_c   7.81804518
_cell_angle_alpha   89.88426609
_cell_angle_beta   89.48834418
_cell_angle_gamma   89.56349717
_symmetry_Int_Tables_number   1
_chemical_formula_structural   NaCuF3
_chemical_formula_sum   'Na4 Cu4 F12'
_cell_volume   239.34681277
_cell_formula_units_Z   4
loop_
 _symmetry_equiv_pos_site_id
 _symmetry_equiv_pos_as_xyz
  1  'x, y, z'
loop_
 _atom_site_type_symbol
 _atom_site_label
 _atom_site_symmetry_multiplicity
 _atom_site_fract_x
 _atom_site_fract_y
 _atom_site_fract_z
 _atom_site_occupancy
  Na  Na0  1  0.486045  0.444198  0.246412  1
  Na  Na1  1  0.513955  0.555802  0.753588  1
  Na  Na2  1  0.018155  0.943356  0.254238  1
  Na  Na3  1  0.981845  0.056644  0.745762  1
  Cu  Cu4  1  0.500000  0.000000  0.000000  1
  Cu  Cu5  1  0.000000  0.500000  0.000000  1
  Cu  Cu6  1  0.500000  0.000000  0.500000  1
  Cu  Cu7  1  0.000000  0.500000  0.500000  1
  F  F8  1  0.303581  0.708653  0.051031  1
  F  F9  1  0.696419  0.291347  0.948969  1
  F  F10  1  0.797904  0.794510  0.942222  1
  F  F11  1  0.202096  0.205490  0.057778  1
  F  F12  1  0.296519  0.698131  0.446237  1
  F  F13  1  0.703481  0.301869  0.553763  1
  F  F14  1  0.802003  0.798559  0.549661  1
  F  F15  1  0.197997  0.201441  0.450339  1
  F  F16  1  0.601508  0.033994  0.254432  1
  F  F17  1  0.398492  0.966006  0.745568  1
  F  F18  1  0.899282  0.536714  0.245140  1
  F  F19  1  0.100718  0.463286  0.754860  1
