# generated using pymatgen
data_NpAgSeO5
_symmetry_space_group_name_H-M   'P 1'
_cell_length_a   4.30216270
_cell_length_b   9.78621485
_cell_length_c   11.83387560
_cell_angle_alpha   90.00000000
_cell_angle_beta   94.89970989
_cell_angle_gamma   90.00000000
_symmetry_Int_Tables_number   1
_chemical_formula_structural   NpAgSeO5
_chemical_formula_sum   'Np4 Ag4 Se4 O20'
_cell_volume   496.40784939
_cell_formula_units_Z   4
loop_
 _symmetry_equiv_pos_site_id
 _symmetry_equiv_pos_as_xyz
  1  'x, y, z'
loop_
 _atom_site_type_symbol
 _atom_site_label
 _atom_site_symmetry_multiplicity
 _atom_site_fract_x
 _atom_site_fract_y
 _atom_site_fract_z
 _atom_site_occupancy
  Np  Np0  1  0.249828  0.156876  0.255934  1
  Np  Np1  1  0.749828  0.343124  0.755934  1
  Np  Np2  1  0.250172  0.656876  0.244066  1
  Np  Np3  1  0.750172  0.843124  0.744066  1
  Ag  Ag4  1  0.797346  0.889443  0.413397  1
  Ag  Ag5  1  0.297346  0.610557  0.913397  1
  Ag  Ag6  1  0.702654  0.389443  0.086603  1
  Ag  Ag7  1  0.202654  0.110557  0.586603  1
  Se  Se8  1  0.283132  0.587878  0.612351  1
  Se  Se9  1  0.783132  0.912122  0.112351  1
  Se  Se10  1  0.716868  0.412122  0.387649  1
  Se  Se11  1  0.216868  0.087878  0.887649  1
  O  O12  1  0.272131  0.958403  0.789798  1
  O  O13  1  0.218304  0.246709  0.115227  1
  O  O14  1  0.816390  0.088276  0.861089  1
  O  O15  1  0.220405  0.567591  0.102643  1
  O  O16  1  0.226942  0.731535  0.694604  1
  O  O17  1  0.727869  0.041597  0.210202  1
  O  O18  1  0.316390  0.411724  0.361089  1
  O  O19  1  0.273058  0.231535  0.805396  1
  O  O20  1  0.779595  0.432409  0.897357  1
  O  O21  1  0.781696  0.753291  0.884773  1
  O  O22  1  0.718304  0.253291  0.615227  1
  O  O23  1  0.183610  0.911724  0.138911  1
  O  O24  1  0.720405  0.932409  0.602643  1
  O  O25  1  0.773058  0.268465  0.305396  1
  O  O26  1  0.279595  0.067591  0.397357  1
  O  O27  1  0.726942  0.768465  0.194604  1
  O  O28  1  0.281696  0.746709  0.384773  1
  O  O29  1  0.227869  0.458403  0.710202  1
  O  O30  1  0.772131  0.541597  0.289798  1
  O  O31  1  0.683610  0.588276  0.638911  1
