# generated using pymatgen
data_H14C5(NO)2
_symmetry_space_group_name_H-M   'P 1'
_cell_length_a   7.63347636
_cell_length_b   9.44212533
_cell_length_c   11.22976519
_cell_angle_alpha   90.00000000
_cell_angle_beta   93.94193835
_cell_angle_gamma   90.00000000
_symmetry_Int_Tables_number   1
_chemical_formula_structural   H14C5(NO)2
_chemical_formula_sum   'H56 C20 N8 O8'
_cell_volume   807.48440135
_cell_formula_units_Z   4
loop_
 _symmetry_equiv_pos_site_id
 _symmetry_equiv_pos_as_xyz
  1  'x, y, z'
loop_
 _atom_site_type_symbol
 _atom_site_label
 _atom_site_symmetry_multiplicity
 _atom_site_fract_x
 _atom_site_fract_y
 _atom_site_fract_z
 _atom_site_occupancy
  H  H0  1  0.042673  0.286886  0.945715  1
  H  H1  1  0.189212  0.269323  0.828924  1
  H  H2  1  0.349431  0.881809  0.326604  1
  H  H3  1  0.104820  0.548881  0.354710  1
  H  H4  1  0.368429  0.401993  0.451278  1
  H  H5  1  0.810788  0.730677  0.171076  1
  H  H6  1  0.541755  0.650687  0.403056  1
  H  H7  1  0.572349  0.849445  0.533239  1
  H  H8  1  0.458245  0.349313  0.596944  1
  H  H9  1  0.650569  0.381809  0.173396  1
  H  H10  1  0.541755  0.849313  0.903056  1
  H  H11  1  0.146242  0.059267  0.391509  1
  H  H12  1  0.206993  0.689910  0.442477  1
  H  H13  1  0.104820  0.951119  0.854710  1
  H  H14  1  0.591826  0.339200  0.320340  1
  H  H15  1  0.427651  0.349445  0.966761  1
  H  H16  1  0.286491  0.369518  0.080389  1
  H  H17  1  0.146242  0.440733  0.891509  1
  H  H18  1  0.188338  0.607671  0.704098  1
  H  H19  1  0.975782  0.227122  0.159590  1
  H  H20  1  0.811662  0.392329  0.295902  1
  H  H21  1  0.228484  0.385804  0.571550  1
  H  H22  1  0.631571  0.901993  0.048722  1
  H  H23  1  0.042673  0.213114  0.445715  1
  H  H24  1  0.793007  0.310090  0.557523  1
  H  H25  1  0.713509  0.869518  0.419611  1
  H  H26  1  0.811662  0.107671  0.795902  1
  H  H27  1  0.853758  0.559267  0.108491  1
  H  H28  1  0.189212  0.230677  0.328924  1
  H  H29  1  0.650569  0.118191  0.673396  1
  H  H30  1  0.771516  0.885804  0.928450  1
  H  H31  1  0.895180  0.048881  0.145290  1
  H  H32  1  0.793007  0.189910  0.057523  1
  H  H33  1  0.771516  0.614196  0.428450  1
  H  H34  1  0.458245  0.150687  0.096944  1
  H  H35  1  0.957327  0.786886  0.554285  1
  H  H36  1  0.427651  0.150555  0.466761  1
  H  H37  1  0.408174  0.839200  0.179660  1
  H  H38  1  0.975782  0.272878  0.659590  1
  H  H39  1  0.810788  0.769323  0.671076  1
  H  H40  1  0.349431  0.618191  0.826604  1
  H  H41  1  0.853758  0.940733  0.608491  1
  H  H42  1  0.895180  0.451119  0.645290  1
  H  H43  1  0.591826  0.160800  0.820340  1
  H  H44  1  0.572349  0.650555  0.033239  1
  H  H45  1  0.408174  0.660800  0.679660  1
  H  H46  1  0.631571  0.598007  0.548722  1
  H  H47  1  0.286491  0.130482  0.580389  1
  H  H48  1  0.957327  0.713114  0.054285  1
  H  H49  1  0.024218  0.727122  0.340410  1
  H  H50  1  0.206993  0.810090  0.942477  1
  H  H51  1  0.024218  0.772878  0.840410  1
  H  H52  1  0.713509  0.630482  0.919611  1
  H  H53  1  0.188338  0.892329  0.204098  1
  H  H54  1  0.228484  0.114196  0.071550  1
  H  H55  1  0.368429  0.098007  0.951278  1
  C  C56  1  0.708386  0.082231  0.324730  1
  C  C57  1  0.708386  0.417769  0.824730  1
  C  C58  1  0.655676  0.841945  0.967850  1
  C  C59  1  0.303982  0.667779  0.741377  1
  C  C60  1  0.163224  0.327636  0.910383  1
  C  C61  1  0.163224  0.172364  0.410383  1
  C  C62  1  0.291614  0.917769  0.675270  1
  C  C63  1  0.143006  0.839404  0.854872  1
  C  C64  1  0.655676  0.658055  0.467850  1
  C  C65  1  0.696018  0.167779  0.758623  1
  C  C66  1  0.836776  0.827636  0.589617  1
  C  C67  1  0.143006  0.660596  0.354872  1
  C  C68  1  0.303982  0.832221  0.241377  1
  C  C69  1  0.291614  0.582231  0.175270  1
  C  C70  1  0.696018  0.332221  0.258623  1
  C  C71  1  0.856994  0.339404  0.645128  1
  C  C72  1  0.836776  0.672364  0.089617  1
  C  C73  1  0.344324  0.341945  0.532150  1
  C  C74  1  0.344324  0.158055  0.032150  1
  C  C75  1  0.856994  0.160596  0.145128  1
  N  N76  1  0.260852  0.815256  0.760792  1
  N  N77  1  0.312375  0.191446  0.500644  1
  N  N78  1  0.739148  0.315256  0.739208  1
  N  N79  1  0.260852  0.684744  0.260792  1
  N  N80  1  0.687625  0.808554  0.499356  1
  N  N81  1  0.687625  0.691446  0.999356  1
  N  N82  1  0.312375  0.308554  0.000644  1
  N  N83  1  0.739148  0.184744  0.239208  1
  O  O84  1  0.763206  0.955487  0.306673  1
  O  O85  1  0.763206  0.544513  0.806673  1
  O  O86  1  0.236794  0.455487  0.193327  1
  O  O87  1  0.627235  0.380377  0.915446  1
  O  O88  1  0.627235  0.119623  0.415446  1
  O  O89  1  0.372765  0.880377  0.584554  1
  O  O90  1  0.372765  0.619623  0.084554  1
  O  O91  1  0.236794  0.044513  0.693327  1
