# generated using pymatgen
data_BaMo2Se2O11
_symmetry_space_group_name_H-M   'P 1'
_cell_length_a   7.99006558
_cell_length_b   8.13764667
_cell_length_c   9.02146522
_cell_angle_alpha   116.80887690
_cell_angle_beta   90.00000000
_cell_angle_gamma   90.00000000
_symmetry_Int_Tables_number   1
_chemical_formula_structural   BaMo2Se2O11
_chemical_formula_sum   'Ba2 Mo4 Se4 O22'
_cell_volume   523.53080365
_cell_formula_units_Z   2
loop_
 _symmetry_equiv_pos_site_id
 _symmetry_equiv_pos_as_xyz
  1  'x, y, z'
loop_
 _atom_site_type_symbol
 _atom_site_label
 _atom_site_symmetry_multiplicity
 _atom_site_fract_x
 _atom_site_fract_y
 _atom_site_fract_z
 _atom_site_occupancy
  Ba  Ba0  1  0.667908  0.231460  1.000000  1
  Ba  Ba1  1  0.167908  0.768540  0.000000  1
  Mo  Mo2  1  0.659745  0.842598  0.217059  1
  Mo  Mo3  1  0.159745  0.157402  0.782941  1
  Mo  Mo4  1  0.659745  0.625539  0.782941  1
  Mo  Mo5  1  0.159745  0.374461  0.217059  1
  Se  Se6  1  0.810231  0.292303  0.415636  1
  Se  Se7  1  0.310231  0.123334  0.415636  1
  Se  Se8  1  0.810231  0.876666  0.584364  1
  Se  Se9  1  0.310231  0.707697  0.584364  1
  O  O10  1  0.129132  0.565922  0.181302  1
  O  O11  1  0.582573  0.814481  1.000000  1
  O  O12  1  0.396331  0.913570  0.280501  1
  O  O13  1  0.659777  0.864863  0.716332  1
  O  O14  1  0.396331  0.633069  0.719499  1
  O  O15  1  0.873800  0.845109  0.177953  1
  O  O16  1  0.373800  0.332844  0.177953  1
  O  O17  1  0.896331  0.366931  0.280501  1
  O  O18  1  0.181943  0.044598  0.529449  1
  O  O19  1  0.896331  0.086430  0.719499  1
  O  O20  1  0.629132  0.434078  0.818698  1
  O  O21  1  0.681943  0.484851  0.529449  1
  O  O22  1  0.659777  0.148531  0.283668  1
  O  O23  1  0.629132  0.615379  0.181302  1
  O  O24  1  0.373800  0.154891  0.822047  1
  O  O25  1  0.082573  0.185519  0.000000  1
  O  O26  1  0.159777  0.135137  0.283668  1
  O  O27  1  0.159777  0.851469  0.716332  1
  O  O28  1  0.681943  0.955402  0.470551  1
  O  O29  1  0.873800  0.667156  0.822047  1
  O  O30  1  0.181943  0.515149  0.470551  1
  O  O31  1  0.129132  0.384621  0.818698  1
