# generated using pymatgen
data_Rb3MnF7
_symmetry_space_group_name_H-M   'P 1'
_cell_length_a   5.99634274
_cell_length_b   8.21791807
_cell_length_c   8.21791807
_cell_angle_alpha   90.00000000
_cell_angle_beta   90.00000000
_cell_angle_gamma   90.00000000
_symmetry_Int_Tables_number   1
_chemical_formula_structural   Rb3MnF7
_chemical_formula_sum   'Rb6 Mn2 F14'
_cell_volume   404.95807439
_cell_formula_units_Z   2
loop_
 _symmetry_equiv_pos_site_id
 _symmetry_equiv_pos_as_xyz
  1  'x, y, z'
loop_
 _atom_site_type_symbol
 _atom_site_label
 _atom_site_symmetry_multiplicity
 _atom_site_fract_x
 _atom_site_fract_y
 _atom_site_fract_z
 _atom_site_occupancy
  F  F0  1  0.778965  0.889244  0.389244  1
  F  F1  1  0.778965  0.110756  0.610756  1
  F  F2  1  0.778965  0.389244  0.110756  1
  F  F3  1  0.778965  0.610756  0.889244  1
  F  F4  1  0.221035  0.889244  0.389244  1
  F  F5  1  0.221035  0.610756  0.889244  1
  F  F6  1  0.221035  0.389244  0.110756  1
  F  F7  1  0.221035  0.110756  0.610756  1
  F  F8  1  0.500000  0.000000  0.000000  1
  F  F9  1  0.500000  0.500000  0.500000  1
  F  F10  1  0.000000  0.341084  0.841084  1
  F  F11  1  0.000000  0.158916  0.341084  1
  F  F12  1  0.000000  0.841084  0.658916  1
  F  F13  1  0.000000  0.658916  0.158916  1
  Mn  Mn14  1  0.000000  0.500000  0.000000  1
  Mn  Mn15  1  0.000000  0.000000  0.500000  1
  Rb  Rb16  1  0.500000  0.691860  0.191860  1
  Rb  Rb17  1  0.500000  0.808140  0.691860  1
  Rb  Rb18  1  0.500000  0.191860  0.308140  1
  Rb  Rb19  1  0.500000  0.308140  0.808140  1
  Rb  Rb20  1  0.000000  0.500000  0.500000  1
  Rb  Rb21  1  0.000000  0.000000  0.000000  1
