# generated using pymatgen
data_ZnB4O7
_symmetry_space_group_name_H-M   'P 1'
_cell_length_a   5.22112821
_cell_length_b   6.36384359
_cell_length_c   6.36384383
_cell_angle_alpha   118.06881242
_cell_angle_beta   90.00000000
_cell_angle_gamma   90.00000000
_symmetry_Int_Tables_number   1
_chemical_formula_structural   ZnB4O7
_chemical_formula_sum   'Zn2 B8 O14'
_cell_volume   186.57805426
_cell_formula_units_Z   2
loop_
 _symmetry_equiv_pos_site_id
 _symmetry_equiv_pos_as_xyz
  1  'x, y, z'
loop_
 _atom_site_type_symbol
 _atom_site_label
 _atom_site_symmetry_multiplicity
 _atom_site_fract_x
 _atom_site_fract_y
 _atom_site_fract_z
 _atom_site_occupancy
  Zn  Zn0  1  0.750000  0.766103  0.766103  1
  Zn  Zn1  1  0.250000  0.233897  0.233897  1
  B  B2  1  0.500000  0.297571  0.702429  1
  B  B3  1  0.000000  0.702429  0.297571  1
  B  B4  1  0.000000  0.297571  0.702429  1
  B  B5  1  0.250000  0.924631  0.689564  1
  B  B6  1  0.250000  0.689564  0.924631  1
  B  B7  1  0.500000  0.702429  0.297571  1
  B  B8  1  0.750000  0.310436  0.075369  1
  B  B9  1  0.750000  0.075369  0.310436  1
  O  O10  1  0.250000  0.920341  0.920341  1
  O  O11  1  0.976941  0.189307  0.445806  1
  O  O12  1  0.750000  0.079659  0.079659  1
  O  O13  1  0.023059  0.810693  0.554194  1
  O  O14  1  0.476941  0.554194  0.810693  1
  O  O15  1  0.250000  0.754926  0.195503  1
  O  O16  1  0.523059  0.189307  0.445806  1
  O  O17  1  0.976941  0.445806  0.189307  1
  O  O18  1  0.750000  0.804497  0.245074  1
  O  O19  1  0.023059  0.554194  0.810693  1
  O  O20  1  0.250000  0.195503  0.754926  1
  O  O21  1  0.523059  0.445806  0.189307  1
  O  O22  1  0.750000  0.245074  0.804497  1
  O  O23  1  0.476941  0.810693  0.554194  1
