# generated using pymatgen
data_Li3Ni2(PO4)3
_symmetry_space_group_name_H-M   'P 1'
_cell_length_a   8.46606731
_cell_length_b   8.75465625
_cell_length_c   12.16144184
_cell_angle_alpha   90.00000000
_cell_angle_beta   88.72173372
_cell_angle_gamma   90.00000000
_symmetry_Int_Tables_number   1
_chemical_formula_structural   Li3Ni2(PO4)3
_chemical_formula_sum   'Li12 Ni8 P12 O48'
_cell_volume   901.15146268
_cell_formula_units_Z   4
loop_
 _symmetry_equiv_pos_site_id
 _symmetry_equiv_pos_as_xyz
  1  'x, y, z'
loop_
 _atom_site_type_symbol
 _atom_site_label
 _atom_site_symmetry_multiplicity
 _atom_site_fract_x
 _atom_site_fract_y
 _atom_site_fract_z
 _atom_site_occupancy
  Li  Li0  1  0.067995  0.509886  0.655434  1
  Li  Li1  1  0.079843  0.085894  0.307111  1
  Li  Li2  1  0.179683  0.780365  0.821327  1
  Li  Li3  1  0.320316  0.280365  0.678673  1
  Li  Li4  1  0.420156  0.585894  0.192889  1
  Li  Li5  1  0.432005  0.009885  0.844566  1
  Li  Li6  1  0.567994  0.990114  0.155434  1
  Li  Li7  1  0.579843  0.414106  0.807111  1
  Li  Li8  1  0.679684  0.719635  0.321327  1
  Li  Li9  1  0.820316  0.219636  0.178673  1
  Li  Li10  1  0.920156  0.914107  0.692889  1
  Li  Li11  1  0.932006  0.490114  0.344566  1
  O  O12  1  0.186715  0.184732  0.566481  1
  O  O13  1  0.939917  0.117572  0.898441  1
  O  O14  1  0.944286  0.333905  0.601028  1
  O  O15  1  0.939206  0.420742  0.191166  1
  O  O16  1  0.907258  0.637109  0.584418  1
  O  O17  1  0.881004  0.794012  0.833321  1
  O  O18  1  0.879127  0.008930  0.243304  1
  O  O19  1  0.830296  0.732836  0.188070  1
  O  O20  1  0.047762  0.872866  0.554665  1
  O  O21  1  0.060084  0.882429  0.101558  1
  O  O22  1  0.055714  0.666095  0.398972  1
  O  O23  1  0.060795  0.579258  0.808834  1
  O  O24  1  0.092741  0.362891  0.415582  1
  O  O25  1  0.118996  0.205987  0.166679  1
  O  O26  1  0.120873  0.991069  0.756696  1
  O  O27  1  0.134276  0.427872  0.030916  1
  O  O28  1  0.169703  0.267164  0.811930  1
  O  O29  1  0.952237  0.127133  0.445335  1
  O  O30  1  0.231617  0.470381  0.222104  1
  O  O31  1  0.231753  0.050003  0.937776  1
  O  O32  1  0.268383  0.970380  0.277896  1
  O  O33  1  0.268247  0.550002  0.562224  1
  O  O34  1  0.313285  0.684732  0.933518  1
  O  O35  1  0.330297  0.767164  0.688070  1
  O  O36  1  0.365724  0.927872  0.469084  1
  O  O37  1  0.381004  0.705987  0.333320  1
  O  O38  1  0.379127  0.491069  0.743304  1
  O  O39  1  0.407259  0.862892  0.084418  1
  O  O40  1  0.444286  0.166095  0.101028  1
  O  O41  1  0.439917  0.382429  0.398442  1
  O  O42  1  0.439205  0.079258  0.691166  1
  O  O43  1  0.452238  0.372866  0.945335  1
  O  O44  1  0.547762  0.627134  0.054665  1
  O  O45  1  0.560795  0.920743  0.308834  1
  O  O46  1  0.560084  0.617572  0.601558  1
  O  O47  1  0.555714  0.833905  0.898972  1
  O  O48  1  0.592741  0.137109  0.915583  1
  O  O49  1  0.620873  0.508931  0.256696  1
  O  O50  1  0.618996  0.294013  0.666680  1
  O  O51  1  0.634277  0.072128  0.530916  1
  O  O52  1  0.669703  0.232837  0.311930  1
  O  O53  1  0.686715  0.315269  0.066481  1
  O  O54  1  0.731754  0.449998  0.437776  1
  O  O55  1  0.731618  0.029619  0.722104  1
  O  O56  1  0.768247  0.949998  0.062224  1
  O  O57  1  0.768383  0.529619  0.777896  1
  O  O58  1  0.813284  0.815269  0.433518  1
  O  O59  1  0.865724  0.572127  0.969085  1
  P  P60  1  0.958307  0.749277  0.490919  1
  P  P61  1  0.887743  0.616763  0.848426  1
  P  P62  1  0.889629  0.890630  0.146880  1
  P  P63  1  0.612258  0.116763  0.651575  1
  P  P64  1  0.610371  0.390629  0.353120  1
  P  P65  1  0.541693  0.249276  0.009082  1
  P  P66  1  0.458306  0.750724  0.990919  1
  P  P67  1  0.389629  0.609370  0.646880  1
  P  P68  1  0.041693  0.250724  0.509082  1
  P  P69  1  0.112258  0.383237  0.151574  1
  P  P70  1  0.387742  0.883237  0.348426  1
  P  P71  1  0.110371  0.109370  0.853120  1
  Ni  Ni72  1  0.246695  0.029152  0.104452  1
  Ni  Ni73  1  0.253305  0.529152  0.395547  1
  Ni  Ni74  1  0.245949  0.465942  0.889133  1
  Ni  Ni75  1  0.254051  0.965942  0.610866  1
  Ni  Ni76  1  0.745948  0.034059  0.389133  1
  Ni  Ni77  1  0.754051  0.534058  0.110866  1
  Ni  Ni78  1  0.746695  0.470848  0.604453  1
  Ni  Ni79  1  0.753305  0.970847  0.895548  1
