# generated using pymatgen
data_PH6C2S2N(ClO2)2
_symmetry_space_group_name_H-M   'P 1'
_cell_length_a   7.82964119
_cell_length_b   11.38572681
_cell_length_c   24.66352417
_cell_angle_alpha   102.11691619
_cell_angle_beta   90.00000000
_cell_angle_gamma   90.00000000
_symmetry_Int_Tables_number   1
_chemical_formula_structural   PH6C2S2N(ClO2)2
_chemical_formula_sum   'P8 H48 C16 S16 N8 Cl16 O32'
_cell_volume   2149.67512469
_cell_formula_units_Z   8
loop_
 _symmetry_equiv_pos_site_id
 _symmetry_equiv_pos_as_xyz
  1  'x, y, z'
loop_
 _atom_site_type_symbol
 _atom_site_label
 _atom_site_symmetry_multiplicity
 _atom_site_fract_x
 _atom_site_fract_y
 _atom_site_fract_z
 _atom_site_occupancy
  P  P0  1  0.210381  0.543375  0.307657  1
  P  P1  1  0.745834  0.442775  0.192211  1
  P  P2  1  0.245834  0.057225  0.807789  1
  P  P3  1  0.254166  0.557225  0.807789  1
  P  P4  1  0.710381  0.956625  0.692343  1
  P  P5  1  0.289619  0.043375  0.307657  1
  P  P6  1  0.789619  0.456625  0.692343  1
  P  P7  1  0.754166  0.942775  0.192211  1
  H  H8  1  0.129664  0.091348  0.145950  1
  H  H9  1  0.195434  0.039095  0.455052  1
  H  H10  1  0.336738  0.314932  0.921017  1
  H  H11  1  0.695434  0.460905  0.544948  1
  H  H12  1  0.100992  0.590965  0.486489  1
  H  H13  1  0.369331  0.828130  0.955228  1
  H  H14  1  0.629664  0.408652  0.854050  1
  H  H15  1  0.176311  0.812135  0.993719  1
  H  H16  1  0.380343  0.521894  0.072504  1
  H  H17  1  0.696820  1.001154  0.886750  1
  H  H18  1  0.828019  0.724477  0.311912  1
  H  H19  1  0.163917  0.201265  0.615651  1
  H  H20  1  0.676311  0.687865  0.006281  1
  H  H21  1  0.796421  0.828194  0.490449  1
  H  H22  1  0.663917  0.298735  0.384349  1
  H  H23  1  0.155237  0.794126  0.641950  1
  H  H24  1  0.823689  0.187865  0.006281  1
  H  H25  1  0.671981  0.224477  0.311912  1
  H  H26  1  0.304566  0.539095  0.455052  1
  H  H27  1  0.619657  0.478106  0.927496  1
  H  H28  1  0.655237  0.705874  0.358050  1
  H  H29  1  0.203579  0.171806  0.509551  1
  H  H30  1  0.803180  0.501154  0.886750  1
  H  H31  1  0.399008  0.090965  0.486489  1
  H  H32  1  0.880343  0.978106  0.927496  1
  H  H33  1  0.119657  0.021894  0.072504  1
  H  H34  1  0.703579  0.328194  0.490449  1
  H  H35  1  0.804566  0.960905  0.544948  1
  H  H36  1  0.600992  0.909035  0.513511  1
  H  H37  1  0.336083  0.701265  0.615651  1
  H  H38  1  0.899008  0.409035  0.513511  1
  H  H39  1  0.344763  0.294126  0.641950  1
  H  H40  1  0.171981  0.275523  0.688088  1
  H  H41  1  0.328019  0.775523  0.688088  1
  H  H42  1  0.663262  0.685068  0.078983  1
  H  H43  1  0.163262  0.814932  0.921017  1
  H  H44  1  0.130669  0.328130  0.955228  1
  H  H45  1  0.370336  0.591348  0.145950  1
  H  H46  1  0.870336  0.908652  0.854050  1
  H  H47  1  0.869331  0.671870  0.044772  1
  H  H48  1  0.196820  0.498846  0.113250  1
  H  H49  1  0.630669  0.171870  0.044772  1
  H  H50  1  0.844763  0.205874  0.358050  1
  H  H51  1  0.836083  0.798735  0.384349  1
  H  H52  1  0.296421  0.671806  0.509551  1
  H  H53  1  0.303180  -0.001154  0.113250  1
  H  H54  1  0.836738  0.185068  0.078983  1
  H  H55  1  0.323689  0.312135  0.993719  1
  C  C56  1  0.293374  0.780818  0.645631  1
  C  C57  1  0.793374  0.719182  0.354369  1
  C  C58  1  0.335619  0.513427  0.113612  1
  C  C59  1  0.664381  0.486573  0.886388  1
  C  C60  1  0.772434  0.382928  0.525624  1
  C  C61  1  0.227566  0.617072  0.474376  1
  C  C62  1  0.741205  0.710955  0.046558  1
  C  C63  1  0.272434  0.117072  0.474376  1
  C  C64  1  0.241205  0.789045  0.953442  1
  C  C65  1  0.758795  0.210955  0.046558  1
  C  C66  1  0.206626  0.280818  0.645631  1
  C  C67  1  0.727566  0.882928  0.525624  1
  C  C68  1  0.164381  0.013427  0.113612  1
  C  C69  1  0.706626  0.219182  0.354369  1
  C  C70  1  0.835619  0.986573  0.886388  1
  C  C71  1  0.258795  0.289045  0.953442  1
  S  S72  1  0.108343  0.409566  0.629388  1
  S  S73  1  0.425932  0.382896  0.130600  1
  S  S74  1  0.702415  0.787649  0.573374  1
  S  S75  1  0.391657  0.909566  0.629388  1
  S  S76  1  0.242194  0.130388  0.938500  1
  S  S77  1  0.202415  0.712351  0.426626  1
  S  S78  1  0.797585  0.287649  0.573374  1
  S  S79  1  0.742194  0.369612  0.061500  1
  S  S80  1  0.297585  0.212351  0.426626  1
  S  S81  1  0.574068  0.617104  0.869400  1
  S  S82  1  0.757806  0.869612  0.061500  1
  S  S83  1  0.891657  0.590434  0.370612  1
  S  S84  1  0.925932  0.117104  0.869400  1
  S  S85  1  0.074068  0.882896  0.130600  1
  S  S86  1  0.257806  0.630388  0.938500  1
  S  S87  1  0.608343  0.090434  0.370612  1
  N  N88  1  0.146344  0.097306  0.873058  1
  N  N89  1  0.390711  0.118635  0.368718  1
  N  N90  1  0.109289  0.618635  0.368718  1
  N  N91  1  0.646344  0.402694  0.126942  1
  N  N92  1  0.853656  0.902694  0.126942  1
  N  N93  1  0.353656  0.597306  0.873058  1
  N  N94  1  0.890711  0.381365  0.631282  1
  N  N95  1  0.609289  0.881365  0.631282  1
  Cl  Cl96  1  0.679171  0.315931  0.721843  1
  Cl  Cl97  1  0.124377  0.399907  0.812780  1
  Cl  Cl98  1  0.423854  0.475677  0.339788  1
  Cl  Cl99  1  0.547427  0.826638  0.182001  1
  Cl  Cl100  1  0.452573  0.173362  0.817999  1
  Cl  Cl101  1  0.375623  0.899907  0.812780  1
  Cl  Cl102  1  0.952573  0.326638  0.182001  1
  Cl  Cl103  1  0.047427  0.673362  0.817999  1
  Cl  Cl104  1  0.923854  0.024323  0.660212  1
  Cl  Cl105  1  0.624377  0.100093  0.187220  1
  Cl  Cl106  1  0.076146  0.975677  0.339788  1
  Cl  Cl107  1  0.875623  0.600093  0.187220  1
  Cl  Cl108  1  0.179171  0.184069  0.278157  1
  Cl  Cl109  1  0.320829  0.684069  0.278157  1
  Cl  Cl110  1  0.576146  0.524323  0.660212  1
  Cl  Cl111  1  0.820829  0.815931  0.721843  1
  O  O112  1  0.123177  0.092496  0.976111  1
  O  O113  1  0.137053  0.511754  0.674241  1
  O  O114  1  0.367349  0.745203  0.408824  1
  O  O115  1  0.150298  0.417023  0.573341  1
  O  O116  1  0.362947  0.011754  0.674241  1
  O  O117  1  0.376823  0.592496  0.976111  1
  O  O118  1  0.381706  0.279366  0.088357  1
  O  O119  1  0.881706  0.220634  0.911643  1
  O  O120  1  0.623177  0.407504  0.023889  1
  O  O121  1  0.618294  0.720634  0.911643  1
  O  O122  1  0.578502  0.695241  0.552653  1
  O  O123  1  0.118294  0.779366  0.088357  1
  O  O124  1  0.090024  0.577763  0.931394  1
  O  O125  1  0.632651  0.254797  0.591176  1
  O  O126  1  0.876823  0.907504  0.023889  1
  O  O127  1  0.409976  0.077763  0.931394  1
  O  O128  1  0.590024  0.922237  0.068606  1
  O  O129  1  0.849702  0.582977  0.426659  1
  O  O130  1  0.893446  0.117237  0.811863  1
  O  O131  1  0.393446  0.382763  0.188137  1
  O  O132  1  0.921498  0.195241  0.552653  1
  O  O133  1  0.606554  0.617237  0.811863  1
  O  O134  1  0.421498  0.304759  0.447347  1
  O  O135  1  0.637053  0.988246  0.325759  1
  O  O136  1  0.862947  0.488246  0.325759  1
  O  O137  1  0.106554  0.882763  0.188137  1
  O  O138  1  0.349702  0.917023  0.573341  1
  O  O139  1  0.909976  0.422237  0.068606  1
  O  O140  1  0.078502  0.804759  0.447347  1
  O  O141  1  0.132651  0.245203  0.408824  1
  O  O142  1  0.650298  0.082977  0.426659  1
  O  O143  1  0.867349  0.754797  0.591176  1
