# generated using pymatgen
data_MnSb2F12
_symmetry_space_group_name_H-M   'P 1'
_cell_length_a   5.36069316
_cell_length_b   5.65944520
_cell_length_c   9.26316701
_cell_angle_alpha   73.78358650
_cell_angle_beta   88.69703121
_cell_angle_gamma   62.22323826
_symmetry_Int_Tables_number   1
_chemical_formula_structural   MnSb2F12
_chemical_formula_sum   'Mn1 Sb2 F12'
_cell_volume   236.83935438
_cell_formula_units_Z   1
loop_
 _symmetry_equiv_pos_site_id
 _symmetry_equiv_pos_as_xyz
  1  'x, y, z'
loop_
 _atom_site_type_symbol
 _atom_site_label
 _atom_site_symmetry_multiplicity
 _atom_site_fract_x
 _atom_site_fract_y
 _atom_site_fract_z
 _atom_site_occupancy
  F  F0  1  0.948736  0.234429  0.207229  1
  F  F1  1  0.051264  0.765571  0.792771  1
  F  F2  1  0.021453  0.755993  0.139792  1
  F  F3  1  0.460054  0.779250  0.627157  1
  F  F4  1  0.539946  0.220750  0.372843  1
  F  F5  1  0.948253  0.239441  0.573813  1
  F  F6  1  0.051747  0.760559  0.426187  1
  F  F7  1  0.401133  0.237007  0.682452  1
  F  F8  1  0.598867  0.762993  0.317548  1
  F  F9  1  0.517647  0.775290  0.922306  1
  F  F10  1  0.482353  0.224710  0.077694  1
  F  F11  1  0.978547  0.244007  0.860208  1
  Mn  Mn12  1  0.500000  0.500000  0.500000  1
  Sb  Sb13  1  0.774228  0.004394  0.240889  1
  Sb  Sb14  1  0.225772  0.995606  0.759111  1
