# generated using pymatgen
data_NaPr(Si3O7)2
_symmetry_space_group_name_H-M   'P 1'
_cell_length_a   7.77308786
_cell_length_b   13.26815832
_cell_length_c   13.26815831
_cell_angle_alpha   72.20561912
_cell_angle_beta   72.96699254
_cell_angle_gamma   72.96698798
_symmetry_Int_Tables_number   1
_chemical_formula_structural   NaPr(Si3O7)2
_chemical_formula_sum   'Na4 Pr4 Si24 O56'
_cell_volume   1214.29614409
_cell_formula_units_Z   4
loop_
 _symmetry_equiv_pos_site_id
 _symmetry_equiv_pos_as_xyz
  1  'x, y, z'
loop_
 _atom_site_type_symbol
 _atom_site_label
 _atom_site_symmetry_multiplicity
 _atom_site_fract_x
 _atom_site_fract_y
 _atom_site_fract_z
 _atom_site_occupancy
  Na  Na0  1  0.250000  0.750000  0.750000  1
  Na  Na1  1  0.000000  0.500000  0.500000  1
  Na  Na2  1  0.750000  0.250000  0.250000  1
  Na  Na3  1  0.500000  0.000000  0.000000  1
  Pr  Pr4  1  0.750000  0.021563  0.478437  1
  Pr  Pr5  1  0.250000  0.521563  0.978437  1
  Pr  Pr6  1  0.250000  0.978437  0.521563  1
  Pr  Pr7  1  0.750000  0.478437  0.021563  1
  Si  Si8  1  0.297451  0.472639  0.233564  1
  Si  Si9  1  0.503654  0.027361  0.266436  1
  Si  Si10  1  0.731773  0.333487  0.666513  1
  Si  Si11  1  0.003654  0.766436  0.527361  1
  Si  Si12  1  0.677401  0.633786  0.366214  1
  Si  Si13  1  0.384557  0.275884  0.431764  1
  Si  Si14  1  0.797451  0.733564  0.972639  1
  Si  Si15  1  0.177401  0.866214  0.133786  1
  Si  Si16  1  0.592205  0.224116  0.068236  1
  Si  Si17  1  0.496346  0.972639  0.733564  1
  Si  Si18  1  0.407795  0.775884  0.931764  1
  Si  Si19  1  0.231773  0.166513  0.833487  1
  Si  Si20  1  0.115443  0.068236  0.224116  1
  Si  Si21  1  0.768227  0.833487  0.166513  1
  Si  Si22  1  0.202549  0.266436  0.027361  1
  Si  Si23  1  0.092205  0.568236  0.724116  1
  Si  Si24  1  0.702549  0.527361  0.766436  1
  Si  Si25  1  0.268227  0.666513  0.333487  1
  Si  Si26  1  0.884557  0.931764  0.775884  1
  Si  Si27  1  0.822599  0.133786  0.866214  1
  Si  Si28  1  0.615443  0.724116  0.568236  1
  Si  Si29  1  0.322599  0.366214  0.633786  1
  Si  Si30  1  0.907795  0.431764  0.275884  1
  Si  Si31  1  0.996346  0.233564  0.472639  1
  O  O32  1  0.049963  0.883703  0.492569  1
  O  O33  1  0.073766  0.383703  0.992569  1
  O  O34  1  0.683820  0.142515  0.983658  1
  O  O35  1  0.279097  0.702222  0.933754  1
  O  O36  1  0.454833  0.856224  0.809984  1
  O  O37  1  0.732057  0.810136  0.061401  1
  O  O38  1  0.415073  0.797778  0.566246  1
  O  O39  1  0.915073  0.066246  0.297778  1
  O  O40  1  0.257611  0.770069  0.229931  1
  O  O41  1  0.690007  0.642515  0.483658  1
  O  O42  1  0.896406  0.310136  0.561401  1
  O  O43  1  0.267943  0.189864  0.938599  1
  O  O44  1  0.573766  0.492569  0.883703  1
  O  O45  1  0.549963  0.992569  0.383703  1
  O  O46  1  0.316180  0.857485  0.016342  1
  O  O47  1  0.396406  0.061401  0.810136  1
  O  O48  1  0.031053  0.137589  0.862411  1
  O  O49  1  0.222851  0.205256  0.464153  1
  O  O50  1  0.103594  0.689864  0.438599  1
  O  O51  1  0.531053  0.362411  0.637589  1
  O  O52  1  0.950037  0.116297  0.507431  1
  O  O53  1  0.045167  0.690016  0.643776  1
  O  O54  1  0.926234  0.616297  0.007431  1
  O  O55  1  0.183820  0.483658  0.642515  1
  O  O56  1  0.584927  0.202222  0.433754  1
  O  O57  1  0.084927  0.933754  0.702222  1
  O  O58  1  0.190007  0.983658  0.142515  1
  O  O59  1  0.378960  0.356224  0.309984  1
  O  O60  1  0.232057  0.561401  0.310136  1
  O  O61  1  0.757611  0.729931  0.270069  1
  O  O62  1  0.450037  0.007431  0.616297  1
  O  O63  1  0.878960  0.809984  0.856224  1
  O  O64  1  0.392261  0.294744  0.035847  1
  O  O65  1  0.968947  0.862411  0.137589  1
  O  O66  1  0.742389  0.229931  0.770069  1
  O  O67  1  0.720903  0.297778  0.066246  1
  O  O68  1  0.809993  0.016342  0.857485  1
  O  O69  1  0.220903  0.566246  0.797778  1
  O  O70  1  0.121040  0.190016  0.143776  1
  O  O71  1  0.722851  0.964153  0.705256  1
  O  O72  1  0.277149  0.035847  0.294744  1
  O  O73  1  0.621040  0.643776  0.690016  1
  O  O74  1  0.607739  0.705256  0.964153  1
  O  O75  1  0.779097  0.433754  0.202222  1
  O  O76  1  0.892261  0.535847  0.794744  1
  O  O77  1  0.816180  0.516342  0.357485  1
  O  O78  1  0.242389  0.270069  0.729931  1
  O  O79  1  0.426234  0.507431  0.116297  1
  O  O80  1  0.954833  0.309984  0.356224  1
  O  O81  1  0.107739  0.464153  0.205256  1
  O  O82  1  0.777149  0.794744  0.535847  1
  O  O83  1  0.309993  0.357485  0.516342  1
  O  O84  1  0.545167  0.143776  0.190016  1
  O  O85  1  0.468947  0.637589  0.362411  1
  O  O86  1  0.767943  0.438599  0.689864  1
  O  O87  1  0.603594  0.938599  0.189864  1
