# generated using pymatgen
data_Cr2AgBiO8
_symmetry_space_group_name_H-M   'P 1'
_cell_length_a   5.13969733
_cell_length_b   5.13969681
_cell_length_c   6.94071021
_cell_angle_alpha   111.73148475
_cell_angle_beta   111.73148257
_cell_angle_gamma   90.00000193
_symmetry_Int_Tables_number   1
_chemical_formula_structural   Cr2AgBiO8
_chemical_formula_sum   'Cr2 Ag1 Bi1 O8'
_cell_volume   156.20436284
_cell_formula_units_Z   1
loop_
 _symmetry_equiv_pos_site_id
 _symmetry_equiv_pos_as_xyz
  1  'x, y, z'
loop_
 _atom_site_type_symbol
 _atom_site_label
 _atom_site_symmetry_multiplicity
 _atom_site_fract_x
 _atom_site_fract_y
 _atom_site_fract_z
 _atom_site_occupancy
  Cr  Cr0  1  0.250000  0.750000  0.500000  1
  Cr  Cr1  1  0.000000  0.000000  0.000000  1
  Ag  Ag2  1  0.750000  0.250000  0.500000  1
  Bi  Bi3  1  0.500000  0.500000  0.000000  1
  O  O4  1  0.929058  0.547990  0.339739  1
  O  O5  1  0.320237  0.205466  0.150332  1
  O  O6  1  0.208251  0.070942  0.660261  1
  O  O7  1  0.452010  0.589319  0.660261  1
  O  O8  1  0.794534  0.169905  0.849668  1
  O  O9  1  0.410681  0.791749  0.339739  1
  O  O10  1  0.055133  0.679763  0.849668  1
  O  O11  1  0.830095  0.944867  0.150332  1
