# generated using pymatgen
data_CaTaAlO5
_symmetry_space_group_name_H-M   'P 1'
_cell_length_a   6.72204726
_cell_length_b   7.44558736
_cell_length_c   9.03592234
_cell_angle_alpha   90.00000000
_cell_angle_beta   90.00000000
_cell_angle_gamma   114.12276903
_symmetry_Int_Tables_number   1
_chemical_formula_structural   CaTaAlO5
_chemical_formula_sum   'Ca4 Ta4 Al4 O20'
_cell_volume   412.75055342
_cell_formula_units_Z   4
loop_
 _symmetry_equiv_pos_site_id
 _symmetry_equiv_pos_as_xyz
  1  'x, y, z'
loop_
 _atom_site_type_symbol
 _atom_site_label
 _atom_site_symmetry_multiplicity
 _atom_site_fract_x
 _atom_site_fract_y
 _atom_site_fract_z
 _atom_site_occupancy
  Ca  Ca0  1  0.004951  0.711349  0.335514  1
  Ca  Ca1  1  0.504951  0.211349  0.164486  1
  Ca  Ca2  1  0.995049  0.288651  0.664486  1
  Ca  Ca3  1  0.495049  0.788651  0.835514  1
  Ta  Ta4  1  0.500000  0.500000  0.500000  1
  Ta  Ta5  1  0.500000  0.000000  0.500000  1
  Ta  Ta6  1  0.000000  0.500000  0.000000  1
  Ta  Ta7  1  0.000000  0.000000  0.000000  1
  Al  Al8  1  0.490979  0.250537  0.814665  1
  Al  Al9  1  0.009021  0.249463  0.314665  1
  Al  Al10  1  0.990979  0.750537  0.685335  1
  Al  Al11  1  0.509021  0.749463  0.185335  1
  O  O12  1  0.116823  0.120280  0.198288  1
  O  O13  1  0.192657  0.428920  0.435540  1
  O  O14  1  0.990076  0.746547  0.076271  1
  O  O15  1  0.807343  0.571080  0.564460  1
  O  O16  1  0.616823  0.620280  0.301712  1
  O  O17  1  0.100177  0.615031  0.797250  1
  O  O18  1  0.509924  0.753453  0.576271  1
  O  O19  1  0.399823  0.884969  0.297250  1
  O  O20  1  0.899823  0.384969  0.202750  1
  O  O21  1  0.811928  0.099306  0.442163  1
  O  O22  1  0.311928  0.599306  0.057837  1
  O  O23  1  0.307343  0.071080  0.935540  1
  O  O24  1  0.692657  0.928920  0.064460  1
  O  O25  1  0.490076  0.246547  0.423729  1
  O  O26  1  0.688072  0.400694  0.942163  1
  O  O27  1  0.188072  0.900694  0.557837  1
  O  O28  1  0.600177  0.115031  0.702750  1
  O  O29  1  0.383177  0.379720  0.698288  1
  O  O30  1  0.009924  0.253453  0.923729  1
  O  O31  1  0.883177  0.879720  0.801712  1
