# generated using pymatgen
data_Rb(CO)2
_symmetry_space_group_name_H-M   'P 1'
_cell_length_a   4.54618233
_cell_length_b   6.56835460
_cell_length_c   6.56851914
_cell_angle_alpha   63.99677102
_cell_angle_beta   89.21529270
_cell_angle_gamma   89.21733891
_symmetry_Int_Tables_number   1
_chemical_formula_structural   Rb(CO)2
_chemical_formula_sum   'Rb2 C4 O4'
_cell_volume   176.26361347
_cell_formula_units_Z   2
loop_
 _symmetry_equiv_pos_site_id
 _symmetry_equiv_pos_as_xyz
  1  'x, y, z'
loop_
 _atom_site_type_symbol
 _atom_site_label
 _atom_site_symmetry_multiplicity
 _atom_site_fract_x
 _atom_site_fract_y
 _atom_site_fract_z
 _atom_site_occupancy
  O  O0  1  0.221602  0.349257  0.877190  1
  C  C1  1  0.102013  0.157534  0.944804  1
  Rb  Rb2  1  0.701485  0.658026  0.658024  1
  C  C3  1  0.897984  0.055203  0.842458  1
  O  O4  1  0.221598  0.877192  0.349247  1
  O  O5  1  0.778409  0.122804  0.650765  1
  C  C6  1  0.897961  0.842421  0.055215  1
  C  C7  1  0.102013  0.944810  0.157521  1
  Rb  Rb8  1  0.298515  0.341978  0.341977  1
  O  O9  1  0.778418  0.650776  0.122798  1
