# generated using pymatgen
data_CdI2
_symmetry_space_group_name_H-M   'P 1'
_cell_length_a   4.33540406
_cell_length_b   4.33540433
_cell_length_c   130.45353745
_cell_angle_alpha   90.00000000
_cell_angle_beta   90.00000000
_cell_angle_gamma   119.99999796
_symmetry_Int_Tables_number   1
_chemical_formula_structural   CdI2
_chemical_formula_sum   'Cd17 I34'
_cell_volume   2123.46783763
_cell_formula_units_Z   17
loop_
 _symmetry_equiv_pos_site_id
 _symmetry_equiv_pos_as_xyz
  1  'x, y, z'
loop_
 _atom_site_type_symbol
 _atom_site_label
 _atom_site_symmetry_multiplicity
 _atom_site_fract_x
 _atom_site_fract_y
 _atom_site_fract_z
 _atom_site_occupancy
  Cd  Cd0  1  0.666667  0.333333  0.485391  1
  Cd  Cd1  1  0.000000  0.000000  0.720554  1
  Cd  Cd2  1  0.666667  0.333333  0.367651  1
  Cd  Cd3  1  0.000000  0.000000  0.661772  1
  Cd  Cd4  1  0.000000  0.000000  0.955823  1
  Cd  Cd5  1  0.333333  0.666667  0.838221  1
  Cd  Cd6  1  0.000000  0.000000  0.544136  1
  Cd  Cd7  1  0.000000  0.000000  0.897079  1
  Cd  Cd8  1  0.000000  0.000000  0.308835  1
  Cd  Cd9  1  0.666667  0.333333  0.249959  1
  Cd  Cd10  1  0.666667  0.333333  0.132365  1
  Cd  Cd11  1  0.666667  0.333333  0.014731  1
  Cd  Cd12  1  0.666667  0.333333  0.602923  1
  Cd  Cd13  1  0.000000  0.000000  0.073533  1
  Cd  Cd14  1  0.000000  0.000000  0.426455  1
  Cd  Cd15  1  0.000000  0.000000  0.779389  1
  Cd  Cd16  1  0.000000  0.000000  0.191185  1
  I  I17  1  0.333333  0.666667  0.322042  1
  I  I18  1  0.333333  0.666667  0.439666  1
  I  I19  1  0.333333  0.666667  0.557341  1
  I  I20  1  0.666667  0.333333  0.942616  1
  I  I21  1  0.666667  0.333333  0.295630  1
  I  I22  1  0.666667  0.333333  0.883874  1
  I  I23  1  0.333333  0.666667  0.145563  1
  I  I24  1  0.666667  0.333333  0.177976  1
  I  I25  1  0.666667  0.333333  0.648561  1
  I  I26  1  0.000000  0.000000  0.236752  1
  I  I27  1  0.333333  0.666667  0.969031  1
  I  I28  1  0.333333  0.666667  0.204397  1
  I  I29  1  0.000000  0.000000  0.472195  1
  I  I30  1  0.333333  0.666667  0.674985  1
  I  I31  1  0.000000  0.000000  0.119158  1
  I  I32  1  0.333333  0.666667  0.380856  1
  I  I33  1  0.666667  0.333333  0.413246  1
  I  I34  1  0.666667  0.333333  0.060328  1
  I  I35  1  0.000000  0.000000  0.851417  1
  I  I36  1  0.333333  0.666667  0.027929  1
  I  I37  1  0.000000  0.000000  0.001529  1
  I  I38  1  0.666667  0.333333  0.530936  1
  I  I39  1  0.000000  0.000000  0.354447  1
  I  I40  1  0.333333  0.666667  0.616130  1
  I  I41  1  0.666667  0.333333  0.707346  1
  I  I42  1  0.333333  0.666667  0.910286  1
  I  I43  1  0.333333  0.666667  0.086735  1
  I  I44  1  0.333333  0.666667  0.792596  1
  I  I45  1  0.666667  0.333333  0.825016  1
  I  I46  1  0.000000  0.000000  0.589713  1
  I  I47  1  0.666667  0.333333  0.766184  1
  I  I48  1  0.333333  0.666667  0.733767  1
  I  I49  1  0.333333  0.666667  0.263163  1
  I  I50  1  0.333333  0.666667  0.498588  1
