# generated using pymatgen
data_CaU(MoO4)4
_symmetry_space_group_name_H-M   'P 1'
_cell_length_a   6.74881392
_cell_length_b   8.36600467
_cell_length_c   11.64319940
_cell_angle_alpha   90.41920912
_cell_angle_beta   90.00464227
_cell_angle_gamma   89.96154279
_symmetry_Int_Tables_number   1
_chemical_formula_structural   CaU(MoO4)4
_chemical_formula_sum   'Ca2 U2 Mo8 O32'
_cell_volume   657.36438010
_cell_formula_units_Z   2
loop_
 _symmetry_equiv_pos_site_id
 _symmetry_equiv_pos_as_xyz
  1  'x, y, z'
loop_
 _atom_site_type_symbol
 _atom_site_label
 _atom_site_symmetry_multiplicity
 _atom_site_fract_x
 _atom_site_fract_y
 _atom_site_fract_z
 _atom_site_occupancy
  Ca  Ca0  1  0.700056  0.249970  0.250044  1
  Ca  Ca1  1  0.299944  0.750030  0.749956  1
  U  U2  1  0.301046  0.249974  0.750190  1
  U  U3  1  0.698954  0.750026  0.249810  1
  Mo  Mo4  1  0.167390  0.794345  0.093136  1
  Mo  Mo5  1  0.832610  0.205655  0.906864  1
  Mo  Mo6  1  0.169508  0.294622  0.096027  1
  Mo  Mo7  1  0.167534  0.705467  0.406756  1
  Mo  Mo8  1  0.832466  0.294533  0.593244  1
  Mo  Mo9  1  0.830492  0.705378  0.903973  1
  Mo  Mo10  1  0.169527  0.205127  0.404196  1
  Mo  Mo11  1  0.830473  0.794873  0.595804  1
  O  O12  1  0.849403  0.747167  0.432117  1
  O  O13  1  0.847048  0.003254  0.596586  1
  O  O14  1  0.849500  0.752811  0.067728  1
  O  O15  1  0.579923  0.740092  0.875591  1
  O  O16  1  0.420077  0.259908  0.124409  1
  O  O17  1  0.851762  0.248537  0.062889  1
  O  O18  1  0.156460  0.002618  0.097536  1
  O  O19  1  0.150500  0.247189  0.932272  1
  O  O20  1  0.066037  0.249953  0.250078  1
  O  O21  1  0.152952  0.996746  0.403414  1
  O  O22  1  0.579814  0.761017  0.624284  1
  O  O23  1  0.057724  0.749935  0.249952  1
  O  O24  1  0.846463  0.496942  0.903217  1
  O  O25  1  0.577632  0.256933  0.629255  1
  O  O26  1  0.942276  0.250065  0.750048  1
  O  O27  1  0.843540  0.997382  0.902464  1
  O  O28  1  0.933963  0.750047  0.749922  1
  O  O29  1  0.148238  0.751463  0.937111  1
  O  O30  1  0.300666  0.469055  0.752998  1
  O  O31  1  0.699481  0.969051  0.252330  1
  O  O32  1  0.851768  0.251837  0.437202  1
  O  O33  1  0.148232  0.748163  0.562798  1
  O  O34  1  0.153537  0.503058  0.096783  1
  O  O35  1  0.422368  0.743067  0.370745  1
  O  O36  1  0.150597  0.252833  0.567883  1
  O  O37  1  0.300519  0.030949  0.747670  1
  O  O38  1  0.157010  0.497174  0.402330  1
  O  O39  1  0.422336  0.756844  0.129159  1
  O  O40  1  0.577664  0.243156  0.870841  1
  O  O41  1  0.842990  0.502826  0.597670  1
  O  O42  1  0.699334  0.530945  0.247002  1
  O  O43  1  0.420186  0.238983  0.375716  1
