# generated using pymatgen
data_Cu5Bi2(B2O7)2
_symmetry_space_group_name_H-M   'P 1'
_cell_length_a   3.62113160
_cell_length_b   9.26261249
_cell_length_c   10.23856536
_cell_angle_alpha   67.34611716
_cell_angle_beta   81.69475883
_cell_angle_gamma   82.53334671
_symmetry_Int_Tables_number   1
_chemical_formula_structural   Cu5Bi2(B2O7)2
_chemical_formula_sum   'Cu5 Bi2 B4 O14'
_cell_volume   312.55447407
_cell_formula_units_Z   1
loop_
 _symmetry_equiv_pos_site_id
 _symmetry_equiv_pos_as_xyz
  1  'x, y, z'
loop_
 _atom_site_type_symbol
 _atom_site_label
 _atom_site_symmetry_multiplicity
 _atom_site_fract_x
 _atom_site_fract_y
 _atom_site_fract_z
 _atom_site_occupancy
  Cu  Cu0  1  0.042078  0.422057  0.004071  1
  Cu  Cu1  1  0.099590  0.601069  0.658815  1
  Cu  Cu2  1  0.548748  0.420634  0.504288  1
  Cu  Cu3  1  0.981347  0.241374  0.353179  1
  Cu  Cu4  1  0.052738  0.921219  0.506507  1
  Bi  Bi5  1  0.560595  0.777683  0.832570  1
  Bi  Bi6  1  0.525308  0.067242  0.177437  1
  B  B7  1  0.909303  0.125701  0.676905  1
  B  B8  1  0.551579  0.286500  0.814176  1
  B  B9  1  0.192623  0.719197  0.334960  1
  B  B10  1  0.544539  0.560000  0.195214  1
  O  O11  1  0.387735  0.080000  0.388254  1
  O  O12  1  0.979838  0.225198  0.169808  1
  O  O13  1  0.175794  0.597068  0.464227  1
  O  O14  1  0.462974  0.290424  0.947377  1
  O  O15  1  0.701358  0.767377  0.621483  1
  O  O16  1  0.625230  0.555493  0.062136  1
  O  O17  1  0.438892  0.408676  0.695977  1
  O  O18  1  0.034997  0.973788  0.689443  1
  O  O19  1  0.347931  0.696416  0.209527  1
  O  O20  1  0.064058  0.870707  0.323507  1
  O  O21  1  0.110210  0.620695  0.840560  1
  O  O22  1  0.761137  0.151657  0.801498  1
  O  O23  1  0.924245  0.246248  0.546859  1
  O  O24  1  0.654055  0.436278  0.312422  1
