# generated using pymatgen
data_NbCoTe2
_symmetry_space_group_name_H-M   'P 1'
_cell_length_a   6.37525627
_cell_length_b   7.79508728
_cell_length_c   8.60677608
_cell_angle_alpha   116.92642397
_cell_angle_beta   90.00000000
_cell_angle_gamma   90.00000000
_symmetry_Int_Tables_number   1
_chemical_formula_structural   NbCoTe2
_chemical_formula_sum   'Nb4 Co4 Te8'
_cell_volume   381.34997929
_cell_formula_units_Z   4
loop_
 _symmetry_equiv_pos_site_id
 _symmetry_equiv_pos_as_xyz
  1  'x, y, z'
loop_
 _atom_site_type_symbol
 _atom_site_label
 _atom_site_symmetry_multiplicity
 _atom_site_fract_x
 _atom_site_fract_y
 _atom_site_fract_z
 _atom_site_occupancy
  Co  Co0  1  0.644110  0.944456  0.888911  1
  Co  Co1  1  0.144110  0.555544  0.111089  1
  Co  Co2  1  0.355890  0.055544  0.111089  1
  Co  Co3  1  0.855890  0.444456  0.888911  1
  Nb  Nb4  1  0.500000  0.706496  0.000000  1
  Nb  Nb5  1  0.000000  0.793504  0.000000  1
  Nb  Nb6  1  0.500000  0.293504  0.000000  1
  Nb  Nb7  1  0.000000  0.206496  0.000000  1
  Te  Te8  1  0.750000  0.096677  0.693354  1
  Te  Te9  1  0.250000  0.403323  0.306646  1
  Te  Te10  1  0.250000  0.903323  0.306646  1
  Te  Te11  1  0.750000  0.596677  0.693354  1
  Te  Te12  1  0.743995  0.108117  0.216234  1
  Te  Te13  1  0.243995  0.391883  0.783766  1
  Te  Te14  1  0.256005  0.891883  0.783766  1
  Te  Te15  1  0.756005  0.608117  0.216234  1
