# generated using pymatgen
data_GePb3O5
_symmetry_space_group_name_H-M   'P 1'
_cell_length_a   5.50296455
_cell_length_b   5.38877425
_cell_length_c   5.39891043
_cell_angle_alpha   89.15628037
_cell_angle_beta   90.00000000
_cell_angle_gamma   90.00000000
_symmetry_Int_Tables_number   1
_chemical_formula_structural   GePb3O5
_chemical_formula_sum   'Ge1 Pb3 O5'
_cell_volume   160.08319321
_cell_formula_units_Z   1
loop_
 _symmetry_equiv_pos_site_id
 _symmetry_equiv_pos_as_xyz
  1  'x, y, z'
loop_
 _atom_site_type_symbol
 _atom_site_label
 _atom_site_symmetry_multiplicity
 _atom_site_fract_x
 _atom_site_fract_y
 _atom_site_fract_z
 _atom_site_occupancy
  Ge  Ge0  1  0.517281  0.500000  0.000000  1
  Pb  Pb1  1  0.546870  0.000000  0.500000  1
  Pb  Pb2  1  0.020484  0.000000  0.000000  1
  Pb  Pb3  1  0.020384  0.500000  0.500000  1
  O  O4  1  0.710003  0.314084  0.812779  1
  O  O5  1  0.328193  0.308454  0.190223  1
  O  O6  1  0.328193  0.691546  0.809777  1
  O  O7  1  0.710003  0.685916  0.187221  1
  O  O8  1  0.968590  0.000000  0.500000  1
