# generated using pymatgen
data_SbXeO2F7
_symmetry_space_group_name_H-M   'P 1'
_cell_length_a   5.93005262
_cell_length_b   10.53429469
_cell_length_c   12.35155142
_cell_angle_alpha   93.17680827
_cell_angle_beta   90.00000000
_cell_angle_gamma   90.00000000
_symmetry_Int_Tables_number   1
_chemical_formula_structural   SbXeO2F7
_chemical_formula_sum   'Sb4 Xe4 O8 F28'
_cell_volume   770.40238305
_cell_formula_units_Z   4
loop_
 _symmetry_equiv_pos_site_id
 _symmetry_equiv_pos_as_xyz
  1  'x, y, z'
loop_
 _atom_site_type_symbol
 _atom_site_label
 _atom_site_symmetry_multiplicity
 _atom_site_fract_x
 _atom_site_fract_y
 _atom_site_fract_z
 _atom_site_occupancy
  Sb  Sb0  1  0.290683  0.330873  0.372019  1
  Sb  Sb1  1  0.790683  0.669127  0.127981  1
  Sb  Sb2  1  0.209317  0.330873  0.872019  1
  Sb  Sb3  1  0.709317  0.669127  0.627981  1
  Xe  Xe4  1  0.816445  0.198184  0.132516  1
  Xe  Xe5  1  0.683555  0.198184  0.632516  1
  Xe  Xe6  1  0.183555  0.801816  0.867484  1
  Xe  Xe7  1  0.316445  0.801816  0.367484  1
  O  O8  1  0.599171  0.872412  0.389219  1
  O  O9  1  0.383738  0.889632  0.958149  1
  O  O10  1  0.900829  0.872412  0.889219  1
  O  O11  1  0.616262  0.110368  0.041851  1
  O  O12  1  0.099171  0.127588  0.110781  1
  O  O13  1  0.883738  0.110368  0.541851  1
  O  O14  1  0.400829  0.127588  0.610781  1
  O  O15  1  0.116262  0.889632  0.458149  1
  F  F16  1  0.821728  0.488954  0.127629  1
  F  F17  1  0.381049  0.348783  0.001890  1
  F  F18  1  0.980530  0.660274  0.716191  1
  F  F19  1  0.432098  0.683045  0.544022  1
  F  F20  1  0.744313  0.107718  0.269673  1
  F  F21  1  0.678272  0.488954  0.627629  1
  F  F22  1  0.321728  0.511046  0.372371  1
  F  F23  1  0.519470  0.660274  0.216191  1
  F  F24  1  0.762845  0.849169  0.134459  1
  F  F25  1  0.755687  0.107718  0.769673  1
  F  F26  1  0.618951  0.651217  0.998110  1
  F  F27  1  0.530651  0.679734  0.759716  1
  F  F28  1  0.255687  0.892282  0.730327  1
  F  F29  1  0.262845  0.150831  0.365541  1
  F  F30  1  0.237155  0.150831  0.865541  1
  F  F31  1  0.969349  0.679734  0.259716  1
  F  F32  1  0.244313  0.892282  0.230327  1
  F  F33  1  0.469349  0.320266  0.240284  1
  F  F34  1  0.932098  0.316955  0.955978  1
  F  F35  1  0.178272  0.511046  0.872371  1
  F  F36  1  0.567902  0.316955  0.455979  1
  F  F37  1  0.019470  0.339726  0.283809  1
  F  F38  1  0.118951  0.348783  0.501890  1
  F  F39  1  0.067902  0.683045  0.044021  1
  F  F40  1  0.737155  0.849169  0.634459  1
  F  F41  1  0.881049  0.651217  0.498110  1
  F  F42  1  0.480530  0.339726  0.783809  1
  F  F43  1  0.030651  0.320266  0.740284  1
