# generated using pymatgen
data_K5SnSb3
_symmetry_space_group_name_H-M   'P 1'
_cell_length_a   8.88428370
_cell_length_b   9.96080396
_cell_length_c   16.24309607
_cell_angle_alpha   89.71163812
_cell_angle_beta   90.00000000
_cell_angle_gamma   90.00000000
_symmetry_Int_Tables_number   1
_chemical_formula_structural   K5SnSb3
_chemical_formula_sum   'K20 Sn4 Sb12'
_cell_volume   1437.40821820
_cell_formula_units_Z   4
loop_
 _symmetry_equiv_pos_site_id
 _symmetry_equiv_pos_as_xyz
  1  'x, y, z'
loop_
 _atom_site_type_symbol
 _atom_site_label
 _atom_site_symmetry_multiplicity
 _atom_site_fract_x
 _atom_site_fract_y
 _atom_site_fract_z
 _atom_site_occupancy
  K  K0  1  0.159402  0.576637  0.259402  1
  K  K1  1  0.659402  0.923363  0.240598  1
  K  K2  1  0.840598  0.423363  0.740598  1
  K  K3  1  0.340598  0.076637  0.759402  1
  K  K4  1  0.171987  0.577927  0.579455  1
  K  K5  1  0.671987  0.922073  0.920545  1
  K  K6  1  0.828013  0.422073  0.420545  1
  K  K7  1  0.328013  0.077927  0.079455  1
  K  K8  1  0.006170  0.197914  0.913499  1
  K  K9  1  0.506170  0.302086  0.586501  1
  K  K10  1  0.993830  0.802086  0.086501  1
  K  K11  1  0.493830  0.697914  0.413499  1
  K  K12  1  0.519637  0.338613  0.922477  1
  K  K13  1  0.019637  0.161387  0.577523  1
  K  K14  1  0.480363  0.661387  0.077523  1
  K  K15  1  0.980363  0.838613  0.422477  1
  K  K16  1  0.992611  0.808219  0.744698  1
  K  K17  1  0.492611  0.691781  0.755302  1
  K  K18  1  0.007389  0.191781  0.255302  1
  K  K19  1  0.507389  0.308219  0.244698  1
  Sn  Sn20  1  0.356782  0.073256  0.413264  1
  Sn  Sn21  1  0.856782  0.426744  0.086736  1
  Sn  Sn22  1  0.643218  0.926744  0.586736  1
  Sn  Sn23  1  0.143218  0.573256  0.913264  1
  Sb  Sb24  1  0.262944  0.842389  0.919600  1
  Sb  Sb25  1  0.762944  0.657611  0.580400  1
  Sb  Sb26  1  0.737056  0.157611  0.080400  1
  Sb  Sb27  1  0.237056  0.342389  0.419600  1
  Sb  Sb28  1  0.187994  0.417246  0.066154  1
  Sb  Sb29  1  0.687994  0.082754  0.433846  1
  Sb  Sb30  1  0.812006  0.582754  0.933846  1
  Sb  Sb31  1  0.312006  0.917246  0.566154  1
  Sb  Sb32  1  0.266158  0.919614  0.272581  1
  Sb  Sb33  1  0.766158  0.580386  0.227419  1
  Sb  Sb34  1  0.733842  0.080386  0.727419  1
  Sb  Sb35  1  0.233842  0.419614  0.772581  1
