# generated using pymatgen
data_Sr6V9(S11O)2
_symmetry_space_group_name_H-M   'P 1'
_cell_length_a   12.84639280
_cell_length_b   12.84639243
_cell_length_c   12.84639206
_cell_angle_alpha   41.53438710
_cell_angle_beta   41.53438911
_cell_angle_gamma   41.53438913
_symmetry_Int_Tables_number   1
_chemical_formula_structural   Sr6V9(S11O)2
_chemical_formula_sum   'Sr6 V9 S22 O2'
_cell_volume   842.36615733
_cell_formula_units_Z   1
loop_
 _symmetry_equiv_pos_site_id
 _symmetry_equiv_pos_as_xyz
  1  'x, y, z'
loop_
 _atom_site_type_symbol
 _atom_site_label
 _atom_site_symmetry_multiplicity
 _atom_site_fract_x
 _atom_site_fract_y
 _atom_site_fract_z
 _atom_site_occupancy
  Sr  Sr0  1  0.912870  0.488122  0.263741  1
  Sr  Sr1  1  0.488122  0.263741  0.912870  1
  Sr  Sr2  1  0.511878  0.736259  0.087130  1
  Sr  Sr3  1  0.087130  0.511878  0.736259  1
  Sr  Sr4  1  0.263741  0.912870  0.488122  1
  Sr  Sr5  1  0.736259  0.087130  0.511878  1
  V  V6  1  0.711091  0.850326  0.438470  1
  V  V7  1  0.561530  0.288909  0.149674  1
  V  V8  1  0.288909  0.149674  0.561530  1
  V  V9  1  0.850326  0.438470  0.711091  1
  V  V10  1  0.153737  0.153737  0.153737  1
  V  V11  1  0.000000  0.000000  0.000000  1
  V  V12  1  0.438470  0.711091  0.850326  1
  V  V13  1  0.846263  0.846263  0.846263  1
  V  V14  1  0.149674  0.561530  0.288909  1
  S  S15  1  0.530152  0.530152  0.530152  1
  S  S16  1  0.231955  0.802171  0.081112  1
  S  S17  1  0.353275  0.151718  0.899269  1
  S  S18  1  0.516814  0.948183  0.658234  1
  S  S19  1  0.802171  0.081112  0.231955  1
  S  S20  1  0.375954  0.375954  0.375954  1
  S  S21  1  0.100731  0.646725  0.848282  1
  S  S22  1  0.341766  0.483186  0.051817  1
  S  S23  1  0.658234  0.516814  0.948183  1
  S  S24  1  0.646725  0.848282  0.100731  1
  S  S25  1  0.151718  0.899269  0.353275  1
  S  S26  1  0.469848  0.469848  0.469848  1
  S  S27  1  0.948183  0.658234  0.516814  1
  S  S28  1  0.768045  0.197829  0.918888  1
  S  S29  1  0.483186  0.051817  0.341766  1
  S  S30  1  0.899269  0.353275  0.151718  1
  S  S31  1  0.081112  0.231955  0.802171  1
  S  S32  1  0.051817  0.341766  0.483186  1
  S  S33  1  0.848282  0.100731  0.646725  1
  S  S34  1  0.624046  0.624046  0.624046  1
  S  S35  1  0.197829  0.918888  0.768045  1
  S  S36  1  0.918888  0.768045  0.197829  1
  O  O37  1  0.203103  0.203103  0.203103  1
  O  O38  1  0.796897  0.796897  0.796897  1
