# generated using pymatgen
data_SiO2
_symmetry_space_group_name_H-M   'P 1'
_cell_length_a   5.18748199
_cell_length_b   5.22749669
_cell_length_c   8.46789910
_cell_angle_alpha   90.00000000
_cell_angle_beta   90.00000000
_cell_angle_gamma   119.21271640
_symmetry_Int_Tables_number   1
_chemical_formula_structural   SiO2
_chemical_formula_sum   'Si4 O8'
_cell_volume   200.42303594
_cell_formula_units_Z   4
loop_
 _symmetry_equiv_pos_site_id
 _symmetry_equiv_pos_as_xyz
  1  'x, y, z'
loop_
 _atom_site_type_symbol
 _atom_site_label
 _atom_site_symmetry_multiplicity
 _atom_site_fract_x
 _atom_site_fract_y
 _atom_site_fract_z
 _atom_site_occupancy
  Si  Si0  1  0.377645  0.647564  0.938820  1
  Si  Si1  1  0.622355  0.352436  0.438820  1
  Si  Si2  1  0.710896  0.314327  0.063544  1
  Si  Si3  1  0.289104  0.685673  0.563544  1
  O  O4  1  0.061200  0.470868  0.026630  1
  O  O5  1  0.938800  0.529132  0.526630  1
  O  O6  1  0.559201  0.973703  0.012237  1
  O  O7  1  0.436367  0.523689  0.465150  1
  O  O8  1  0.666452  0.333972  0.251119  1
  O  O9  1  0.440799  0.026297  0.512237  1
  O  O10  1  0.563633  0.476311  0.965150  1
  O  O11  1  0.333548  0.666028  0.751119  1
