# generated using pymatgen
data_La4C2Cl5
_symmetry_space_group_name_H-M   'P 1'
_cell_length_a   3.97973367
_cell_length_b   7.97669202
_cell_length_c   9.84069206
_cell_angle_alpha   113.91925470
_cell_angle_beta   101.66579061
_cell_angle_gamma   90.00175374
_symmetry_Int_Tables_number   1
_chemical_formula_structural   La4C2Cl5
_chemical_formula_sum   'La4 C2 Cl5'
_cell_volume   278.49002461
_cell_formula_units_Z   1
loop_
 _symmetry_equiv_pos_site_id
 _symmetry_equiv_pos_as_xyz
  1  'x, y, z'
loop_
 _atom_site_type_symbol
 _atom_site_label
 _atom_site_symmetry_multiplicity
 _atom_site_fract_x
 _atom_site_fract_y
 _atom_site_fract_z
 _atom_site_occupancy
  La  La0  1  0.328361  0.328351  0.656743  1
  La  La1  1  0.000012  0.713029  0.000001  1
  La  La2  1  0.671639  0.671649  0.343257  1
  La  La3  1  0.999988  0.286971  0.999999  1
  C  C4  1  0.459381  0.459398  0.918927  1
  C  C5  1  0.540619  0.540602  0.081073  1
  Cl  Cl6  1  0.832482  0.604691  0.664972  1
  Cl  Cl7  1  0.167518  0.395309  0.335028  1
  Cl  Cl8  1  0.832460  0.060247  0.664961  1
  Cl  Cl9  1  0.500000  0.000000  0.000000  1
  Cl  Cl10  1  0.167540  0.939753  0.335039  1
