# generated using pymatgen
data_CrP3H17N3O13
_symmetry_space_group_name_H-M   'P 1'
_cell_length_a   9.59869906
_cell_length_b   10.84072436
_cell_length_c   13.08518686
_cell_angle_alpha   90.00000000
_cell_angle_beta   92.52025670
_cell_angle_gamma   90.00000000
_symmetry_Int_Tables_number   1
_chemical_formula_structural   CrP3H17N3O13
_chemical_formula_sum   'Cr4 P12 H68 N12 O52'
_cell_volume   1360.28630800
_cell_formula_units_Z   4
loop_
 _symmetry_equiv_pos_site_id
 _symmetry_equiv_pos_as_xyz
  1  'x, y, z'
loop_
 _atom_site_type_symbol
 _atom_site_label
 _atom_site_symmetry_multiplicity
 _atom_site_fract_x
 _atom_site_fract_y
 _atom_site_fract_z
 _atom_site_occupancy
  Cr  Cr0  1  0.000000  0.000000  0.000000  1
  Cr  Cr1  1  0.000000  0.000000  0.500000  1
  Cr  Cr2  1  0.500000  0.500000  0.000000  1
  Cr  Cr3  1  0.500000  0.500000  0.500000  1
  P  P4  1  0.898719  0.367714  0.256667  1
  P  P5  1  0.508895  0.084764  0.360286  1
  P  P6  1  0.398719  0.132286  0.756667  1
  P  P7  1  0.601281  0.867714  0.243333  1
  P  P8  1  0.101281  0.632286  0.743333  1
  P  P9  1  0.025102  0.400524  0.632189  1
  P  P10  1  0.991105  0.584764  0.139714  1
  P  P11  1  0.974898  0.599476  0.367811  1
  P  P12  1  0.008895  0.415236  0.860286  1
  P  P13  1  0.474898  0.900524  0.867811  1
  P  P14  1  0.525102  0.099476  0.132189  1
  P  P15  1  0.491105  0.915236  0.639714  1
  H  H16  1  0.673633  0.562861  0.660034  1
  H  H17  1  0.129310  0.781002  0.448830  1
  H  H18  1  0.326367  0.437139  0.339966  1
  H  H19  1  0.448298  0.398790  0.820279  1
  H  H20  1  0.644132  0.212106  0.258498  1
  H  H21  1  0.838669  0.886771  0.137149  1
  H  H22  1  0.868271  0.967736  0.315684  1
  H  H23  1  0.801327  0.250509  0.787630  1
  H  H24  1  0.700903  0.652139  0.802673  1
  H  H25  1  0.567590  0.661768  0.356227  1
  H  H26  1  0.795855  0.134665  0.069551  1
  H  H27  1  0.855868  0.712106  0.241502  1
  H  H28  1  0.355868  0.787894  0.741502  1
  H  H29  1  0.259077  0.376567  0.995733  1
  H  H30  1  0.870690  0.218998  0.551170  1
  H  H31  1  0.265158  0.560328  0.397168  1
  H  H32  1  0.954277  0.601825  0.598237  1
  H  H33  1  0.142454  0.212649  0.514076  1
  H  H34  1  0.734842  0.439672  0.602832  1
  H  H35  1  0.368271  0.532264  0.815684  1
  H  H36  1  0.299097  0.347861  0.197327  1
  H  H37  1  0.234842  0.060328  0.102832  1
  H  H38  1  0.370690  0.281002  0.051170  1
  H  H39  1  0.545723  0.101825  0.901763  1
  H  H40  1  0.403798  0.717033  0.559435  1
  H  H41  1  0.857546  0.787351  0.485924  1
  H  H42  1  0.454277  0.898175  0.098237  1
  H  H43  1  0.269733  0.617985  0.061301  1
  H  H44  1  0.932410  0.161768  0.143773  1
  H  H45  1  0.204145  0.865335  0.930449  1
  H  H46  1  0.629310  0.718998  0.948830  1
  H  H47  1  0.144132  0.287894  0.758498  1
  H  H48  1  0.740923  0.623433  0.004267  1
  H  H49  1  0.998968  0.622068  0.902413  1
  H  H50  1  0.096202  0.217033  0.940565  1
  H  H51  1  0.045723  0.398175  0.401763  1
  H  H52  1  0.200903  0.847861  0.302673  1
  H  H53  1  0.769733  0.882015  0.561301  1
  H  H54  1  0.698673  0.750509  0.712370  1
  H  H55  1  0.551702  0.601210  0.179721  1
  H  H56  1  0.173633  0.937139  0.160034  1
  H  H57  1  0.948298  0.101210  0.320279  1
  H  H58  1  0.799097  0.152139  0.697327  1
  H  H59  1  0.759077  0.123433  0.495733  1
  H  H60  1  0.198673  0.749491  0.212370  1
  H  H61  1  0.661331  0.386771  0.362851  1
  H  H62  1  0.596202  0.282967  0.440565  1
  H  H63  1  0.338669  0.613229  0.637149  1
  H  H64  1  0.161331  0.113229  0.862851  1
  H  H65  1  0.765158  0.939672  0.897168  1
  H  H66  1  0.432410  0.338232  0.643773  1
  H  H67  1  0.301327  0.249491  0.287630  1
  H  H68  1  0.642454  0.287351  0.014076  1
  H  H69  1  0.001032  0.377932  0.097587  1
  H  H70  1  0.730267  0.382015  0.938699  1
  H  H71  1  0.067590  0.838232  0.856227  1
  H  H72  1  0.240923  0.876567  0.504267  1
  H  H73  1  0.903798  0.782967  0.059435  1
  H  H74  1  0.295855  0.365335  0.569551  1
  H  H75  1  0.631729  0.467736  0.184316  1
  H  H76  1  0.704145  0.634665  0.430449  1
  H  H77  1  0.498968  0.877932  0.402413  1
  H  H78  1  0.131729  0.032264  0.684316  1
  H  H79  1  0.230267  0.117985  0.438699  1
  H  H80  1  0.501032  0.122068  0.597587  1
  H  H81  1  0.051702  0.898790  0.679721  1
  H  H82  1  0.357546  0.712649  0.985924  1
  H  H83  1  0.826367  0.062861  0.839966  1
  N  N84  1  0.924740  0.639794  0.248133  1
  N  N85  1  0.575260  0.139794  0.251867  1
  N  N86  1  0.975575  0.445906  0.355903  1
  N  N87  1  0.075260  0.360206  0.751867  1
  N  N88  1  0.524425  0.945906  0.144097  1
  N  N89  1  0.458481  0.066145  0.651111  1
  N  N90  1  0.041519  0.566145  0.848889  1
  N  N91  1  0.541519  0.933855  0.348889  1
  N  N92  1  0.024425  0.554094  0.644097  1
  N  N93  1  0.424740  0.860206  0.748133  1
  N  N94  1  0.958481  0.433855  0.151111  1
  N  N95  1  0.475575  0.054094  0.855903  1
  O  O96  1  0.945313  0.234578  0.259578  1
  O  O97  1  0.350715  0.508837  0.388659  1
  O  O98  1  0.852551  0.128378  0.534233  1
  O  O99  1  0.147449  0.871622  0.465767  1
  O  O100  1  0.135360  0.351002  0.561803  1
  O  O101  1  0.759193  0.888082  0.241207  1
  O  O102  1  0.147709  0.127201  0.484326  1
  O  O103  1  0.052238  0.984485  0.650334  1
  O  O104  1  0.605043  0.374145  0.425469  1
  O  O105  1  0.240807  0.111918  0.758793  1
  O  O106  1  0.773640  0.165502  0.767864  1
  O  O107  1  0.619999  0.856637  0.902345  1
  O  O108  1  0.598007  0.635914  0.427220  1
  O  O109  1  0.554687  0.734578  0.240422  1
  O  O110  1  0.447762  0.484485  0.849666  1
  O  O111  1  0.401993  0.364086  0.572780  1
  O  O112  1  0.273640  0.334498  0.267864  1
  O  O113  1  0.635360  0.148998  0.061803  1
  O  O114  1  0.354060  0.110619  0.361988  1
  O  O115  1  0.096687  0.361501  0.950292  1
  O  O116  1  0.403313  0.861501  0.549708  1
  O  O117  1  0.649285  0.491163  0.611341  1
  O  O118  1  0.105043  0.125855  0.925469  1
  O  O119  1  0.894957  0.874145  0.074531  1
  O  O120  1  0.854060  0.389381  0.861988  1
  O  O121  1  0.880001  0.356637  0.597655  1
  O  O122  1  0.394957  0.625855  0.574531  1
  O  O123  1  0.364640  0.851002  0.938197  1
  O  O124  1  0.098007  0.864086  0.927220  1
  O  O125  1  0.947762  0.015515  0.349666  1
  O  O126  1  0.149285  0.008837  0.111341  1
  O  O127  1  0.647449  0.628378  0.965767  1
  O  O128  1  0.726360  0.665502  0.732136  1
  O  O129  1  0.596687  0.138499  0.450292  1
  O  O130  1  0.380001  0.143363  0.097655  1
  O  O131  1  0.259193  0.611918  0.741207  1
  O  O132  1  0.647709  0.372799  0.984326  1
  O  O133  1  0.226360  0.834498  0.232136  1
  O  O134  1  0.901993  0.135914  0.072780  1
  O  O135  1  0.645940  0.889381  0.638012  1
  O  O136  1  0.850715  0.991163  0.888659  1
  O  O137  1  0.852291  0.872799  0.515674  1
  O  O138  1  0.740807  0.388082  0.258793  1
  O  O139  1  0.145940  0.610619  0.138012  1
  O  O140  1  0.352291  0.627201  0.015674  1
  O  O141  1  0.552238  0.515515  0.150334  1
  O  O142  1  0.054687  0.765422  0.740422  1
  O  O143  1  0.903313  0.638499  0.049708  1
  O  O144  1  0.352551  0.371622  0.034233  1
  O  O145  1  0.445313  0.265422  0.759578  1
  O  O146  1  0.119999  0.643363  0.402345  1
  O  O147  1  0.864640  0.648998  0.438197  1
