# generated using pymatgen
data_AsSXeNF10
_symmetry_space_group_name_H-M   'P 1'
_cell_length_a   9.10127841
_cell_length_b   12.78938670
_cell_length_c   16.78788369
_cell_angle_alpha   90.00000000
_cell_angle_beta   90.00000000
_cell_angle_gamma   90.00000000
_symmetry_Int_Tables_number   1
_chemical_formula_structural   AsSXeNF10
_chemical_formula_sum   'As8 S8 Xe8 N8 F80'
_cell_volume   1954.10578435
_cell_formula_units_Z   8
loop_
 _symmetry_equiv_pos_site_id
 _symmetry_equiv_pos_as_xyz
  1  'x, y, z'
loop_
 _atom_site_type_symbol
 _atom_site_label
 _atom_site_symmetry_multiplicity
 _atom_site_fract_x
 _atom_site_fract_y
 _atom_site_fract_z
 _atom_site_occupancy
  As  As0  1  0.222718  0.090283  0.136673  1
  As  As1  1  0.722718  0.090283  0.363327  1
  As  As2  1  0.777282  0.590283  0.363327  1
  As  As3  1  0.722718  0.409717  0.863327  1
  As  As4  1  0.222718  0.409717  0.636673  1
  As  As5  1  0.777282  0.909717  0.863327  1
  As  As6  1  0.277282  0.590283  0.136673  1
  As  As7  1  0.277282  0.909717  0.636673  1
  S  S8  1  0.789416  0.840959  0.561648  1
  S  S9  1  0.710584  0.340959  0.561648  1
  S  S10  1  0.289416  0.659041  0.438352  1
  S  S11  1  0.210584  0.159041  0.438352  1
  S  S12  1  0.710584  0.159041  0.061648  1
  S  S13  1  0.789416  0.659041  0.061648  1
  S  S14  1  0.210584  0.340959  0.938352  1
  S  S15  1  0.289416  0.840959  0.938352  1
  Xe  Xe16  1  0.948548  0.683255  0.707577  1
  Xe  Xe17  1  0.551452  0.183255  0.707577  1
  Xe  Xe18  1  0.448548  0.683255  0.792423  1
  Xe  Xe19  1  0.051452  0.316745  0.292423  1
  Xe  Xe20  1  0.448548  0.816745  0.292423  1
  Xe  Xe21  1  0.948548  0.816745  0.207577  1
  Xe  Xe22  1  0.051452  0.183255  0.792423  1
  Xe  Xe23  1  0.551452  0.316745  0.207577  1
  N  N24  1  0.313682  0.754293  0.396004  1
  N  N25  1  0.686318  0.245707  0.603996  1
  N  N26  1  0.186318  0.245707  0.896004  1
  N  N27  1  0.686318  0.254293  0.103996  1
  N  N28  1  0.313682  0.745707  0.896004  1
  N  N29  1  0.186318  0.254293  0.396004  1
  N  N30  1  0.813682  0.754293  0.103996  1
  N  N31  1  0.813682  0.745707  0.603996  1
  F  F32  1  0.143581  0.656468  0.484805  1
  F  F33  1  0.032120  0.085976  0.158463  1
  F  F34  1  0.237640  0.954570  0.155830  1
  F  F35  1  0.610194  0.125067  0.992130  1
  F  F36  1  0.685674  0.064452  0.465113  1
  F  F37  1  0.389806  0.874933  0.007870  1
  F  F38  1  0.238363  0.881440  0.738020  1
  F  F39  1  0.262360  0.045430  0.655830  1
  F  F40  1  0.433960  0.374916  0.299811  1
  F  F41  1  0.790235  0.726738  0.382537  1
  F  F42  1  0.066040  0.625084  0.799811  1
  F  F43  1  0.290235  0.773262  0.617463  1
  F  F44  1  0.223466  0.449071  0.897994  1
  F  F45  1  0.314326  0.935548  0.534887  1
  F  F46  1  0.737640  0.545430  0.844170  1
  F  F47  1  0.433960  0.125084  0.799811  1
  F  F48  1  0.223466  0.050929  0.397994  1
  F  F49  1  0.185674  0.435548  0.534887  1
  F  F50  1  0.414492  0.404137  0.615370  1
  F  F51  1  0.762360  0.045430  0.844170  1
  F  F52  1  0.032120  0.414024  0.658463  1
  F  F53  1  0.761637  0.118560  0.261980  1
  F  F54  1  0.185674  0.064452  0.034887  1
  F  F55  1  0.814326  0.564452  0.465113  1
  F  F56  1  0.723466  0.050929  0.102006  1
  F  F57  1  0.261637  0.381440  0.738020  1
  F  F58  1  0.776534  0.949071  0.602006  1
  F  F59  1  0.889806  0.874933  0.492130  1
  F  F60  1  0.085508  0.595863  0.115370  1
  F  F61  1  0.723466  0.449071  0.602006  1
  F  F62  1  0.110194  0.125067  0.507870  1
  F  F63  1  0.610194  0.374933  0.492130  1
  F  F64  1  0.761637  0.381440  0.761980  1
  F  F65  1  0.209765  0.226738  0.117463  1
  F  F66  1  0.356419  0.343532  0.984805  1
  F  F67  1  0.262360  0.454570  0.155830  1
  F  F68  1  0.389806  0.625067  0.507870  1
  F  F69  1  0.814326  0.935548  0.965113  1
  F  F70  1  0.776534  0.550929  0.102006  1
  F  F71  1  0.762360  0.454570  0.344170  1
  F  F72  1  0.532120  0.085976  0.341537  1
  F  F73  1  0.790235  0.773262  0.882537  1
  F  F74  1  0.467880  0.914024  0.658463  1
  F  F75  1  0.738363  0.881440  0.761980  1
  F  F76  1  0.889806  0.625067  0.992130  1
  F  F77  1  0.566040  0.874916  0.200189  1
  F  F78  1  0.738363  0.618560  0.261980  1
  F  F79  1  0.314326  0.564452  0.034887  1
  F  F80  1  0.967880  0.585976  0.341537  1
  F  F81  1  0.276534  0.949071  0.897994  1
  F  F82  1  0.856419  0.343532  0.515195  1
  F  F83  1  0.643581  0.843532  0.515195  1
  F  F84  1  0.143581  0.843532  0.984805  1
  F  F85  1  0.709765  0.273262  0.882537  1
  F  F86  1  0.209765  0.273262  0.617463  1
  F  F87  1  0.914492  0.095863  0.384630  1
  F  F88  1  0.414492  0.095863  0.115370  1
  F  F89  1  0.737640  0.954570  0.344170  1
  F  F90  1  0.276534  0.550929  0.397994  1
  F  F91  1  0.856419  0.156468  0.015195  1
  F  F92  1  0.566040  0.625084  0.700189  1
  F  F93  1  0.585508  0.595863  0.384630  1
  F  F94  1  0.085508  0.904137  0.615370  1
  F  F95  1  0.467880  0.585976  0.158463  1
  F  F96  1  0.238363  0.618560  0.238020  1
  F  F97  1  0.290235  0.726738  0.117463  1
  F  F98  1  0.643581  0.656468  0.015195  1
  F  F99  1  0.110194  0.374933  0.007870  1
  F  F100  1  0.237640  0.545430  0.655830  1
  F  F101  1  0.933960  0.125084  0.700189  1
  F  F102  1  0.532120  0.414024  0.841537  1
  F  F103  1  0.356419  0.156468  0.484805  1
  F  F104  1  0.967880  0.914024  0.841537  1
  F  F105  1  0.933960  0.374916  0.200189  1
  F  F106  1  0.685674  0.435548  0.965113  1
  F  F107  1  0.914492  0.404137  0.884630  1
  F  F108  1  0.709765  0.226738  0.382537  1
  F  F109  1  0.261637  0.118560  0.238020  1
  F  F110  1  0.585508  0.904137  0.884630  1
  F  F111  1  0.066040  0.874916  0.299811  1
