# generated using pymatgen
data_NaZnFe2(PO4)3
_symmetry_space_group_name_H-M   'P 1'
_cell_length_a   5.17858456
_cell_length_b   12.36567038
_cell_length_c   15.21574717
_cell_angle_alpha   90.00000000
_cell_angle_beta   90.00000000
_cell_angle_gamma   90.00000000
_symmetry_Int_Tables_number   1
_chemical_formula_structural   NaZnFe2(PO4)3
_chemical_formula_sum   'Na4 Zn4 Fe8 P12 O48'
_cell_volume   974.36577582
_cell_formula_units_Z   4
loop_
 _symmetry_equiv_pos_site_id
 _symmetry_equiv_pos_as_xyz
  1  'x, y, z'
loop_
 _atom_site_type_symbol
 _atom_site_label
 _atom_site_symmetry_multiplicity
 _atom_site_fract_x
 _atom_site_fract_y
 _atom_site_fract_z
 _atom_site_occupancy
  Na  Na0  1  0.041788  0.020966  0.211089  1
  Na  Na1  1  0.541788  0.479034  0.788911  1
  Na  Na2  1  0.958212  0.520966  0.288911  1
  Na  Na3  1  0.458212  0.979034  0.711089  1
  Zn  Zn4  1  0.931134  0.794407  0.758389  1
  Zn  Zn5  1  0.568866  0.205593  0.258389  1
  Zn  Zn6  1  0.068866  0.294407  0.741611  1
  Zn  Zn7  1  0.431134  0.705593  0.241611  1
  Fe  Fe8  1  0.742326  0.580285  0.992099  1
  Fe  Fe9  1  0.995263  0.787271  0.362455  1
  Fe  Fe10  1  0.757674  0.419715  0.492099  1
  Fe  Fe11  1  0.004737  0.287271  0.137545  1
  Fe  Fe12  1  0.504737  0.212729  0.862455  1
  Fe  Fe13  1  0.257674  0.080285  0.507901  1
  Fe  Fe14  1  0.242325  0.919715  0.007901  1
  Fe  Fe15  1  0.495263  0.712729  0.637545  1
  P  P16  1  0.483312  0.636918  0.423058  1
  P  P17  1  0.094036  0.260866  0.366145  1
  P  P18  1  0.013167  0.543587  0.658576  1
  P  P19  1  0.513167  0.956413  0.341424  1
  P  P20  1  0.486833  0.456413  0.158576  1
  P  P21  1  0.905964  0.760866  0.133855  1
  P  P22  1  0.983312  0.863082  0.576942  1
  P  P23  1  0.016688  0.363082  0.923058  1
  P  P24  1  0.986833  0.043587  0.841424  1
  P  P25  1  0.516688  0.136918  0.076942  1
  P  P26  1  0.405964  0.739134  0.866145  1
  P  P27  1  0.594036  0.239134  0.633855  1
  O  O28  1  0.542083  0.779063  0.779842  1
  O  O29  1  0.120051  0.717320  0.849168  1
  O  O30  1  0.795291  0.916881  0.327380  1
  O  O31  1  0.957917  0.220937  0.279842  1
  O  O32  1  0.178313  0.138165  0.821385  1
  O  O33  1  0.718172  0.850354  0.623967  1
  O  O34  1  0.476763  0.993334  0.438562  1
  O  O35  1  0.445905  0.825480  0.939394  1
  O  O36  1  0.038740  0.867522  0.103234  1
  O  O37  1  0.957224  0.449817  0.721687  1
  O  O38  1  0.678313  0.361835  0.178615  1
  O  O39  1  0.379949  0.282680  0.349168  1
  O  O40  1  0.054095  0.174520  0.439394  1
  O  O41  1  0.704709  0.083119  0.827380  1
  O  O42  1  0.961260  0.367522  0.396766  1
  O  O43  1  0.317097  0.190724  0.141569  1
  O  O44  1  0.042083  0.720937  0.220158  1
  O  O45  1  0.945905  0.674520  0.060606  1
  O  O46  1  0.507672  0.190145  0.986891  1
  O  O47  1  0.457917  0.279063  0.720158  1
  O  O48  1  0.461260  0.132478  0.603234  1
  O  O49  1  0.956216  0.485095  0.928597  1
  O  O50  1  0.542776  0.550183  0.221687  1
  O  O51  1  0.620051  0.782680  0.150831  1
  O  O52  1  0.204709  0.416881  0.172620  1
  O  O53  1  0.456216  0.014905  0.071403  1
  O  O54  1  0.543784  0.514905  0.428597  1
  O  O55  1  0.182903  0.809276  0.641569  1
  O  O56  1  0.007672  0.309855  0.013109  1
  O  O57  1  0.457224  0.050183  0.278313  1
  O  O58  1  0.218172  0.649646  0.376033  1
  O  O59  1  0.538740  0.632478  0.896766  1
  O  O60  1  0.879949  0.217320  0.650832  1
  O  O61  1  0.992328  0.809855  0.486891  1
  O  O62  1  0.976763  0.506666  0.561438  1
  O  O63  1  0.781828  0.149646  0.123967  1
  O  O64  1  0.523237  0.493334  0.061438  1
  O  O65  1  0.023237  0.006666  0.938562  1
  O  O66  1  0.817097  0.309276  0.858431  1
  O  O67  1  0.492328  0.690145  0.513109  1
  O  O68  1  0.682903  0.690724  0.358431  1
  O  O69  1  0.554095  0.325480  0.560606  1
  O  O70  1  0.281828  0.350354  0.876033  1
  O  O71  1  0.295291  0.583119  0.672620  1
  O  O72  1  0.043784  0.985095  0.571403  1
  O  O73  1  0.321687  0.861835  0.321385  1
  O  O74  1  0.821687  0.638165  0.678615  1
  O  O75  1  0.042776  0.949817  0.778313  1
