# generated using pymatgen
data_K2NaH5(CO4)2
_symmetry_space_group_name_H-M   'P 1'
_cell_length_a   8.00471476
_cell_length_b   9.42343476
_cell_length_c   11.61246552
_cell_angle_alpha   90.00000000
_cell_angle_beta   90.00000000
_cell_angle_gamma   90.00000000
_symmetry_Int_Tables_number   1
_chemical_formula_structural   K2NaH5(CO4)2
_chemical_formula_sum   'K8 Na4 H20 C8 O32'
_cell_volume   875.95042278
_cell_formula_units_Z   4
loop_
 _symmetry_equiv_pos_site_id
 _symmetry_equiv_pos_as_xyz
  1  'x, y, z'
loop_
 _atom_site_type_symbol
 _atom_site_label
 _atom_site_symmetry_multiplicity
 _atom_site_fract_x
 _atom_site_fract_y
 _atom_site_fract_z
 _atom_site_occupancy
  Na  Na0  1  0.750000  0.960685  0.663592  1
  Na  Na1  1  0.250000  0.039315  0.336408  1
  Na  Na2  1  0.750000  0.460685  0.836408  1
  Na  Na3  1  0.250000  0.539315  0.163592  1
  K  K4  1  0.488378  0.799238  0.882586  1
  K  K5  1  0.988378  0.200762  0.117414  1
  K  K6  1  0.011622  0.299238  0.617414  1
  K  K7  1  0.511622  0.700762  0.382586  1
  K  K8  1  0.511622  0.200762  0.117414  1
  K  K9  1  0.011622  0.799238  0.882586  1
  K  K10  1  0.988378  0.700762  0.382586  1
  K  K11  1  0.488378  0.299238  0.617414  1
  O  O12  1  0.750000  0.744724  0.556775  1
  O  O13  1  0.250000  0.255276  0.443225  1
  O  O14  1  0.750000  0.244724  0.943225  1
  O  O15  1  0.250000  0.755276  0.056775  1
  O  O16  1  0.750000  0.700309  0.748574  1
  O  O17  1  0.250000  0.299691  0.251426  1
  O  O18  1  0.750000  0.200309  0.751426  1
  O  O19  1  0.250000  0.799691  0.248574  1
  O  O20  1  0.750000  0.518627  0.624288  1
  O  O21  1  0.250000  0.481373  0.375712  1
  O  O22  1  0.750000  0.018627  0.875712  1
  O  O23  1  0.250000  0.981373  0.124288  1
  C  C24  1  0.750000  0.661850  0.643264  1
  C  C25  1  0.250000  0.338150  0.356736  1
  C  C26  1  0.750000  0.161850  0.856736  1
  C  C27  1  0.250000  0.838150  0.143264  1
  O  O28  1  0.750000  0.475869  0.413468  1
  O  O29  1  0.250000  0.524131  0.586532  1
  O  O30  1  0.750000  0.975869  0.086532  1
  O  O31  1  0.250000  0.024131  0.913468  1
  O  O32  1  0.750000  0.237796  0.439130  1
  O  O33  1  0.250000  0.762204  0.560870  1
  O  O34  1  0.750000  0.737796  0.060870  1
  O  O35  1  0.250000  0.262204  0.939130  1
  O  O36  1  0.750000  0.332697  0.259513  1
  O  O37  1  0.250000  0.667303  0.740487  1
  O  O38  1  0.750000  0.832697  0.240487  1
  O  O39  1  0.250000  0.167303  0.759513  1
  C  C40  1  0.750000  0.347092  0.371024  1
  C  C41  1  0.250000  0.652908  0.628976  1
  C  C42  1  0.750000  0.847092  0.128976  1
  C  C43  1  0.250000  0.152908  0.871024  1
  O  O44  1  0.959431  0.527501  0.157367  1
  O  O45  1  0.459431  0.472499  0.842633  1
  O  O46  1  0.540569  0.027501  0.342633  1
  O  O47  1  0.040569  0.972499  0.657367  1
  O  O48  1  0.040569  0.472499  0.842633  1
  O  O49  1  0.540569  0.527501  0.157367  1
  O  O50  1  0.459431  0.972499  0.657367  1
  O  O51  1  0.959431  0.027501  0.342633  1
  H  H52  1  0.750000  0.497483  0.532574  1
  H  H53  1  0.250000  0.502517  0.467426  1
  H  H54  1  0.750000  0.997483  0.967426  1
  H  H55  1  0.250000  0.002517  0.032574  1
  H  H56  1  0.888680  0.600384  0.119536  1
  H  H57  1  0.388680  0.399616  0.880464  1
  H  H58  1  0.611320  0.100384  0.380464  1
  H  H59  1  0.111320  0.899616  0.619536  1
  H  H60  1  0.111320  0.399616  0.880464  1
  H  H61  1  0.611320  0.600384  0.119536  1
  H  H62  1  0.388680  0.899616  0.619536  1
  H  H63  1  0.888680  0.100384  0.380464  1
  H  H64  1  0.879820  0.465033  0.199371  1
  H  H65  1  0.379820  0.534967  0.800629  1
  H  H66  1  0.620180  0.965033  0.300629  1
  H  H67  1  0.120180  0.034967  0.699371  1
  H  H68  1  0.120180  0.534967  0.800629  1
  H  H69  1  0.620180  0.465033  0.199371  1
  H  H70  1  0.379820  0.034967  0.699371  1
  H  H71  1  0.879820  0.965033  0.300629  1
