# generated using pymatgen
data_Ba2Cu(BO3)2
_symmetry_space_group_name_H-M   'P 1'
_cell_length_a   8.31547109
_cell_length_b   11.26386491
_cell_length_c   14.16057450
_cell_angle_alpha   90.00000000
_cell_angle_beta   90.00000000
_cell_angle_gamma   90.00000000
_symmetry_Int_Tables_number   1
_chemical_formula_structural   Ba2Cu(BO3)2
_chemical_formula_sum   'Ba16 Cu8 B16 O48'
_cell_volume   1326.34090734
_cell_formula_units_Z   8
loop_
 _symmetry_equiv_pos_site_id
 _symmetry_equiv_pos_as_xyz
  1  'x, y, z'
loop_
 _atom_site_type_symbol
 _atom_site_label
 _atom_site_symmetry_multiplicity
 _atom_site_fract_x
 _atom_site_fract_y
 _atom_site_fract_z
 _atom_site_occupancy
  Ba  Ba0  1  0.340536  0.981451  0.217437  1
  Ba  Ba1  1  0.340536  0.518549  0.217437  1
  Ba  Ba2  1  0.840536  0.981451  0.282563  1
  Ba  Ba3  1  0.500000  0.000000  0.500000  1
  Ba  Ba4  1  0.840536  0.518549  0.282563  1
  Ba  Ba5  1  0.659464  0.481451  0.782563  1
  Ba  Ba6  1  0.000000  0.000000  0.000000  1
  Ba  Ba7  1  0.159464  0.018549  0.717437  1
  Ba  Ba8  1  0.000000  0.500000  0.000000  1
  Ba  Ba9  1  0.159464  0.481451  0.717437  1
  Ba  Ba10  1  0.616307  0.750000  0.046170  1
  Ba  Ba11  1  0.116307  0.750000  0.453830  1
  Ba  Ba12  1  0.383693  0.250000  0.953830  1
  Ba  Ba13  1  0.659464  0.018549  0.782563  1
  Ba  Ba14  1  0.883693  0.250000  0.546170  1
  Ba  Ba15  1  0.500000  0.500000  0.500000  1
  Cu  Cu16  1  0.800037  0.250000  0.927056  1
  Cu  Cu17  1  0.699963  0.750000  0.427056  1
  Cu  Cu18  1  0.456732  0.750000  0.800926  1
  Cu  Cu19  1  0.199963  0.750000  0.072944  1
  Cu  Cu20  1  0.956732  0.750000  0.699074  1
  Cu  Cu21  1  0.043268  0.250000  0.300926  1
  Cu  Cu22  1  0.300037  0.250000  0.572944  1
  Cu  Cu23  1  0.543268  0.250000  0.199074  1
  B  B24  1  0.020192  0.750000  0.206426  1
  B  B25  1  0.861647  0.570155  0.564658  1
  B  B26  1  0.638353  0.070155  0.064658  1
  B  B27  1  0.638353  0.429845  0.064658  1
  B  B28  1  0.979808  0.250000  0.793574  1
  B  B29  1  0.361647  0.929845  0.935342  1
  B  B30  1  0.361647  0.570155  0.935342  1
  B  B31  1  0.427785  0.750000  0.632316  1
  B  B32  1  0.861647  0.929845  0.564658  1
  B  B33  1  0.479808  0.250000  0.706426  1
  B  B34  1  0.138353  0.070155  0.435342  1
  B  B35  1  0.520192  0.750000  0.293574  1
  B  B36  1  0.927785  0.750000  0.867684  1
  B  B37  1  0.138353  0.429845  0.435342  1
  B  B38  1  0.572215  0.250000  0.367684  1
  B  B39  1  0.072215  0.250000  0.132316  1
  O  O40  1  0.804190  0.608037  0.476404  1
  O  O41  1  0.585234  0.250000  0.462815  1
  O  O42  1  0.935041  0.645627  0.812187  1
  O  O43  1  0.564959  0.145627  0.312187  1
  O  O44  1  0.435172  0.750000  0.211482  1
  O  O45  1  0.207144  0.973409  0.392578  1
  O  O46  1  1.005807  0.371626  0.395393  1
  O  O47  1  0.792856  0.473409  0.607422  1
  O  O48  1  0.792856  0.026591  0.607422  1
  O  O49  1  0.064959  0.354373  0.187813  1
  O  O50  1  0.414766  0.750000  0.537185  1
  O  O51  1  0.568371  0.645491  0.338914  1
  O  O52  1  0.304190  0.891963  0.023596  1
  O  O53  1  0.804190  0.891963  0.476404  1
  O  O54  1  0.064828  0.250000  0.711482  1
  O  O55  1  0.068371  0.645491  0.161086  1
  O  O56  1  0.304190  0.608037  0.023596  1
  O  O57  1  0.931629  0.145491  0.838914  1
  O  O58  1  0.195810  0.108037  0.523596  1
  O  O59  1  0.435041  0.854373  0.687813  1
  O  O60  1  0.564959  0.354373  0.312187  1
  O  O61  1  0.935172  0.750000  0.288518  1
  O  O62  1  0.085234  0.250000  0.037185  1
  O  O63  1  0.207144  0.526591  0.392578  1
  O  O64  1  1.005807  0.128374  0.395393  1
  O  O65  1  0.695810  0.391963  0.976404  1
  O  O66  1  0.431629  0.354509  0.661086  1
  O  O67  1  0.431629  0.145491  0.661086  1
  O  O68  1  0.292856  0.473409  0.892578  1
  O  O69  1  0.505807  0.371626  0.104607  1
  O  O70  1  0.931629  0.354509  0.838914  1
  O  O71  1  0.564828  0.250000  0.788518  1
  O  O72  1  0.494193  0.628374  0.895393  1
  O  O73  1  0.707144  0.526591  0.107422  1
  O  O74  1  -0.005807  0.628374  0.604607  1
  O  O75  1  0.707144  0.973409  0.107422  1
  O  O76  1  0.292856  0.026591  0.892578  1
  O  O77  1  0.695810  0.108037  0.976404  1
  O  O78  1  0.568371  0.854509  0.338914  1
  O  O79  1  0.505807  0.128374  0.104607  1
  O  O80  1  0.935041  0.854373  0.812187  1
  O  O81  1  -0.005807  0.871626  0.604607  1
  O  O82  1  0.494193  0.871626  0.895393  1
  O  O83  1  0.068371  0.854509  0.161086  1
  O  O84  1  0.064959  0.145627  0.187813  1
  O  O85  1  0.195810  0.391963  0.523596  1
  O  O86  1  0.914766  0.750000  0.962815  1
  O  O87  1  0.435041  0.645627  0.687813  1
