# generated using pymatgen
data_Si2Bi14RhI12
_symmetry_space_group_name_H-M   'P 1'
_cell_length_a   10.51454087
_cell_length_b   10.51454087
_cell_length_c   20.82249845
_cell_angle_alpha   90.00000000
_cell_angle_beta   90.00000000
_cell_angle_gamma   90.00000000
_symmetry_Int_Tables_number   1
_chemical_formula_structural   Si2Bi14RhI12
_chemical_formula_sum   'Si4 Bi28 Rh2 I24'
_cell_volume   2302.04317886
_cell_formula_units_Z   2
loop_
 _symmetry_equiv_pos_site_id
 _symmetry_equiv_pos_as_xyz
  1  'x, y, z'
loop_
 _atom_site_type_symbol
 _atom_site_label
 _atom_site_symmetry_multiplicity
 _atom_site_fract_x
 _atom_site_fract_y
 _atom_site_fract_z
 _atom_site_occupancy
  Si  Si0  1  0.500000  0.500000  0.596062  1
  Si  Si1  1  0.500000  0.500000  0.403938  1
  Si  Si2  1  0.500000  0.500000  0.096062  1
  Si  Si3  1  0.500000  0.500000  0.903938  1
  Bi  Bi4  1  0.249984  0.054969  0.000000  1
  Bi  Bi5  1  0.412795  0.698679  0.817740  1
  Bi  Bi6  1  0.698679  0.412795  0.682260  1
  Bi  Bi7  1  0.698679  0.587205  0.817740  1
  Bi  Bi8  1  0.249984  0.945031  0.500000  1
  Bi  Bi9  1  0.412795  0.301321  0.317740  1
  Bi  Bi10  1  0.301321  0.587205  0.682260  1
  Bi  Bi11  1  0.054969  0.249984  0.500000  1
  Bi  Bi12  1  0.412795  0.698679  0.182260  1
  Bi  Bi13  1  0.698679  0.587205  0.182260  1
  Bi  Bi14  1  0.000000  0.000000  0.871415  1
  Bi  Bi15  1  0.945031  0.249984  0.000000  1
  Bi  Bi16  1  0.301321  0.412795  0.817740  1
  Bi  Bi17  1  0.000000  0.000000  0.628585  1
  Bi  Bi18  1  0.301321  0.587205  0.317740  1
  Bi  Bi19  1  0.587205  0.698679  0.682260  1
  Bi  Bi20  1  0.750016  0.945031  0.000000  1
  Bi  Bi21  1  0.698679  0.412795  0.317740  1
  Bi  Bi22  1  0.000000  0.000000  0.128585  1
  Bi  Bi23  1  0.587205  0.301321  0.182260  1
  Bi  Bi24  1  0.587205  0.301321  0.817740  1
  Bi  Bi25  1  0.945031  0.750016  0.500000  1
  Bi  Bi26  1  0.000000  0.000000  0.371415  1
  Bi  Bi27  1  0.750016  0.054969  0.500000  1
  Bi  Bi28  1  0.587205  0.698679  0.317740  1
  Bi  Bi29  1  0.301321  0.412795  0.182260  1
  Bi  Bi30  1  0.054969  0.750016  0.000000  1
  Bi  Bi31  1  0.412795  0.301321  0.682260  1
  Rh  Rh32  1  0.000000  0.000000  0.000000  1
  Rh  Rh33  1  0.000000  0.000000  0.500000  1
  I  I34  1  0.367113  0.776747  0.000000  1
  I  I35  1  0.701866  0.062689  0.652338  1
  I  I36  1  0.937311  0.298134  0.847662  1
  I  I37  1  0.062689  0.298134  0.347662  1
  I  I38  1  0.937311  0.701866  0.652338  1
  I  I39  1  0.062689  0.701866  0.847662  1
  I  I40  1  0.298134  0.062689  0.847662  1
  I  I41  1  0.937311  0.701866  0.347662  1
  I  I42  1  0.776747  0.367113  0.500000  1
  I  I43  1  0.701866  0.937311  0.847662  1
  I  I44  1  0.298134  0.937311  0.652338  1
  I  I45  1  0.367113  0.223253  0.500000  1
  I  I46  1  0.298134  0.062689  0.152338  1
  I  I47  1  0.062689  0.701866  0.152338  1
  I  I48  1  0.062689  0.298134  0.652338  1
  I  I49  1  0.701866  0.062689  0.347662  1
  I  I50  1  0.223253  0.367113  0.000000  1
  I  I51  1  0.701866  0.937311  0.152338  1
  I  I52  1  0.223253  0.632887  0.500000  1
  I  I53  1  0.937311  0.298134  0.152338  1
  I  I54  1  0.632887  0.776747  0.500000  1
  I  I55  1  0.298134  0.937311  0.347662  1
  I  I56  1  0.776747  0.632887  0.000000  1
  I  I57  1  0.632887  0.223253  0.000000  1
