# generated using pymatgen
data_K2BeH4(SeO5)2
_symmetry_space_group_name_H-M   'P 1'
_cell_length_a   7.61593130
_cell_length_b   11.66110310
_cell_length_c   12.03312639
_cell_angle_alpha   90.00000000
_cell_angle_beta   90.00000000
_cell_angle_gamma   95.94783615
_symmetry_Int_Tables_number   1
_chemical_formula_structural   K2BeH4(SeO5)2
_chemical_formula_sum   'K8 Be4 H16 Se8 O40'
_cell_volume   1062.91088865
_cell_formula_units_Z   4
loop_
 _symmetry_equiv_pos_site_id
 _symmetry_equiv_pos_as_xyz
  1  'x, y, z'
loop_
 _atom_site_type_symbol
 _atom_site_label
 _atom_site_symmetry_multiplicity
 _atom_site_fract_x
 _atom_site_fract_y
 _atom_site_fract_z
 _atom_site_occupancy
  Se  Se0  1  0.250802  0.122578  0.051404  1
  Se  Se1  1  0.249198  0.877422  0.551404  1
  Se  Se2  1  0.749198  0.877422  0.948596  1
  Se  Se3  1  0.750802  0.122578  0.448596  1
  Se  Se4  1  0.162782  0.629725  0.112033  1
  Se  Se5  1  0.337218  0.370275  0.612033  1
  Se  Se6  1  0.837218  0.370275  0.887967  1
  Se  Se7  1  0.662782  0.629725  0.387967  1
  K  K8  1  0.018753  0.905559  0.240995  1
  K  K9  1  0.481247  0.094441  0.740995  1
  K  K10  1  0.981247  0.094441  0.759005  1
  K  K11  1  0.518753  0.905559  0.259005  1
  K  K12  1  0.670608  0.611089  0.097759  1
  K  K13  1  0.829392  0.388911  0.597759  1
  K  K14  1  0.329392  0.388911  0.902241  1
  K  K15  1  0.170608  0.611089  0.402241  1
  Be  Be16  1  0.915071  0.234704  0.084917  1
  Be  Be17  1  0.584929  0.765296  0.584917  1
  Be  Be18  1  0.084929  0.765296  0.915083  1
  Be  Be19  1  0.415071  0.234704  0.415083  1
  O  O20  1  0.247624  0.130638  0.914233  1
  O  O21  1  0.252376  0.869362  0.414233  1
  O  O22  1  0.752376  0.869362  0.085767  1
  O  O23  1  0.747624  0.130638  0.585767  1
  O  O24  1  0.303772  0.994052  0.094317  1
  O  O25  1  0.196228  0.005948  0.594317  1
  O  O26  1  0.696228  0.005948  0.905683  1
  O  O27  1  0.803772  0.994052  0.405683  1
  O  O28  1  0.395334  0.229851  0.100314  1
  O  O29  1  0.104666  0.770149  0.600314  1
  O  O30  1  0.604666  0.770149  0.899686  1
  O  O31  1  0.895334  0.229851  0.399686  1
  O  O32  1  0.049186  0.133998  0.108147  1
  O  O33  1  0.450814  0.866002  0.608147  1
  O  O34  1  0.950814  0.866002  0.891853  1
  O  O35  1  0.549186  0.133998  0.391853  1
  O  O36  1  0.313233  0.568107  0.040746  1
  O  O37  1  0.186767  0.431893  0.540746  1
  O  O38  1  0.686767  0.431893  0.959254  1
  O  O39  1  0.813233  0.568107  0.459254  1
  O  O40  1  0.253120  0.734165  0.194504  1
  O  O41  1  0.246880  0.265835  0.694504  1
  O  O42  1  0.746880  0.265835  0.805496  1
  O  O43  1  0.753120  0.734165  0.305496  1
  O  O44  1  0.031114  0.538210  0.189857  1
  O  O45  1  0.468886  0.461790  0.689857  1
  O  O46  1  0.968886  0.461790  0.810143  1
  O  O47  1  0.531114  0.538210  0.310143  1
  O  O48  1  0.020752  0.688438  0.022456  1
  O  O49  1  0.479248  0.311562  0.522456  1
  O  O50  1  0.979248  0.311562  0.977544  1
  O  O51  1  0.520752  0.688438  0.477544  1
  O  O52  1  0.903765  0.319687  0.191849  1
  O  O53  1  0.596235  0.680313  0.691849  1
  O  O54  1  0.096235  0.680313  0.808151  1
  O  O55  1  0.403765  0.319687  0.308151  1
  O  O56  1  0.720444  0.159416  0.073627  1
  O  O57  1  0.779556  0.840584  0.573627  1
  O  O58  1  0.279556  0.840584  0.926373  1
  O  O59  1  0.220444  0.159416  0.426373  1
  H  H60  1  0.961545  0.401321  0.188465  1
  H  H61  1  0.538455  0.598679  0.688465  1
  H  H62  1  0.038455  0.598679  0.811535  1
  H  H63  1  0.461545  0.401321  0.311535  1
  H  H64  1  0.896468  0.289811  0.269571  1
  H  H65  1  0.603532  0.710189  0.769571  1
  H  H66  1  0.103532  0.710189  0.730429  1
  H  H67  1  0.396468  0.289811  0.230429  1
  H  H68  1  0.605675  0.193232  0.083396  1
  H  H69  1  0.894325  0.806768  0.583396  1
  H  H70  1  0.394325  0.806768  0.916604  1
  H  H71  1  0.105675  0.193232  0.416604  1
  H  H72  1  0.706530  0.100032  0.012869  1
  H  H73  1  0.793470  0.899968  0.512869  1
  H  H74  1  0.293470  0.899968  0.987131  1
  H  H75  1  0.206530  0.100032  0.487131  1
