# generated using pymatgen
data_Fe(BO2)2
_symmetry_space_group_name_H-M   'P 1'
_cell_length_a   7.23414685
_cell_length_b   7.54748264
_cell_length_c   8.70800850
_cell_angle_alpha   90.00000000
_cell_angle_beta   94.71435922
_cell_angle_gamma   90.00000000
_symmetry_Int_Tables_number   1
_chemical_formula_structural   Fe(BO2)2
_chemical_formula_sum   'Fe8 B16 O32'
_cell_volume   473.84521604
_cell_formula_units_Z   8
loop_
 _symmetry_equiv_pos_site_id
 _symmetry_equiv_pos_as_xyz
  1  'x, y, z'
loop_
 _atom_site_type_symbol
 _atom_site_label
 _atom_site_symmetry_multiplicity
 _atom_site_fract_x
 _atom_site_fract_y
 _atom_site_fract_z
 _atom_site_occupancy
  Fe  Fe0  1  0.474280  0.238837  0.638609  1
  Fe  Fe1  1  0.968299  0.729630  0.392442  1
  Fe  Fe2  1  0.525720  0.738837  0.861391  1
  Fe  Fe3  1  0.474280  0.261163  0.138609  1
  Fe  Fe4  1  0.031701  0.229630  0.107558  1
  Fe  Fe5  1  0.525720  0.761163  0.361391  1
  Fe  Fe6  1  0.968299  0.770370  0.892442  1
  Fe  Fe7  1  0.031701  0.270370  0.607558  1
  B  B8  1  0.701211  0.102487  0.884256  1
  B  B9  1  0.181036  0.572177  0.141596  1
  B  B10  1  0.801126  0.563531  0.140989  1
  B  B11  1  0.679150  0.596280  0.621055  1
  B  B12  1  0.801126  0.936469  0.640989  1
  B  B13  1  0.320850  0.096280  0.878945  1
  B  B14  1  0.818964  0.427823  0.858404  1
  B  B15  1  0.701211  0.397513  0.384256  1
  B  B16  1  0.181036  0.927823  0.641596  1
  B  B17  1  0.298789  0.602487  0.615744  1
  B  B18  1  0.320850  0.403720  0.378945  1
  B  B19  1  0.198874  0.436469  0.859011  1
  B  B20  1  0.198874  0.063531  0.359011  1
  B  B21  1  0.818964  0.072177  0.358404  1
  B  B22  1  0.679150  0.903720  0.121055  1
  B  B23  1  0.298789  0.897513  0.115744  1
  O  O24  1  0.764898  0.556581  0.475195  1
  O  O25  1  0.318871  0.557791  0.276342  1
  O  O26  1  0.002944  0.479843  0.805973  1
  O  O27  1  0.168748  0.749731  0.072114  1
  O  O28  1  0.484712  0.839745  0.075692  1
  O  O29  1  0.235102  0.056581  0.024805  1
  O  O30  1  0.002944  0.020157  0.305973  1
  O  O31  1  0.766034  0.751904  0.703337  1
  O  O32  1  0.318871  0.942209  0.776342  1
  O  O33  1  0.831252  0.249731  0.427886  1
  O  O34  1  0.766034  0.748096  0.203337  1
  O  O35  1  0.236003  0.433431  0.027059  1
  O  O36  1  0.686033  0.435304  0.217196  1
  O  O37  1  0.763997  0.933431  0.472941  1
  O  O38  1  0.233966  0.251904  0.796663  1
  O  O39  1  0.764898  0.943419  0.975195  1
  O  O40  1  0.831252  0.250269  0.927886  1
  O  O41  1  0.997056  0.979843  0.694027  1
  O  O42  1  0.313967  0.935304  0.282804  1
  O  O43  1  0.686033  0.064696  0.717196  1
  O  O44  1  0.235102  0.443419  0.524805  1
  O  O45  1  0.515288  0.160255  0.924308  1
  O  O46  1  0.681129  0.442209  0.723658  1
  O  O47  1  0.168748  0.750269  0.572114  1
  O  O48  1  0.236003  0.066569  0.527059  1
  O  O49  1  0.515288  0.339745  0.424308  1
  O  O50  1  0.313967  0.564696  0.782804  1
  O  O51  1  0.763997  0.566569  0.972941  1
  O  O52  1  0.681129  0.057791  0.223658  1
  O  O53  1  0.233966  0.248096  0.296663  1
  O  O54  1  0.484712  0.660255  0.575692  1
  O  O55  1  0.997056  0.520157  0.194027  1
