# generated using pymatgen
data_Na2Be(SiO3)2
_symmetry_space_group_name_H-M   'P 1'
_cell_length_a   6.94192419
_cell_length_b   11.21512159
_cell_length_c   11.23609406
_cell_angle_alpha   84.51386078
_cell_angle_beta   72.00633796
_cell_angle_gamma   71.97153341
_symmetry_Int_Tables_number   1
_chemical_formula_structural   Na2Be(SiO3)2
_chemical_formula_sum   'Na12 Be6 Si12 O36'
_cell_volume   791.14722390
_cell_formula_units_Z   6
loop_
 _symmetry_equiv_pos_site_id
 _symmetry_equiv_pos_as_xyz
  1  'x, y, z'
loop_
 _atom_site_type_symbol
 _atom_site_label
 _atom_site_symmetry_multiplicity
 _atom_site_fract_x
 _atom_site_fract_y
 _atom_site_fract_z
 _atom_site_occupancy
  Na  Na0  1  0.459287  0.153067  0.438996  1
  Na  Na1  1  0.517527  0.315979  0.670604  1
  Na  Na2  1  0.511332  0.000000  0.977335  1
  Na  Na3  1  0.390424  0.500000  0.219152  1
  Na  Na4  1  0.745890  0.815979  0.170604  1
  Na  Na5  1  0.811869  0.684021  0.670604  1
  Na  Na6  1  0.198650  0.653067  0.938996  1
  Na  Na7  1  0.083506  0.184021  0.170604  1
  Na  Na8  1  0.101717  0.846933  0.438996  1
  Na  Na9  1  0.140424  0.000000  0.719152  1
  Na  Na10  1  0.761332  0.500000  0.477335  1
  Na  Na11  1  0.862354  0.346933  0.938996  1
  Be  Be12  1  0.891472  0.836330  0.848276  1
  Be  Be13  1  0.260253  0.163670  0.848276  1
  Be  Be14  1  0.673923  0.336330  0.348276  1
  Be  Be15  1  0.977801  0.663670  0.348276  1
  Be  Be16  1  0.614885  0.500000  0.770230  1
  Be  Be17  1  0.364885  0.000000  0.270230  1
  Si  Si18  1  0.335574  0.366578  0.976011  1
  Si  Si19  1  0.262421  0.800620  0.149822  1
  Si  Si20  1  0.910137  0.500000  0.179725  1
  Si  Si21  1  0.587756  0.199380  0.149822  1
  Si  Si22  1  0.952152  0.133422  0.476011  1
  Si  Si23  1  0.571837  0.866578  0.476011  1
  Si  Si24  1  0.313041  0.699380  0.649822  1
  Si  Si25  1  0.000406  0.000000  0.999188  1
  Si  Si26  1  0.688415  0.633422  0.976011  1
  Si  Si27  1  0.250406  0.500000  0.499188  1
  Si  Si28  1  0.037136  0.300620  0.649822  1
  Si  Si29  1  0.660137  0.000000  0.679725  1
  O  O30  1  0.738860  0.233300  0.456956  1
  O  O31  1  0.804184  0.766700  0.456956  1
  O  O32  1  0.754016  0.528169  0.085306  1
  O  O33  1  0.882510  0.028169  0.585306  1
  O  O34  1  0.527613  0.609246  0.674712  1
  O  O35  1  0.375599  0.801637  0.536569  1
  O  O36  1  0.386860  0.890754  0.174712  1
  O  O37  1  0.160679  0.471831  0.085306  1
  O  O38  1  0.870587  0.963797  0.918675  1
  O  O39  1  0.438428  0.109246  0.174712  1
  O  O40  1  0.820884  0.733300  0.956956  1
  O  O41  1  0.530068  0.945637  0.353908  1
  O  O42  1  0.797675  0.390754  0.674712  1
  O  O43  1  0.084384  0.536203  0.418675  1
  O  O44  1  0.532185  0.971831  0.585306  1
  O  O45  1  0.725705  0.554363  0.853908  1
  O  O46  1  0.141253  0.778494  0.769255  1
  O  O47  1  0.506736  0.123937  0.760002  1
  O  O48  1  0.427236  0.698363  0.036569  1
  O  O49  1  0.116024  0.054363  0.353908  1
  O  O50  1  0.880673  0.376063  0.260002  1
  O  O51  1  0.733262  0.876063  0.760002  1
  O  O52  1  0.210738  0.036203  0.918675  1
  O  O53  1  0.087831  0.198363  0.536569  1
  O  O54  1  0.496941  0.463797  0.418675  1
  O  O55  1  0.420387  0.445637  0.853908  1
  O  O56  1  0.216762  0.377888  0.592294  1
  O  O57  1  0.536195  0.301637  0.036569  1
  O  O58  1  0.859325  0.623937  0.260002  1
  O  O59  1  0.560998  0.278494  0.269255  1
  O  O60  1  0.222160  0.266700  0.956956  1
  O  O61  1  0.190944  0.622112  0.592294  1
  O  O62  1  0.844650  0.122112  0.092294  1
  O  O63  1  0.169747  0.721506  0.269255  1
  O  O64  1  0.089492  0.221506  0.769255  1
  O  O65  1  0.063056  0.877888  0.092294  1
