# generated using pymatgen
data_SiO2
_symmetry_space_group_name_H-M   'P 1'
_cell_length_a   13.57929062
_cell_length_b   15.89122847
_cell_length_c   15.89122932
_cell_angle_alpha   79.10652954
_cell_angle_beta   64.70636571
_cell_angle_gamma   64.70636430
_symmetry_Int_Tables_number   1
_chemical_formula_structural   SiO2
_chemical_formula_sum   'Si48 O96'
_cell_volume   2803.11149470
_cell_formula_units_Z   48
loop_
 _symmetry_equiv_pos_site_id
 _symmetry_equiv_pos_as_xyz
  1  'x, y, z'
loop_
 _atom_site_type_symbol
 _atom_site_label
 _atom_site_symmetry_multiplicity
 _atom_site_fract_x
 _atom_site_fract_y
 _atom_site_fract_z
 _atom_site_occupancy
  Si  Si0  1  0.261949  0.069562  0.688372  1
  Si  Si1  1  0.287892  0.697773  0.454368  1
  Si  Si2  1  0.432697  0.701158  0.147141  1
  Si  Si3  1  0.411857  0.919481  0.525752  1
  Si  Si4  1  0.271016  0.456760  0.303244  1
  Si  Si5  1  0.927651  0.386218  0.763856  1
  Si  Si6  1  0.673779  0.062599  0.309299  1
  Si  Si7  1  0.019883  0.311628  0.930438  1
  Si  Si8  1  0.668098  0.469530  0.907148  1
  Si  Si9  1  0.287892  0.454368  0.697773  1
  Si  Si10  1  0.019883  0.930438  0.311628  1
  Si  Si11  1  0.045678  0.937401  0.690701  1
  Si  Si12  1  0.422270  0.304845  0.146933  1
  Si  Si13  1  0.077725  0.236144  0.613782  1
  Si  Si14  1  0.440032  0.545632  0.302227  1
  Si  Si15  1  0.874048  0.695155  0.853067  1
  Si  Si16  1  0.280996  0.298842  0.852859  1
  Si  Si17  1  0.857091  0.080519  0.474248  1
  Si  Si18  1  0.299906  0.770648  0.619646  1
  Si  Si19  1  0.079079  0.001433  0.845034  1
  Si  Si20  1  0.432697  0.147141  0.701158  1
  Si  Si21  1  0.440032  0.302227  0.545632  1
  Si  Si22  1  0.679459  0.990639  0.626951  1
  Si  Si23  1  0.925546  0.154966  0.998567  1
  Si  Si24  1  0.077725  0.613782  0.236144  1
  Si  Si25  1  0.044776  0.092852  0.530470  1
  Si  Si26  1  0.031020  0.543240  0.696756  1
  Si  Si27  1  0.874048  0.853067  0.695155  1
  Si  Si28  1  0.925546  0.998567  0.154966  1
  Si  Si29  1  0.857091  0.474248  0.080519  1
  Si  Si30  1  0.031020  0.696756  0.543240  1
  Si  Si31  1  0.422270  0.146933  0.304845  1
  Si  Si32  1  0.679459  0.626951  0.990639  1
  Si  Si33  1  0.261949  0.688372  0.069562  1
  Si  Si34  1  0.690200  0.229352  0.380354  1
  Si  Si35  1  0.299906  0.619646  0.770648  1
  Si  Si36  1  0.668098  0.907148  0.469530  1
  Si  Si37  1  0.411857  0.525752  0.919481  1
  Si  Si38  1  0.297049  0.009361  0.373049  1
  Si  Si39  1  0.045678  0.690701  0.937401  1
  Si  Si40  1  0.927651  0.763856  0.386218  1
  Si  Si41  1  0.044776  0.530470  0.092852  1
  Si  Si42  1  0.673779  0.309299  0.062599  1
  Si  Si43  1  0.297049  0.373049  0.009361  1
  Si  Si44  1  0.280996  0.852859  0.298842  1
  Si  Si45  1  0.079079  0.845034  0.001433  1
  Si  Si46  1  0.690200  0.380354  0.229352  1
  Si  Si47  1  0.271016  0.303244  0.456760  1
  O  O48  1  0.203745  0.773462  0.008609  1
  O  O49  1  0.963238  0.309659  0.690341  1
  O  O50  1  0.981514  0.842339  0.334896  1
  O  O51  1  0.929317  0.706397  0.920831  1
  O  O52  1  0.230472  0.386923  0.386923  1
  O  O53  1  0.320664  0.710429  0.536859  1
  O  O54  1  0.556032  0.063289  0.697318  1
  O  O55  1  0.981514  0.334896  0.842339  1
  O  O56  1  0.340880  0.329034  0.502718  1
  O  O57  1  0.985815  0.991391  0.226538  1
  O  O58  1  0.320664  0.536859  0.710429  1
  O  O59  1  0.953612  0.994563  0.403427  1
  O  O60  1  0.352755  0.083531  0.310216  1
  O  O61  1  0.567951  0.289571  0.463141  1
  O  O62  1  0.203745  0.008609  0.773462  1
  O  O63  1  0.382649  0.830259  0.580058  1
  O  O64  1  0.337184  0.698695  0.698695  1
  O  O65  1  0.351603  0.596573  0.005437  1
  O  O66  1  0.158749  0.665104  0.157661  1
  O  O67  1  0.029522  0.188607  0.566154  1
  O  O68  1  0.358211  0.205734  0.400538  1
  O  O69  1  0.758863  0.047112  0.556610  1
  O  O70  1  0.964483  0.794266  0.599462  1
  O  O71  1  0.316639  0.302682  0.936711  1
  O  O72  1  0.258531  0.397500  0.796031  1
  O  O73  1  0.399319  0.385830  0.614170  1
  O  O74  1  0.650664  0.569430  0.935708  1
  O  O75  1  0.071810  0.009024  0.604458  1
  O  O76  1  0.985815  0.226538  0.991391  1
  O  O77  1  0.685291  0.395542  0.990976  1
  O  O78  1  0.452061  0.602500  0.203969  1
  O  O79  1  0.155802  0.064292  0.430570  1
  O  O80  1  0.109116  0.915845  0.915845  1
  O  O81  1  0.172632  0.670966  0.497282  1
  O  O82  1  0.017817  0.786470  0.981844  1
  O  O83  1  0.352755  0.310216  0.083531  1
  O  O84  1  0.316639  0.936711  0.302682  1
  O  O85  1  0.389739  0.214964  0.785036  1
  O  O86  1  0.422549  0.215926  0.215926  1
  O  O87  1  0.666785  0.160766  0.333041  1
  O  O88  1  0.452061  0.203969  0.602500  1
  O  O89  1  0.160592  0.839234  0.666959  1
  O  O90  1  0.940805  0.084155  0.084155  1
  O  O91  1  0.362584  0.443390  0.952888  1
  O  O92  1  0.784283  0.811393  0.433846  1
  O  O93  1  0.758863  0.556610  0.047112  1
  O  O94  1  0.554291  0.480521  0.889176  1
  O  O95  1  0.362584  0.952888  0.443390  1
  O  O96  1  0.333712  0.721701  0.106301  1
  O  O97  1  0.153356  0.536471  0.291933  1
  O  O98  1  0.734574  0.301305  0.301305  1
  O  O99  1  0.071810  0.604458  0.009024  1
  O  O100  1  0.786131  0.018156  0.213530  1
  O  O101  1  0.854402  0.784074  0.784074  1
  O  O102  1  0.963238  0.690341  0.309659  1
  O  O103  1  0.158749  0.157661  0.665104  1
  O  O104  1  0.399319  0.614170  0.385830  1
  O  O105  1  0.784283  0.433846  0.811393  1
  O  O106  1  0.556545  0.079169  0.293603  1
  O  O107  1  0.792967  0.419942  0.169741  1
  O  O108  1  0.556545  0.293603  0.079169  1
  O  O109  1  0.929317  0.920831  0.706397  1
  O  O110  1  1.004318  0.613077  0.613077  1
  O  O111  1  0.666785  0.333041  0.160766  1
  O  O112  1  0.161714  0.278299  0.893699  1
  O  O113  1  0.786131  0.213530  0.018156  1
  O  O114  1  0.981760  0.463529  0.708067  1
  O  O115  1  0.382649  0.580058  0.830259  1
  O  O116  1  0.554291  0.889176  0.480521  1
  O  O117  1  0.153356  0.291933  0.536471  1
  O  O118  1  0.351603  0.005437  0.596573  1
  O  O119  1  0.160592  0.666959  0.839234  1
  O  O120  1  0.029522  0.566154  0.188607  1
  O  O121  1  0.988477  0.097905  0.902095  1
  O  O122  1  0.340880  0.502718  0.329034  1
  O  O123  1  0.155802  0.430570  0.064292  1
  O  O124  1  0.746502  0.689784  0.916469  1
  O  O125  1  0.017817  0.981844  0.786470  1
  O  O126  1  0.172632  0.497282  0.670966  1
  O  O127  1  0.258531  0.796031  0.397500  1
  O  O128  1  0.923987  0.110824  0.519479  1
  O  O129  1  0.964483  0.599462  0.794266  1
  O  O130  1  0.792967  0.169741  0.419942  1
  O  O131  1  0.389739  0.785036  0.214964  1
  O  O132  1  0.746502  0.916469  0.689784  1
  O  O133  1  0.567951  0.463141  0.289571  1
  O  O134  1  0.988477  0.902095  0.097905  1
  O  O135  1  0.981760  0.708067  0.463529  1
  O  O136  1  0.333712  0.106301  0.721701  1
  O  O137  1  0.161714  0.893699  0.278299  1
  O  O138  1  0.685291  0.990976  0.395542  1
  O  O139  1  0.358211  0.400538  0.205734  1
  O  O140  1  0.556032  0.697318  0.063289  1
  O  O141  1  0.650664  0.935708  0.569430  1
  O  O142  1  0.953612  0.403427  0.994563  1
  O  O143  1  0.923987  0.519479  0.110824  1
