# generated using pymatgen
data_Cs2Zn3S4
_symmetry_space_group_name_H-M   'P 1'
_cell_length_a   5.92120679
_cell_length_b   9.58083746
_cell_length_c   9.58083809
_cell_angle_alpha   73.87349323
_cell_angle_beta   72.00028062
_cell_angle_gamma   72.00028558
_symmetry_Int_Tables_number   1
_chemical_formula_structural   Cs2Zn3S4
_chemical_formula_sum   'Cs4 Zn6 S8'
_cell_volume   481.53675169
_cell_formula_units_Z   2
loop_
 _symmetry_equiv_pos_site_id
 _symmetry_equiv_pos_as_xyz
  1  'x, y, z'
loop_
 _atom_site_type_symbol
 _atom_site_label
 _atom_site_symmetry_multiplicity
 _atom_site_fract_x
 _atom_site_fract_y
 _atom_site_fract_z
 _atom_site_occupancy
  Cs  Cs0  1  0.765718  0.879094  0.120906  1
  Cs  Cs1  1  0.265718  0.620906  0.379094  1
  Cs  Cs2  1  0.734282  0.379094  0.620906  1
  Cs  Cs3  1  0.234282  0.120906  0.879094  1
  Zn  Zn4  1  0.250000  0.250001  0.249999  1
  Zn  Zn5  1  0.750000  0.749999  0.750001  1
  Zn  Zn6  1  0.750000  0.024499  0.475501  1
  Zn  Zn7  1  0.750000  0.475502  0.024498  1
  Zn  Zn8  1  0.250000  0.975501  0.524499  1
  Zn  Zn9  1  0.250000  0.524498  0.975502  1
  S  S10  1  0.623474  0.792334  0.523670  1
  S  S11  1  0.439489  0.707663  0.976327  1
  S  S12  1  0.876526  0.976330  0.707666  1
  S  S13  1  0.060511  0.523673  0.792337  1
  S  S14  1  0.376526  0.207666  0.476330  1
  S  S15  1  0.560511  0.292337  0.023673  1
  S  S16  1  0.123474  0.023670  0.292334  1
  S  S17  1  0.939489  0.476327  0.207663  1
