# generated using pymatgen
data_NaV2O5
_symmetry_space_group_name_H-M   'P 1'
_cell_length_a   3.64602249
_cell_length_b   5.09999589
_cell_length_c   11.48526259
_cell_angle_alpha   90.00000000
_cell_angle_beta   90.00000000
_cell_angle_gamma   90.00000000
_symmetry_Int_Tables_number   1
_chemical_formula_structural   NaV2O5
_chemical_formula_sum   'Na2 V4 O10'
_cell_volume   213.56500900
_cell_formula_units_Z   2
loop_
 _symmetry_equiv_pos_site_id
 _symmetry_equiv_pos_as_xyz
  1  'x, y, z'
loop_
 _atom_site_type_symbol
 _atom_site_label
 _atom_site_symmetry_multiplicity
 _atom_site_fract_x
 _atom_site_fract_y
 _atom_site_fract_z
 _atom_site_occupancy
  O  O0  1  0.499999  0.574205  0.380293  1
  O  O1  1  0.000000  0.425793  0.880292  1
  O  O2  1  0.499999  0.988103  0.186996  1
  O  O3  1  0.000000  0.011897  0.686995  1
  O  O4  1  0.499999  0.038409  0.515742  1
  O  O5  1  0.000000  0.961591  0.015742  1
  O  O6  1  0.000000  0.413248  0.139803  1
  O  O7  1  0.499999  0.586752  0.639803  1
  O  O8  1  0.000000  0.024403  0.329570  1
  O  O9  1  0.499999  0.975597  0.829570  1
  Na  Na10  1  0.000000  0.372709  0.503095  1
  Na  Na11  1  0.499999  0.627292  0.003096  1
  V  V12  1  0.000000  0.094521  0.158898  1
  V  V13  1  0.499999  0.905479  0.658899  1
  V  V14  1  0.000000  0.105006  0.857562  1
  V  V15  1  0.499999  0.894992  0.357562  1
