# generated using pymatgen
data_K(MoO2)4
_symmetry_space_group_name_H-M   'P 1'
_cell_length_a   6.48976672
_cell_length_b   10.54602390
_cell_length_c   10.66901517
_cell_angle_alpha   88.37313789
_cell_angle_beta   90.00000000
_cell_angle_gamma   90.00000000
_symmetry_Int_Tables_number   1
_chemical_formula_structural   K(MoO2)4
_chemical_formula_sum   'K4 Mo16 O32'
_cell_volume   729.90624015
_cell_formula_units_Z   4
loop_
 _symmetry_equiv_pos_site_id
 _symmetry_equiv_pos_as_xyz
  1  'x, y, z'
loop_
 _atom_site_type_symbol
 _atom_site_label
 _atom_site_symmetry_multiplicity
 _atom_site_fract_x
 _atom_site_fract_y
 _atom_site_fract_z
 _atom_site_occupancy
  O  O0  1  0.125965  0.787854  0.412417  1
  O  O1  1  0.125965  0.712147  0.087583  1
  O  O2  1  0.874036  0.212147  0.587584  1
  O  O3  1  0.874036  0.287854  0.912417  1
  O  O4  1  0.392977  0.209708  0.587834  1
  O  O5  1  0.392977  0.290291  0.912166  1
  O  O6  1  0.607024  0.790291  0.412166  1
  O  O7  1  0.607024  0.709708  0.087834  1
  O  O8  1  0.129664  0.050179  0.398730  1
  O  O9  1  0.129664  0.449821  0.101270  1
  O  O10  1  0.870335  0.949821  0.601271  1
  O  O11  1  0.870335  0.550178  0.898730  1
  O  O12  1  0.380732  0.945270  0.592840  1
  O  O13  1  0.380732  0.554730  0.907160  1
  O  O14  1  0.619269  0.054730  0.407160  1
  O  O15  1  0.619269  0.445270  0.092840  1
  O  O16  1  0.135126  0.090008  0.795661  1
  O  O17  1  0.135126  0.409993  0.704339  1
  O  O18  1  0.864873  0.909993  0.204339  1
  O  O19  1  0.864873  0.590008  0.295661  1
  O  O20  1  0.622884  0.093494  0.043140  1
  O  O21  1  0.622884  0.406506  0.456860  1
  O  O22  1  0.377115  0.906506  0.956861  1
  O  O23  1  0.377115  0.593494  0.543140  1
  O  O24  1  0.121796  0.093806  0.045519  1
  O  O25  1  0.121796  0.406193  0.454481  1
  O  O26  1  0.367450  0.584510  0.288268  1
  O  O27  1  0.878203  0.593807  0.545519  1
  O  O28  1  0.632551  0.084510  0.788268  1
  O  O29  1  0.632551  0.415490  0.711732  1
  O  O30  1  0.367450  0.915490  0.211732  1
  O  O31  1  0.878203  0.906193  0.954481  1
  K  K32  1  0.867019  0.250000  0.250000  1
  K  K33  1  0.132982  0.750000  0.750000  1
  K  K34  1  0.364442  0.250000  0.250000  1
  K  K35  1  0.635559  0.750000  0.750000  1
  Mo  Mo36  1  0.871367  0.916603  0.402325  1
  Mo  Mo37  1  0.370474  0.580977  0.098433  1
  Mo  Mo38  1  0.629525  0.080977  0.598433  1
  Mo  Mo39  1  0.629525  0.419024  0.901568  1
  Mo  Mo40  1  0.128633  0.083397  0.597675  1
  Mo  Mo41  1  0.128633  0.416603  0.902325  1
  Mo  Mo42  1  0.370474  0.919024  0.401567  1
  Mo  Mo43  1  0.871367  0.583397  0.097675  1
  Mo  Mo44  1  0.626535  0.599721  0.412622  1
  Mo  Mo45  1  0.626535  0.900279  0.087379  1
  Mo  Mo46  1  0.373466  0.400279  0.587379  1
  Mo  Mo47  1  0.373466  0.099721  0.912621  1
  Mo  Mo48  1  0.124690  0.600652  0.412930  1
  Mo  Mo49  1  0.124690  0.899348  0.087070  1
  Mo  Mo50  1  0.875311  0.399348  0.587071  1
  Mo  Mo51  1  0.875311  0.100652  0.912930  1
