# generated using pymatgen
data_NaLiB4O7
_symmetry_space_group_name_H-M   'P 1'
_cell_length_a   8.51312852
_cell_length_b   8.51312801
_cell_length_c   8.85085343
_cell_angle_alpha   111.26450772
_cell_angle_beta   111.26450613
_cell_angle_gamma   104.23364325
_symmetry_Int_Tables_number   1
_chemical_formula_structural   NaLiB4O7
_chemical_formula_sum   'Na4 Li4 B16 O28'
_cell_volume   501.72720575
_cell_formula_units_Z   4
loop_
 _symmetry_equiv_pos_site_id
 _symmetry_equiv_pos_as_xyz
  1  'x, y, z'
loop_
 _atom_site_type_symbol
 _atom_site_label
 _atom_site_symmetry_multiplicity
 _atom_site_fract_x
 _atom_site_fract_y
 _atom_site_fract_z
 _atom_site_occupancy
  Na  Na0  1  0.965251  0.262796  0.979502  1
  Na  Na1  1  0.283294  0.985749  0.020498  1
  Na  Na2  1  0.235749  0.033294  0.520498  1
  Na  Na3  1  0.512796  0.715251  0.479502  1
  Li  Li4  1  0.490953  0.495849  0.729484  1
  Li  Li5  1  0.745849  0.240953  0.229484  1
  Li  Li6  1  0.011470  0.516365  0.770516  1
  Li  Li7  1  0.766365  0.761470  0.270516  1
  B  B8  1  0.941677  0.770504  0.054851  1
  B  B9  1  0.136826  0.465653  0.445149  1
  B  B10  1  0.020504  0.691677  0.554851  1
  B  B11  1  0.639993  0.210928  0.653031  1
  B  B12  1  0.557897  0.986962  0.346969  1
  B  B13  1  0.715653  0.886826  0.945149  1
  B  B14  1  0.361489  0.769634  0.739954  1
  B  B15  1  0.545151  0.296300  0.409710  1
  B  B16  1  0.886590  0.135442  0.590290  1
  B  B17  1  0.029681  0.621536  0.260046  1
  B  B18  1  0.871536  0.779681  0.760046  1
  B  B19  1  0.546300  0.295151  0.909710  1
  B  B20  1  0.019634  0.111489  0.239954  1
  B  B21  1  0.385442  0.636590  0.090290  1
  B  B22  1  0.236962  0.307897  0.846969  1
  B  B23  1  0.460928  0.389993  0.153031  1
  O  O24  1  0.752852  0.858908  0.784857  1
  O  O25  1  0.589821  0.328457  0.088615  1
  O  O26  1  0.838520  0.260586  0.694337  1
  O  O27  1  0.108908  0.502852  0.284857  1
  O  O28  1  0.332935  0.600471  0.606009  1
  O  O29  1  0.068131  0.161684  0.668783  1
  O  O30  1  0.850471  0.082935  0.106009  1
  O  O31  1  0.510586  0.588520  0.194337  1
  O  O32  1  0.884462  0.736485  0.602379  1
  O  O33  1  0.751205  0.989842  0.411385  1
  O  O34  1  0.746569  0.746569  0.000000  1
  O  O35  1  0.994462  0.726926  0.393991  1
  O  O36  1  0.996569  0.496569  0.500000  1
  O  O37  1  0.578457  0.339821  0.588615  1
  O  O38  1  0.074051  0.967995  0.215143  1
  O  O39  1  0.239842  0.501205  0.911385  1
  O  O40  1  0.266805  0.266805  0.000000  1
  O  O41  1  0.411684  0.818131  0.168783  1
  O  O42  1  0.492901  0.399349  0.331217  1
  O  O43  1  0.134105  0.282082  0.397621  1
  O  O44  1  0.532082  0.884105  0.897621  1
  O  O45  1  0.516805  0.016805  0.500000  1
  O  O46  1  0.976926  0.744462  0.893991  1
  O  O47  1  0.986485  0.634462  0.102379  1
  O  O48  1  0.217995  0.824051  0.715143  1
  O  O49  1  0.394183  0.316249  0.805663  1
  O  O50  1  0.649349  0.242901  0.831217  1
  O  O51  1  0.566249  0.144183  0.305663  1
