# generated using pymatgen
data_Mg7As6(HO6)4
_symmetry_space_group_name_H-M   'P 1'
_cell_length_a   6.82823081
_cell_length_b   8.44183044
_cell_length_c   9.96157027
_cell_angle_alpha   101.25885084
_cell_angle_beta   112.74657862
_cell_angle_gamma   97.37942510
_symmetry_Int_Tables_number   1
_chemical_formula_structural   Mg7As6(HO6)4
_chemical_formula_sum   'Mg7 As6 H4 O24'
_cell_volume   505.98806519
_cell_formula_units_Z   1
loop_
 _symmetry_equiv_pos_site_id
 _symmetry_equiv_pos_as_xyz
  1  'x, y, z'
loop_
 _atom_site_type_symbol
 _atom_site_label
 _atom_site_symmetry_multiplicity
 _atom_site_fract_x
 _atom_site_fract_y
 _atom_site_fract_z
 _atom_site_occupancy
  Mg  Mg0  1  0.000000  0.000000  0.000000  1
  Mg  Mg1  1  0.393019  0.455811  0.111662  1
  Mg  Mg2  1  0.606981  0.544189  0.888338  1
  Mg  Mg3  1  0.716063  0.206454  0.720075  1
  Mg  Mg4  1  0.283937  0.793546  0.279925  1
  Mg  Mg5  1  0.868410  0.313794  0.482512  1
  Mg  Mg6  1  0.131590  0.686206  0.517488  1
  As  As7  1  0.247365  0.199041  0.789073  1
  As  As8  1  0.752635  0.800959  0.210927  1
  As  As9  1  0.060071  0.579050  0.819608  1
  As  As10  1  0.939929  0.420950  0.180392  1
  As  As11  1  0.348593  0.204562  0.356987  1
  As  As12  1  0.651407  0.795438  0.643013  1
  O  O13  1  0.000929  0.217038  0.667543  1
  O  O14  1  0.999071  0.782962  0.332457  1
  O  O15  1  0.246052  0.203979  0.962126  1
  O  O16  1  0.753948  0.796021  0.037874  1
  O  O17  1  0.529204  0.703935  0.226366  1
  O  O18  1  0.470796  0.296065  0.773634  1
  O  O19  1  0.709610  0.003232  0.278299  1
  O  O20  1  0.290390  0.996768  0.721701  1
  O  O21  1  0.301906  0.524405  0.910859  1
  O  O22  1  0.698094  0.475595  0.089141  1
  O  O23  1  0.003129  0.544795  0.630455  1
  O  O24  1  0.996871  0.455205  0.369545  1
  O  O25  1  0.083452  0.787816  0.891260  1
  O  O26  1  0.916548  0.212184  0.108740  1
  O  O27  1  0.153082  0.537737  0.166641  1
  O  O28  1  0.846919  0.462263  0.833359  1
  O  O29  1  0.597298  0.198617  0.500672  1
  O  O30  1  0.402702  0.801383  0.499328  1
  O  O31  1  0.508908  0.306934  0.259612  1
  O  O32  1  0.491092  0.693066  0.740388  1
  O  O33  1  0.915603  0.126239  0.337292  1
  O  O34  1  0.084397  0.873761  0.662708  1
  O  O35  1  0.750776  0.992467  0.783464  1
  O  O36  1  0.249224  0.007533  0.216536  1
  H  H37  1  0.910119  0.157296  0.238827  1
  H  H38  1  0.089881  0.842704  0.761173  1
  H  H39  1  0.508453  0.789459  0.821529  1
  H  H40  1  0.491547  0.210541  0.178471  1
