# generated using pymatgen
data_Ag2H12C6N3Cl
_symmetry_space_group_name_H-M   'P 1'
_cell_length_a   9.05157739
_cell_length_b   9.04354089
_cell_length_c   13.67222455
_cell_angle_alpha   90.00000000
_cell_angle_beta   90.00000000
_cell_angle_gamma   90.00000000
_symmetry_Int_Tables_number   1
_chemical_formula_structural   Ag2H12C6N3Cl
_chemical_formula_sum   'Ag8 H48 C24 N12 Cl4'
_cell_volume   1119.18519896
_cell_formula_units_Z   4
loop_
 _symmetry_equiv_pos_site_id
 _symmetry_equiv_pos_as_xyz
  1  'x, y, z'
loop_
 _atom_site_type_symbol
 _atom_site_label
 _atom_site_symmetry_multiplicity
 _atom_site_fract_x
 _atom_site_fract_y
 _atom_site_fract_z
 _atom_site_occupancy
  Ag  Ag0  1  0.861206  0.053378  0.639520  1
  Ag  Ag1  1  0.411288  0.428120  0.244888  1
  Ag  Ag2  1  0.911288  0.071880  0.244888  1
  Ag  Ag3  1  0.088712  0.928120  0.744888  1
  Ag  Ag4  1  0.138794  0.946622  0.139520  1
  Ag  Ag5  1  0.361206  0.446622  0.639520  1
  Ag  Ag6  1  0.638794  0.553378  0.139520  1
  Ag  Ag7  1  0.588712  0.571880  0.744888  1
  H  H8  1  0.239636  0.987812  0.390598  1
  H  H9  1  0.468756  0.929096  0.607465  1
  H  H10  1  0.760364  0.012188  0.890598  1
  H  H11  1  0.897141  0.636841  0.958650  1
  H  H12  1  0.138097  0.596761  0.540195  1
  H  H13  1  0.495036  0.764116  0.536212  1
  H  H14  1  0.260364  0.487812  0.890598  1
  H  H15  1  0.434016  0.164885  0.526048  1
  H  H16  1  0.769794  0.687442  0.449842  1
  H  H17  1  0.361903  0.096761  0.040195  1
  H  H18  1  0.532767  0.049103  0.799514  1
  H  H19  1  0.137367  0.583152  0.363697  1
  H  H20  1  0.397141  0.863159  0.958650  1
  H  H21  1  0.495002  0.776782  0.359800  1
  H  H22  1  0.241299  0.977424  0.521377  1
  H  H23  1  0.032767  0.450897  0.799514  1
  H  H24  1  0.995035  0.735884  0.536212  1
  H  H25  1  0.504965  0.235884  0.036212  1
  H  H26  1  0.031244  0.429096  0.107465  1
  H  H27  1  0.067370  0.674192  0.895214  1
  H  H28  1  0.638097  0.903239  0.540195  1
  H  H29  1  0.467233  0.950897  0.299514  1
  H  H30  1  0.932630  0.325808  0.395214  1
  H  H31  1  0.362633  0.083152  0.863697  1
  H  H32  1  0.861903  0.403239  0.040195  1
  H  H33  1  0.504998  0.223218  0.859800  1
  H  H34  1  0.004965  0.264116  0.036212  1
  H  H35  1  0.934016  0.335115  0.526048  1
  H  H36  1  0.758701  0.022576  0.021377  1
  H  H37  1  0.862633  0.416848  0.863697  1
  H  H38  1  0.065984  0.664885  0.026048  1
  H  H39  1  0.102859  0.363159  0.458650  1
  H  H40  1  0.567370  0.825808  0.895214  1
  H  H41  1  0.531244  0.070904  0.107465  1
  H  H42  1  0.230206  0.312558  0.949842  1
  H  H43  1  0.637367  0.916848  0.363697  1
  H  H44  1  0.004998  0.276782  0.859800  1
  H  H45  1  0.602859  0.136841  0.458650  1
  H  H46  1  0.565984  0.835115  0.026048  1
  H  H47  1  0.432630  0.174192  0.395214  1
  H  H48  1  0.995002  0.723218  0.359800  1
  H  H49  1  0.739636  0.512188  0.390598  1
  H  H50  1  0.741299  0.522576  0.521377  1
  H  H51  1  0.968756  0.570904  0.607465  1
  H  H52  1  0.967233  0.549103  0.299514  1
  H  H53  1  0.269794  0.812558  0.449842  1
  H  H54  1  0.730206  0.187442  0.949842  1
  H  H55  1  0.258701  0.477424  0.021377  1
  C  C56  1  0.711821  0.067926  0.953936  1
  C  C57  1  0.981304  0.382801  0.041259  1
  C  C58  1  0.981790  0.395646  0.862266  1
  C  C59  1  0.482861  0.120861  0.458881  1
  C  C60  1  0.639716  0.342231  0.232785  1
  C  C61  1  0.018210  0.604354  0.362266  1
  C  C62  1  0.211821  0.432074  0.953936  1
  C  C63  1  0.018696  0.617199  0.541259  1
  C  C64  1  0.812299  0.870435  0.195143  1
  C  C65  1  0.288179  0.932074  0.453936  1
  C  C66  1  0.518696  0.882801  0.541259  1
  C  C67  1  0.860284  0.842231  0.732785  1
  C  C68  1  0.517139  0.879139  0.958881  1
  C  C69  1  0.312299  0.629565  0.195143  1
  C  C70  1  0.481790  0.104354  0.862266  1
  C  C71  1  0.687701  0.370435  0.695143  1
  C  C72  1  0.017139  0.620861  0.958881  1
  C  C73  1  0.187701  0.129565  0.695143  1
  C  C74  1  0.788179  0.567926  0.453936  1
  C  C75  1  0.481304  0.117199  0.041259  1
  C  C76  1  0.982861  0.379139  0.458881  1
  C  C77  1  0.360284  0.657769  0.732785  1
  C  C78  1  0.139716  0.157769  0.232785  1
  C  C79  1  0.518210  0.895646  0.362266  1
  N  N80  1  0.240346  0.238166  0.246265  1
  N  N81  1  0.741831  0.258039  0.671185  1
  N  N82  1  0.759654  0.761834  0.746265  1
  N  N83  1  0.048129  0.457992  0.954050  1
  N  N84  1  0.259654  0.738166  0.746265  1
  N  N85  1  0.758169  0.758039  0.171185  1
  N  N86  1  0.548129  0.042008  0.954050  1
  N  N87  1  0.951871  0.542008  0.454050  1
  N  N88  1  0.740346  0.261834  0.246265  1
  N  N89  1  0.258169  0.741961  0.171185  1
  N  N90  1  0.451871  0.957992  0.454050  1
  N  N91  1  0.241831  0.241961  0.671185  1
  Cl  Cl92  1  0.398531  0.503849  0.456438  1
  Cl  Cl93  1  0.101469  0.003849  0.956438  1
  Cl  Cl94  1  0.898531  0.996151  0.456438  1
  Cl  Cl95  1  0.601469  0.496151  0.956438  1
