# generated using pymatgen
data_Nd2MgNi2
_symmetry_space_group_name_H-M   'P 1'
_cell_length_a   3.86877034
_cell_length_b   7.50670941
_cell_length_c   7.50670941
_cell_angle_alpha   90.00000000
_cell_angle_beta   90.00000000
_cell_angle_gamma   90.00000000
_symmetry_Int_Tables_number   1
_chemical_formula_structural   Nd2MgNi2
_chemical_formula_sum   'Nd4 Mg2 Ni4'
_cell_volume   218.00786328
_cell_formula_units_Z   2
loop_
 _symmetry_equiv_pos_site_id
 _symmetry_equiv_pos_as_xyz
  1  'x, y, z'
loop_
 _atom_site_type_symbol
 _atom_site_label
 _atom_site_symmetry_multiplicity
 _atom_site_fract_x
 _atom_site_fract_y
 _atom_site_fract_z
 _atom_site_occupancy
  Mg  Mg0  1  0.000000  0.500000  0.500000  1
  Mg  Mg1  1  0.000000  0.000000  0.000000  1
  Ni  Ni2  1  0.000000  0.619272  0.119272  1
  Ni  Ni3  1  0.000000  0.880728  0.619272  1
  Ni  Ni4  1  0.000000  0.380728  0.880728  1
  Ni  Ni5  1  0.000000  0.119272  0.380728  1
  Nd  Nd6  1  0.500000  0.825603  0.325603  1
  Nd  Nd7  1  0.500000  0.674397  0.825603  1
  Nd  Nd8  1  0.500000  0.325603  0.174397  1
  Nd  Nd9  1  0.500000  0.174397  0.674397  1
