# generated using pymatgen
data_ZnS
_symmetry_space_group_name_H-M   'P 1'
_cell_length_a   3.85225839
_cell_length_b   3.85225829
_cell_length_c   113.30076348
_cell_angle_alpha   90.00000000
_cell_angle_beta   90.00000000
_cell_angle_gamma   120.00000094
_symmetry_Int_Tables_number   1
_chemical_formula_structural   ZnS
_chemical_formula_sum   'Zn36 S36'
_cell_volume   1456.11029410
_cell_formula_units_Z   36
loop_
 _symmetry_equiv_pos_site_id
 _symmetry_equiv_pos_as_xyz
  1  'x, y, z'
loop_
 _atom_site_type_symbol
 _atom_site_label
 _atom_site_symmetry_multiplicity
 _atom_site_fract_x
 _atom_site_fract_y
 _atom_site_fract_z
 _atom_site_occupancy
  Zn  Zn0  1  0.000000  0.000000  0.166667  1
  Zn  Zn1  1  0.333333  0.666667  0.916667  1
  Zn  Zn2  1  0.666667  0.333333  0.333333  1
  Zn  Zn3  1  0.333333  0.666667  0.361111  1
  Zn  Zn4  1  0.666667  0.333333  0.138887  1
  Zn  Zn5  1  0.666667  0.333333  0.972219  1
  Zn  Zn6  1  0.333333  0.666667  0.555554  1
  Zn  Zn7  1  0.000000  0.000000  0.388884  1
  Zn  Zn8  1  0.000000  0.000000  0.944439  1
  Zn  Zn9  1  0.000000  0.000000  0.444451  1
  Zn  Zn10  1  0.333333  0.666667  0.277777  1
  Zn  Zn11  1  0.000000  0.000000  0.666663  1
  Zn  Zn12  1  0.333333  0.666667  0.027778  1
  Zn  Zn13  1  0.000000  0.000000  0.527774  1
  Zn  Zn14  1  0.666667  0.333333  0.888886  1
  Zn  Zn15  1  0.666667  0.333333  0.611110  1
  Zn  Zn16  1  0.333333  0.666667  0.638887  1
  Zn  Zn17  1  0.000000  0.000000  0.583340  1
  Zn  Zn18  1  0.333333  0.666667  0.194444  1
  Zn  Zn19  1  0.333333  0.666667  0.472221  1
  Zn  Zn20  1  0.666667  0.333333  0.222222  1
  Zn  Zn21  1  0.666667  0.333333  0.055556  1
  Zn  Zn22  1  0.000000  0.000000  0.305565  1
  Zn  Zn23  1  0.000000  0.000000  0.000006  1
  Zn  Zn24  1  0.333333  0.666667  0.111110  1
  Zn  Zn25  1  0.000000  0.000000  0.805553  1
  Zn  Zn26  1  0.000000  0.000000  0.722229  1
  Zn  Zn27  1  0.000000  0.000000  0.083332  1
  Zn  Zn28  1  0.666667  0.333333  0.777779  1
  Zn  Zn29  1  0.666667  0.333333  0.694441  1
  Zn  Zn30  1  0.666667  0.333333  0.416665  1
  Zn  Zn31  1  0.333333  0.666667  0.833331  1
  Zn  Zn32  1  0.000000  0.000000  0.249995  1
  Zn  Zn33  1  0.666667  0.333333  0.499999  1
  Zn  Zn34  1  0.333333  0.666667  0.749999  1
  Zn  Zn35  1  0.000000  0.000000  0.861117  1
  S  S36  1  0.000000  0.000000  0.465277  1
  S  S37  1  0.333333  0.666667  0.381944  1
  S  S38  1  0.666667  0.333333  0.798614  1
  S  S39  1  0.666667  0.333333  0.520833  1
  S  S40  1  0.333333  0.666667  0.937500  1
  S  S41  1  0.666667  0.333333  0.993073  1
  S  S42  1  0.333333  0.666667  0.131944  1
  S  S43  1  0.333333  0.666667  0.576407  1
  S  S44  1  0.666667  0.333333  0.909721  1
  S  S45  1  0.000000  0.000000  0.326391  1
  S  S46  1  0.000000  0.000000  0.104167  1
  S  S47  1  0.333333  0.666667  0.215279  1
  S  S48  1  0.666667  0.333333  0.715295  1
  S  S49  1  0.666667  0.333333  0.076390  1
  S  S50  1  0.666667  0.333333  0.243056  1
  S  S51  1  0.666667  0.333333  0.437518  1
  S  S52  1  0.333333  0.666667  0.048613  1
  S  S53  1  0.000000  0.000000  0.604166  1
  S  S54  1  0.000000  0.000000  0.409705  1
  S  S55  1  0.000000  0.000000  0.881942  1
  S  S56  1  0.666667  0.333333  0.159722  1
  S  S57  1  0.333333  0.666667  0.298631  1
  S  S58  1  0.666667  0.333333  0.631943  1
  S  S59  1  0.333333  0.666667  0.854184  1
  S  S60  1  0.333333  0.666667  0.659721  1
  S  S61  1  0.000000  0.000000  0.826373  1
  S  S62  1  0.333333  0.666667  0.770833  1
  S  S63  1  0.000000  0.000000  0.965260  1
  S  S64  1  0.000000  0.000000  0.270816  1
  S  S65  1  0.000000  0.000000  0.743057  1
  S  S66  1  0.333333  0.666667  0.493056  1
  S  S67  1  0.000000  0.000000  0.020833  1
  S  S68  1  0.666667  0.333333  0.354168  1
  S  S69  1  0.000000  0.000000  0.548595  1
  S  S70  1  0.000000  0.000000  0.687483  1
  S  S71  1  0.000000  0.000000  0.187501  1
