# generated using pymatgen
data_KBH4(CN4)2
_symmetry_space_group_name_H-M   'P 1'
_cell_length_a   5.44429452
_cell_length_b   9.54926776
_cell_length_c   17.36408377
_cell_angle_alpha   90.00000000
_cell_angle_beta   90.00000000
_cell_angle_gamma   105.56291782
_symmetry_Int_Tables_number   1
_chemical_formula_structural   KBH4(CN4)2
_chemical_formula_sum   'K4 B4 H16 C8 N32'
_cell_volume   869.64405119
_cell_formula_units_Z   4
loop_
 _symmetry_equiv_pos_site_id
 _symmetry_equiv_pos_as_xyz
  1  'x, y, z'
loop_
 _atom_site_type_symbol
 _atom_site_label
 _atom_site_symmetry_multiplicity
 _atom_site_fract_x
 _atom_site_fract_y
 _atom_site_fract_z
 _atom_site_occupancy
  K  K0  1  0.765958  0.205838  0.529570  1
  K  K1  1  0.265958  0.705838  0.970430  1
  K  K2  1  0.234042  0.794162  0.470430  1
  K  K3  1  0.734042  0.294162  0.029570  1
  B  B4  1  0.460490  0.640442  0.291894  1
  B  B5  1  0.539510  0.359558  0.708106  1
  B  B6  1  0.960490  0.140442  0.208106  1
  B  B7  1  0.039510  0.859558  0.791894  1
  H  H8  1  0.821529  0.217893  0.195646  1
  H  H9  1  0.768040  0.459199  0.362526  1
  H  H10  1  0.184976  0.203619  0.208674  1
  H  H11  1  0.507140  0.083583  0.312927  1
  H  H12  1  0.992860  0.416417  0.812927  1
  H  H13  1  0.178471  0.782107  0.804354  1
  H  H14  1  0.315024  0.296381  0.708674  1
  H  H15  1  0.492860  0.916417  0.687073  1
  H  H16  1  0.231960  0.540801  0.637474  1
  H  H17  1  0.678471  0.282107  0.695646  1
  H  H18  1  0.007140  0.583583  0.187073  1
  H  H19  1  0.731960  0.040801  0.862526  1
  H  H20  1  0.815024  0.796381  0.791326  1
  H  H21  1  0.268040  0.959199  0.137474  1
  H  H22  1  0.684976  0.703619  0.291326  1
  H  H23  1  0.321529  0.717893  0.304354  1
  C  C24  1  0.072017  0.943068  0.118689  1
  C  C25  1  0.572017  0.443068  0.381311  1
  C  C26  1  0.825497  0.449551  0.830584  1
  C  C27  1  0.427983  0.556932  0.618689  1
  C  C28  1  0.174503  0.550449  0.169416  1
  C  C29  1  0.927983  0.056932  0.881311  1
  C  C30  1  0.674503  0.050449  0.330584  1
  C  C31  1  0.325497  0.949551  0.669416  1
  N  N32  1  0.192773  0.471466  0.394123  1
  N  N33  1  0.282119  0.130747  0.941202  1
  N  N34  1  0.067699  0.040416  0.606336  1
  N  N35  1  0.217881  0.369253  0.441202  1
  N  N36  1  0.717881  0.869253  0.058798  1
  N  N37  1  0.613119  0.433010  0.788259  1
  N  N38  1  0.697329  0.984402  0.396754  1
  N  N39  1  0.953551  0.991299  0.670696  1
  N  N40  1  0.954422  0.848541  0.065341  1
  N  N41  1  0.454422  0.348541  0.434659  1
  N  N42  1  0.692773  0.971466  0.105877  1
  N  N43  1  0.782119  0.630747  0.558798  1
  N  N44  1  0.046449  0.008701  0.329304  1
  N  N45  1  0.567699  0.540416  0.893664  1
  N  N46  1  0.932301  0.959584  0.393664  1
  N  N47  1  0.802671  0.515598  0.896754  1
  N  N48  1  0.807227  0.528534  0.605877  1
  N  N49  1  0.453551  0.491299  0.829304  1
  N  N50  1  0.415306  0.519845  0.355349  1
  N  N51  1  0.045578  0.151459  0.934659  1
  N  N52  1  0.915306  0.019845  0.144651  1
  N  N53  1  0.386881  0.566990  0.211741  1
  N  N54  1  0.584694  0.480155  0.644651  1
  N  N55  1  0.432301  0.459584  0.106336  1
  N  N56  1  0.197329  0.484402  0.103246  1
  N  N57  1  0.084694  0.980155  0.855349  1
  N  N58  1  0.113119  0.933010  0.711741  1
  N  N59  1  0.546449  0.508701  0.170696  1
  N  N60  1  0.886881  0.066990  0.288259  1
  N  N61  1  0.302671  0.015598  0.603246  1
  N  N62  1  0.307227  0.028534  0.894123  1
  N  N63  1  0.545578  0.651459  0.565341  1
