# generated using pymatgen
data_Na4Si3(SnO6)2
_symmetry_space_group_name_H-M   'P 1'
_cell_length_a   9.10439541
_cell_length_b   9.10439597
_cell_length_c   9.10439551
_cell_angle_alpha   60.44551322
_cell_angle_beta   60.44551120
_cell_angle_gamma   60.44551213
_symmetry_Int_Tables_number   1
_chemical_formula_structural   Na4Si3(SnO6)2
_chemical_formula_sum   'Na8 Si6 Sn4 O24'
_cell_volume   539.00245611
_cell_formula_units_Z   2
loop_
 _symmetry_equiv_pos_site_id
 _symmetry_equiv_pos_as_xyz
  1  'x, y, z'
loop_
 _atom_site_type_symbol
 _atom_site_label
 _atom_site_symmetry_multiplicity
 _atom_site_fract_x
 _atom_site_fract_y
 _atom_site_fract_z
 _atom_site_occupancy
  Na  Na0  1  0.000000  0.000000  0.000000  1
  Na  Na1  1  0.383243  0.750000  0.116757  1
  Na  Na2  1  0.116757  0.383243  0.750000  1
  Na  Na3  1  0.750000  0.116757  0.383243  1
  Na  Na4  1  0.250000  0.883243  0.616757  1
  Na  Na5  1  0.500000  0.500000  0.500000  1
  Na  Na6  1  0.883243  0.616757  0.250000  1
  Na  Na7  1  0.616757  0.250000  0.883243  1
  Si  Si8  1  0.750000  0.455680  0.044320  1
  Si  Si9  1  0.955680  0.250000  0.544320  1
  Si  Si10  1  0.250000  0.544320  0.955680  1
  Si  Si11  1  0.455680  0.044320  0.750000  1
  Si  Si12  1  0.544320  0.955680  0.250000  1
  Si  Si13  1  0.044320  0.750000  0.455680  1
  Sn  Sn14  1  0.646643  0.646643  0.646643  1
  Sn  Sn15  1  0.146643  0.146643  0.146643  1
  Sn  Sn16  1  0.853357  0.853357  0.853357  1
  Sn  Sn17  1  0.353357  0.353357  0.353357  1
  O  O18  1  0.130240  0.280809  0.519934  1
  O  O19  1  0.077937  0.730258  0.935697  1
  O  O20  1  0.064303  0.922063  0.269742  1
  O  O21  1  0.369760  0.980066  0.219191  1
  O  O22  1  0.780809  0.630240  0.019934  1
  O  O23  1  0.019934  0.780809  0.630240  1
  O  O24  1  0.219191  0.369760  0.980066  1
  O  O25  1  0.980066  0.219191  0.369760  1
  O  O26  1  0.769742  0.422063  0.564303  1
  O  O27  1  0.422063  0.564303  0.769742  1
  O  O28  1  0.935697  0.077937  0.730258  1
  O  O29  1  0.869760  0.719191  0.480066  1
  O  O30  1  0.435697  0.230258  0.577937  1
  O  O31  1  0.730258  0.935697  0.077937  1
  O  O32  1  0.230258  0.577937  0.435697  1
  O  O33  1  0.280809  0.519934  0.130240  1
  O  O34  1  0.519934  0.130240  0.280809  1
  O  O35  1  0.922063  0.269742  0.064303  1
  O  O36  1  0.577937  0.435697  0.230258  1
  O  O37  1  0.564303  0.769742  0.422063  1
  O  O38  1  0.269742  0.064303  0.922063  1
  O  O39  1  0.480066  0.869760  0.719191  1
  O  O40  1  0.719191  0.480066  0.869760  1
  O  O41  1  0.630240  0.019934  0.780809  1
