# generated using pymatgen
data_Sm2MnTe5Cl2O13
_symmetry_space_group_name_H-M   'P 1'
_cell_length_a   5.67546959
_cell_length_b   15.46250885
_cell_length_c   18.24147983
_cell_angle_alpha   103.48701643
_cell_angle_beta   90.00000000
_cell_angle_gamma   90.00000000
_symmetry_Int_Tables_number   1
_chemical_formula_structural   Sm2MnTe5Cl2O13
_chemical_formula_sum   'Sm8 Mn4 Te20 Cl8 O52'
_cell_volume   1556.67145149
_cell_formula_units_Z   4
loop_
 _symmetry_equiv_pos_site_id
 _symmetry_equiv_pos_as_xyz
  1  'x, y, z'
loop_
 _atom_site_type_symbol
 _atom_site_label
 _atom_site_symmetry_multiplicity
 _atom_site_fract_x
 _atom_site_fract_y
 _atom_site_fract_z
 _atom_site_occupancy
  Sm  Sm0  1  0.238136  0.448497  0.721492  1
  Sm  Sm1  1  0.225259  0.019775  0.924426  1
  Sm  Sm2  1  0.261864  0.948497  0.221492  1
  Sm  Sm3  1  0.274741  0.519775  0.424426  1
  Sm  Sm4  1  0.761864  0.551503  0.278508  1
  Sm  Sm5  1  0.738136  0.051503  0.778508  1
  Sm  Sm6  1  0.774741  0.980225  0.075574  1
  Sm  Sm7  1  0.725259  0.480225  0.575574  1
  Mn  Mn8  1  0.169865  0.593419  0.150214  1
  Mn  Mn9  1  0.830135  0.406581  0.849786  1
  Mn  Mn10  1  0.330135  0.093419  0.650214  1
  Mn  Mn11  1  0.669865  0.906581  0.349786  1
  Te  Te12  1  0.677780  0.859028  0.887295  1
  Te  Te13  1  0.334157  0.538911  0.941789  1
  Te  Te14  1  0.606197  0.731687  0.177102  1
  Te  Te15  1  0.189255  0.896158  0.711294  1
  Te  Te16  1  0.322220  0.140972  0.112705  1
  Te  Te17  1  0.810745  0.103842  0.288706  1
  Te  Te18  1  0.307309  0.804986  0.041844  1
  Te  Te19  1  0.106197  0.768313  0.322898  1
  Te  Te20  1  0.692691  0.195014  0.958156  1
  Te  Te21  1  0.393803  0.268313  0.822898  1
  Te  Te22  1  0.192691  0.304986  0.541844  1
  Te  Te23  1  0.665843  0.461089  0.058211  1
  Te  Te24  1  0.177780  0.640972  0.612705  1
  Te  Te25  1  0.834157  0.961089  0.558211  1
  Te  Te26  1  0.807309  0.695014  0.458156  1
  Te  Te27  1  0.310745  0.396158  0.211294  1
  Te  Te28  1  0.689255  0.603842  0.788706  1
  Te  Te29  1  0.165843  0.038911  0.441789  1
  Te  Te30  1  0.822220  0.359028  0.387295  1
  Te  Te31  1  0.893803  0.231687  0.677102  1
  Cl  Cl32  1  0.762594  0.207109  0.464383  1
  Cl  Cl33  1  0.226688  0.250928  0.317879  1
  Cl  Cl34  1  0.737406  0.707109  0.964383  1
  Cl  Cl35  1  0.726688  0.249072  0.182121  1
  Cl  Cl36  1  0.262594  0.292891  0.035617  1
  Cl  Cl37  1  0.273312  0.750928  0.817879  1
  Cl  Cl38  1  0.237406  0.792891  0.535617  1
  Cl  Cl39  1  0.773312  0.749072  0.682121  1
  O  O40  1  0.415698  0.573160  0.549297  1
  O  O41  1  0.943983  0.041406  0.195605  1
  O  O42  1  0.556017  0.541406  0.695605  1
  O  O43  1  0.981791  0.859193  0.278615  1
  O  O44  1  0.034946  0.324010  0.754147  1
  O  O45  1  0.084302  0.073160  0.049297  1
  O  O46  1  0.054504  0.547415  0.653907  1
  O  O47  1  0.144809  0.013003  0.554140  1
  O  O48  1  0.541157  0.099781  0.026905  1
  O  O49  1  0.544444  0.863012  0.110966  1
  O  O50  1  0.569070  0.452073  0.167250  1
  O  O51  1  0.584302  0.426840  0.450703  1
  O  O52  1  0.170051  0.433585  0.902242  1
  O  O53  1  0.580395  0.617244  0.399586  1
  O  O54  1  0.411705  0.985190  0.702955  1
  O  O55  1  0.955556  0.363012  0.610966  1
  O  O56  1  0.458843  0.900219  0.973095  1
  O  O57  1  0.534946  0.175990  0.745853  1
  O  O58  1  0.329949  0.933585  0.402242  1
  O  O59  1  0.930930  0.952073  0.667250  1
  O  O60  1  0.080395  0.882756  0.100414  1
  O  O61  1  0.684901  0.285512  0.887610  1
  O  O62  1  0.056016  0.958594  0.804395  1
  O  O63  1  0.355191  0.513003  0.054140  1
  O  O64  1  0.644809  0.486997  0.945860  1
  O  O65  1  0.041157  0.400219  0.473095  1
  O  O66  1  0.481791  0.640807  0.221385  1
  O  O67  1  0.829949  0.566415  0.097758  1
  O  O68  1  0.518209  0.359193  0.778615  1
  O  O69  1  0.184901  0.214488  0.612390  1
  O  O70  1  0.915698  0.926840  0.950703  1
  O  O71  1  0.430930  0.547927  0.832750  1
  O  O72  1  0.554504  0.952585  0.846093  1
  O  O73  1  0.443983  0.458594  0.304395  1
  O  O74  1  0.815099  0.785512  0.387610  1
  O  O75  1  0.419605  0.382756  0.600414  1
  O  O76  1  0.044444  0.636988  0.389034  1
  O  O77  1  0.919605  0.117244  0.899586  1
  O  O78  1  0.069070  0.047927  0.332750  1
  O  O79  1  0.855191  0.986997  0.445860  1
  O  O80  1  0.670051  0.066415  0.597758  1
  O  O81  1  0.445496  0.047415  0.153907  1
  O  O82  1  0.455556  0.136988  0.889034  1
  O  O83  1  0.965054  0.675990  0.245853  1
  O  O84  1  0.911705  0.514810  0.797045  1
  O  O85  1  0.465054  0.824010  0.254147  1
  O  O86  1  0.315099  0.714488  0.112390  1
  O  O87  1  0.958843  0.599781  0.526905  1
  O  O88  1  0.088295  0.485190  0.202955  1
  O  O89  1  0.018209  0.140807  0.721385  1
  O  O90  1  0.588295  0.014810  0.297045  1
  O  O91  1  0.945496  0.452585  0.346093  1
