# generated using pymatgen
data_Cs7Cu6F19
_symmetry_space_group_name_H-M   'P 1'
_cell_length_a   6.34809244
_cell_length_b   11.62387741
_cell_length_c   16.17691598
_cell_angle_alpha   96.79905467
_cell_angle_beta   90.00000000
_cell_angle_gamma   90.00000000
_symmetry_Int_Tables_number   1
_chemical_formula_structural   Cs7Cu6F19
_chemical_formula_sum   'Cs14 Cu12 F38'
_cell_volume   1185.29106477
_cell_formula_units_Z   2
loop_
 _symmetry_equiv_pos_site_id
 _symmetry_equiv_pos_as_xyz
  1  'x, y, z'
loop_
 _atom_site_type_symbol
 _atom_site_label
 _atom_site_symmetry_multiplicity
 _atom_site_fract_x
 _atom_site_fract_y
 _atom_site_fract_z
 _atom_site_occupancy
  Cs  Cs0  1  0.007746  0.945191  0.150493  1
  Cs  Cs1  1  0.990241  0.407340  0.794138  1
  Cs  Cs2  1  0.009759  0.592660  0.205862  1
  Cs  Cs3  1  0.507746  0.054809  0.349507  1
  Cs  Cs4  1  -0.000661  0.841635  0.433191  1
  Cs  Cs5  1  0.499339  0.158365  0.066809  1
  Cs  Cs6  1  0.509759  0.407340  0.294138  1
  Cs  Cs7  1  0.000000  0.500000  0.500000  1
  Cs  Cs8  1  1.000661  0.158365  0.566809  1
  Cs  Cs9  1  0.492254  0.945191  0.650493  1
  Cs  Cs10  1  0.490241  0.592660  0.705862  1
  Cs  Cs11  1  0.500000  0.500000  0.000000  1
  Cs  Cs12  1  0.500661  0.841635  0.933191  1
  Cs  Cs13  1  0.992254  0.054809  0.849507  1
  Cu  Cu14  1  0.997098  0.327026  0.013130  1
  Cu  Cu15  1  0.996459  0.728692  0.821163  1
  Cu  Cu16  1  0.497098  0.672974  0.486870  1
  Cu  Cu17  1  0.503541  0.728692  0.321163  1
  Cu  Cu18  1  0.002902  0.672974  0.986870  1
  Cu  Cu19  1  0.506370  0.767341  0.151897  1
  Cu  Cu20  1  0.006370  0.232659  0.348103  1
  Cu  Cu21  1  0.496459  0.271308  0.678837  1
  Cu  Cu22  1  0.993630  0.767341  0.651897  1
  Cu  Cu23  1  0.502902  0.327026  0.513130  1
  Cu  Cu24  1  0.003541  0.271308  0.178837  1
  Cu  Cu25  1  0.493630  0.232659  0.848103  1
  F  F26  1  0.808804  0.359492  0.111694  1
  F  F27  1  0.277183  0.723020  0.074129  1
  F  F28  1  0.773221  0.643092  0.864004  1
  F  F29  1  0.288165  0.291181  0.431644  1
  F  F30  1  0.500000  0.500000  0.500000  1
  F  F31  1  0.711835  0.708819  0.568356  1
  F  F32  1  0.997818  0.616009  0.688721  1
  F  F33  1  0.721680  0.186394  0.720728  1
  F  F34  1  0.002182  0.383991  0.311279  1
  F  F35  1  0.778320  0.186394  0.220728  1
  F  F36  1  0.726779  0.643092  0.364004  1
  F  F37  1  0.801651  0.812877  0.753031  1
  F  F38  1  0.691196  0.359492  0.611694  1
  F  F39  1  0.502182  0.616009  0.188721  1
  F  F40  1  0.788165  0.708819  0.068356  1
  F  F41  1  0.278320  0.813606  0.279272  1
  F  F42  1  0.497818  0.383991  0.811279  1
  F  F43  1  0.989429  0.921097  0.622900  1
  F  F44  1  0.222817  0.723020  0.574129  1
  F  F45  1  0.489429  0.078903  0.877100  1
  F  F46  1  0.003410  0.165934  0.040872  1
  F  F47  1  0.698349  0.812877  0.253031  1
  F  F48  1  0.510571  0.921097  0.122900  1
  F  F49  1  0.191196  0.640508  0.888306  1
  F  F50  1  0.198349  0.187123  0.246969  1
  F  F51  1  0.301651  0.187123  0.746969  1
  F  F52  1  0.308804  0.640508  0.388306  1
  F  F53  1  0.010571  0.078903  0.377100  1
  F  F54  1  0.226779  0.356908  0.135996  1
  F  F55  1  0.211835  0.291181  0.931644  1
  F  F56  1  0.777183  0.276980  0.425871  1
  F  F57  1  0.722817  0.276980  0.925871  1
  F  F58  1  0.221680  0.813606  0.779272  1
  F  F59  1  0.496590  0.165934  0.540872  1
  F  F60  1  0.273221  0.356908  0.635996  1
  F  F61  1  0.503410  0.834066  0.459128  1
  F  F62  1  0.000000  0.500000  0.000000  1
  F  F63  1  0.996590  0.834066  0.959128  1
