# generated using pymatgen
data_Li2U(MoO5)2
_symmetry_space_group_name_H-M   'P 1'
_cell_length_a   5.50857439
_cell_length_b   5.93508646
_cell_length_c   8.38578756
_cell_angle_alpha   108.21182193
_cell_angle_beta   100.09513486
_cell_angle_gamma   104.70585382
_symmetry_Int_Tables_number   1
_chemical_formula_structural   Li2U(MoO5)2
_chemical_formula_sum   'Li2 U1 Mo2 O10'
_cell_volume   242.03303625
_cell_formula_units_Z   1
loop_
 _symmetry_equiv_pos_site_id
 _symmetry_equiv_pos_as_xyz
  1  'x, y, z'
loop_
 _atom_site_type_symbol
 _atom_site_label
 _atom_site_symmetry_multiplicity
 _atom_site_fract_x
 _atom_site_fract_y
 _atom_site_fract_z
 _atom_site_occupancy
  Li  Li0  1  0.477661  0.215543  0.424516  1
  Li  Li1  1  0.522339  0.784457  0.575484  1
  U  U2  1  0.000000  0.000000  0.000000  1
  Mo  Mo3  1  0.917311  0.649009  0.299911  1
  Mo  Mo4  1  0.082689  0.350991  0.700089  1
  O  O5  1  0.779761  0.139163  0.550423  1
  O  O6  1  0.798177  0.792416  0.152503  1
  O  O7  1  0.692194  0.934522  0.839761  1
  O  O8  1  0.968084  0.365007  0.171105  1
  O  O9  1  0.307770  0.428141  0.582203  1
  O  O10  1  0.031916  0.634993  0.828895  1
  O  O11  1  0.201823  0.207584  0.847497  1
  O  O12  1  0.692230  0.571859  0.417797  1
  O  O13  1  0.220239  0.860837  0.449577  1
  O  O14  1  0.307806  0.065478  0.160239  1
