# generated using pymatgen
data_KCa10V7O28
_symmetry_space_group_name_H-M   'P 1'
_cell_length_a   14.24135634
_cell_length_b   14.24135672
_cell_length_c   14.24135621
_cell_angle_alpha   45.53559081
_cell_angle_beta   45.53558933
_cell_angle_gamma   45.53558803
_symmetry_Int_Tables_number   1
_chemical_formula_structural   KCa10V7O28
_chemical_formula_sum   'K2 Ca20 V14 O56'
_cell_volume   1340.57157474
_cell_formula_units_Z   2
loop_
 _symmetry_equiv_pos_site_id
 _symmetry_equiv_pos_as_xyz
  1  'x, y, z'
loop_
 _atom_site_type_symbol
 _atom_site_label
 _atom_site_symmetry_multiplicity
 _atom_site_fract_x
 _atom_site_fract_y
 _atom_site_fract_z
 _atom_site_occupancy
  K  K0  1  0.296855  0.296855  0.296855  1
  K  K1  1  0.796855  0.796855  0.796855  1
  Ca  Ca2  1  0.480269  0.480269  0.480269  1
  Ca  Ca3  1  0.074678  0.637070  0.027465  1
  Ca  Ca4  1  0.324299  0.911260  0.914547  1
  Ca  Ca5  1  0.637070  0.027465  0.074678  1
  Ca  Ca6  1  0.911260  0.914547  0.324299  1
  Ca  Ca7  1  0.002580  0.419168  0.044539  1
  Ca  Ca8  1  0.411260  0.824299  0.414547  1
  Ca  Ca9  1  0.414547  0.411260  0.824299  1
  Ca  Ca10  1  0.027465  0.074678  0.637070  1
  Ca  Ca11  1  0.914547  0.324299  0.911260  1
  Ca  Ca12  1  0.980269  0.980269  0.980269  1
  Ca  Ca13  1  0.137070  0.574678  0.527465  1
  Ca  Ca14  1  0.574678  0.527465  0.137070  1
  Ca  Ca15  1  0.527465  0.137070  0.574678  1
  Ca  Ca16  1  0.544539  0.919168  0.502580  1
  Ca  Ca17  1  0.044539  0.002580  0.419168  1
  Ca  Ca18  1  0.919168  0.502580  0.544539  1
  Ca  Ca19  1  0.824299  0.414547  0.411260  1
  Ca  Ca20  1  0.419168  0.044539  0.002580  1
  Ca  Ca21  1  0.502580  0.544539  0.919168  1
  V  V22  1  0.711191  0.669561  0.157514  1
  V  V23  1  0.169561  0.211191  0.657514  1
  V  V24  1  0.247663  0.301856  0.796880  1
  V  V25  1  0.669561  0.157514  0.711191  1
  V  V26  1  0.801856  0.747663  0.296880  1
  V  V27  1  0.296880  0.801856  0.747663  1
  V  V28  1  0.301856  0.796880  0.247663  1
  V  V29  1  0.711855  0.711855  0.711855  1
  V  V30  1  0.796880  0.247663  0.301856  1
  V  V31  1  0.211191  0.657514  0.169561  1
  V  V32  1  0.657514  0.169561  0.211191  1
  V  V33  1  0.747663  0.296880  0.801856  1
  V  V34  1  0.157514  0.711191  0.669561  1
  V  V35  1  0.211855  0.211855  0.211855  1
  O  O36  1  0.360196  0.620748  0.803050  1
  O  O37  1  0.856617  0.072225  0.642254  1
  O  O38  1  0.600741  0.083082  0.725348  1
  O  O39  1  0.115956  0.103931  0.843283  1
  O  O40  1  0.850051  0.061987  0.404433  1
  O  O41  1  0.579297  0.881889  0.715367  1
  O  O42  1  0.166213  0.166213  0.166213  1
  O  O43  1  0.832649  0.108298  0.870516  1
  O  O44  1  0.583082  0.100741  0.225348  1
  O  O45  1  0.225348  0.583082  0.100741  1
  O  O46  1  0.103931  0.843283  0.115956  1
  O  O47  1  0.572225  0.356617  0.142254  1
  O  O48  1  0.072225  0.642254  0.856617  1
  O  O49  1  0.343283  0.603931  0.615956  1
  O  O50  1  0.800128  0.367445  0.812103  1
  O  O51  1  0.608298  0.332649  0.370516  1
  O  O52  1  0.385198  0.648112  0.076769  1
  O  O53  1  0.076769  0.385198  0.648112  1
  O  O54  1  0.120748  0.860196  0.303050  1
  O  O55  1  0.666213  0.666213  0.666213  1
  O  O56  1  0.725348  0.600741  0.083082  1
  O  O57  1  0.332649  0.370516  0.608298  1
  O  O58  1  0.881889  0.715367  0.579297  1
  O  O59  1  0.803050  0.360196  0.620748  1
  O  O60  1  0.404433  0.850051  0.061987  1
  O  O61  1  0.083082  0.725348  0.600741  1
  O  O62  1  0.303050  0.120748  0.860196  1
  O  O63  1  0.620748  0.803050  0.360196  1
  O  O64  1  0.715367  0.579297  0.881889  1
  O  O65  1  0.561987  0.350051  0.904433  1
  O  O66  1  0.215367  0.381889  0.079297  1
  O  O67  1  0.870516  0.832649  0.108298  1
  O  O68  1  0.812103  0.800128  0.367445  1
  O  O69  1  0.370516  0.608298  0.332649  1
  O  O70  1  0.312103  0.867445  0.300128  1
  O  O71  1  0.367445  0.812103  0.800128  1
  O  O72  1  0.356617  0.142254  0.572225  1
  O  O73  1  0.615956  0.343283  0.603931  1
  O  O74  1  0.061987  0.404433  0.850051  1
  O  O75  1  0.576769  0.148112  0.885198  1
  O  O76  1  0.603931  0.615956  0.343283  1
  O  O77  1  0.148112  0.885198  0.576769  1
  O  O78  1  0.642254  0.856617  0.072225  1
  O  O79  1  0.904433  0.561987  0.350051  1
  O  O80  1  0.885198  0.576769  0.148112  1
  O  O81  1  0.079297  0.215367  0.381889  1
  O  O82  1  0.860196  0.303050  0.120748  1
  O  O83  1  0.867445  0.300128  0.312103  1
  O  O84  1  0.100741  0.225348  0.583082  1
  O  O85  1  0.108298  0.870516  0.832649  1
  O  O86  1  0.300128  0.312103  0.867445  1
  O  O87  1  0.381889  0.079297  0.215367  1
  O  O88  1  0.648112  0.076769  0.385198  1
  O  O89  1  0.843283  0.115956  0.103931  1
  O  O90  1  0.142254  0.572225  0.356617  1
  O  O91  1  0.350051  0.904433  0.561987  1
