# generated using pymatgen
data_Ba3(PS4)2
_symmetry_space_group_name_H-M   'P 1'
_cell_length_a   6.73312316
_cell_length_b   6.73312375
_cell_length_c   8.78790284
_cell_angle_alpha   89.93729585
_cell_angle_beta   90.06270416
_cell_angle_gamma   119.97111023
_symmetry_Int_Tables_number   1
_chemical_formula_structural   Ba3(PS4)2
_chemical_formula_sum   'Ba3 P2 S8'
_cell_volume   345.12390528
_cell_formula_units_Z   1
loop_
 _symmetry_equiv_pos_site_id
 _symmetry_equiv_pos_as_xyz
  1  'x, y, z'
loop_
 _atom_site_type_symbol
 _atom_site_label
 _atom_site_symmetry_multiplicity
 _atom_site_fract_x
 _atom_site_fract_y
 _atom_site_fract_z
 _atom_site_occupancy
  Ba  Ba0  1  0.333141  0.666859  0.364854  1
  Ba  Ba1  1  0.666859  0.333141  0.635146  1
  Ba  Ba2  1  0.000000  0.000000  0.000000  1
  P  P3  1  0.666304  0.333696  0.218463  1
  P  P4  1  0.333696  0.666304  0.781537  1
  S  S5  1  0.829364  0.659188  0.308223  1
  S  S6  1  0.170636  0.340812  0.691777  1
  S  S7  1  0.659188  0.829364  0.691777  1
  S  S8  1  0.335038  0.664962  0.011459  1
  S  S9  1  0.664962  0.335038  0.988541  1
  S  S10  1  0.340812  0.170636  0.308223  1
  S  S11  1  0.829331  0.170669  0.308079  1
  S  S12  1  0.170669  0.829331  0.691921  1
