# generated using pymatgen
data_K3Cr(CN)6
_symmetry_space_group_name_H-M   'P 1'
_cell_length_a   8.54993357
_cell_length_b   10.76488936
_cell_length_c   13.80029689
_cell_angle_alpha   90.00967054
_cell_angle_beta   89.94580519
_cell_angle_gamma   90.05552840
_symmetry_Int_Tables_number   1
_chemical_formula_structural   K3Cr(CN)6
_chemical_formula_sum   'K12 Cr4 C24 N24'
_cell_volume   1270.16556894
_cell_formula_units_Z   4
loop_
 _symmetry_equiv_pos_site_id
 _symmetry_equiv_pos_as_xyz
  1  'x, y, z'
loop_
 _atom_site_type_symbol
 _atom_site_label
 _atom_site_symmetry_multiplicity
 _atom_site_fract_x
 _atom_site_fract_y
 _atom_site_fract_z
 _atom_site_occupancy
  K  K0  1  0.125660  0.764611  0.502132  1
  K  K1  1  0.376763  0.207688  0.499527  1
  K  K2  1  0.127320  0.518313  0.260913  1
  K  K3  1  0.876400  0.706331  0.000395  1
  K  K4  1  0.123600  0.293669  0.999605  1
  K  K5  1  0.626518  0.018737  0.239117  1
  K  K6  1  0.374809  0.736582  0.001821  1
  K  K7  1  0.373482  0.981263  0.760883  1
  K  K8  1  0.623237  0.792312  0.500473  1
  K  K9  1  0.625191  0.263418  0.998179  1
  K  K10  1  0.874340  0.235389  0.497868  1
  K  K11  1  0.872680  0.481687  0.739087  1
  Cr  Cr12  1  0.623775  0.518171  0.256813  1
  Cr  Cr13  1  0.376225  0.481829  0.743187  1
  Cr  Cr14  1  0.876694  0.983013  0.757080  1
  Cr  Cr15  1  0.123306  0.016987  0.242920  1
  C  C16  1  0.793015  0.579698  0.349835  1
  C  C17  1  0.043799  0.920701  0.851094  1
  C  C18  1  0.126450  0.186555  0.308953  1
  C  C19  1  0.374643  0.312256  0.809048  1
  C  C20  1  0.456346  0.578712  0.351549  1
  C  C21  1  0.292357  0.077787  0.149368  1
  C  C22  1  0.543370  0.533460  0.841795  1
  C  C23  1  0.206985  0.420302  0.650165  1
  C  C24  1  0.293574  0.962164  0.337931  1
  C  C25  1  0.625357  0.687744  0.190952  1
  C  C26  1  0.622198  0.344592  0.317161  1
  C  C27  1  0.120935  0.843721  0.182051  1
  C  C28  1  0.873550  0.813445  0.691047  1
  C  C29  1  0.377802  0.655408  0.682839  1
  C  C30  1  0.456630  0.466540  0.158205  1
  C  C31  1  0.706426  0.037836  0.662069  1
  C  C32  1  0.543654  0.421288  0.648451  1
  C  C33  1  0.879065  0.156279  0.817949  1
  C  C34  1  0.707642  0.922213  0.850632  1
  C  C35  1  0.205867  0.535702  0.838570  1
  C  C36  1  0.956201  0.079299  0.148906  1
  C  C37  1  0.955711  0.966009  0.341777  1
  C  C38  1  0.794133  0.464298  0.161430  1
  C  C39  1  0.044289  0.033991  0.658223  1
  N  N40  1  0.106613  0.380771  0.600661  1
  N  N41  1  0.128079  0.281774  0.350880  1
  N  N42  1  0.105548  0.563410  0.892876  1
  N  N43  1  0.360235  0.439659  0.101054  1
  N  N44  1  0.641774  0.382998  0.596644  1
  N  N45  1  0.894452  0.436590  0.107124  1
  N  N46  1  0.621672  0.244784  0.351986  1
  N  N47  1  0.893387  0.619229  0.399339  1
  N  N48  1  0.879159  0.255991  0.852933  1
  N  N49  1  0.606308  0.065879  0.607841  1
  N  N50  1  0.373675  0.217098  0.851023  1
  N  N51  1  0.859038  0.939775  0.399051  1
  N  N52  1  0.393692  0.934121  0.392159  1
  N  N53  1  0.392786  0.117015  0.099657  1
  N  N54  1  0.141753  0.881196  0.902339  1
  N  N55  1  0.358226  0.617002  0.403356  1
  N  N56  1  0.626325  0.782902  0.148977  1
  N  N57  1  0.378328  0.755216  0.648014  1
  N  N58  1  0.858247  0.118804  0.097661  1
  N  N59  1  0.871921  0.718226  0.649120  1
  N  N60  1  0.607214  0.882985  0.900343  1
  N  N61  1  0.639765  0.560341  0.898946  1
  N  N62  1  0.140962  0.060225  0.600949  1
  N  N63  1  0.120841  0.744009  0.147067  1
