# generated using pymatgen
data_Tl2Cu(CO3)2
_symmetry_space_group_name_H-M   'P 1'
_cell_length_a   7.70210897
_cell_length_b   9.27893596
_cell_length_c   9.97449326
_cell_angle_alpha   90.00000000
_cell_angle_beta   90.00000000
_cell_angle_gamma   111.45057642
_symmetry_Int_Tables_number   1
_chemical_formula_structural   Tl2Cu(CO3)2
_chemical_formula_sum   'Tl8 Cu4 C8 O24'
_cell_volume   663.47408094
_cell_formula_units_Z   4
loop_
 _symmetry_equiv_pos_site_id
 _symmetry_equiv_pos_as_xyz
  1  'x, y, z'
loop_
 _atom_site_type_symbol
 _atom_site_label
 _atom_site_symmetry_multiplicity
 _atom_site_fract_x
 _atom_site_fract_y
 _atom_site_fract_z
 _atom_site_occupancy
  Tl  Tl0  1  0.734248  0.648041  0.110416  1
  Tl  Tl1  1  0.878164  0.482160  0.797216  1
  Tl  Tl2  1  0.121836  0.017840  0.297216  1
  Tl  Tl3  1  0.265752  0.851959  0.610416  1
  Tl  Tl4  1  0.878164  0.982160  0.702784  1
  Tl  Tl5  1  0.734248  0.148041  0.389584  1
  Tl  Tl6  1  0.265752  0.351959  0.889584  1
  Tl  Tl7  1  0.121836  0.517840  0.202784  1
  Cu  Cu8  1  0.461081  0.923084  0.106034  1
  Cu  Cu9  1  0.461081  0.423084  0.393966  1
  Cu  Cu10  1  0.538919  0.076916  0.893966  1
  Cu  Cu11  1  0.538919  0.576916  0.606034  1
  C  C12  1  0.479663  0.250325  0.117439  1
  C  C13  1  0.479663  0.750325  0.382561  1
  C  C14  1  0.139225  0.905269  0.950436  1
  C  C15  1  0.860775  0.094731  0.049564  1
  C  C16  1  0.139225  0.405268  0.549564  1
  C  C17  1  0.860775  0.594731  0.450436  1
  C  C18  1  0.520337  0.749675  0.882561  1
  C  C19  1  0.520337  0.249675  0.617439  1
  O  O20  1  0.538346  0.765395  0.506789  1
  O  O21  1  0.539023  0.874767  0.813926  1
  O  O22  1  0.260940  0.009040  0.874926  1
  O  O23  1  0.539023  0.374767  0.686074  1
  O  O24  1  0.439195  0.859052  0.328537  1
  O  O25  1  0.439195  0.359052  0.171463  1
  O  O26  1  0.461654  0.734605  0.006789  1
  O  O27  1  0.260940  0.509040  0.625074  1
  O  O28  1  0.538346  0.265395  0.993211  1
  O  O29  1  0.460977  0.125233  0.186074  1
  O  O30  1  0.188127  0.862014  0.065437  1
  O  O31  1  0.811873  0.137986  0.934563  1
  O  O32  1  0.811873  0.637986  0.565437  1
  O  O33  1  0.969875  0.344009  0.589206  1
  O  O34  1  0.188127  0.362014  0.434563  1
  O  O35  1  0.560805  0.640948  0.828537  1
  O  O36  1  0.460977  0.625233  0.313926  1
  O  O37  1  0.739060  0.990960  0.125074  1
  O  O38  1  0.030125  0.155991  0.089206  1
  O  O39  1  0.969875  0.844009  0.910794  1
  O  O40  1  0.739060  0.490960  0.374926  1
  O  O41  1  0.461654  0.234605  0.493211  1
  O  O42  1  0.560805  0.140948  0.671463  1
  O  O43  1  0.030125  0.655991  0.410794  1
