# generated using pymatgen
data_Ba6Nb2Ir(ClO6)2
_symmetry_space_group_name_H-M   'P 1'
_cell_length_a   6.04528185
_cell_length_b   6.04528219
_cell_length_c   14.98879594
_cell_angle_alpha   90.00000000
_cell_angle_beta   90.00000000
_cell_angle_gamma   119.99999809
_symmetry_Int_Tables_number   1
_chemical_formula_structural   Ba6Nb2Ir(ClO6)2
_chemical_formula_sum   'Ba6 Nb2 Ir1 Cl2 O12'
_cell_volume   474.38453138
_cell_formula_units_Z   1
loop_
 _symmetry_equiv_pos_site_id
 _symmetry_equiv_pos_as_xyz
  1  'x, y, z'
loop_
 _atom_site_type_symbol
 _atom_site_label
 _atom_site_symmetry_multiplicity
 _atom_site_fract_x
 _atom_site_fract_y
 _atom_site_fract_z
 _atom_site_occupancy
  Ba  Ba0  1  0.333333  0.666667  0.365760  1
  Ba  Ba1  1  0.333333  0.666667  0.791958  1
  Ba  Ba2  1  0.666667  0.333333  0.634240  1
  Ba  Ba3  1  0.666667  0.333333  0.927100  1
  Ba  Ba4  1  0.333333  0.666667  0.072900  1
  Ba  Ba5  1  0.666667  0.333333  0.208042  1
  Nb  Nb6  1  0.000000  0.000000  0.813172  1
  Nb  Nb7  1  0.000000  0.000000  0.186828  1
  Ir  Ir8  1  0.000000  0.000000  0.000000  1
  Cl  Cl9  1  0.666667  0.333333  0.420031  1
  Cl  Cl10  1  0.333333  0.666667  0.579969  1
  O  O11  1  0.153977  0.307955  0.917149  1
  O  O12  1  0.324676  0.162338  0.756816  1
  O  O13  1  0.162338  0.324676  0.243184  1
  O  O14  1  0.837662  0.675324  0.756816  1
  O  O15  1  0.837662  0.162338  0.756816  1
  O  O16  1  0.846023  0.692045  0.082851  1
  O  O17  1  0.162338  0.837662  0.243184  1
  O  O18  1  0.307955  0.153977  0.082851  1
  O  O19  1  0.846023  0.153977  0.082851  1
  O  O20  1  0.692045  0.846023  0.917149  1
  O  O21  1  0.675324  0.837662  0.243184  1
  O  O22  1  0.153977  0.846023  0.917149  1
