# generated using pymatgen
data_MnH2(CO2)2
_symmetry_space_group_name_H-M   'P 1'
_cell_length_a   5.93980445
_cell_length_b   7.64368707
_cell_length_c   9.64721272
_cell_angle_alpha   90.00000000
_cell_angle_beta   90.00000000
_cell_angle_gamma   90.00000000
_symmetry_Int_Tables_number   1
_chemical_formula_structural   MnH2(CO2)2
_chemical_formula_sum   'Mn4 H8 C8 O16'
_cell_volume   438.00281436
_cell_formula_units_Z   4
loop_
 _symmetry_equiv_pos_site_id
 _symmetry_equiv_pos_as_xyz
  1  'x, y, z'
loop_
 _atom_site_type_symbol
 _atom_site_label
 _atom_site_symmetry_multiplicity
 _atom_site_fract_x
 _atom_site_fract_y
 _atom_site_fract_z
 _atom_site_occupancy
  Mn  Mn0  1  0.250000  0.000000  0.893656  1
  Mn  Mn1  1  0.250000  0.500000  0.393656  1
  Mn  Mn2  1  0.750000  0.500000  0.606344  1
  Mn  Mn3  1  0.750000  0.000000  0.106344  1
  H  H4  1  0.190825  0.165111  0.587779  1
  H  H5  1  0.809175  0.834889  0.412221  1
  H  H6  1  0.690825  0.334889  0.912221  1
  H  H7  1  0.809175  0.665111  0.912221  1
  H  H8  1  0.309175  0.834889  0.587779  1
  H  H9  1  0.309175  0.665111  0.087779  1
  H  H10  1  0.190825  0.334889  0.087779  1
  H  H11  1  0.690825  0.165111  0.412221  1
  C  C12  1  0.653166  0.778742  0.368551  1
  C  C13  1  0.346834  0.278742  0.131449  1
  C  C14  1  0.846834  0.278742  0.868551  1
  C  C15  1  0.653166  0.721258  0.868551  1
  C  C16  1  0.153166  0.778742  0.631449  1
  C  C17  1  0.846834  0.221258  0.368551  1
  C  C18  1  0.346834  0.221258  0.631449  1
  C  C19  1  0.153166  0.721258  0.131449  1
  O  O20  1  0.926914  0.341675  0.758765  1
  O  O21  1  0.426914  0.158325  0.741235  1
  O  O22  1  0.065432  0.848007  0.062749  1
  O  O23  1  0.565432  0.848007  0.937251  1
  O  O24  1  0.065432  0.651993  0.562749  1
  O  O25  1  0.426914  0.341675  0.241235  1
  O  O26  1  0.434568  0.348007  0.562749  1
  O  O27  1  0.573086  0.841675  0.258765  1
  O  O28  1  0.073086  0.658325  0.241235  1
  O  O29  1  0.934568  0.151993  0.937251  1
  O  O30  1  0.073086  0.841675  0.741235  1
  O  O31  1  0.565432  0.651993  0.437251  1
  O  O32  1  0.926914  0.158325  0.258765  1
  O  O33  1  0.573086  0.658325  0.758765  1
  O  O34  1  0.934568  0.348007  0.437251  1
  O  O35  1  0.434568  0.151993  0.062749  1
