# generated using pymatgen
data_Hg(BiS2)2
_symmetry_space_group_name_H-M   'P 1'
_cell_length_a   4.10493516
_cell_length_b   7.54143632
_cell_length_c   12.69156644
_cell_angle_alpha   85.81109656
_cell_angle_beta   80.70356307
_cell_angle_gamma   74.20619645
_symmetry_Int_Tables_number   1
_chemical_formula_structural   Hg(BiS2)2
_chemical_formula_sum   'Hg2 Bi4 S8'
_cell_volume   372.92092473
_cell_formula_units_Z   2
loop_
 _symmetry_equiv_pos_site_id
 _symmetry_equiv_pos_as_xyz
  1  'x, y, z'
loop_
 _atom_site_type_symbol
 _atom_site_label
 _atom_site_symmetry_multiplicity
 _atom_site_fract_x
 _atom_site_fract_y
 _atom_site_fract_z
 _atom_site_occupancy
  Hg  Hg0  1  0.000000  0.000000  0.000000  1
  Hg  Hg1  1  0.000000  0.500000  0.500000  1
  Bi  Bi2  1  0.348259  0.439398  0.863900  1
  Bi  Bi3  1  0.776475  0.078422  0.368599  1
  Bi  Bi4  1  0.651741  0.560602  0.136100  1
  Bi  Bi5  1  0.223525  0.921578  0.631401  1
  S  S6  1  0.000988  0.830087  0.168068  1
  S  S7  1  0.691905  0.679757  0.936290  1
  S  S8  1  0.156047  0.358145  0.329618  1
  S  S9  1  0.308095  0.320243  0.063710  1
  S  S10  1  0.999012  0.169913  0.831932  1
  S  S11  1  0.371416  0.829689  0.427590  1
  S  S12  1  0.843953  0.641855  0.670382  1
  S  S13  1  0.628584  0.170311  0.572410  1
