# generated using pymatgen
data_GdPH5CO7
_symmetry_space_group_name_H-M   'P 1'
_cell_length_a   6.60790344
_cell_length_b   7.00049576
_cell_length_c   7.83768556
_cell_angle_alpha   111.67063009
_cell_angle_beta   96.28162349
_cell_angle_gamma   90.37917651
_symmetry_Int_Tables_number   1
_chemical_formula_structural   GdPH5CO7
_chemical_formula_sum   'Gd2 P2 H10 C2 O14'
_cell_volume   334.47819861
_cell_formula_units_Z   2
loop_
 _symmetry_equiv_pos_site_id
 _symmetry_equiv_pos_as_xyz
  1  'x, y, z'
loop_
 _atom_site_type_symbol
 _atom_site_label
 _atom_site_symmetry_multiplicity
 _atom_site_fract_x
 _atom_site_fract_y
 _atom_site_fract_z
 _atom_site_occupancy
  Gd  Gd0  1  0.127065  0.221600  0.933819  1
  Gd  Gd1  1  0.872935  0.778400  0.066181  1
  P  P2  1  0.673165  0.251024  0.018992  1
  P  P3  1  0.326835  0.748976  0.981008  1
  H  H4  1  0.483253  0.880911  0.591949  1
  H  H5  1  0.719602  0.672519  0.647715  1
  H  H6  1  0.524610  0.741738  0.393354  1
  H  H7  1  0.516747  0.119090  0.408051  1
  H  H8  1  0.280398  0.327481  0.352285  1
  H  H9  1  0.835051  0.478530  0.677907  1
  H  H10  1  0.475390  0.258262  0.606646  1
  H  H11  1  0.627665  0.292346  0.199940  1
  H  H12  1  0.164949  0.521470  0.322093  1
  H  H13  1  0.372335  0.707654  0.800060  1
  C  C14  1  0.940119  0.093169  0.497727  1
  C  C15  1  0.059881  0.906831  0.502273  1
  O  O16  1  0.154717  0.919530  0.654958  1
  O  O17  1  0.587632  0.799658  0.521857  1
  O  O18  1  0.803049  0.057666  0.962307  1
  O  O19  1  0.412368  0.200342  0.478143  1
  O  O20  1  0.181143  0.572193  0.975193  1
  O  O21  1  0.214929  0.381932  0.260213  1
  O  O22  1  0.818857  0.427807  0.024807  1
  O  O23  1  0.053483  0.754473  0.349602  1
  O  O24  1  0.471874  0.223450  0.894181  1
  O  O25  1  0.528126  0.776550  0.105819  1
  O  O26  1  0.196951  0.942334  0.037693  1
  O  O27  1  0.785071  0.618068  0.739787  1
  O  O28  1  0.946517  0.245527  0.650398  1
  O  O29  1  0.845283  0.080470  0.345042  1
