# generated using pymatgen
data_Er3Fe5O12
_symmetry_space_group_name_H-M   'P 1'
_cell_length_a   10.70053226
_cell_length_b   10.70053239
_cell_length_c   10.70053207
_cell_angle_alpha   109.47121813
_cell_angle_beta   109.47121839
_cell_angle_gamma   109.47122530
_symmetry_Int_Tables_number   1
_chemical_formula_structural   Er3Fe5O12
_chemical_formula_sum   'Er12 Fe20 O48'
_cell_volume   943.17927486
_cell_formula_units_Z   4
loop_
 _symmetry_equiv_pos_site_id
 _symmetry_equiv_pos_as_xyz
  1  'x, y, z'
loop_
 _atom_site_type_symbol
 _atom_site_label
 _atom_site_symmetry_multiplicity
 _atom_site_fract_x
 _atom_site_fract_y
 _atom_site_fract_z
 _atom_site_occupancy
  Er  Er0  1  0.375000  0.750000  0.125000  1
  Er  Er1  1  0.250000  0.375000  0.125000  1
  Er  Er2  1  0.250000  0.875000  0.625000  1
  Er  Er3  1  0.625000  0.250000  0.875000  1
  Er  Er4  1  0.125000  0.375000  0.750000  1
  Er  Er5  1  0.875000  0.750000  0.625000  1
  Er  Er6  1  0.125000  0.250000  0.375000  1
  Er  Er7  1  0.375000  0.125000  0.250000  1
  Er  Er8  1  0.625000  0.875000  0.750000  1
  Er  Er9  1  0.750000  0.125000  0.375000  1
  Er  Er10  1  0.875000  0.625000  0.250000  1
  Er  Er11  1  0.750000  0.625000  0.875000  1
  Fe  Fe12  1  0.000000  0.000000  0.500000  1
  Fe  Fe13  1  0.875000  0.125000  0.750000  1
  Fe  Fe14  1  0.500000  0.500000  0.000000  1
  Fe  Fe15  1  0.625000  0.750000  0.375000  1
  Fe  Fe16  1  0.500000  0.500000  0.500000  1
  Fe  Fe17  1  0.000000  0.000000  0.000000  1
  Fe  Fe18  1  0.000000  0.500000  0.000000  1
  Fe  Fe19  1  0.250000  0.625000  0.375000  1
  Fe  Fe20  1  0.125000  0.750000  0.875000  1
  Fe  Fe21  1  0.000000  0.500000  0.500000  1
  Fe  Fe22  1  0.250000  0.125000  0.875000  1
  Fe  Fe23  1  0.375000  0.250000  0.625000  1
  Fe  Fe24  1  0.875000  0.250000  0.125000  1
  Fe  Fe25  1  0.750000  0.375000  0.625000  1
  Fe  Fe26  1  0.375000  0.625000  0.750000  1
  Fe  Fe27  1  0.500000  0.000000  0.500000  1
  Fe  Fe28  1  0.625000  0.375000  0.250000  1
  Fe  Fe29  1  0.750000  0.875000  0.125000  1
  Fe  Fe30  1  0.500000  0.000000  0.000000  1
  Fe  Fe31  1  0.125000  0.875000  0.250000  1
  O  O32  1  0.592194  0.173965  0.468297  1
  O  O33  1  0.623897  0.418229  0.092194  1
  O  O34  1  0.876103  0.968297  0.794332  1
  O  O35  1  0.918229  0.294332  0.326035  1
  O  O36  1  0.531703  0.407806  0.826035  1
  O  O37  1  0.418229  0.826035  0.794332  1
  O  O38  1  0.031703  0.326035  0.907806  1
  O  O39  1  0.705668  0.531703  0.623897  1
  O  O40  1  0.794332  0.418229  0.826035  1
  O  O41  1  0.968297  0.673965  0.092194  1
  O  O42  1  0.907806  0.376103  0.581771  1
  O  O43  1  0.123897  0.031703  0.205668  1
  O  O44  1  0.592194  0.918229  0.123897  1
  O  O45  1  0.623897  0.705668  0.531703  1
  O  O46  1  0.123897  0.592194  0.918229  1
  O  O47  1  0.826035  0.531703  0.407806  1
  O  O48  1  0.294332  0.326035  0.918229  1
  O  O49  1  0.407806  0.081771  0.876103  1
  O  O50  1  0.705668  0.673965  0.081771  1
  O  O51  1  0.092194  0.968297  0.673965  1
  O  O52  1  0.205668  0.123897  0.031703  1
  O  O53  1  0.173965  0.205668  0.581771  1
  O  O54  1  0.418229  0.092194  0.623897  1
  O  O55  1  0.294332  0.468297  0.376103  1
  O  O56  1  0.581771  0.173965  0.205668  1
  O  O57  1  0.468297  0.592194  0.173965  1
  O  O58  1  0.918229  0.123897  0.592194  1
  O  O59  1  0.407806  0.826035  0.531703  1
  O  O60  1  0.376103  0.294332  0.468297  1
  O  O61  1  0.031703  0.205668  0.123897  1
  O  O62  1  0.081771  0.876103  0.407806  1
  O  O63  1  0.968297  0.794332  0.876103  1
  O  O64  1  0.326035  0.918229  0.294332  1
  O  O65  1  0.081771  0.705668  0.673965  1
  O  O66  1  0.876103  0.407806  0.081771  1
  O  O67  1  0.907806  0.031703  0.326035  1
  O  O68  1  0.794332  0.876103  0.968297  1
  O  O69  1  0.205668  0.581771  0.173965  1
  O  O70  1  0.581771  0.907806  0.376103  1
  O  O71  1  0.673965  0.092194  0.968297  1
  O  O72  1  0.376103  0.581771  0.907806  1
  O  O73  1  0.092194  0.623897  0.418229  1
  O  O74  1  0.326035  0.907806  0.031703  1
  O  O75  1  0.173965  0.468297  0.592194  1
  O  O76  1  0.673965  0.081771  0.705668  1
  O  O77  1  0.468297  0.376103  0.294332  1
  O  O78  1  0.531703  0.623897  0.705668  1
  O  O79  1  0.826035  0.794332  0.418229  1
