# generated using pymatgen
data_AlPO4
_symmetry_space_group_name_H-M   'P 1'
_cell_length_a   4.65212295
_cell_length_b   4.65212346
_cell_length_c   5.58810470
_cell_angle_alpha   114.59819863
_cell_angle_beta   114.59820717
_cell_angle_gamma   90.00000005
_symmetry_Int_Tables_number   1
_chemical_formula_structural   AlPO4
_chemical_formula_sum   'Al1 P1 O4'
_cell_volume   97.76404069
_cell_formula_units_Z   1
loop_
 _symmetry_equiv_pos_site_id
 _symmetry_equiv_pos_as_xyz
  1  'x, y, z'
loop_
 _atom_site_type_symbol
 _atom_site_label
 _atom_site_symmetry_multiplicity
 _atom_site_fract_x
 _atom_site_fract_y
 _atom_site_fract_z
 _atom_site_occupancy
  Al  Al0  1  0.000000  0.000000  -0.000000  1
  P  P1  1  0.250000  0.750000  0.500000  1
  O  O2  1  0.008030  0.176132  0.352264  1
  O  O3  1  0.344235  0.176132  0.352264  1
  O  O4  1  0.823868  0.991970  0.647736  1
  O  O5  1  0.823868  0.655765  0.647736  1
