# generated using pymatgen
data_Tl4SnS4
_symmetry_space_group_name_H-M   'P 1'
_cell_length_a   8.47328106
_cell_length_b   8.54768073
_cell_length_c   16.01446231
_cell_angle_alpha   105.00488930
_cell_angle_beta   90.00000000
_cell_angle_gamma   90.00000000
_symmetry_Int_Tables_number   1
_chemical_formula_structural   Tl4SnS4
_chemical_formula_sum   'Tl16 Sn4 S16'
_cell_volume   1120.33037906
_cell_formula_units_Z   4
loop_
 _symmetry_equiv_pos_site_id
 _symmetry_equiv_pos_as_xyz
  1  'x, y, z'
loop_
 _atom_site_type_symbol
 _atom_site_label
 _atom_site_symmetry_multiplicity
 _atom_site_fract_x
 _atom_site_fract_y
 _atom_site_fract_z
 _atom_site_occupancy
  S  S0  1  0.172602  0.556114  0.213269  1
  S  S1  1  0.672602  0.443886  0.286731  1
  S  S2  1  0.827398  0.443886  0.786731  1
  S  S3  1  0.327398  0.556114  0.713269  1
  S  S4  1  0.651866  0.806792  0.963894  1
  S  S5  1  0.151866  0.193208  0.536106  1
  S  S6  1  0.348134  0.193208  0.036106  1
  S  S7  1  0.848134  0.806792  0.463894  1
  S  S8  1  0.556208  0.900128  0.291341  1
  S  S9  1  0.056208  0.099872  0.208659  1
  S  S10  1  0.443792  0.099872  0.708659  1
  S  S11  1  0.943792  0.900128  0.791341  1
  S  S12  1  0.614968  0.312520  0.535608  1
  S  S13  1  0.114968  0.687480  0.964392  1
  S  S14  1  0.385032  0.687480  0.464392  1
  S  S15  1  0.885032  0.312520  0.035608  1
  Sn  Sn16  1  0.884375  0.713371  0.878108  1
  Sn  Sn17  1  0.384375  0.286629  0.621892  1
  Sn  Sn18  1  0.115625  0.286629  0.121892  1
  Sn  Sn19  1  0.615625  0.713371  0.378108  1
  Tl  Tl20  1  0.215774  0.899701  0.360063  1
  Tl  Tl21  1  0.715774  0.100299  0.139937  1
  Tl  Tl22  1  0.784226  0.100299  0.639937  1
  Tl  Tl23  1  0.284226  0.899701  0.860063  1
  Tl  Tl24  1  0.821898  0.103417  0.389923  1
  Tl  Tl25  1  0.321898  0.896583  0.110077  1
  Tl  Tl26  1  0.178102  0.896583  0.610077  1
  Tl  Tl27  1  0.678102  0.103417  0.889923  1
  Tl  Tl28  1  0.399669  0.316613  0.377838  1
  Tl  Tl29  1  0.899669  0.683387  0.122162  1
  Tl  Tl30  1  0.600331  0.683387  0.622162  1
  Tl  Tl31  1  0.100331  0.316613  0.877838  1
  Tl  Tl32  1  0.005522  0.474058  0.366929  1
  Tl  Tl33  1  0.505522  0.525942  0.133071  1
  Tl  Tl34  1  0.994478  0.525942  0.633071  1
  Tl  Tl35  1  0.494478  0.474058  0.866929  1
