# generated using pymatgen
data_GaSe2NCl6
_symmetry_space_group_name_H-M   'P 1'
_cell_length_a   10.19615190
_cell_length_b   11.05995733
_cell_length_c   11.81437844
_cell_angle_alpha   90.00000000
_cell_angle_beta   90.00000000
_cell_angle_gamma   114.47532826
_symmetry_Int_Tables_number   1
_chemical_formula_structural   GaSe2NCl6
_chemical_formula_sum   'Ga4 Se8 N4 Cl24'
_cell_volume   1212.57528274
_cell_formula_units_Z   4
loop_
 _symmetry_equiv_pos_site_id
 _symmetry_equiv_pos_as_xyz
  1  'x, y, z'
loop_
 _atom_site_type_symbol
 _atom_site_label
 _atom_site_symmetry_multiplicity
 _atom_site_fract_x
 _atom_site_fract_y
 _atom_site_fract_z
 _atom_site_occupancy
  Ga  Ga0  1  0.172526  0.487022  0.193649  1
  Ga  Ga1  1  0.827474  0.512978  0.806351  1
  Ga  Ga2  1  0.827474  0.012978  0.693649  1
  Ga  Ga3  1  0.172526  0.987022  0.306351  1
  Se  Se4  1  0.273827  0.454145  0.546461  1
  Se  Se5  1  0.726173  0.545855  0.453539  1
  Se  Se6  1  0.273827  0.954145  0.953539  1
  Se  Se7  1  0.211602  0.878997  0.681856  1
  Se  Se8  1  0.788398  0.121003  0.318144  1
  Se  Se9  1  0.726173  0.045855  0.046461  1
  Se  Se10  1  0.211602  0.378997  0.818144  1
  Se  Se11  1  0.788398  0.621003  0.181856  1
  N  N12  1  0.214818  0.372423  0.672422  1
  N  N13  1  0.214818  0.872423  0.827578  1
  N  N14  1  0.785182  0.127577  0.172422  1
  N  N15  1  0.785182  0.627577  0.327578  1
  Cl  Cl16  1  0.163609  0.821763  0.414224  1
  Cl  Cl17  1  0.142132  0.142731  0.402895  1
  Cl  Cl18  1  0.996964  0.913072  0.176159  1
  Cl  Cl19  1  0.003036  0.086928  0.823841  1
  Cl  Cl20  1  0.836391  0.678237  0.914224  1
  Cl  Cl21  1  0.142132  0.642731  0.097105  1
  Cl  Cl22  1  0.634529  0.922013  0.367954  1
  Cl  Cl23  1  0.377732  0.566974  0.287997  1
  Cl  Cl24  1  0.423778  0.160052  0.920294  1
  Cl  Cl25  1  0.836391  0.178237  0.585776  1
  Cl  Cl26  1  0.003036  0.586928  0.676159  1
  Cl  Cl27  1  0.377732  0.066974  0.212003  1
  Cl  Cl28  1  0.365471  0.577987  0.867954  1
  Cl  Cl29  1  0.996964  0.413072  0.323841  1
  Cl  Cl30  1  0.365471  0.077987  0.632046  1
  Cl  Cl31  1  0.857868  0.857269  0.597105  1
  Cl  Cl32  1  0.163609  0.321763  0.085776  1
  Cl  Cl33  1  0.634529  0.422013  0.132046  1
  Cl  Cl34  1  0.576222  0.839948  0.079706  1
  Cl  Cl35  1  0.622268  0.433026  0.712003  1
  Cl  Cl36  1  0.423778  0.660052  0.579706  1
  Cl  Cl37  1  0.622268  0.933026  0.787997  1
  Cl  Cl38  1  0.576222  0.339948  0.420294  1
  Cl  Cl39  1  0.857868  0.357269  0.902895  1
