# generated using pymatgen
data_Ba3YIr2O9
_symmetry_space_group_name_H-M   'P 1'
_cell_length_a   5.94110501
_cell_length_b   5.94110546
_cell_length_c   14.87243978
_cell_angle_alpha   90.00000000
_cell_angle_beta   90.00000000
_cell_angle_gamma   119.99999756
_symmetry_Int_Tables_number   1
_chemical_formula_structural   Ba3YIr2O9
_chemical_formula_sum   'Ba6 Y2 Ir4 O18'
_cell_volume   454.61875845
_cell_formula_units_Z   2
loop_
 _symmetry_equiv_pos_site_id
 _symmetry_equiv_pos_as_xyz
  1  'x, y, z'
loop_
 _atom_site_type_symbol
 _atom_site_label
 _atom_site_symmetry_multiplicity
 _atom_site_fract_x
 _atom_site_fract_y
 _atom_site_fract_z
 _atom_site_occupancy
  Ba  Ba0  1  0.000000  0.000000  0.255647  1
  Ba  Ba1  1  0.000000  0.000000  0.755647  1
  Ba  Ba2  1  0.333333  0.666667  0.073534  1
  Ba  Ba3  1  0.666667  0.333333  0.573534  1
  Ba  Ba4  1  0.333333  0.666667  0.399695  1
  Ba  Ba5  1  0.666667  0.333333  0.899695  1
  Ir  Ir6  1  0.000000  0.000000  0.496200  1
  Ir  Ir7  1  0.000000  0.000000  0.996200  1
  Ir  Ir8  1  0.333333  0.666667  0.845214  1
  Ir  Ir9  1  0.666667  0.333333  0.345214  1
  Y  Y10  1  0.333333  0.666667  0.651476  1
  Y  Y11  1  0.666667  0.333333  0.151476  1
  O  O12  1  0.153944  0.846056  0.575114  1
  O  O13  1  0.307888  0.153944  0.075114  1
  O  O14  1  0.846056  0.692112  0.075114  1
  O  O15  1  0.153944  0.307888  0.575114  1
  O  O16  1  0.692112  0.846056  0.575114  1
  O  O17  1  0.846056  0.153944  0.075114  1
  O  O18  1  0.834118  0.165882  0.420723  1
  O  O19  1  0.668237  0.834118  0.920723  1
  O  O20  1  0.165882  0.331763  0.920723  1
  O  O21  1  0.834118  0.668237  0.420723  1
  O  O22  1  0.331763  0.165882  0.420723  1
  O  O23  1  0.165882  0.834118  0.920723  1
  O  O24  1  0.487965  0.512035  0.763574  1
  O  O25  1  0.975930  0.487965  0.263574  1
  O  O26  1  0.512035  0.024070  0.263574  1
  O  O27  1  0.487965  0.975930  0.763574  1
  O  O28  1  0.024070  0.512035  0.763574  1
  O  O29  1  0.512035  0.487965  0.263574  1
