# generated using pymatgen
data_Mg15Si2Ir5
_symmetry_space_group_name_H-M   'P 1'
_cell_length_a   8.80872521
_cell_length_b   13.77835530
_cell_length_c   13.77835530
_cell_angle_alpha   90.00000000
_cell_angle_beta   90.00000000
_cell_angle_gamma   90.00000000
_symmetry_Int_Tables_number   1
_chemical_formula_structural   Mg15Si2Ir5
_chemical_formula_sum   'Mg60 Si8 Ir20'
_cell_volume   1672.27547870
_cell_formula_units_Z   4
loop_
 _symmetry_equiv_pos_site_id
 _symmetry_equiv_pos_as_xyz
  1  'x, y, z'
loop_
 _atom_site_type_symbol
 _atom_site_label
 _atom_site_symmetry_multiplicity
 _atom_site_fract_x
 _atom_site_fract_y
 _atom_site_fract_z
 _atom_site_occupancy
  Mg  Mg0  1  0.658077  0.494020  0.983393  1
  Mg  Mg1  1  0.974336  0.618908  0.689068  1
  Mg  Mg2  1  0.184884  0.663417  0.878504  1
  Mg  Mg3  1  0.143901  0.194045  0.410458  1
  Mg  Mg4  1  0.658077  0.005980  0.516607  1
  Mg  Mg5  1  0.356099  0.410458  0.305955  1
  Mg  Mg6  1  0.861054  0.547003  0.196988  1
  Mg  Mg7  1  0.361054  0.696988  0.452997  1
  Mg  Mg8  1  0.138946  0.047003  0.696988  1
  Mg  Mg9  1  0.525664  0.810932  0.618908  1
  Mg  Mg10  1  0.341923  0.994020  0.483393  1
  Mg  Mg11  1  0.025664  0.118908  0.189068  1
  Mg  Mg12  1  0.341923  0.505980  0.016607  1
  Mg  Mg13  1  0.638946  0.196988  0.952997  1
  Mg  Mg14  1  0.384623  0.177482  0.618224  1
  Mg  Mg15  1  0.025664  0.381092  0.310932  1
  Mg  Mg16  1  0.643901  0.589542  0.694045  1
  Mg  Mg17  1  0.611683  0.881141  0.177942  1
  Mg  Mg18  1  0.138946  0.452997  0.803012  1
  Mg  Mg19  1  0.841923  0.983393  0.005980  1
  Mg  Mg20  1  0.856099  0.694045  0.910458  1
  Mg  Mg21  1  0.158077  0.016607  0.994020  1
  Mg  Mg22  1  0.684884  0.378504  0.336583  1
  Mg  Mg23  1  0.500000  0.500000  0.500000  1
  Mg  Mg24  1  0.474336  0.310932  0.118908  1
  Mg  Mg25  1  0.525664  0.689068  0.881092  1
  Mg  Mg26  1  0.356099  0.089542  0.194045  1
  Mg  Mg27  1  0.815116  0.336583  0.121496  1
  Mg  Mg28  1  0.111683  0.822058  0.381141  1
  Mg  Mg29  1  0.384623  0.322518  0.881776  1
  Mg  Mg30  1  0.861054  0.952997  0.303012  1
  Mg  Mg31  1  0.611683  0.618859  0.322058  1
  Mg  Mg32  1  0.815116  0.163417  0.378504  1
  Mg  Mg33  1  0.974336  0.881092  0.810932  1
  Mg  Mg34  1  0.115377  0.618224  0.322518  1
  Mg  Mg35  1  0.143901  0.305955  0.089542  1
  Mg  Mg36  1  0.184884  0.836583  0.621496  1
  Mg  Mg37  1  0.615377  0.822518  0.381776  1
  Mg  Mg38  1  0.000000  0.500000  0.000000  1
  Mg  Mg39  1  0.000000  0.000000  0.500000  1
  Mg  Mg40  1  0.388317  0.118859  0.822058  1
  Mg  Mg41  1  0.856099  0.805955  0.589542  1
  Mg  Mg42  1  0.158077  0.483393  0.505980  1
  Mg  Mg43  1  0.638946  0.303012  0.547003  1
  Mg  Mg44  1  0.888317  0.322058  0.881141  1
  Mg  Mg45  1  0.315116  0.621496  0.663417  1
  Mg  Mg46  1  0.115377  0.881776  0.177482  1
  Mg  Mg47  1  0.111683  0.677942  0.118859  1
  Mg  Mg48  1  0.888317  0.177942  0.618859  1
  Mg  Mg49  1  0.841923  0.516607  0.494020  1
  Mg  Mg50  1  0.388317  0.381141  0.677942  1
  Mg  Mg51  1  0.684884  0.121496  0.163417  1
  Mg  Mg52  1  0.474336  0.189068  0.381092  1
  Mg  Mg53  1  0.500000  0.000000  0.000000  1
  Mg  Mg54  1  0.643901  0.910458  0.805955  1
  Mg  Mg55  1  0.361054  0.803012  0.047003  1
  Mg  Mg56  1  0.884623  0.381776  0.677482  1
  Mg  Mg57  1  0.315116  0.878504  0.836583  1
  Mg  Mg58  1  0.615377  0.677482  0.118224  1
  Mg  Mg59  1  0.884623  0.118224  0.822518  1
  Si  Si60  1  0.365091  0.584178  0.202123  1
  Si  Si61  1  0.134909  0.202123  0.915822  1
  Si  Si62  1  0.865091  0.797877  0.084178  1
  Si  Si63  1  0.634909  0.415822  0.797877  1
  Si  Si64  1  0.365091  0.915822  0.297877  1
  Si  Si65  1  0.634909  0.084178  0.702123  1
  Si  Si66  1  0.865091  0.702123  0.415822  1
  Si  Si67  1  0.134909  0.297877  0.584178  1
  Ir  Ir68  1  0.348536  0.170091  0.014580  1
  Ir  Ir69  1  0.424535  0.518050  0.825752  1
  Ir  Ir70  1  0.575465  0.018050  0.325752  1
  Ir  Ir71  1  0.363518  0.750000  0.250000  1
  Ir  Ir72  1  0.924535  0.174248  0.018050  1
  Ir  Ir73  1  0.636482  0.250000  0.750000  1
  Ir  Ir74  1  0.924535  0.325752  0.481950  1
  Ir  Ir75  1  0.424535  0.981950  0.674248  1
  Ir  Ir76  1  0.651464  0.670091  0.514580  1
  Ir  Ir77  1  0.075465  0.674248  0.518050  1
  Ir  Ir78  1  0.575465  0.481950  0.174248  1
  Ir  Ir79  1  0.151464  0.485420  0.170091  1
  Ir  Ir80  1  0.075465  0.825752  0.981950  1
  Ir  Ir81  1  0.848536  0.514580  0.829909  1
  Ir  Ir82  1  0.348536  0.329909  0.485420  1
  Ir  Ir83  1  0.136482  0.250000  0.750000  1
  Ir  Ir84  1  0.651464  0.829909  0.985420  1
  Ir  Ir85  1  0.151464  0.014580  0.329909  1
  Ir  Ir86  1  0.848536  0.985420  0.670091  1
  Ir  Ir87  1  0.863518  0.750000  0.250000  1
