# generated using pymatgen
data_Na4CO4
_symmetry_space_group_name_H-M   'P 1'
_cell_length_a   5.31432055
_cell_length_b   5.31432012
_cell_length_c   5.31432044
_cell_angle_alpha   71.86491352
_cell_angle_beta   71.86491320
_cell_angle_gamma   71.86491360
_symmetry_Int_Tables_number   1
_chemical_formula_structural   Na4CO4
_chemical_formula_sum   'Na4 C1 O4'
_cell_volume   131.67220120
_cell_formula_units_Z   1
loop_
 _symmetry_equiv_pos_site_id
 _symmetry_equiv_pos_as_xyz
  1  'x, y, z'
loop_
 _atom_site_type_symbol
 _atom_site_label
 _atom_site_symmetry_multiplicity
 _atom_site_fract_x
 _atom_site_fract_y
 _atom_site_fract_z
 _atom_site_occupancy
  Na  Na0  1  0.945464  0.426513  0.426513  1
  Na  Na1  1  0.426513  0.945464  0.426513  1
  Na  Na2  1  0.426513  0.426513  0.945464  1
  Na  Na3  1  0.822920  0.822920  0.822920  1
  C  C4  1  0.039699  0.039699  0.039699  1
  O  O5  1  0.156707  0.156707  0.156707  1
  O  O6  1  0.871443  0.871443  0.247638  1
  O  O7  1  0.871443  0.247638  0.871443  1
  O  O8  1  0.247638  0.871443  0.871443  1
