# generated using pymatgen
data_CdHg4C6S6(Br2N3)2
_symmetry_space_group_name_H-M   'P 1'
_cell_length_a   6.54766690
_cell_length_b   10.00049780
_cell_length_c   12.39695370
_cell_angle_alpha   85.04045647
_cell_angle_beta   74.68748534
_cell_angle_gamma   70.89095625
_symmetry_Int_Tables_number   1
_chemical_formula_structural   CdHg4C6S6(Br2N3)2
_chemical_formula_sum   'Cd1 Hg4 C6 S6 Br4 N6'
_cell_volume   739.79243273
_cell_formula_units_Z   1
loop_
 _symmetry_equiv_pos_site_id
 _symmetry_equiv_pos_as_xyz
  1  'x, y, z'
loop_
 _atom_site_type_symbol
 _atom_site_label
 _atom_site_symmetry_multiplicity
 _atom_site_fract_x
 _atom_site_fract_y
 _atom_site_fract_z
 _atom_site_occupancy
  Cd  Cd0  1  0.015169  0.000000  0.000000  1
  Hg  Hg1  1  0.477622  0.704373  0.382375  1
  Hg  Hg2  1  0.859996  0.704373  0.617625  1
  Hg  Hg3  1  0.181994  0.295627  0.382375  1
  Hg  Hg4  1  0.564369  0.295627  0.617625  1
  C  C5  1  0.927666  0.746918  0.851011  1
  C  C6  1  0.778676  0.746918  0.148989  1
  C  C7  1  0.525595  0.253082  0.148989  1
  C  C8  1  0.241502  0.000000  0.224645  1
  C  C9  1  0.466147  0.000000  0.775355  1
  C  C10  1  0.674584  0.253082  0.851011  1
  S  S11  1  0.833980  0.627536  0.813061  1
  S  S12  1  0.647041  0.627536  0.186939  1
  S  S13  1  0.461516  0.372464  0.813061  1
  S  S14  1  0.304362  0.000000  0.345093  1
  S  S15  1  0.649455  0.000000  0.654907  1
  S  S16  1  0.274577  0.372464  0.186939  1
  Br  Br17  1  0.084979  0.307188  0.595153  1
  Br  Br18  1  0.392167  0.692812  0.595153  1
  Br  Br19  1  0.680132  0.307188  0.404847  1
  Br  Br20  1  0.987320  0.692812  0.404847  1
  N  N21  1  0.197728  0.000000  0.138470  1
  N  N22  1  0.994135  0.828471  0.882124  1
  N  N23  1  0.822605  0.171529  0.882124  1
  N  N24  1  0.704729  0.171529  0.117876  1
  N  N25  1  0.336198  0.000000  0.861530  1
  N  N26  1  0.876258  0.828471  0.117876  1
