# generated using pymatgen
data_As2Pb2O5
_symmetry_space_group_name_H-M   'P 1'
_cell_length_a   5.86084330
_cell_length_b   8.76315331
_cell_length_c   13.84023390
_cell_angle_alpha   107.25562143
_cell_angle_beta   90.00000000
_cell_angle_gamma   90.00000000
_symmetry_Int_Tables_number   1
_chemical_formula_structural   As2Pb2O5
_chemical_formula_sum   'As8 Pb8 O20'
_cell_volume   678.83333020
_cell_formula_units_Z   4
loop_
 _symmetry_equiv_pos_site_id
 _symmetry_equiv_pos_as_xyz
  1  'x, y, z'
loop_
 _atom_site_type_symbol
 _atom_site_label
 _atom_site_symmetry_multiplicity
 _atom_site_fract_x
 _atom_site_fract_y
 _atom_site_fract_z
 _atom_site_occupancy
  Pb  Pb0  1  0.658403  0.977958  0.122343  1
  Pb  Pb1  1  0.158403  0.522042  0.377657  1
  Pb  Pb2  1  0.341597  0.022042  0.877657  1
  Pb  Pb3  1  0.841597  0.477958  0.622343  1
  Pb  Pb4  1  0.337252  0.447996  0.796083  1
  Pb  Pb5  1  0.837252  0.052004  0.703917  1
  Pb  Pb6  1  0.662748  0.552004  0.203917  1
  Pb  Pb7  1  0.162748  0.947996  0.296083  1
  As  As8  1  0.126494  0.679087  0.063044  1
  As  As9  1  0.626494  0.820913  0.436956  1
  As  As10  1  0.873506  0.320914  0.936956  1
  As  As11  1  0.373506  0.179087  0.563044  1
  As  As12  1  0.877958  0.755032  0.869202  1
  As  As13  1  0.377958  0.744968  0.630798  1
  As  As14  1  0.122042  0.244968  0.130798  1
  As  As15  1  0.622042  0.255032  0.369202  1
  O  O16  1  0.332583  0.799847  0.146265  1
  O  O17  1  0.832583  0.700153  0.353735  1
  O  O18  1  0.667417  0.200153  0.853735  1
  O  O19  1  0.167417  0.299847  0.646265  1
  O  O20  1  0.876776  0.758989  0.136936  1
  O  O21  1  0.376776  0.741011  0.363064  1
  O  O22  1  0.123224  0.241011  0.863064  1
  O  O23  1  0.623224  0.258989  0.636936  1
  O  O24  1  0.113257  0.788540  0.965764  1
  O  O25  1  0.613257  0.711460  0.534236  1
  O  O26  1  0.886743  0.211460  0.034236  1
  O  O27  1  0.386743  0.288540  0.465764  1
  O  O28  1  0.955457  0.555405  0.793649  1
  O  O29  1  0.455457  0.944595  0.706351  1
  O  O30  1  0.044543  0.444595  0.206351  1
  O  O31  1  0.544543  0.055405  0.293649  1
  O  O32  1  0.006160  0.871049  0.798702  1
  O  O33  1  0.506160  0.628951  0.701298  1
  O  O34  1  0.993840  0.128951  0.201298  1
  O  O35  1  0.493840  0.371049  0.298702  1
