# generated using pymatgen
data_AlH14C4NOF4
_symmetry_space_group_name_H-M   'P 1'
_cell_length_a   6.73983297
_cell_length_b   9.49429431
_cell_length_c   9.06170007
_cell_angle_alpha   71.04514220
_cell_angle_beta   82.73021354
_cell_angle_gamma   74.15119862
_symmetry_Int_Tables_number   1
_chemical_formula_structural   AlH14C4NOF4
_chemical_formula_sum   'Al2 H28 C8 N2 O2 F8'
_cell_volume   527.11100214
_cell_formula_units_Z   2
loop_
 _symmetry_equiv_pos_site_id
 _symmetry_equiv_pos_as_xyz
  1  'x, y, z'
loop_
 _atom_site_type_symbol
 _atom_site_label
 _atom_site_symmetry_multiplicity
 _atom_site_fract_x
 _atom_site_fract_y
 _atom_site_fract_z
 _atom_site_occupancy
  Al  Al0  1  0.362599  0.620737  0.541891  1
  Al  Al1  1  0.637401  0.379263  0.458109  1
  H  H2  1  0.537670  1.009360  0.226152  1
  H  H3  1  0.703221  0.592913  0.992129  1
  H  H4  1  0.320680  0.206430  0.435266  1
  H  H5  1  0.394001  0.827302  0.755109  1
  H  H6  1  0.064824  0.223282  0.385057  1
  H  H7  1  0.719495  0.729671  0.239704  1
  H  H8  1  0.814672  0.969641  0.828447  1
  H  H9  1  1.000278  0.786946  0.864714  1
  H  H10  1  0.904375  0.564581  0.844419  1
  H  H11  1  0.296779  0.407087  0.007871  1
  H  H12  1  0.679320  0.793570  0.564734  1
  H  H13  1  0.642493  0.580094  0.810356  1
  H  H14  1  0.555973  0.169015  0.054798  1
  H  H15  1  0.095625  0.435419  0.155581  1
  H  H16  1  0.462330  -0.009360  0.773848  1
  H  H17  1  0.185328  0.030359  0.171553  1
  H  H18  1  -0.000278  0.213054  0.135286  1
  H  H19  1  0.605999  0.172698  0.244891  1
  H  H20  1  0.280505  0.270329  0.760296  1
  H  H21  1  0.747347  0.958099  0.583310  1
  H  H22  1  0.935176  0.776718  0.614943  1
  H  H23  1  0.444027  0.830985  0.945202  1
  H  H24  1  0.208923  0.184254  0.995278  1
  H  H25  1  0.607234  0.201386  0.681051  1
  H  H26  1  0.252653  0.041901  0.416690  1
  H  H27  1  0.357507  0.419906  0.189644  1
  H  H28  1  0.791077  0.815746  0.004722  1
  H  H29  1  0.392766  0.798614  0.318949  1
  C  C30  1  0.257355  0.380969  0.133405  1
  C  C31  1  0.161561  0.154839  0.119211  1
  C  C32  1  0.228233  0.167321  0.372893  1
  C  C33  1  0.742645  0.619031  0.866595  1
  C  C34  1  0.484632  0.865792  0.819703  1
  C  C35  1  0.838439  0.845161  0.880789  1
  C  C36  1  0.515368  0.134208  0.180297  1
  C  C37  1  0.771767  0.832679  0.627107  1
  N  N38  1  0.709034  0.790323  0.797892  1
  N  N39  1  0.290966  0.209677  0.202108  1
  O  O40  1  0.679777  0.196030  0.577132  1
  O  O41  1  0.320223  0.803970  0.422868  1
  F  F42  1  0.862848  0.719565  0.276984  1
  F  F43  1  0.137152  0.280435  0.723016  1
  F  F44  1  0.261653  0.598858  0.723898  1
  F  F45  1  0.464512  0.251829  0.811242  1
  F  F46  1  0.738347  0.401142  0.276102  1
  F  F47  1  0.535488  0.748171  0.188758  1
  F  F48  1  0.639045  0.521938  0.549330  1
  F  F49  1  0.360955  0.478062  0.450670  1
