# generated using pymatgen
data_YH7C4O11
_symmetry_space_group_name_H-M   'P 1'
_cell_length_a   8.81162956
_cell_length_b   8.81162956
_cell_length_c   12.81185650
_cell_angle_alpha   90.00000000
_cell_angle_beta   90.00000000
_cell_angle_gamma   90.00000000
_symmetry_Int_Tables_number   1
_chemical_formula_structural   YH7C4O11
_chemical_formula_sum   'Y4 H28 C16 O44'
_cell_volume   994.77423419
_cell_formula_units_Z   4
loop_
 _symmetry_equiv_pos_site_id
 _symmetry_equiv_pos_as_xyz
  1  'x, y, z'
loop_
 _atom_site_type_symbol
 _atom_site_label
 _atom_site_symmetry_multiplicity
 _atom_site_fract_x
 _atom_site_fract_y
 _atom_site_fract_z
 _atom_site_occupancy
  Y  Y0  1  0.250000  0.750000  0.709367  1
  Y  Y1  1  0.750000  0.250000  0.790633  1
  Y  Y2  1  0.750000  0.250000  0.290633  1
  Y  Y3  1  0.250000  0.750000  0.209367  1
  H  H4  1  0.070970  0.176460  0.463119  1
  H  H5  1  0.742671  0.555176  0.078699  1
  H  H6  1  0.839577  0.251859  0.026253  1
  H  H7  1  0.750000  0.750000  0.027087  1
  H  H8  1  0.555176  0.757329  0.421301  1
  H  H9  1  0.757329  0.944824  0.078699  1
  H  H10  1  0.242671  0.055176  0.921301  1
  H  H11  1  0.929030  0.823540  0.536881  1
  H  H12  1  0.257329  0.444824  0.921301  1
  H  H13  1  0.750000  0.750000  0.472913  1
  H  H14  1  0.250000  0.250000  0.972913  1
  H  H15  1  0.339577  0.751859  0.973747  1
  H  H16  1  0.176460  0.429030  0.036881  1
  H  H17  1  0.570970  0.676460  0.536881  1
  H  H18  1  0.429030  0.323540  0.463119  1
  H  H19  1  0.248141  0.839577  0.473747  1
  H  H20  1  0.823540  0.570970  0.963119  1
  H  H21  1  0.444824  0.242671  0.578699  1
  H  H22  1  0.160422  0.748141  0.973747  1
  H  H23  1  0.055176  0.257329  0.578699  1
  H  H24  1  0.251859  0.660423  0.473747  1
  H  H25  1  0.323540  0.070970  0.036881  1
  H  H26  1  0.660423  0.248141  0.026253  1
  H  H27  1  0.676460  0.929030  0.963119  1
  H  H28  1  0.250000  0.250000  0.527087  1
  H  H29  1  0.944824  0.742671  0.421301  1
  H  H30  1  0.751859  0.160422  0.526253  1
  H  H31  1  0.748141  0.339577  0.526253  1
  C  C32  1  0.023734  0.454216  0.197054  1
  C  C33  1  0.976014  0.533325  0.299569  1
  C  C34  1  0.954216  0.976266  0.697054  1
  C  C35  1  0.545784  0.523734  0.697054  1
  C  C36  1  0.476266  0.045784  0.197054  1
  C  C37  1  0.966675  0.976014  0.200431  1
  C  C38  1  0.976266  0.545784  0.802946  1
  C  C39  1  0.466675  0.476014  0.799569  1
  C  C40  1  0.476014  0.033325  0.700431  1
  C  C41  1  0.033325  0.023986  0.799569  1
  C  C42  1  0.523986  0.966675  0.299569  1
  C  C43  1  0.454216  0.476266  0.302946  1
  C  C44  1  0.045784  0.023734  0.302946  1
  C  C45  1  0.023986  0.466675  0.700431  1
  C  C46  1  0.523734  0.954216  0.802946  1
  C  C47  1  0.533325  0.523986  0.200431  1
  O  O48  1  0.374747  0.970072  0.646462  1
  O  O49  1  0.029928  0.874747  0.146462  1
  O  O50  1  0.341599  0.541340  0.821380  1
  O  O51  1  0.623394  0.697307  0.468369  1
  O  O52  1  0.750000  0.250000  0.481251  1
  O  O53  1  0.658401  0.458660  0.178620  1
  O  O54  1  0.958660  0.341599  0.678620  1
  O  O55  1  0.041340  0.658401  0.321380  1
  O  O56  1  0.750000  0.250000  0.981251  1
  O  O57  1  0.663069  0.450801  0.671089  1
  O  O58  1  0.125253  0.529928  0.646462  1
  O  O59  1  0.336931  0.549199  0.328911  1
  O  O60  1  0.470072  0.625253  0.146462  1
  O  O61  1  0.366953  0.985492  0.146925  1
  O  O62  1  0.250000  0.750000  0.018749  1
  O  O63  1  0.458660  0.841599  0.321380  1
  O  O64  1  0.514508  0.366953  0.353075  1
  O  O65  1  0.250000  0.750000  0.518749  1
  O  O66  1  0.633047  0.014508  0.853075  1
  O  O67  1  0.802693  0.623394  0.031631  1
  O  O68  1  0.133047  0.514508  0.146925  1
  O  O69  1  0.625253  0.029928  0.353538  1
  O  O70  1  0.014508  0.866953  0.646925  1
  O  O71  1  0.549199  0.163069  0.171089  1
  O  O72  1  0.049199  0.663069  0.828911  1
  O  O73  1  0.376606  0.302693  0.531631  1
  O  O74  1  0.841599  0.041340  0.178620  1
  O  O75  1  0.836931  0.049199  0.671089  1
  O  O76  1  0.697307  0.876606  0.031631  1
  O  O77  1  0.866953  0.485492  0.853075  1
  O  O78  1  0.970072  0.125253  0.853538  1
  O  O79  1  0.985492  0.133047  0.353075  1
  O  O80  1  0.529928  0.374747  0.853538  1
  O  O81  1  0.302693  0.123394  0.968369  1
  O  O82  1  0.158401  0.958660  0.821380  1
  O  O83  1  0.950801  0.336931  0.171089  1
  O  O84  1  0.874747  0.470072  0.353538  1
  O  O85  1  0.485492  0.633047  0.646925  1
  O  O86  1  0.197307  0.376606  0.968369  1
  O  O87  1  0.541340  0.158401  0.678620  1
  O  O88  1  0.450801  0.836931  0.828911  1
  O  O89  1  0.163069  0.950801  0.328911  1
  O  O90  1  0.123394  0.197307  0.531631  1
  O  O91  1  0.876606  0.802693  0.468369  1
