# generated using pymatgen
data_AgSbTe6S16(OF5)6
_symmetry_space_group_name_H-M   'P 1'
_cell_length_a   10.82086835
_cell_length_b   11.08160778
_cell_length_c   11.21002042
_cell_angle_alpha   80.91178288
_cell_angle_beta   83.88764812
_cell_angle_gamma   70.98698887
_symmetry_Int_Tables_number   1
_chemical_formula_structural   AgSbTe6S16(OF5)6
_chemical_formula_sum   'Ag1 Sb1 Te6 S16 O6 F30'
_cell_volume   1252.75275009
_cell_formula_units_Z   1
loop_
 _symmetry_equiv_pos_site_id
 _symmetry_equiv_pos_as_xyz
  1  'x, y, z'
loop_
 _atom_site_type_symbol
 _atom_site_label
 _atom_site_symmetry_multiplicity
 _atom_site_fract_x
 _atom_site_fract_y
 _atom_site_fract_z
 _atom_site_occupancy
  Ag  Ag0  1  0.500000  0.000000  0.500000  1
  Sb  Sb1  1  0.000000  0.500000  0.000000  1
  Te  Te2  1  0.237721  0.177395  0.029475  1
  Te  Te3  1  0.086612  0.569675  0.679605  1
  Te  Te4  1  0.762279  0.822605  0.970525  1
  Te  Te5  1  0.767310  0.346849  0.935297  1
  Te  Te6  1  0.913388  0.430325  0.320395  1
  Te  Te7  1  0.232690  0.653151  0.064703  1
  S  S8  1  0.479243  0.668852  0.421389  1
  S  S9  1  0.377727  0.840142  0.325500  1
  S  S10  1  0.622273  0.159858  0.674500  1
  S  S11  1  0.492615  0.724007  0.709202  1
  S  S12  1  0.410676  0.292728  0.458106  1
  S  S13  1  0.183748  0.046731  0.502787  1
  S  S14  1  0.203340  0.972677  0.681704  1
  S  S15  1  0.189279  0.906314  0.399508  1
  S  S16  1  0.400926  0.919700  0.713098  1
  S  S17  1  0.816252  0.953269  0.497213  1
  S  S18  1  0.796660  0.027323  0.318296  1
  S  S19  1  0.599074  0.080300  0.286902  1
  S  S20  1  0.507385  0.275993  0.290798  1
  S  S21  1  0.589324  0.707272  0.541894  1
  S  S22  1  0.520757  0.331147  0.578611  1
  S  S23  1  0.810721  0.093686  0.600492  1
  O  O24  1  0.110047  0.514730  0.846507  1
  O  O25  1  0.146451  0.346565  0.063038  1
  O  O26  1  0.924323  0.389212  0.924933  1
  O  O27  1  0.889953  0.485270  0.153493  1
  O  O28  1  0.075677  0.610788  0.075067  1
  O  O29  1  0.853549  0.653435  0.936962  1
  F  F30  1  0.093071  0.118901  0.075485  1
  F  F31  1  0.725311  0.432407  0.779056  1
  F  F32  1  0.665361  0.993154  0.991689  1
  F  F33  1  0.205113  0.744670  0.908365  1
  F  F34  1  0.139104  0.803583  0.132596  1
  F  F35  1  0.911705  0.572747  0.684164  1
  F  F36  1  0.288344  0.136903  0.190366  1
  F  F37  1  0.088295  0.427253  0.315836  1
  F  F38  1  0.144061  0.398946  0.645051  1
  F  F39  1  0.334639  0.006846  0.008311  1
  F  F40  1  0.794887  0.255330  0.091635  1
  F  F41  1  0.391254  0.219907  0.981759  1
  F  F42  1  0.860896  0.196417  0.867404  1
  F  F43  1  0.711656  0.863097  0.809634  1
  F  F44  1  0.616671  0.297514  0.939903  1
  F  F45  1  0.608746  0.780093  0.018241  1
  F  F46  1  0.971272  0.254677  0.300897  1
  F  F47  1  0.028728  0.745323  0.699103  1
  F  F48  1  0.383329  0.702486  0.060097  1
  F  F49  1  0.802819  0.795669  0.133461  1
  F  F50  1  0.274689  0.567593  0.220944  1
  F  F51  1  0.662687  0.494758  0.001950  1
  F  F52  1  0.077027  0.621864  0.512212  1
  F  F53  1  0.260348  0.572088  0.661463  1
  F  F54  1  0.197181  0.204331  0.866539  1
  F  F55  1  0.855939  0.601054  0.354949  1
  F  F56  1  0.906929  0.881099  0.924515  1
  F  F57  1  0.922973  0.378136  0.487788  1
  F  F58  1  0.337313  0.505242  0.998050  1
  F  F59  1  0.739652  0.427912  0.338537  1
