# generated using pymatgen
data_K2Cr2O7
_symmetry_space_group_name_H-M   'P 1'
_cell_length_a   7.58712250
_cell_length_b   7.64350677
_cell_length_c   13.66081943
_cell_angle_alpha   95.21723964
_cell_angle_beta   97.52342264
_cell_angle_gamma   90.93624246
_symmetry_Int_Tables_number   1
_chemical_formula_structural   K2Cr2O7
_chemical_formula_sum   'K8 Cr8 O28'
_cell_volume   781.82736288
_cell_formula_units_Z   4
loop_
 _symmetry_equiv_pos_site_id
 _symmetry_equiv_pos_as_xyz
  1  'x, y, z'
loop_
 _atom_site_type_symbol
 _atom_site_label
 _atom_site_symmetry_multiplicity
 _atom_site_fract_x
 _atom_site_fract_y
 _atom_site_fract_z
 _atom_site_occupancy
  Cr  Cr0  1  0.594726  0.772336  0.606990  1
  Cr  Cr1  1  0.405274  0.227664  0.393010  1
  Cr  Cr2  1  0.793785  0.809666  0.413291  1
  Cr  Cr3  1  0.206215  0.190334  0.586709  1
  Cr  Cr4  1  0.817281  0.421713  0.113381  1
  Cr  Cr5  1  0.182719  0.578287  0.886619  1
  Cr  Cr6  1  0.811954  0.153242  0.916993  1
  Cr  Cr7  1  0.188046  0.846758  0.083007  1
  K  K8  1  0.105658  0.664400  0.638694  1
  K  K9  1  0.894342  0.335599  0.361306  1
  K  K10  1  0.254296  0.758702  0.349023  1
  K  K11  1  0.745704  0.241298  0.650977  1
  K  K12  1  0.661085  0.914239  0.159618  1
  K  K13  1  0.338915  0.085761  0.840382  1
  K  K14  1  0.689222  0.651983  0.863679  1
  K  K15  1  0.310778  0.348017  0.136321  1
  O  O16  1  0.717641  0.614125  0.649590  1
  O  O17  1  0.282359  0.385875  0.350410  1
  O  O18  1  0.561046  0.912492  0.700005  1
  O  O19  1  0.438954  0.087508  0.299994  1
  O  O20  1  0.406005  0.692862  0.547663  1
  O  O21  1  0.593995  0.307138  0.452337  1
  O  O22  1  0.710054  0.890281  0.525834  1
  O  O23  1  0.289946  0.109719  0.474166  1
  O  O24  1  0.958634  0.678471  0.441095  1
  O  O25  1  0.041366  0.321529  0.558905  1
  O  O26  1  0.865855  0.974936  0.360361  1
  O  O27  1  0.134145  0.025064  0.639639  1
  O  O28  1  0.637248  0.701437  0.337927  1
  O  O29  1  0.362752  0.298563  0.662073  1
  O  O30  1  0.686471  0.295655  0.165518  1
  O  O31  1  0.313529  0.704345  0.834482  1
  O  O32  1  0.978118  0.504517  0.196950  1
  O  O33  1  0.021882  0.495483  0.803050  1
  O  O34  1  0.702945  0.576680  0.062549  1
  O  O35  1  0.297055  0.423320  0.937451  1
  O  O36  1  0.919515  0.291174  0.022129  1
  O  O37  1  0.080485  0.708826  0.977871  1
  O  O38  1  0.692793  0.997535  0.954431  1
  O  O39  1  0.307207  0.002465  0.045569  1
  O  O40  1  0.961893  0.068340  0.853755  1
  O  O41  1  0.038107  0.931660  0.146245  1
  O  O42  1  0.678627  0.273768  0.848247  1
  O  O43  1  0.321373  0.726232  0.151753  1
