# generated using pymatgen
data_Na2Th(PO4)2
_symmetry_space_group_name_H-M   'P 1'
_cell_length_a   7.12058223
_cell_length_b   9.26760732
_cell_length_c   11.53147206
_cell_angle_alpha   83.59478878
_cell_angle_beta   72.01635017
_cell_angle_gamma   68.81805594
_symmetry_Int_Tables_number   1
_chemical_formula_structural   Na2Th(PO4)2
_chemical_formula_sum   'Na8 Th4 P8 O32'
_cell_volume   674.89201057
_cell_formula_units_Z   4
loop_
 _symmetry_equiv_pos_site_id
 _symmetry_equiv_pos_as_xyz
  1  'x, y, z'
loop_
 _atom_site_type_symbol
 _atom_site_label
 _atom_site_symmetry_multiplicity
 _atom_site_fract_x
 _atom_site_fract_y
 _atom_site_fract_z
 _atom_site_occupancy
  Na  Na0  1  0.708519  0.454888  0.379777  1
  Na  Na1  1  0.312175  0.992968  0.126091  1
  Na  Na2  1  0.911704  0.045112  0.379777  1
  Na  Na3  1  0.561735  0.507032  0.126091  1
  Na  Na4  1  0.687825  0.007032  0.873909  1
  Na  Na5  1  0.088296  0.954888  0.620223  1
  Na  Na6  1  0.291481  0.545112  0.620223  1
  Na  Na7  1  0.438265  0.492968  0.873909  1
  Th  Th8  1  0.928201  0.750000  0.143599  1
  Th  Th9  1  0.071799  0.250000  0.856401  1
  Th  Th10  1  0.296234  0.250000  0.407532  1
  Th  Th11  1  0.703766  0.750000  0.592468  1
  P  P12  1  0.117439  0.380337  0.132240  1
  P  P13  1  0.750321  0.119664  0.132240  1
  P  P14  1  0.882561  0.619664  0.867760  1
  P  P15  1  0.128546  0.647628  0.378461  1
  P  P16  1  0.871454  0.352372  0.621539  1
  P  P17  1  0.507007  0.147628  0.621539  1
  P  P18  1  0.249679  0.880336  0.867760  1
  P  P19  1  0.492993  0.852372  0.378461  1
  O  O20  1  0.759512  0.505094  0.899096  1
  O  O21  1  0.207219  0.771518  0.976664  1
  O  O22  1  0.118106  0.514185  0.835118  1
  O  O23  1  0.450271  0.750252  0.494046  1
  O  O24  1  0.421730  0.243803  0.739076  1
  O  O25  1  0.046776  0.985815  0.835118  1
  O  O26  1  0.330424  0.506147  0.377435  1
  O  O27  1  0.401590  0.776552  0.755724  1
  O  O28  1  0.160806  0.743803  0.260924  1
  O  O29  1  0.058116  0.410271  0.608951  1
  O  O30  1  0.341392  0.994906  0.899096  1
  O  O31  1  0.240488  0.494906  0.100904  1
  O  O32  1  0.598410  0.223448  0.244276  1
  O  O33  1  0.549729  0.249748  0.505954  1
  O  O34  1  0.881894  0.485815  0.164882  1
  O  O35  1  0.332933  0.089729  0.608951  1
  O  O36  1  0.669576  0.493853  0.622565  1
  O  O37  1  0.667067  0.910271  0.391049  1
  O  O38  1  0.839194  0.256197  0.739076  1
  O  O39  1  0.578270  0.756197  0.260924  1
  O  O40  1  0.292141  0.993853  0.377435  1
  O  O41  1  0.944318  0.250252  0.505954  1
  O  O42  1  0.941884  0.589729  0.391049  1
  O  O43  1  0.157314  0.276552  0.244276  1
  O  O44  1  0.707859  0.006147  0.622565  1
  O  O45  1  0.953224  0.014185  0.164882  1
  O  O46  1  0.183883  0.271518  0.023336  1
  O  O47  1  0.055682  0.749748  0.494046  1
  O  O48  1  0.816117  0.728482  0.976664  1
  O  O49  1  0.658608  0.005094  0.100904  1
  O  O50  1  0.842686  0.723448  0.755724  1
  O  O51  1  0.792781  0.228482  0.023336  1
