# generated using pymatgen
data_NpI3
_symmetry_space_group_name_H-M   'P 1'
_cell_length_a   4.26268403
_cell_length_b   7.93808272
_cell_length_c   9.94951024
_cell_angle_alpha   90.00000000
_cell_angle_beta   90.00000000
_cell_angle_gamma   105.57477882
_symmetry_Int_Tables_number   1
_chemical_formula_structural   NpI3
_chemical_formula_sum   'Np2 I6'
_cell_volume   324.30481151
_cell_formula_units_Z   2
loop_
 _symmetry_equiv_pos_site_id
 _symmetry_equiv_pos_as_xyz
  1  'x, y, z'
loop_
 _atom_site_type_symbol
 _atom_site_label
 _atom_site_symmetry_multiplicity
 _atom_site_fract_x
 _atom_site_fract_y
 _atom_site_fract_z
 _atom_site_occupancy
  Np  Np0  1  0.260915  0.521829  0.750000  1
  Np  Np1  1  0.739085  0.478171  0.250000  1
  I  I2  1  0.909078  0.818157  0.750000  1
  I  I3  1  0.090922  0.181843  0.250000  1
  I  I4  1  0.345251  0.690501  0.068250  1
  I  I5  1  0.654749  0.309499  0.931750  1
  I  I6  1  0.654749  0.309499  0.568250  1
  I  I7  1  0.345251  0.690501  0.431750  1
