# generated using pymatgen
data_Yb2WO6
_symmetry_space_group_name_H-M   'P 1'
_cell_length_a   5.63477444
_cell_length_b   7.64264822
_cell_length_c   11.17660924
_cell_angle_alpha   100.63390306
_cell_angle_beta   90.00000000
_cell_angle_gamma   90.00000000
_symmetry_Int_Tables_number   1
_chemical_formula_structural   Yb2WO6
_chemical_formula_sum   'Yb8 W4 O24'
_cell_volume   473.05022761
_cell_formula_units_Z   4
loop_
 _symmetry_equiv_pos_site_id
 _symmetry_equiv_pos_as_xyz
  1  'x, y, z'
loop_
 _atom_site_type_symbol
 _atom_site_label
 _atom_site_symmetry_multiplicity
 _atom_site_fract_x
 _atom_site_fract_y
 _atom_site_fract_z
 _atom_site_occupancy
  O  O0  1  0.457073  0.783170  0.251008  1
  O  O1  1  0.457073  0.216829  0.248992  1
  O  O2  1  0.542927  0.216830  0.748992  1
  O  O3  1  0.542927  0.783171  0.751008  1
  O  O4  1  0.027839  0.924379  0.103538  1
  O  O5  1  0.027839  0.075621  0.396461  1
  O  O6  1  0.972161  0.075621  0.896461  1
  O  O7  1  0.972161  0.924379  0.603539  1
  O  O8  1  0.982934  0.711395  0.212381  1
  O  O9  1  0.982934  0.288606  0.287619  1
  O  O10  1  0.017066  0.288605  0.787618  1
  O  O11  1  0.017066  0.711395  0.712382  1
  O  O12  1  0.835047  0.651858  0.436707  1
  O  O13  1  0.835047  0.348142  0.063293  1
  O  O14  1  0.164953  0.348142  0.563293  1
  O  O15  1  0.164953  0.651858  0.936707  1
  O  O16  1  0.660871  0.480208  0.610311  1
  O  O17  1  0.660871  0.519792  0.889689  1
  O  O18  1  0.515482  0.855723  0.067712  1
  O  O19  1  0.339129  0.480208  0.110312  1
  O  O20  1  0.484516  0.855723  0.567712  1
  O  O21  1  0.484516  0.144277  0.932288  1
  O  O22  1  0.515482  0.144277  0.432287  1
  O  O23  1  0.339129  0.519792  0.389689  1
  Yb  Yb24  1  0.187976  0.801618  0.415801  1
  Yb  Yb25  1  0.187976  0.198381  0.084199  1
  Yb  Yb26  1  0.812022  0.198382  0.584199  1
  Yb  Yb27  1  0.812022  0.801619  0.915801  1
  Yb  Yb28  1  0.667829  0.500001  0.250000  1
  Yb  Yb29  1  0.332170  0.499999  0.749999  1
  Yb  Yb30  1  0.264402  0.000000  0.750000  1
  Yb  Yb31  1  0.735599  0.000000  0.250000  1
  W  W32  1  0.249659  0.709870  0.099841  1
  W  W33  1  0.249659  0.290129  0.400159  1
  W  W34  1  0.750339  0.290130  0.900159  1
  W  W35  1  0.750339  0.709871  0.599841  1
