# generated using pymatgen
data_Pr3(Al2Si3)2
_symmetry_space_group_name_H-M   'P 1'
_cell_length_a   4.20494898
_cell_length_b   4.20494880
_cell_length_c   18.07465609
_cell_angle_alpha   90.00000000
_cell_angle_beta   90.00000000
_cell_angle_gamma   120.00000142
_symmetry_Int_Tables_number   1
_chemical_formula_structural   Pr3(Al2Si3)2
_chemical_formula_sum   'Pr3 Al4 Si6'
_cell_volume   276.77197382
_cell_formula_units_Z   1
loop_
 _symmetry_equiv_pos_site_id
 _symmetry_equiv_pos_as_xyz
  1  'x, y, z'
loop_
 _atom_site_type_symbol
 _atom_site_label
 _atom_site_symmetry_multiplicity
 _atom_site_fract_x
 _atom_site_fract_y
 _atom_site_fract_z
 _atom_site_occupancy
  Pr  Pr0  1  0.000000  0.000000  0.388216  1
  Pr  Pr1  1  0.000000  0.000000  0.000000  1
  Pr  Pr2  1  0.000000  0.000000  0.611784  1
  Al  Al3  1  0.333333  0.666667  0.246088  1
  Al  Al4  1  0.666667  0.333333  0.140915  1
  Al  Al5  1  0.333333  0.666667  0.859085  1
  Al  Al6  1  0.666667  0.333333  0.753912  1
  Si  Si7  1  0.333333  0.666667  0.104731  1
  Si  Si8  1  0.666667  0.333333  0.502596  1
  Si  Si9  1  0.333333  0.666667  0.497404  1
  Si  Si10  1  0.333333  0.666667  0.718259  1
  Si  Si11  1  0.666667  0.333333  0.895269  1
  Si  Si12  1  0.666667  0.333333  0.281741  1
