# generated using pymatgen
data_Tl10Hg3Cl16
_symmetry_space_group_name_H-M   'P 1'
_cell_length_a   8.64798973
_cell_length_b   8.64799033
_cell_length_c   13.66393407
_cell_angle_alpha   108.44856331
_cell_angle_beta   108.44856468
_cell_angle_gamma   89.99999761
_symmetry_Int_Tables_number   1
_chemical_formula_structural   Tl10Hg3Cl16
_chemical_formula_sum   'Tl10 Hg3 Cl16'
_cell_volume   913.84738750
_cell_formula_units_Z   1
loop_
 _symmetry_equiv_pos_site_id
 _symmetry_equiv_pos_as_xyz
  1  'x, y, z'
loop_
 _atom_site_type_symbol
 _atom_site_label
 _atom_site_symmetry_multiplicity
 _atom_site_fract_x
 _atom_site_fract_y
 _atom_site_fract_z
 _atom_site_occupancy
  Tl  Tl0  1  0.452432  0.916345  0.178573  1
  Tl  Tl1  1  0.262228  0.452432  0.178573  1
  Tl  Tl2  1  0.273859  0.737772  0.821427  1
  Tl  Tl3  1  0.736950  0.736950  0.473900  1
  Tl  Tl4  1  0.547568  0.083655  0.821427  1
  Tl  Tl5  1  0.737772  0.547568  0.821427  1
  Tl  Tl6  1  0.083655  0.273859  0.821427  1
  Tl  Tl7  1  0.916345  0.726141  0.178573  1
  Tl  Tl8  1  0.263050  0.263050  0.526100  1
  Tl  Tl9  1  0.726141  0.262228  0.178573  1
  Hg  Hg10  1  0.000000  0.000000  0.000000  1
  Hg  Hg11  1  0.750000  0.250000  0.500000  1
  Hg  Hg12  1  0.250000  0.750000  0.500000  1
  Cl  Cl13  1  0.394239  0.394239  0.788478  1
  Cl  Cl14  1  0.489078  0.664222  0.629339  1
  Cl  Cl15  1  0.848777  0.326485  1.000000  1
  Cl  Cl16  1  0.859740  0.034883  0.370661  1
  Cl  Cl17  1  0.965117  0.489078  0.629339  1
  Cl  Cl18  1  0.664222  0.140260  0.629339  1
  Cl  Cl19  1  0.335778  0.859740  0.370661  1
  Cl  Cl20  1  0.034883  0.510922  0.370661  1
  Cl  Cl21  1  0.510922  0.335778  0.370661  1
  Cl  Cl22  1  0.097062  0.097062  0.194125  1
  Cl  Cl23  1  0.673515  0.848777  0.000000  1
  Cl  Cl24  1  0.151223  0.673515  0.000000  1
  Cl  Cl25  1  0.140260  0.965117  0.629339  1
  Cl  Cl26  1  0.605761  0.605761  0.211522  1
  Cl  Cl27  1  0.326485  0.151223  1.000000  1
  Cl  Cl28  1  0.902938  0.902938  0.805875  1
