# generated using pymatgen
data_ZnS
_symmetry_space_group_name_H-M   'P 1'
_cell_length_a   3.85243861
_cell_length_b   3.85243857
_cell_length_c   75.58933993
_cell_angle_alpha   90.00000000
_cell_angle_beta   90.00000000
_cell_angle_gamma   120.00000025
_symmetry_Int_Tables_number   1
_chemical_formula_structural   ZnS
_chemical_formula_sum   'Zn24 S24'
_cell_volume   971.54435496
_cell_formula_units_Z   24
loop_
 _symmetry_equiv_pos_site_id
 _symmetry_equiv_pos_as_xyz
  1  'x, y, z'
loop_
 _atom_site_type_symbol
 _atom_site_label
 _atom_site_symmetry_multiplicity
 _atom_site_fract_x
 _atom_site_fract_y
 _atom_site_fract_z
 _atom_site_occupancy
  Zn  Zn0  1  0.000000  0.000000  0.333351  1
  Zn  Zn1  1  0.000000  0.000000  0.000007  1
  Zn  Zn2  1  0.333333  0.666667  0.291678  1
  Zn  Zn3  1  0.666667  0.333333  0.083342  1
  Zn  Zn4  1  0.333333  0.666667  0.833342  1
  Zn  Zn5  1  0.000000  0.000000  0.666678  1
  Zn  Zn6  1  0.666667  0.333333  0.500007  1
  Zn  Zn7  1  0.666667  0.333333  0.916681  1
  Zn  Zn8  1  0.666667  0.333333  0.208342  1
  Zn  Zn9  1  0.666667  0.333333  0.625010  1
  Zn  Zn10  1  0.000000  0.000000  0.541688  1
  Zn  Zn11  1  0.333333  0.666667  0.041689  1
  Zn  Zn12  1  0.000000  0.000000  0.125010  1
  Zn  Zn13  1  0.333333  0.666667  0.166681  1
  Zn  Zn14  1  0.333333  0.666667  0.416681  1
  Zn  Zn15  1  0.333333  0.666667  0.708339  1
  Zn  Zn16  1  0.333333  0.666667  0.958340  1
  Zn  Zn17  1  0.000000  0.000000  0.458341  1
  Zn  Zn18  1  0.333333  0.666667  0.583342  1
  Zn  Zn19  1  0.000000  0.000000  0.875010  1
  Zn  Zn20  1  0.666667  0.333333  0.791681  1
  Zn  Zn21  1  0.666667  0.333333  0.375010  1
  Zn  Zn22  1  0.000000  0.000000  0.750018  1
  Zn  Zn23  1  0.000000  0.000000  0.250008  1
  S  S24  1  0.666667  0.333333  0.947908  1
  S  S25  1  0.000000  0.000000  0.572905  1
  S  S26  1  0.333333  0.666667  0.197908  1
  S  S27  1  0.333333  0.666667  0.989548  1
  S  S28  1  0.000000  0.000000  0.364569  1
  S  S29  1  0.000000  0.000000  0.489549  1
  S  S30  1  0.666667  0.333333  0.531260  1
  S  S31  1  0.000000  0.000000  0.781238  1
  S  S32  1  0.666667  0.333333  0.822907  1
  S  S33  1  0.333333  0.666667  0.447908  1
  S  S34  1  0.666667  0.333333  0.239570  1
  S  S35  1  0.666667  0.333333  0.114569  1
  S  S36  1  0.000000  0.000000  0.031260  1
  S  S37  1  0.333333  0.666667  0.739590  1
  S  S38  1  0.000000  0.000000  0.156239  1
  S  S39  1  0.333333  0.666667  0.864569  1
  S  S40  1  0.666667  0.333333  0.656239  1
  S  S41  1  0.333333  0.666667  0.614569  1
  S  S42  1  0.000000  0.000000  0.281218  1
  S  S43  1  0.333333  0.666667  0.072906  1
  S  S44  1  0.000000  0.000000  0.697885  1
  S  S45  1  0.666667  0.333333  0.406239  1
  S  S46  1  0.333333  0.666667  0.322928  1
  S  S47  1  0.000000  0.000000  0.906239  1
