# generated using pymatgen
data_MnAlF5
_symmetry_space_group_name_H-M   'P 1'
_cell_length_a   3.63559491
_cell_length_b   5.32912620
_cell_length_c   9.70883490
_cell_angle_alpha   90.00000000
_cell_angle_beta   90.00000000
_cell_angle_gamma   109.94427805
_symmetry_Int_Tables_number   1
_chemical_formula_structural   MnAlF5
_chemical_formula_sum   'Mn2 Al2 F10'
_cell_volume   176.82266015
_cell_formula_units_Z   2
loop_
 _symmetry_equiv_pos_site_id
 _symmetry_equiv_pos_as_xyz
  1  'x, y, z'
loop_
 _atom_site_type_symbol
 _atom_site_label
 _atom_site_symmetry_multiplicity
 _atom_site_fract_x
 _atom_site_fract_y
 _atom_site_fract_z
 _atom_site_occupancy
  Mn  Mn0  1  0.488543  0.000000  0.000000  1
  Mn  Mn1  1  0.488543  0.000000  0.500000  1
  Al  Al2  1  0.778526  0.588035  0.750000  1
  Al  Al3  1  0.190492  0.411965  0.250000  1
  F  F4  1  0.654412  0.339991  0.617980  1
  F  F5  1  0.654412  0.339991  0.882020  1
  F  F6  1  0.058513  0.146443  0.384399  1
  F  F7  1  0.314420  0.660009  0.117980  1
  F  F8  1  0.058513  0.146443  0.115601  1
  F  F9  1  0.314420  0.660009  0.382020  1
  F  F10  1  0.291423  0.613783  0.750000  1
  F  F11  1  0.677640  0.386217  0.250000  1
  F  F12  1  0.912071  0.853557  0.884399  1
  F  F13  1  0.912071  0.853557  0.615601  1
