# generated using pymatgen
data_TaBi4BrO8
_symmetry_space_group_name_H-M   'P 1'
_cell_length_a   5.54644266
_cell_length_b   5.61040546
_cell_length_c   29.89981025
_cell_angle_alpha   90.00000000
_cell_angle_beta   90.00000000
_cell_angle_gamma   90.00000000
_symmetry_Int_Tables_number   1
_chemical_formula_structural   TaBi4BrO8
_chemical_formula_sum   'Ta4 Bi16 Br4 O32'
_cell_volume   930.41608168
_cell_formula_units_Z   4
loop_
 _symmetry_equiv_pos_site_id
 _symmetry_equiv_pos_as_xyz
  1  'x, y, z'
loop_
 _atom_site_type_symbol
 _atom_site_label
 _atom_site_symmetry_multiplicity
 _atom_site_fract_x
 _atom_site_fract_y
 _atom_site_fract_z
 _atom_site_occupancy
  Ta  Ta0  1  0.987220  0.766036  0.249888  1
  Ta  Ta1  1  0.987220  0.733964  0.749888  1
  Ta  Ta2  1  0.487220  0.266036  0.250112  1
  Ta  Ta3  1  0.487220  0.233964  0.750112  1
  Bi  Bi4  1  0.012110  0.306453  0.658852  1
  Bi  Bi5  1  0.478930  0.261506  0.927591  1
  Bi  Bi6  1  0.512110  0.693547  0.341148  1
  Bi  Bi7  1  0.012110  0.193547  0.158852  1
  Bi  Bi8  1  0.512110  0.806453  0.841148  1
  Bi  Bi9  1  0.498630  0.261513  0.572379  1
  Bi  Bi10  1  0.978930  0.738494  0.072409  1
  Bi  Bi11  1  0.965791  0.308066  0.840685  1
  Bi  Bi12  1  0.998630  0.761513  0.927621  1
  Bi  Bi13  1  0.465791  0.808066  0.659315  1
  Bi  Bi14  1  0.498630  0.238487  0.072379  1
  Bi  Bi15  1  0.965791  0.191934  0.340685  1
  Bi  Bi16  1  0.465791  0.691934  0.159315  1
  Bi  Bi17  1  0.998630  0.738487  0.427621  1
  Bi  Bi18  1  0.978930  0.761506  0.572409  1
  Bi  Bi19  1  0.478930  0.238494  0.427591  1
  Br  Br20  1  0.488484  0.749627  0.499965  1
  Br  Br21  1  0.488484  0.750373  0.999965  1
  Br  Br22  1  0.988484  0.249627  0.000035  1
  Br  Br23  1  0.988484  0.250373  0.500035  1
  O  O24  1  0.744114  0.507841  0.609739  1
  O  O25  1  0.391384  0.182037  0.686247  1
  O  O26  1  0.236547  0.002430  0.608281  1
  O  O27  1  0.234653  0.452435  0.764671  1
  O  O28  1  0.733068  0.007769  0.609905  1
  O  O29  1  0.085803  0.680415  0.686348  1
  O  O30  1  0.244114  0.492159  0.390261  1
  O  O31  1  0.236547  0.497570  0.108281  1
  O  O32  1  0.585803  0.180415  0.813652  1
  O  O33  1  0.240255  0.501997  0.608054  1
  O  O34  1  0.239011  0.953379  0.764157  1
  O  O35  1  0.739011  0.453379  0.735843  1
  O  O36  1  0.734653  0.952435  0.735329  1
  O  O37  1  0.233068  0.507769  0.890095  1
  O  O38  1  0.234653  0.047565  0.264671  1
  O  O39  1  0.240255  -0.001997  0.108054  1
  O  O40  1  0.736547  0.997570  0.391719  1
  O  O41  1  0.733068  0.492231  0.109905  1
  O  O42  1  0.739011  0.046621  0.235843  1
  O  O43  1  0.891384  0.817963  0.313753  1
  O  O44  1  0.891384  0.682037  0.813753  1
  O  O45  1  0.585803  0.319585  0.313652  1
  O  O46  1  0.736547  0.502430  0.891719  1
  O  O47  1  0.085803  0.819585  0.186348  1
  O  O48  1  0.744114  0.992159  0.109739  1
  O  O49  1  0.391384  0.317963  0.186247  1
  O  O50  1  0.734653  0.547565  0.235329  1
  O  O51  1  0.244114  0.007841  0.890261  1
  O  O52  1  0.740255  0.498003  0.391946  1
  O  O53  1  0.233068  0.992231  0.390095  1
  O  O54  1  0.740255  1.001997  0.891946  1
  O  O55  1  0.239011  0.546621  0.264157  1
