# generated using pymatgen
data_SnH21C7S4N(O3F)2
_symmetry_space_group_name_H-M   'P 1'
_cell_length_a   7.82323883
_cell_length_b   10.25610742
_cell_length_c   13.98037209
_cell_angle_alpha   96.97768329
_cell_angle_beta   102.62025613
_cell_angle_gamma   108.86062750
_symmetry_Int_Tables_number   1
_chemical_formula_structural   SnH21C7S4N(O3F)2
_chemical_formula_sum   'Sn2 H42 C14 S8 N2 O12 F4'
_cell_volume   1013.19032495
_cell_formula_units_Z   2
loop_
 _symmetry_equiv_pos_site_id
 _symmetry_equiv_pos_as_xyz
  1  'x, y, z'
loop_
 _atom_site_type_symbol
 _atom_site_label
 _atom_site_symmetry_multiplicity
 _atom_site_fract_x
 _atom_site_fract_y
 _atom_site_fract_z
 _atom_site_occupancy
  Sn  Sn0  1  0.623123  0.253909  0.783198  1
  Sn  Sn1  1  0.376877  0.746091  0.216802  1
  H  H2  1  0.761357  0.648236  0.010125  1
  H  H3  1  0.836105  0.375894  0.506957  1
  H  H4  1  0.257074  0.228317  0.726891  1
  H  H5  1  0.355113  0.250955  0.622404  1
  H  H6  1  0.558000  0.453594  0.115644  1
  H  H7  1  0.238643  0.351764  0.989875  1
  H  H8  1  0.836803  0.810817  0.966707  1
  H  H9  1  0.993054  0.554006  0.371744  1
  H  H10  1  0.708868  0.353901  0.147986  1
  H  H11  1  0.282613  0.978704  0.215668  1
  H  H12  1  0.163197  0.189183  0.033293  1
  H  H13  1  0.998668  0.397068  0.814707  1
  H  H14  1  0.328967  0.876106  0.571334  1
  H  H15  1  0.742926  0.771683  0.273109  1
  H  H16  1  0.516056  0.696742  0.826959  1
  H  H17  1  0.522555  0.026934  0.214563  1
  H  H18  1  0.939918  0.648222  0.471591  1
  H  H19  1  0.881239  0.081645  0.451280  1
  H  H20  1  0.442000  0.546406  0.884356  1
  H  H21  1  0.118761  0.918355  0.548720  1
  H  H22  1  0.291132  0.646099  0.852014  1
  H  H23  1  0.644887  0.749045  0.377596  1
  H  H24  1  0.681980  0.977928  0.488417  1
  H  H25  1  0.339135  0.935902  0.101490  1
  H  H26  1  0.483944  0.303258  0.173041  1
  H  H27  1  0.001332  0.602932  0.185293  1
  H  H28  1  0.717387  0.021296  0.784332  1
  H  H29  1  0.150810  0.183188  0.903054  1
  H  H30  1  0.597185  0.600212  0.281779  1
  H  H31  1  0.006946  0.445994  0.628256  1
  H  H32  1  0.926155  0.450040  0.921016  1
  H  H33  1  0.318020  0.022072  0.511583  1
  H  H34  1  0.660865  0.064098  0.898510  1
  H  H35  1  0.878548  0.519000  0.810681  1
  H  H36  1  0.060082  0.351778  0.528409  1
  H  H37  1  0.849190  0.816812  0.096946  1
  H  H38  1  0.477445  0.973066  0.785437  1
  H  H39  1  0.163895  0.624106  0.493043  1
  H  H40  1  0.402815  0.399788  0.718221  1
  H  H41  1  0.073845  0.549960  0.078984  1
  H  H42  1  0.121452  0.481000  0.189319  1
  H  H43  1  0.671033  0.123894  0.428666  1
  C  C44  1  0.378758  0.286944  0.702843  1
  C  C45  1  0.435956  0.650570  0.877772  1
  C  C46  1  0.760541  0.083031  0.478827  1
  C  C47  1  0.110763  0.573926  0.161032  1
  C  C48  1  0.229286  0.241610  0.979653  1
  C  C49  1  0.889237  0.426074  0.838968  1
  C  C50  1  0.618306  0.053643  0.816936  1
  C  C51  1  0.621242  0.713056  0.297157  1
  C  C52  1  0.770714  0.758390  0.020347  1
  C  C53  1  0.051761  0.639495  0.438406  1
  C  C54  1  0.564044  0.349430  0.122228  1
  C  C55  1  0.948239  0.360505  0.561594  1
  C  C56  1  0.239459  0.916969  0.521173  1
  C  C57  1  0.381694  0.946357  0.183064  1
  S  S58  1  0.462001  0.236588  0.000349  1
  S  S59  1  0.537999  0.763412  0.999651  1
  S  S60  1  0.320004  0.288436  0.363027  1
  S  S61  1  0.972256  0.182759  0.221960  1
  S  S62  1  0.679996  0.711564  0.636973  1
  S  S63  1  0.849777  0.197923  0.599998  1
  S  S64  1  0.027744  0.817241  0.778040  1
  S  S65  1  0.150223  0.802077  0.400002  1
  N  N66  1  0.805130  0.761866  0.750766  1
  N  N67  1  0.194870  0.238134  0.249234  1
  O  O68  1  0.328155  0.796170  0.372044  1
  O  O69  1  0.100459  0.846018  0.885207  1
  O  O70  1  0.241964  0.211563  0.432610  1
  O  O71  1  0.899541  0.153982  0.114793  1
  O  O72  1  0.511929  0.315040  0.363599  1
  O  O73  1  0.671845  0.203830  0.627956  1
  O  O74  1  0.488071  0.684960  0.636401  1
  O  O75  1  0.891966  0.254133  0.284323  1
  O  O76  1  0.447299  0.673435  0.068799  1
  O  O77  1  0.108034  0.745867  0.715677  1
  O  O78  1  0.758036  0.788437  0.567390  1
  O  O79  1  0.552701  0.326565  0.931201  1
  F  F80  1  0.687038  0.555832  0.605128  1
  F  F81  1  0.918197  0.024862  0.248428  1
  F  F82  1  0.081803  0.975138  0.751572  1
  F  F83  1  0.312962  0.444168  0.394872  1
