# generated using pymatgen
data_SnO
_symmetry_space_group_name_H-M   'P 1'
_cell_length_a   4.28589677
_cell_length_b   3.35432575
_cell_length_c   5.72217255
_cell_angle_alpha   90.00000000
_cell_angle_beta   90.00735932
_cell_angle_gamma   90.00000000
_symmetry_Int_Tables_number   1
_chemical_formula_structural   SnO
_chemical_formula_sum   'Sn2 O2'
_cell_volume   82.26363364
_cell_formula_units_Z   2
loop_
 _symmetry_equiv_pos_site_id
 _symmetry_equiv_pos_as_xyz
  1  'x, y, z'
loop_
 _atom_site_type_symbol
 _atom_site_label
 _atom_site_symmetry_multiplicity
 _atom_site_fract_x
 _atom_site_fract_y
 _atom_site_fract_z
 _atom_site_occupancy
  Sn  Sn0  1  0.489195  0.000000  0.271352  1
  O  O1  1  0.260785  0.000000  0.605323  1
  O  O2  1  0.760743  0.500000  0.394673  1
  Sn  Sn3  1  0.989277  0.500000  0.728652  1
