# generated using pymatgen
data_Ti20(Sb3Se)3
_symmetry_space_group_name_H-M   'P 1'
_cell_length_a   6.98629609
_cell_length_b   16.67436809
_cell_length_c   10.06530350
_cell_angle_alpha   90.00000000
_cell_angle_beta   90.00000000
_cell_angle_gamma   90.00000000
_symmetry_Int_Tables_number   1
_chemical_formula_structural   Ti20(Sb3Se)3
_chemical_formula_sum   'Ti40 Sb18 Se6'
_cell_volume   1172.52806597
_cell_formula_units_Z   2
loop_
 _symmetry_equiv_pos_site_id
 _symmetry_equiv_pos_as_xyz
  1  'x, y, z'
loop_
 _atom_site_type_symbol
 _atom_site_label
 _atom_site_symmetry_multiplicity
 _atom_site_fract_x
 _atom_site_fract_y
 _atom_site_fract_z
 _atom_site_occupancy
  Ti  Ti0  1  0.028199  0.376357  0.494518  1
  Ti  Ti1  1  0.028199  0.873643  0.494518  1
  Ti  Ti2  1  0.159292  0.125000  0.790108  1
  Ti  Ti3  1  0.174940  0.625000  0.779551  1
  Ti  Ti4  1  0.181651  0.376024  0.773287  1
  Ti  Ti5  1  0.181651  0.873976  0.773287  1
  Ti  Ti6  1  0.188551  0.028043  0.051764  1
  Ti  Ti7  1  0.188551  0.221957  0.051764  1
  Ti  Ti8  1  0.197465  0.520265  0.050118  1
  Ti  Ti9  1  0.197465  0.729735  0.050118  1
  Ti  Ti10  1  0.302535  0.229735  0.550118  1
  Ti  Ti11  1  0.311449  0.721957  0.551764  1
  Ti  Ti12  1  0.302535  0.020265  0.550118  1
  Ti  Ti13  1  0.311449  0.528043  0.551764  1
  Ti  Ti14  1  0.318349  0.373976  0.273287  1
  Ti  Ti15  1  0.318349  0.876024  0.273287  1
  Ti  Ti16  1  0.325060  0.125000  0.279550  1
  Ti  Ti17  1  0.340708  0.625000  0.290108  1
  Ti  Ti18  1  0.471801  0.373643  0.994518  1
  Ti  Ti19  1  0.471801  0.876357  0.994518  1
  Ti  Ti20  1  0.527756  0.125000  0.004749  1
  Ti  Ti21  1  0.513262  0.625000  0.010564  1
  Ti  Ti22  1  0.659131  0.376860  0.708426  1
  Ti  Ti23  1  0.659131  0.873140  0.708426  1
  Ti  Ti24  1  0.699670  0.125000  0.743178  1
  Ti  Ti25  1  0.680522  0.625000  0.725285  1
  Ti  Ti26  1  0.691412  0.473453  0.450147  1
  Ti  Ti27  1  0.690703  0.965718  0.448446  1
  Ti  Ti28  1  0.690703  0.284282  0.448446  1
  Ti  Ti29  1  0.691412  0.776547  0.450147  1
  Ti  Ti30  1  0.808588  0.276547  0.950147  1
  Ti  Ti31  1  0.809297  0.465718  0.948446  1
  Ti  Ti32  1  0.809297  0.784282  0.948446  1
  Ti  Ti33  1  0.808588  0.973453  0.950147  1
  Ti  Ti34  1  0.819478  0.125000  0.225285  1
  Ti  Ti35  1  0.800330  0.625000  0.243178  1
  Ti  Ti36  1  0.840869  0.373140  0.208426  1
  Ti  Ti37  1  0.840869  0.876860  0.208426  1
  Ti  Ti38  1  0.986738  0.125000  0.510564  1
  Ti  Ti39  1  0.972244  0.625000  0.504749  1
  Sb  Sb40  1  0.060728  0.004290  0.323010  1
  Sb  Sb41  1  0.060728  0.245710  0.323010  1
  Sb  Sb42  1  0.064505  0.505215  0.320020  1
  Sb  Sb43  1  0.064505  0.744785  0.320020  1
  Sb  Sb44  1  0.435495  0.244785  0.820020  1
  Sb  Sb45  1  0.439272  0.745710  0.823010  1
  Sb  Sb46  1  0.435495  0.005215  0.820020  1
  Sb  Sb47  1  0.439272  0.504290  0.823010  1
  Sb  Sb48  1  0.565122  0.492949  0.178578  1
  Sb  Sb49  1  0.563046  0.995723  0.177930  1
  Sb  Sb50  1  0.563046  0.254277  0.177930  1
  Sb  Sb51  1  0.565122  0.757051  0.178578  1
  Sb  Sb52  1  0.589963  0.125000  0.477035  1
  Sb  Sb53  1  0.910037  0.625000  0.977035  1
  Sb  Sb54  1  0.934878  0.257051  0.678578  1
  Sb  Sb55  1  0.936954  0.495723  0.677930  1
  Sb  Sb56  1  0.936954  0.754277  0.677930  1
  Sb  Sb57  1  0.934878  0.992949  0.678578  1
  Se  Se58  1  0.088075  0.372012  0.021188  1
  Se  Se59  1  0.088075  0.877988  0.021188  1
  Se  Se60  1  0.411925  0.377988  0.521188  1
  Se  Se61  1  0.411925  0.872012  0.521188  1
  Se  Se62  1  0.587825  0.625000  0.474666  1
  Se  Se63  1  0.912175  0.125000  0.974666  1
