# generated using pymatgen
data_CuClF10
_symmetry_space_group_name_H-M   'P 1'
_cell_length_a   5.38004812
_cell_length_b   7.56303266
_cell_length_c   9.34586386
_cell_angle_alpha   90.00000000
_cell_angle_beta   90.00000000
_cell_angle_gamma   101.33069022
_symmetry_Int_Tables_number   1
_chemical_formula_structural   CuClF10
_chemical_formula_sum   'Cu2 Cl2 F20'
_cell_volume   372.86654548
_cell_formula_units_Z   2
loop_
 _symmetry_equiv_pos_site_id
 _symmetry_equiv_pos_as_xyz
  1  'x, y, z'
loop_
 _atom_site_type_symbol
 _atom_site_label
 _atom_site_symmetry_multiplicity
 _atom_site_fract_x
 _atom_site_fract_y
 _atom_site_fract_z
 _atom_site_occupancy
  Cu  Cu0  1  0.500000  0.000000  0.500000  1
  Cu  Cu1  1  0.000000  0.000000  0.000000  1
  Cl  Cl2  1  0.500000  0.500000  0.000000  1
  Cl  Cl3  1  0.000000  0.500000  0.500000  1
  F  F4  1  0.239642  0.455711  0.604058  1
  F  F5  1  0.718776  0.924411  0.386072  1
  F  F6  1  0.598504  0.382094  0.135764  1
  F  F7  1  0.305708  0.305558  0.938528  1
  F  F8  1  0.260358  0.544289  0.104058  1
  F  F9  1  0.098504  0.382094  0.364236  1
  F  F10  1  0.694292  0.694442  0.061472  1
  F  F11  1  0.194292  0.694442  0.438528  1
  F  F12  1  0.805708  0.305558  0.561472  1
  F  F13  1  0.218776  0.924411  0.113928  1
  F  F14  1  0.901496  0.617906  0.635764  1
  F  F15  1  0.615854  0.892668  0.645417  1
  F  F16  1  0.781224  0.075590  0.886072  1
  F  F17  1  0.115854  0.892668  0.854583  1
  F  F18  1  0.884146  0.107332  0.145417  1
  F  F19  1  0.281224  0.075590  0.613928  1
  F  F20  1  0.401496  0.617906  0.864236  1
  F  F21  1  0.739642  0.455711  0.895942  1
  F  F22  1  0.384146  0.107332  0.354583  1
  F  F23  1  0.760358  0.544289  0.395942  1
