# generated using pymatgen
data_K2Mo(I2O7)2
_symmetry_space_group_name_H-M   'P 1'
_cell_length_a   6.33904350
_cell_length_b   7.29486039
_cell_length_c   17.81875240
_cell_angle_alpha   100.63761553
_cell_angle_beta   90.00000000
_cell_angle_gamma   115.75265750
_symmetry_Int_Tables_number   1
_chemical_formula_structural   K2Mo(I2O7)2
_chemical_formula_sum   'K4 Mo2 I8 O28'
_cell_volume   726.38868081
_cell_formula_units_Z   2
loop_
 _symmetry_equiv_pos_site_id
 _symmetry_equiv_pos_as_xyz
  1  'x, y, z'
loop_
 _atom_site_type_symbol
 _atom_site_label
 _atom_site_symmetry_multiplicity
 _atom_site_fract_x
 _atom_site_fract_y
 _atom_site_fract_z
 _atom_site_occupancy
  K  K0  1  0.183014  0.362170  0.461540  1
  K  K1  1  0.820844  0.637830  0.038460  1
  K  K2  1  0.816986  0.637830  0.538460  1
  K  K3  1  0.179156  0.362170  0.961540  1
  Mo  Mo4  1  0.109839  1.000000  0.750000  1
  Mo  Mo5  1  0.890161  0.000000  0.250000  1
  I  I6  1  0.452430  0.071715  0.590391  1
  I  I7  1  0.380715  0.928285  0.909609  1
  I  I8  1  0.547570  0.928285  0.409609  1
  I  I9  1  0.619285  0.071715  0.090391  1
  I  I10  1  0.695709  0.422756  0.320334  1
  I  I11  1  0.272954  0.577244  0.179666  1
  I  I12  1  0.304291  0.577244  0.679666  1
  I  I13  1  0.727046  0.422756  0.820334  1
  O  O14  1  0.159413  0.960864  0.639509  1
  O  O15  1  0.198551  0.039136  0.860491  1
  O  O16  1  0.840587  0.039136  0.360491  1
  O  O17  1  0.801449  0.960864  0.139509  1
  O  O18  1  0.272542  0.897378  0.500013  1
  O  O19  1  0.375164  0.102622  -0.000013  1
  O  O20  1  0.727458  0.102622  0.499987  1
  O  O21  1  0.624836  0.897378  1.000013  1
  O  O22  1  0.436564  0.308816  0.580008  1
  O  O23  1  0.127747  0.691184  0.919992  1
  O  O24  1  0.563436  0.691184  0.419992  1
  O  O25  1  0.872253  0.308816  0.080008  1
  O  O26  1  0.719151  0.217039  0.245337  1
  O  O27  1  0.502112  0.782961  0.254663  1
  O  O28  1  0.280849  0.782961  0.754663  1
  O  O29  1  0.497888  0.217039  0.745337  1
  O  O30  1  0.536157  0.269997  0.390408  1
  O  O31  1  0.266160  0.730003  0.109592  1
  O  O32  1  0.463843  0.730003  0.609592  1
  O  O33  1  0.733840  0.269997  0.890408  1
  O  O34  1  0.988325  0.549249  0.369046  1
  O  O35  1  0.439076  0.450751  0.130954  1
  O  O36  1  0.011675  0.450751  0.630954  1
  O  O37  1  0.560924  0.549249  0.869046  1
  O  O38  1  0.832929  0.786806  0.739555  1
  O  O39  1  0.046123  0.213194  0.760445  1
  O  O40  1  0.167071  0.213194  0.260445  1
  O  O41  1  0.953877  0.786806  0.239555  1
