# generated using pymatgen
data_CsGaS3
_symmetry_space_group_name_H-M   'P 1'
_cell_length_a   6.54818197
_cell_length_b   7.74615156
_cell_length_c   12.73744093
_cell_angle_alpha   90.00000000
_cell_angle_beta   90.00000000
_cell_angle_gamma   107.59456160
_symmetry_Int_Tables_number   1
_chemical_formula_structural   CsGaS3
_chemical_formula_sum   'Cs4 Ga4 S12'
_cell_volume   615.85967564
_cell_formula_units_Z   4
loop_
 _symmetry_equiv_pos_site_id
 _symmetry_equiv_pos_as_xyz
  1  'x, y, z'
loop_
 _atom_site_type_symbol
 _atom_site_label
 _atom_site_symmetry_multiplicity
 _atom_site_fract_x
 _atom_site_fract_y
 _atom_site_fract_z
 _atom_site_occupancy
  Cs  Cs0  1  0.280933  0.252773  0.917060  1
  Cs  Cs1  1  0.780933  0.252773  0.582940  1
  Cs  Cs2  1  0.219067  0.747227  0.417060  1
  Cs  Cs3  1  0.719067  0.747227  0.082940  1
  Ga  Ga4  1  0.356573  0.809638  0.770792  1
  Ga  Ga5  1  0.143428  0.190362  0.270792  1
  Ga  Ga6  1  0.856572  0.809638  0.729208  1
  Ga  Ga7  1  0.643428  0.190362  0.229208  1
  S  S8  1  0.812008  0.020239  0.323755  1
  S  S9  1  0.312008  0.020239  0.176245  1
  S  S10  1  0.369350  0.560014  0.672385  1
  S  S11  1  0.644395  0.692140  0.585550  1
  S  S12  1  0.355605  0.307860  0.414450  1
  S  S13  1  0.144395  0.692140  0.914450  1
  S  S14  1  0.869350  0.560014  0.827615  1
  S  S15  1  0.130650  0.439986  0.172385  1
  S  S16  1  0.687992  0.979761  0.823755  1
  S  S17  1  0.187992  0.979761  0.676245  1
  S  S18  1  0.630650  0.439986  0.327615  1
  S  S19  1  0.855605  0.307860  0.085550  1
