# generated using pymatgen
data_Mn2H30C9N3Cl7
_symmetry_space_group_name_H-M   'P 1'
_cell_length_a   14.65218178
_cell_length_b   14.65218215
_cell_length_c   6.43755501
_cell_angle_alpha   90.00000000
_cell_angle_beta   90.00000000
_cell_angle_gamma   119.99999916
_symmetry_Int_Tables_number   1
_chemical_formula_structural   Mn2H30C9N3Cl7
_chemical_formula_sum   'Mn4 H60 C18 N6 Cl14'
_cell_volume   1196.89539370
_cell_formula_units_Z   2
loop_
 _symmetry_equiv_pos_site_id
 _symmetry_equiv_pos_as_xyz
  1  'x, y, z'
loop_
 _atom_site_type_symbol
 _atom_site_label
 _atom_site_symmetry_multiplicity
 _atom_site_fract_x
 _atom_site_fract_y
 _atom_site_fract_z
 _atom_site_occupancy
  Mn  Mn0  1  0.666667  0.333333  0.643033  1
  Mn  Mn1  1  0.000000  0.000000  0.502594  1
  Mn  Mn2  1  0.333333  0.666667  0.143033  1
  Mn  Mn3  1  0.000000  0.000000  0.002594  1
  H  H4  1  0.755612  0.679046  0.993300  1
  H  H5  1  0.144224  0.686105  0.419103  1
  H  H6  1  0.320954  0.076566  0.993300  1
  H  H7  1  0.582718  0.935066  0.649199  1
  H  H8  1  0.686105  0.541881  0.919103  1
  H  H9  1  0.320954  0.244388  0.993300  1
  H  H10  1  0.935066  0.352348  0.149199  1
  H  H11  1  0.369575  0.123907  0.455636  1
  H  H12  1  0.245668  0.876093  0.955636  1
  H  H13  1  0.417282  0.064934  0.149199  1
  H  H14  1  0.268390  0.134195  0.315575  1
  H  H15  1  0.731610  0.865805  0.815575  1
  H  H16  1  0.502136  0.751068  0.721900  1
  H  H17  1  0.352348  0.417282  0.649199  1
  H  H18  1  0.755612  0.076566  0.993300  1
  H  H19  1  0.865805  0.134195  0.315575  1
  H  H20  1  0.935066  0.582718  0.149199  1
  H  H21  1  0.865805  0.731610  0.315575  1
  H  H22  1  0.064934  0.417282  0.649199  1
  H  H23  1  0.369575  0.245668  0.455636  1
  H  H24  1  0.123907  0.754332  0.955636  1
  H  H25  1  0.134195  0.865805  0.815575  1
  H  H26  1  0.876093  0.630425  0.455636  1
  H  H27  1  0.458119  0.313895  0.919103  1
  H  H28  1  0.754332  0.123907  0.455636  1
  H  H29  1  0.144224  0.458119  0.419103  1
  H  H30  1  0.076566  0.320954  0.493300  1
  H  H31  1  0.679046  0.755612  0.493300  1
  H  H32  1  0.647652  0.064934  0.149199  1
  H  H33  1  0.541881  0.686105  0.419103  1
  H  H34  1  0.313895  0.855776  0.419103  1
  H  H35  1  0.248932  0.497864  0.721900  1
  H  H36  1  0.352348  0.935066  0.649199  1
  H  H37  1  0.751068  0.502136  0.221900  1
  H  H38  1  0.582718  0.647652  0.649199  1
  H  H39  1  0.076566  0.755612  0.493300  1
  H  H40  1  0.244388  0.923434  0.493300  1
  H  H41  1  0.679046  0.923434  0.493300  1
  H  H42  1  0.541881  0.855776  0.419103  1
  H  H43  1  0.313895  0.458119  0.419103  1
  H  H44  1  0.244388  0.320954  0.493300  1
  H  H45  1  0.417282  0.352348  0.149199  1
  H  H46  1  0.248932  0.751068  0.721900  1
  H  H47  1  0.923434  0.679046  0.993300  1
  H  H48  1  0.855776  0.313895  0.919103  1
  H  H49  1  0.497864  0.248932  0.221900  1
  H  H50  1  0.123907  0.369575  0.955636  1
  H  H51  1  0.458119  0.144224  0.919103  1
  H  H52  1  0.686105  0.144224  0.919103  1
  H  H53  1  0.134195  0.268390  0.815575  1
  H  H54  1  0.630425  0.754332  0.955636  1
  H  H55  1  0.245668  0.369575  0.955636  1
  H  H56  1  0.923434  0.244388  0.993300  1
  H  H57  1  0.754332  0.630425  0.455636  1
  H  H58  1  0.876093  0.245668  0.455636  1
  H  H59  1  0.630425  0.876093  0.955636  1
  H  H60  1  0.855776  0.541881  0.919103  1
  H  H61  1  0.064934  0.647652  0.649199  1
  H  H62  1  0.647652  0.582718  0.149199  1
  H  H63  1  0.751068  0.248932  0.221900  1
  C  C64  1  0.351104  0.175552  0.364418  1
  C  C65  1  0.285770  0.883216  0.549396  1
  C  C66  1  0.175552  0.824448  0.864418  1
  C  C67  1  0.285770  0.402554  0.549396  1
  C  C68  1  0.824448  0.648896  0.364418  1
  C  C69  1  0.714230  0.116784  0.049396  1
  C  C70  1  0.883216  0.597446  0.049396  1
  C  C71  1  0.714230  0.597446  0.049396  1
  C  C72  1  0.597446  0.714230  0.549396  1
  C  C73  1  0.402554  0.116784  0.049396  1
  C  C74  1  0.175552  0.351104  0.864418  1
  C  C75  1  0.116784  0.402554  0.549396  1
  C  C76  1  0.597446  0.883216  0.549396  1
  C  C77  1  0.824448  0.175552  0.364418  1
  C  C78  1  0.116784  0.714230  0.549396  1
  C  C79  1  0.402554  0.285770  0.049396  1
  C  C80  1  0.883216  0.285770  0.049396  1
  C  C81  1  0.648896  0.824448  0.864418  1
  N  N82  1  0.580465  0.790233  0.675281  1
  N  N83  1  0.419535  0.209767  0.175281  1
  N  N84  1  0.790233  0.209767  0.175281  1
  N  N85  1  0.209767  0.419535  0.675281  1
  N  N86  1  0.790233  0.580465  0.175281  1
  N  N87  1  0.209767  0.790233  0.675281  1
  Cl  Cl88  1  0.078438  0.156876  0.253666  1
  Cl  Cl89  1  0.333333  0.666667  0.515068  1
  Cl  Cl90  1  0.921562  0.078438  0.753666  1
  Cl  Cl91  1  0.921562  0.843124  0.753666  1
  Cl  Cl92  1  0.842978  0.421489  0.530090  1
  Cl  Cl93  1  0.157022  0.578511  0.030090  1
  Cl  Cl94  1  0.421489  0.578511  0.030090  1
  Cl  Cl95  1  0.156876  0.078438  0.753666  1
  Cl  Cl96  1  0.578511  0.421489  0.530090  1
  Cl  Cl97  1  0.421489  0.842978  0.030090  1
  Cl  Cl98  1  0.666667  0.333333  0.015068  1
  Cl  Cl99  1  0.078438  0.921562  0.253666  1
  Cl  Cl100  1  0.843124  0.921562  0.253666  1
  Cl  Cl101  1  0.578511  0.157022  0.530090  1
