# generated using pymatgen
data_V3SiNi2
_symmetry_space_group_name_H-M   'P 1'
_cell_length_a   7.51555321
_cell_length_b   7.51555310
_cell_length_c   7.51555279
_cell_angle_alpha   59.99999720
_cell_angle_beta   59.99999768
_cell_angle_gamma   60.00000036
_symmetry_Int_Tables_number   1
_chemical_formula_structural   V3SiNi2
_chemical_formula_sum   'V12 Si4 Ni8'
_cell_volume   300.17036828
_cell_formula_units_Z   4
loop_
 _symmetry_equiv_pos_site_id
 _symmetry_equiv_pos_as_xyz
  1  'x, y, z'
loop_
 _atom_site_type_symbol
 _atom_site_label
 _atom_site_symmetry_multiplicity
 _atom_site_fract_x
 _atom_site_fract_y
 _atom_site_fract_z
 _atom_site_occupancy
  Si  Si0  1  0.500000  0.500000  0.500000  1
  Si  Si1  1  0.500000  0.500000  0.000000  1
  Si  Si2  1  0.000000  0.500000  0.500000  1
  Si  Si3  1  0.500000  0.000000  0.500000  1
  Ni  Ni4  1  0.711619  0.711619  0.711619  1
  Ni  Ni5  1  0.288381  0.288381  0.634856  1
  Ni  Ni6  1  0.634856  0.288381  0.288381  1
  Ni  Ni7  1  0.288381  0.634856  0.288381  1
  Ni  Ni8  1  0.365144  0.711619  0.711619  1
  Ni  Ni9  1  0.711619  0.365144  0.711619  1
  Ni  Ni10  1  0.711619  0.711619  0.365144  1
  Ni  Ni11  1  0.288381  0.288381  0.288381  1
  V  V12  1  0.676509  0.073491  0.073491  1
  V  V13  1  0.926509  0.926509  0.323491  1
  V  V14  1  0.323491  0.323491  0.926509  1
  V  V15  1  0.926509  0.323491  0.323491  1
  V  V16  1  0.926509  0.323491  0.926509  1
  V  V17  1  0.323491  0.926509  0.323491  1
  V  V18  1  0.073491  0.676509  0.073491  1
  V  V19  1  0.073491  0.073491  0.676509  1
  V  V20  1  0.676509  0.676509  0.073491  1
  V  V21  1  0.676509  0.073491  0.676509  1
  V  V22  1  0.323491  0.926509  0.926509  1
  V  V23  1  0.073491  0.676509  0.676509  1
