# generated using pymatgen
data_Nd2As6Xe5F46
_symmetry_space_group_name_H-M   'P 1'
_cell_length_a   5.98496245
_cell_length_b   10.36895023
_cell_length_c   18.02198225
_cell_angle_alpha   103.45020058
_cell_angle_beta   99.55595904
_cell_angle_gamma   90.00810838
_symmetry_Int_Tables_number   1
_chemical_formula_structural   Nd2As6Xe5F46
_chemical_formula_sum   'Nd2 As6 Xe5 F46'
_cell_volume   1071.75957111
_cell_formula_units_Z   1
loop_
 _symmetry_equiv_pos_site_id
 _symmetry_equiv_pos_as_xyz
  1  'x, y, z'
loop_
 _atom_site_type_symbol
 _atom_site_label
 _atom_site_symmetry_multiplicity
 _atom_site_fract_x
 _atom_site_fract_y
 _atom_site_fract_z
 _atom_site_occupancy
  Nd  Nd0  1  0.383520  0.205715  0.767038  1
  Nd  Nd1  1  0.616480  0.794285  0.232962  1
  As  As2  1  0.822730  0.955859  0.645707  1
  As  As3  1  0.177270  0.044141  0.354293  1
  As  As4  1  0.868700  0.476854  0.737340  1
  As  As5  1  0.966706  0.180640  0.933434  1
  As  As6  1  0.033294  0.819360  0.066566  1
  As  As7  1  0.131300  0.523146  0.262660  1
  Xe  Xe8  1  0.588537  0.190701  0.177511  1
  Xe  Xe9  1  0.723195  0.633770  0.446063  1
  Xe  Xe10  1  0.276805  0.366230  0.553937  1
  Xe  Xe11  1  0.411463  0.809299  0.822489  1
  Xe  Xe12  1  0.500000  0.500000  0.000000  1
  F  F13  1  0.408351  0.157748  0.388182  1
  F  F14  1  0.868050  0.916012  0.736246  1
  F  F15  1  0.067353  0.567242  0.706297  1
  F  F16  1  0.214774  0.806933  0.998758  1
  F  F17  1  0.569399  0.358895  0.139181  1
  F  F18  1  0.783977  0.806914  0.998798  1
  F  F19  1  0.719450  0.168681  0.856415  1
  F  F20  1  0.639052  0.567218  0.706281  1
  F  F21  1  0.824154  0.359384  0.648170  1
  F  F22  1  0.632957  0.085275  0.684797  1
  F  F23  1  0.780383  0.012876  0.560932  1
  F  F24  1  0.219617  0.987124  0.439068  1
  F  F25  1  0.948414  0.914710  0.315203  1
  F  F26  1  0.043405  0.992381  0.086653  1
  F  F27  1  0.555412  0.622207  0.110727  1
  F  F28  1  0.028280  0.646538  0.056549  1
  F  F29  1  0.932647  0.432758  0.293703  1
  F  F30  1  0.233689  0.463490  0.467601  1
  F  F31  1  0.863096  0.831310  0.143595  1
  F  F32  1  0.914927  0.581638  0.829869  1
  F  F33  1  0.785226  0.193067  0.001242  1
  F  F34  1  0.956595  0.007619  0.913347  1
  F  F35  1  0.676697  0.734577  0.353293  1
  F  F36  1  0.766311  0.536510  0.532399  1
  F  F37  1  0.360948  0.432781  0.293719  1
  F  F38  1  0.610764  0.015102  0.221618  1
  F  F39  1  0.136904  0.168690  0.856405  1
  F  F40  1  0.051586  0.085290  0.684797  1
  F  F41  1  0.019833  0.842278  0.611794  1
  F  F42  1  0.323303  0.265423  0.646707  1
  F  F43  1  0.430601  0.641104  0.860819  1
  F  F44  1  0.444588  0.377793  0.889273  1
  F  F45  1  0.280550  0.831319  0.143585  1
  F  F46  1  0.175846  0.640616  0.351830  1
  F  F47  1  0.591649  0.842252  0.611818  1
  F  F48  1  0.095040  0.374180  0.771085  1
  F  F49  1  0.085073  0.418362  0.170131  1
  F  F50  1  0.980167  0.157722  0.388206  1
  F  F51  1  0.324046  0.625824  0.228944  1
  F  F52  1  0.904960  0.625820  0.228915  1
  F  F53  1  0.971720  0.353462  0.943451  1
  F  F54  1  0.216023  0.193086  0.001202  1
  F  F55  1  0.131950  0.083988  0.263754  1
  F  F56  1  0.389236  0.984898  0.778382  1
  F  F57  1  0.675954  0.374176  0.771056  1
  F  F58  1  0.367043  0.914725  0.315203  1
