# generated using pymatgen
data_CdI2
_symmetry_space_group_name_H-M   'P 1'
_cell_length_a   4.33779477
_cell_length_b   4.33779503
_cell_length_c   89.52674191
_cell_angle_alpha   90.00000000
_cell_angle_beta   90.00000000
_cell_angle_gamma   119.99999794
_symmetry_Int_Tables_number   1
_chemical_formula_structural   CdI2
_chemical_formula_sum   'Cd12 I24'
_cell_volume   1458.88630707
_cell_formula_units_Z   12
loop_
 _symmetry_equiv_pos_site_id
 _symmetry_equiv_pos_as_xyz
  1  'x, y, z'
loop_
 _atom_site_type_symbol
 _atom_site_label
 _atom_site_symmetry_multiplicity
 _atom_site_fract_x
 _atom_site_fract_y
 _atom_site_fract_z
 _atom_site_occupancy
  Cd  Cd0  1  0.666667  0.333333  0.020864  1
  Cd  Cd1  1  0.000000  0.000000  0.354176  1
  Cd  Cd2  1  0.000000  0.000000  0.437483  1
  Cd  Cd3  1  0.000000  0.000000  0.104152  1
  Cd  Cd4  1  0.000000  0.000000  0.520838  1
  Cd  Cd5  1  0.000000  0.000000  0.770817  1
  Cd  Cd6  1  0.000000  0.000000  0.854177  1
  Cd  Cd7  1  0.666667  0.333333  0.270822  1
  Cd  Cd8  1  0.000000  0.000000  0.937479  1
  Cd  Cd9  1  0.666667  0.333333  0.604162  1
  Cd  Cd10  1  0.000000  0.000000  0.687515  1
  Cd  Cd11  1  0.000000  0.000000  0.187508  1
  I  I12  1  0.666667  0.333333  0.834944  1
  I  I13  1  0.333333  0.666667  0.790052  1
  I  I14  1  0.666667  0.333333  0.334943  1
  I  I15  1  0.666667  0.333333  0.084913  1
  I  I16  1  0.333333  0.666667  0.456718  1
  I  I17  1  0.333333  0.666667  0.206751  1
  I  I18  1  0.333333  0.666667  0.956713  1
  I  I19  1  0.666667  0.333333  0.918238  1
  I  I20  1  0.666667  0.333333  0.751578  1
  I  I21  1  0.000000  0.000000  0.584926  1
  I  I22  1  0.333333  0.666667  0.540082  1
  I  I23  1  0.333333  0.666667  0.123387  1
  I  I24  1  0.333333  0.666667  0.040101  1
  I  I25  1  0.000000  0.000000  0.001633  1
  I  I26  1  0.333333  0.666667  0.290055  1
  I  I27  1  0.333333  0.666667  0.373414  1
  I  I28  1  0.333333  0.666667  0.623395  1
  I  I29  1  0.666667  0.333333  0.418243  1
  I  I30  1  0.333333  0.666667  0.706755  1
  I  I31  1  0.000000  0.000000  0.251586  1
  I  I32  1  0.666667  0.333333  0.668281  1
  I  I33  1  0.666667  0.333333  0.501609  1
  I  I34  1  0.666667  0.333333  0.168277  1
  I  I35  1  0.333333  0.666667  0.873415  1
