# generated using pymatgen
data_Bi2B8O15
_symmetry_space_group_name_H-M   'P 1'
_cell_length_a   4.37567873
_cell_length_b   6.54707094
_cell_length_c   22.65578588
_cell_angle_alpha   90.00000000
_cell_angle_beta   90.00000000
_cell_angle_gamma   104.39436720
_symmetry_Int_Tables_number   1
_chemical_formula_structural   Bi2B8O15
_chemical_formula_sum   'Bi4 B16 O30'
_cell_volume   628.66528714
_cell_formula_units_Z   2
loop_
 _symmetry_equiv_pos_site_id
 _symmetry_equiv_pos_as_xyz
  1  'x, y, z'
loop_
 _atom_site_type_symbol
 _atom_site_label
 _atom_site_symmetry_multiplicity
 _atom_site_fract_x
 _atom_site_fract_y
 _atom_site_fract_z
 _atom_site_occupancy
  Bi  Bi0  1  0.182608  0.337486  0.352605  1
  Bi  Bi1  1  0.817392  0.662514  0.852605  1
  Bi  Bi2  1  0.386610  0.099565  0.217832  1
  Bi  Bi3  1  0.613390  0.900435  0.717832  1
  B  B4  1  0.555671  0.429391  0.011732  1
  B  B5  1  0.444329  0.570608  0.511732  1
  B  B6  1  0.528792  0.779181  0.036632  1
  B  B7  1  0.471208  0.220820  0.536632  1
  B  B8  1  0.312819  0.491499  0.103194  1
  B  B9  1  0.687181  0.508501  0.603194  1
  B  B10  1  0.143611  0.517835  0.212216  1
  B  B11  1  0.856389  0.482165  0.712216  1
  B  B12  1  0.719909  0.733834  0.214031  1
  B  B13  1  0.280091  0.266166  0.714031  1
  B  B14  1  0.571789  0.085781  0.855989  1
  B  B15  1  0.428211  0.914219  0.355989  1
  B  B16  1  0.148680  0.300764  0.852762  1
  B  B17  1  0.851320  0.699236  0.352762  1
  B  B18  1  0.602944  0.087384  0.968012  1
  B  B19  1  0.397056  0.912616  0.468012  1
  O  O20  1  0.644384  0.644608  1.000485  1
  O  O21  1  0.355616  0.355392  0.500485  1
  O  O22  1  0.386638  0.353357  0.061671  1
  O  O23  1  0.613362  0.646643  0.561671  1
  O  O24  1  0.373417  0.705486  0.088628  1
  O  O25  1  0.626583  0.294514  0.588628  1
  O  O26  1  0.187030  0.410721  0.154916  1
  O  O27  1  0.812970  0.589279  0.654916  1
  O  O28  1  0.829658  0.556199  0.213582  1
  O  O29  1  0.170342  0.443801  0.713582  1
  O  O30  1  0.165290  0.356064  0.256633  1
  O  O31  1  0.834710  0.643936  0.756633  1
  O  O32  1  0.889718  0.939349  0.209630  1
  O  O33  1  0.110282  0.060651  0.709630  1
  O  O34  1  0.394385  0.715751  0.218967  1
  O  O35  1  0.605615  0.284249  0.718967  1
  O  O36  1  0.823682  0.283371  0.848165  1
  O  O37  1  0.176318  0.716629  0.348165  1
  O  O38  1  0.317562  0.506380  0.858290  1
  O  O39  1  0.682438  0.493620  0.358290  1
  O  O40  1  0.600905  0.920688  0.813700  1
  O  O41  1  0.399095  0.079312  0.313700  1
  O  O42  1  0.258780  0.124107  0.851240  1
  O  O43  1  0.741220  0.875893  0.351241  1
  O  O44  1  0.601955  0.988714  0.915574  1
  O  O45  1  0.398045  0.011286  0.415574  1
  O  O46  1  0.640413  0.304836  0.969833  1
  O  O47  1  0.359587  0.695164  0.469833  1
  O  O48  1  0.565638  0.984704  0.021861  1
  O  O49  1  0.434362  0.015296  0.521861  1
