# generated using pymatgen
data_Na4Al3Ge3B(HO3)4
_symmetry_space_group_name_H-M   'P 1'
_cell_length_a   9.13979708
_cell_length_b   9.13979708
_cell_length_c   9.13979708
_cell_angle_alpha   90.00000000
_cell_angle_beta   90.00000000
_cell_angle_gamma   90.00000000
_symmetry_Int_Tables_number   1
_chemical_formula_structural   Na4Al3Ge3B(HO3)4
_chemical_formula_sum   'Na8 Al6 Ge6 B2 H8 O24'
_cell_volume   763.50108956
_cell_formula_units_Z   2
loop_
 _symmetry_equiv_pos_site_id
 _symmetry_equiv_pos_as_xyz
  1  'x, y, z'
loop_
 _atom_site_type_symbol
 _atom_site_label
 _atom_site_symmetry_multiplicity
 _atom_site_fract_x
 _atom_site_fract_y
 _atom_site_fract_z
 _atom_site_occupancy
  Al  Al0  1  0.750000  0.000000  0.500000  1
  Al  Al1  1  0.000000  0.500000  0.750000  1
  Al  Al2  1  0.250000  0.000000  0.500000  1
  Al  Al3  1  0.500000  0.250000  0.000000  1
  Al  Al4  1  0.500000  0.750000  0.000000  1
  Al  Al5  1  0.000000  0.500000  0.250000  1
  B  B6  1  0.000000  0.000000  0.000000  1
  B  B7  1  0.500000  0.500000  0.500000  1
  Ge  Ge8  1  0.750000  0.500000  0.000000  1
  Ge  Ge9  1  0.000000  0.750000  0.500000  1
  Ge  Ge10  1  0.250000  0.500000  0.000000  1
  Ge  Ge11  1  0.500000  0.000000  0.250000  1
  Ge  Ge12  1  0.500000  0.000000  0.750000  1
  Ge  Ge13  1  0.000000  0.250000  0.500000  1
  H  H14  1  0.577699  0.577699  0.422301  1
  H  H15  1  0.577699  0.422301  0.577699  1
  H  H16  1  0.077699  0.077699  0.922301  1
  H  H17  1  0.077699  0.922301  0.077699  1
  H  H18  1  0.422301  0.577699  0.577699  1
  H  H19  1  0.422301  0.422301  0.422301  1
  H  H20  1  0.922301  0.922301  0.922301  1
  H  H21  1  0.922301  0.077699  0.077699  1
  Na  Na22  1  0.827306  0.827306  0.172694  1
  Na  Na23  1  0.827306  0.172694  0.827306  1
  Na  Na24  1  0.172694  0.827306  0.827306  1
  Na  Na25  1  0.172694  0.172694  0.172694  1
  Na  Na26  1  0.327306  0.327306  0.672694  1
  Na  Na27  1  0.327306  0.672694  0.327306  1
  Na  Na28  1  0.672694  0.327306  0.327306  1
  Na  Na29  1  0.672694  0.672694  0.672694  1
  O  O30  1  0.573631  0.856565  0.143776  1
  O  O31  1  0.573631  0.143435  0.856224  1
  O  O32  1  0.856224  0.573631  0.143435  1
  O  O33  1  0.856224  0.426369  0.856565  1
  O  O34  1  0.856565  0.143776  0.573631  1
  O  O35  1  0.856565  0.856224  0.426369  1
  O  O36  1  0.073631  0.356224  0.643435  1
  O  O37  1  0.073631  0.643776  0.356565  1
  O  O38  1  0.143435  0.856224  0.573631  1
  O  O39  1  0.143435  0.143776  0.426369  1
  O  O40  1  0.143776  0.573631  0.856565  1
  O  O41  1  0.143776  0.426369  0.143435  1
  O  O42  1  0.356224  0.356565  0.926369  1
  O  O43  1  0.356224  0.643435  0.073631  1
  O  O44  1  0.356565  0.073631  0.643776  1
  O  O45  1  0.356565  0.926369  0.356224  1
  O  O46  1  0.426369  0.856565  0.856224  1
  O  O47  1  0.426369  0.143435  0.143776  1
  O  O48  1  0.643435  0.073631  0.356224  1
  O  O49  1  0.643435  0.926369  0.643776  1
  O  O50  1  0.643776  0.356565  0.073631  1
  O  O51  1  0.643776  0.643435  0.926369  1
  O  O52  1  0.926369  0.356224  0.356565  1
  O  O53  1  0.926369  0.643776  0.643435  1
