# generated using pymatgen
data_Al22PbO34
_symmetry_space_group_name_H-M   'P 1'
_cell_length_a   11.89227646
_cell_length_b   47.63986089
_cell_length_c   23.13931493
_cell_angle_alpha   13.72959967
_cell_angle_beta   24.01383708
_cell_angle_gamma   27.45826464
_symmetry_Int_Tables_number   1
_chemical_formula_structural   Al22PbO34
_chemical_formula_sum   'Al44 Pb2 O68'
_cell_volume   1266.21006903
_cell_formula_units_Z   2
loop_
 _symmetry_equiv_pos_site_id
 _symmetry_equiv_pos_as_xyz
  1  'x, y, z'
loop_
 _atom_site_type_symbol
 _atom_site_label
 _atom_site_symmetry_multiplicity
 _atom_site_fract_x
 _atom_site_fract_y
 _atom_site_fract_z
 _atom_site_occupancy
  Al  Al0  1  0.000000  0.000000  0.000000  1
  Al  Al1  1  0.097088  0.124440  0.094783  1
  Al  Al2  1  0.590993  1.000042  0.096407  1
  Al  Al3  1  0.348642  0.000676  0.348799  1
  Al  Al4  1  0.450387  0.001203  0.447729  1
  Al  Al5  1  0.549613  0.998797  0.552271  1
  Al  Al6  1  0.098508  0.376192  0.095647  1
  Al  Al7  1  0.098508  0.123808  0.600415  1
  Al  Al8  1  0.596966  0.250000  0.096782  1
  Al  Al9  1  0.651358  0.999324  0.651201  1
  Al  Al10  1  0.350159  0.250000  0.351312  1
  Al  Al11  1  0.999129  0.250000  -0.000199  1
  Al  Al12  1  0.409007  -0.000042  0.903593  1
  Al  Al13  1  0.902645  0.123450  0.407167  1
  Al  Al14  1  0.461058  0.250000  0.445551  1
  Al  Al15  1  0.547499  0.250000  0.550175  1
  Al  Al16  1  0.097088  0.375560  0.592541  1
  Al  Al17  1  0.097355  0.623450  0.099034  1
  Al  Al18  1  0.590993  0.499958  0.096575  1
  Al  Al19  1  0.648814  0.250000  0.651392  1
  Al  Al20  1  0.348642  0.499324  0.351504  1
  Al  Al21  1  0.000000  0.500000  0.000000  1
  Al  Al22  1  0.409035  0.250000  0.901266  1
  Al  Al23  1  0.909261  0.373140  0.407609  1
  Al  Al24  1  0.909261  0.126860  0.900168  1
  Al  Al25  1  0.450387  0.498797  0.452543  1
  Al  Al26  1  0.549613  0.501203  0.547457  1
  Al  Al27  1  0.090739  0.873140  0.099832  1
  Al  Al28  1  0.090739  0.626860  0.592391  1
  Al  Al29  1  0.590965  0.750000  0.098734  1
  Al  Al30  1  0.651358  0.500676  0.648497  1
  Al  Al31  1  0.351186  0.750000  0.348608  1
  Al  Al32  1  0.000871  0.750000  1.000199  1
  Al  Al33  1  0.409007  0.500042  0.903425  1
  Al  Al34  1  0.902645  0.376550  0.900966  1
  Al  Al35  1  0.902912  0.624440  0.407459  1
  Al  Al36  1  0.452501  0.750000  0.449825  1
  Al  Al37  1  0.538942  0.750000  0.554449  1
  Al  Al38  1  0.097355  0.876550  0.592833  1
  Al  Al39  1  0.649841  0.750000  0.648688  1
  Al  Al40  1  0.403034  0.750000  0.903218  1
  Al  Al41  1  0.901492  0.623808  0.904353  1
  Al  Al42  1  0.901492  0.876192  0.399585  1
  Al  Al43  1  0.902912  0.875560  0.905217  1
  O  O44  1  0.093008  0.997990  0.098229  1
  O  O45  1  0.188055  0.132782  0.189357  1
  O  O46  1  0.717479  0.997623  0.195162  1
  O  O47  1  0.095680  0.250000  0.093584  1
  O  O48  1  0.596649  0.125116  0.094819  1
  O  O49  1  0.500000  0.000000  0.500000  1
  O  O50  1  0.391954  0.129385  0.398089  1
  O  O51  1  0.903315  0.999526  0.405802  1
  O  O52  1  0.297803  0.250000  0.296514  1
  O  O53  1  0.282521  0.002377  0.804838  1
  O  O54  1  0.804048  0.132484  0.283105  1
  O  O55  1  0.188183  0.382484  0.190919  1
  O  O56  1  0.188183  0.117516  0.720853  1
  O  O57  1  0.720937  0.250000  0.188781  1
  O  O58  1  0.703413  0.998634  0.706338  1
  O  O59  1  0.093008  0.502010  0.090191  1
  O  O60  1  0.101491  0.250000  0.596133  1
  O  O61  1  0.600443  0.124418  0.594553  1
  O  O62  1  0.600443  0.375582  0.092226  1
  O  O63  1  0.592151  0.250000  0.454563  1
  O  O64  1  0.402585  0.374726  0.404094  1
  O  O65  1  0.402585  0.125274  0.902998  1
  O  O66  1  0.914442  0.250000  0.398144  1
  O  O67  1  0.296587  0.498634  0.299128  1
  O  O68  1  0.279936  0.250000  0.810487  1
  O  O69  1  0.811757  0.380994  0.282837  1
  O  O70  1  0.811757  0.119006  0.806811  1
  O  O71  1  0.195952  0.632484  0.186958  1
  O  O72  1  0.188055  0.367218  0.720485  1
  O  O73  1  0.717479  0.502377  0.185652  1
  O  O74  1  0.706465  0.250000  0.702552  1
  O  O75  1  0.097687  0.750000  0.091971  1
  O  O76  1  0.096685  0.499526  0.596095  1
  O  O77  1  0.608046  0.629385  0.084369  1
  O  O78  1  0.596649  0.374884  0.595283  1
  O  O79  1  0.500000  0.500000  0.500000  1
  O  O80  1  0.391954  0.370615  0.915631  1
  O  O81  1  0.403351  0.625116  0.404717  1
  O  O82  1  0.903315  0.500474  0.403905  1
  O  O83  1  0.902312  0.250000  0.908029  1
  O  O84  1  0.293535  0.750000  0.297448  1
  O  O85  1  0.282521  0.497623  0.814348  1
  O  O86  1  0.804048  0.367516  0.813042  1
  O  O87  1  0.811945  0.632782  0.279515  1
  O  O88  1  0.188243  0.880994  0.193189  1
  O  O89  1  0.188243  0.619006  0.717163  1
  O  O90  1  0.720064  0.750000  0.189513  1
  O  O91  1  0.703413  0.501366  0.700872  1
  O  O92  1  0.085558  0.750000  0.601856  1
  O  O93  1  0.597415  0.625274  0.595906  1
  O  O94  1  0.597415  0.874726  0.097002  1
  O  O95  1  0.407849  0.750000  0.545437  1
  O  O96  1  0.399557  0.624418  0.907774  1
  O  O97  1  0.399557  0.875582  0.405447  1
  O  O98  1  0.898509  0.750000  0.403867  1
  O  O99  1  0.906992  0.497990  0.909809  1
  O  O100  1  0.296587  0.001366  0.293662  1
  O  O101  1  0.279063  0.750000  0.811219  1
  O  O102  1  0.811817  0.617516  0.809081  1
  O  O103  1  0.811817  0.882484  0.279147  1
  O  O104  1  0.195952  0.867516  0.716895  1
  O  O105  1  0.702197  0.750000  0.703486  1
  O  O106  1  0.096685  0.000474  0.594198  1
  O  O107  1  0.608046  0.870615  0.601911  1
  O  O108  1  0.403351  0.874884  0.905181  1
  O  O109  1  0.904320  0.750000  0.906416  1
  O  O110  1  0.811945  0.867218  0.810643  1
  O  O111  1  0.906992  0.002010  0.901771  1
  Pb  Pb112  1  0.125563  0.250000  0.202469  1
  Pb  Pb113  1  0.874437  0.750000  0.797531  1
