# generated using pymatgen
data_H10C3NClO4
_symmetry_space_group_name_H-M   'P 1'
_cell_length_a   5.64603664
_cell_length_b   7.75742895
_cell_length_c   8.84602758
_cell_angle_alpha   90.00000000
_cell_angle_beta   90.00000000
_cell_angle_gamma   104.30473622
_symmetry_Int_Tables_number   1
_chemical_formula_structural   H10C3NClO4
_chemical_formula_sum   'H20 C6 N2 Cl2 O8'
_cell_volume   375.43215223
_cell_formula_units_Z   2
loop_
 _symmetry_equiv_pos_site_id
 _symmetry_equiv_pos_as_xyz
  1  'x, y, z'
loop_
 _atom_site_type_symbol
 _atom_site_label
 _atom_site_symmetry_multiplicity
 _atom_site_fract_x
 _atom_site_fract_y
 _atom_site_fract_z
 _atom_site_occupancy
  H  H0  1  0.216993  0.857372  0.393855  1
  H  H1  1  0.948315  0.732069  0.488493  1
  H  H2  1  0.030902  0.975391  0.750000  1
  H  H3  1  0.771572  0.634082  0.250000  1
  H  H4  1  0.051685  0.267931  0.511507  1
  H  H5  1  0.293904  0.097953  0.648302  1
  H  H6  1  0.138356  0.618728  0.115946  1
  H  H7  1  0.138356  0.618728  0.384054  1
  H  H8  1  0.228428  0.365918  0.750000  1
  H  H9  1  0.706096  0.902047  0.351698  1
  H  H10  1  0.293904  0.097953  0.851698  1
  H  H11  1  0.051685  0.267931  0.988493  1
  H  H12  1  0.861644  0.381272  0.615946  1
  H  H13  1  0.969098  0.024609  0.250000  1
  H  H14  1  0.706096  0.902047  0.148302  1
  H  H15  1  0.948315  0.732069  0.011507  1
  H  H16  1  0.861644  0.381272  0.884054  1
  H  H17  1  0.216993  0.857372  0.106145  1
  H  H18  1  0.783007  0.142628  0.606145  1
  H  H19  1  0.783007  0.142628  0.893855  1
  C  C20  1  0.066445  0.737267  0.110397  1
  C  C21  1  0.933555  0.262733  0.610397  1
  C  C22  1  0.817549  0.905220  0.250000  1
  C  C23  1  0.066445  0.737267  0.389603  1
  C  C24  1  0.182451  0.094780  0.750000  1
  C  C25  1  0.933555  0.262733  0.889603  1
  N  N26  1  0.919946  0.744941  0.250000  1
  N  N27  1  0.080054  0.255059  0.750000  1
  Cl  Cl28  1  0.519541  0.293734  0.250000  1
  Cl  Cl29  1  0.480459  0.706266  0.750000  1
  O  O30  1  0.582411  0.806237  0.884803  1
  O  O31  1  0.457746  0.467967  0.250000  1
  O  O32  1  0.786010  0.325359  0.250000  1
  O  O33  1  0.542254  0.532033  0.750000  1
  O  O34  1  0.417589  0.193763  0.115197  1
  O  O35  1  0.213990  0.674641  0.750000  1
  O  O36  1  0.582411  0.806237  0.615197  1
  O  O37  1  0.417589  0.193763  0.384803  1
