# generated using pymatgen
data_K6U5V2O23
_symmetry_space_group_name_H-M   'P 1'
_cell_length_a   7.09126406
_cell_length_b   7.21707765
_cell_length_c   25.03073570
_cell_angle_alpha   90.00000000
_cell_angle_beta   90.00000000
_cell_angle_gamma   98.78712521
_symmetry_Int_Tables_number   1
_chemical_formula_structural   K6U5V2O23
_chemical_formula_sum   'K12 U10 V4 O46'
_cell_volume   1265.99231423
_cell_formula_units_Z   2
loop_
 _symmetry_equiv_pos_site_id
 _symmetry_equiv_pos_as_xyz
  1  'x, y, z'
loop_
 _atom_site_type_symbol
 _atom_site_label
 _atom_site_symmetry_multiplicity
 _atom_site_fract_x
 _atom_site_fract_y
 _atom_site_fract_z
 _atom_site_occupancy
  K  K0  1  0.049176  0.764716  0.039347  1
  K  K1  1  0.130549  0.771741  0.386646  1
  K  K2  1  0.049176  0.264716  0.460653  1
  K  K3  1  0.764808  0.713757  0.707277  1
  K  K4  1  0.764808  0.213757  0.792723  1
  K  K5  1  0.869451  0.728259  0.886646  1
  K  K6  1  0.950824  0.235284  0.960653  1
  K  K7  1  0.235192  0.786243  0.207277  1
  K  K8  1  0.950824  0.735284  0.539347  1
  K  K9  1  0.130549  0.271741  0.113354  1
  K  K10  1  0.235192  0.286243  0.292723  1
  K  K11  1  0.869451  0.228259  0.613354  1
  U  U12  1  0.652509  0.027779  0.357819  1
  U  U13  1  0.592078  0.514603  0.418741  1
  U  U14  1  0.592078  0.014603  0.081259  1
  U  U15  1  0.407922  0.485397  0.581259  1
  U  U16  1  0.500000  0.000000  0.500000  1
  U  U17  1  0.347491  0.972221  0.642181  1
  U  U18  1  0.652509  0.527779  0.142181  1
  U  U19  1  0.347491  0.472221  0.857819  1
  U  U20  1  0.407922  0.985397  0.918741  1
  U  U21  1  0.500000  0.500000  0.000000  1
  V  V22  1  0.213605  0.954527  0.796800  1
  V  V23  1  0.786395  0.545473  0.296800  1
  V  V24  1  0.213605  0.454527  0.703200  1
  V  V25  1  0.786395  0.045473  0.203200  1
  O  O26  1  0.757471  0.528383  0.978709  1
  O  O27  1  0.689091  0.034853  0.266428  1
  O  O28  1  0.341488  0.468407  0.392393  1
  O  O29  1  0.658512  0.531593  0.607607  1
  O  O30  1  0.848275  0.058695  0.058758  1
  O  O31  1  0.563688  0.826792  0.429347  1
  O  O32  1  0.086757  0.432905  0.872468  1
  O  O33  1  0.436312  0.673208  0.929347  1
  O  O34  1  0.563688  0.326792  0.070653  1
  O  O35  1  0.913243  0.067095  0.372468  1
  O  O36  1  0.590080  0.698608  0.068093  1
  O  O37  1  0.848275  0.558695  0.441242  1
  O  O38  1  0.706561  0.717396  0.338031  1
  O  O39  1  0.242529  0.471617  0.021291  1
  O  O40  1  0.706561  0.217396  0.161969  1
  O  O41  1  0.590080  0.198608  0.431907  1
  O  O42  1  0.309887  0.650145  0.663300  1
  O  O43  1  0.409920  0.301392  0.931907  1
  O  O44  1  0.027943  0.575696  0.292731  1
  O  O45  1  0.310909  0.465147  0.766428  1
  O  O46  1  0.603417  0.999759  0.661811  1
  O  O47  1  0.341488  0.968407  0.107607  1
  O  O48  1  0.409920  0.801392  0.568093  1
  O  O49  1  0.309887  0.150145  0.836700  1
  O  O50  1  0.972057  0.924304  0.792731  1
  O  O51  1  0.972057  0.424304  0.707269  1
  O  O52  1  0.757471  0.028383  0.521291  1
  O  O53  1  0.293439  0.282604  0.661969  1
  O  O54  1  0.242529  0.971617  0.478709  1
  O  O55  1  0.151725  0.441305  0.558758  1
  O  O56  1  0.913243  0.567095  0.127532  1
  O  O57  1  0.151725  0.941305  0.941242  1
  O  O58  1  0.603417  0.499759  0.838189  1
  O  O59  1  0.396583  0.000241  0.338189  1
  O  O60  1  0.086757  0.932905  0.627532  1
  O  O61  1  0.690113  0.849855  0.163300  1
  O  O62  1  0.396583  0.500241  0.161811  1
  O  O63  1  0.690113  0.349855  0.336700  1
  O  O64  1  0.027943  0.075696  0.207269  1
  O  O65  1  0.436312  0.173208  0.570653  1
  O  O66  1  0.310909  0.965147  0.733572  1
  O  O67  1  0.658512  0.031593  0.892393  1
  O  O68  1  0.293439  0.782604  0.838031  1
  O  O69  1  0.500000  0.000000  0.000000  1
  O  O70  1  0.500000  0.500000  0.500000  1
  O  O71  1  0.689091  0.534853  0.233572  1
