# generated using pymatgen
data_SiO2
_symmetry_space_group_name_H-M   'P 1'
_cell_length_a   12.36937806
_cell_length_b   12.36937865
_cell_length_c   5.13685053
_cell_angle_alpha   90.00000000
_cell_angle_beta   90.00000000
_cell_angle_gamma   120.00000181
_symmetry_Int_Tables_number   1
_chemical_formula_structural   SiO2
_chemical_formula_sum   'Si12 O24'
_cell_volume   680.64914083
_cell_formula_units_Z   12
loop_
 _symmetry_equiv_pos_site_id
 _symmetry_equiv_pos_as_xyz
  1  'x, y, z'
loop_
 _atom_site_type_symbol
 _atom_site_label
 _atom_site_symmetry_multiplicity
 _atom_site_fract_x
 _atom_site_fract_y
 _atom_site_fract_z
 _atom_site_occupancy
  Si  Si0  1  0.372166  0.859946  0.518924  1
  Si  Si1  1  0.627834  0.487780  0.018924  1
  Si  Si2  1  0.140054  0.512220  0.518924  1
  Si  Si3  1  0.512220  0.372166  0.481076  1
  Si  Si4  1  0.859946  0.372166  0.018924  1
  Si  Si5  1  0.512220  0.140054  0.018924  1
  Si  Si6  1  0.487780  0.627834  0.518924  1
  Si  Si7  1  0.859946  0.487780  0.481076  1
  Si  Si8  1  0.140054  0.627834  0.981076  1
  Si  Si9  1  0.627834  0.140054  0.481076  1
  Si  Si10  1  0.372166  0.512220  0.981076  1
  Si  Si11  1  0.487780  0.859946  0.981076  1
  O  O12  1  0.000000  0.500000  0.000000  1
  O  O13  1  0.395808  0.604192  0.750000  1
  O  O14  1  0.199326  0.398653  0.750000  1
  O  O15  1  0.604192  0.208384  0.250000  1
  O  O16  1  0.398653  0.199326  0.250000  1
  O  O17  1  0.401420  0.598580  0.250000  1
  O  O18  1  0.604192  0.395808  0.250000  1
  O  O19  1  0.500000  0.500000  0.000000  1
  O  O20  1  0.598580  0.401420  0.750000  1
  O  O21  1  0.800674  0.601347  0.250000  1
  O  O22  1  0.401420  0.802840  0.250000  1
  O  O23  1  0.208384  0.604192  0.750000  1
  O  O24  1  0.601347  0.800674  0.750000  1
  O  O25  1  0.500000  0.000000  0.000000  1
  O  O26  1  0.197160  0.598580  0.250000  1
  O  O27  1  0.802840  0.401420  0.750000  1
  O  O28  1  0.598580  0.197160  0.750000  1
  O  O29  1  0.199326  0.800674  0.750000  1
  O  O30  1  0.800674  0.199326  0.250000  1
  O  O31  1  0.500000  0.000000  0.500000  1
  O  O32  1  0.791616  0.395808  0.250000  1
  O  O33  1  0.500000  0.500000  0.500000  1
  O  O34  1  0.000000  0.500000  0.500000  1
  O  O35  1  0.395808  0.791616  0.750000  1
