# generated using pymatgen
data_Sm4Br6O
_symmetry_space_group_name_H-M   'P 1'
_cell_length_a   9.34852316
_cell_length_b   9.34852327
_cell_length_c   8.12699127
_cell_angle_alpha   90.00000000
_cell_angle_beta   90.00000000
_cell_angle_gamma   119.99999962
_symmetry_Int_Tables_number   1
_chemical_formula_structural   Sm4Br6O
_chemical_formula_sum   'Sm8 Br12 O2'
_cell_volume   615.10102149
_cell_formula_units_Z   2
loop_
 _symmetry_equiv_pos_site_id
 _symmetry_equiv_pos_as_xyz
  1  'x, y, z'
loop_
 _atom_site_type_symbol
 _atom_site_label
 _atom_site_symmetry_multiplicity
 _atom_site_fract_x
 _atom_site_fract_y
 _atom_site_fract_z
 _atom_site_occupancy
  Sm  Sm0  1  0.195007  0.390014  0.006961  1
  Sm  Sm1  1  0.195007  0.804993  0.006961  1
  Sm  Sm2  1  0.804993  0.195007  0.506961  1
  Sm  Sm3  1  0.666667  0.333333  0.817793  1
  Sm  Sm4  1  0.804993  0.609986  0.506961  1
  Sm  Sm5  1  0.390014  0.195007  0.506961  1
  Sm  Sm6  1  0.333333  0.666667  0.317793  1
  Sm  Sm7  1  0.609986  0.804993  0.006961  1
  Br  Br8  1  0.269545  0.134773  0.872513  1
  Br  Br9  1  0.034328  0.517164  0.688422  1
  Br  Br10  1  0.134773  0.269545  0.372513  1
  Br  Br11  1  0.517164  0.482836  0.188422  1
  Br  Br12  1  0.134773  0.865227  0.372513  1
  Br  Br13  1  0.965672  0.482836  0.188422  1
  Br  Br14  1  0.865227  0.134773  0.872513  1
  Br  Br15  1  0.482836  0.965672  0.688422  1
  Br  Br16  1  0.730455  0.865227  0.372513  1
  Br  Br17  1  0.865227  0.730455  0.872513  1
  Br  Br18  1  0.482836  0.517164  0.688422  1
  Br  Br19  1  0.517164  0.034328  0.188422  1
  O  O20  1  0.666667  0.333333  0.523710  1
  O  O21  1  0.333333  0.666667  0.023710  1
