# generated using pymatgen
data_Rb5(CoO2)2
_symmetry_space_group_name_H-M   'P 1'
_cell_length_a   7.06137726
_cell_length_b   9.32316651
_cell_length_c   9.72549134
_cell_angle_alpha   61.94293543
_cell_angle_beta   89.66912723
_cell_angle_gamma   71.55620056
_symmetry_Int_Tables_number   1
_chemical_formula_structural   Rb5(CoO2)2
_chemical_formula_sum   'Rb10 Co4 O8'
_cell_volume   528.12252464
_cell_formula_units_Z   2
loop_
 _symmetry_equiv_pos_site_id
 _symmetry_equiv_pos_as_xyz
  1  'x, y, z'
loop_
 _atom_site_type_symbol
 _atom_site_label
 _atom_site_symmetry_multiplicity
 _atom_site_fract_x
 _atom_site_fract_y
 _atom_site_fract_z
 _atom_site_occupancy
  Rb  Rb0  1  0.903310  0.831559  0.778319  1
  Rb  Rb1  1  0.096690  0.168441  0.221681  1
  Rb  Rb2  1  0.902213  0.437825  0.777755  1
  Rb  Rb3  1  0.097787  0.562175  0.222245  1
  Rb  Rb4  1  0.729903  0.049425  0.024358  1
  Rb  Rb5  1  0.270097  0.950575  0.975642  1
  Rb  Rb6  1  0.381147  0.356168  0.636604  1
  Rb  Rb7  1  0.618853  0.643832  0.363396  1
  Rb  Rb8  1  0.621748  0.165944  0.384007  1
  Rb  Rb9  1  0.378252  0.834056  0.615993  1
  Co  Co10  1  0.599984  0.582582  0.026051  1
  Co  Co11  1  0.400016  0.417418  0.973949  1
  Co  Co12  1  0.984605  0.791404  0.422514  1
  Co  Co13  1  0.015395  0.208596  0.577486  1
  O  O14  1  0.689184  0.732431  0.045310  1
  O  O15  1  0.310816  0.267569  0.954690  1
  O  O16  1  0.229054  0.207691  0.479099  1
  O  O17  1  0.770946  0.792309  0.520901  1
  O  O18  1  0.317511  0.641058  0.952627  1
  O  O19  1  0.682489  0.358942  0.047373  1
  O  O20  1  0.810789  0.202627  0.685545  1
  O  O21  1  0.189211  0.797373  0.314455  1
