# generated using pymatgen
data_Gd2Au5F21
_symmetry_space_group_name_H-M   'P 1'
_cell_length_a   8.33837814
_cell_length_b   8.33837814
_cell_length_c   26.18279430
_cell_angle_alpha   90.00000000
_cell_angle_beta   90.00000000
_cell_angle_gamma   90.00000000
_symmetry_Int_Tables_number   1
_chemical_formula_structural   Gd2Au5F21
_chemical_formula_sum   'Gd8 Au20 F84'
_cell_volume   1820.45172277
_cell_formula_units_Z   4
loop_
 _symmetry_equiv_pos_site_id
 _symmetry_equiv_pos_as_xyz
  1  'x, y, z'
loop_
 _atom_site_type_symbol
 _atom_site_label
 _atom_site_symmetry_multiplicity
 _atom_site_fract_x
 _atom_site_fract_y
 _atom_site_fract_z
 _atom_site_occupancy
  Gd  Gd0  1  0.431453  0.942536  0.748555  1
  Gd  Gd1  1  0.568547  0.057464  0.248555  1
  Gd  Gd2  1  0.557464  0.931453  0.998555  1
  Gd  Gd3  1  0.057464  0.568547  0.751445  1
  Gd  Gd4  1  0.931453  0.557464  0.001445  1
  Gd  Gd5  1  0.442536  0.068547  0.498555  1
  Gd  Gd6  1  0.068547  0.442536  0.501445  1
  Gd  Gd7  1  0.942536  0.431453  0.251445  1
  Au  Au8  1  0.675302  0.714091  0.139732  1
  Au  Au9  1  0.092840  0.855739  0.408292  1
  Au  Au10  1  0.907160  0.144261  0.908292  1
  Au  Au11  1  0.407160  0.355739  0.841708  1
  Au  Au12  1  0.824698  0.214091  0.110268  1
  Au  Au13  1  0.941160  0.058840  0.750000  1
  Au  Au14  1  0.175302  0.785909  0.610268  1
  Au  Au15  1  0.355739  0.407160  0.158292  1
  Au  Au16  1  0.644261  0.592840  0.658292  1
  Au  Au17  1  0.285909  0.324698  0.360268  1
  Au  Au18  1  0.441160  0.441160  0.000000  1
  Au  Au19  1  0.714091  0.675302  0.860268  1
  Au  Au20  1  0.058840  0.941160  0.250000  1
  Au  Au21  1  0.785909  0.175302  0.389732  1
  Au  Au22  1  0.214091  0.824698  0.889732  1
  Au  Au23  1  0.144261  0.907160  0.091708  1
  Au  Au24  1  0.592840  0.644261  0.341708  1
  Au  Au25  1  0.855739  0.092840  0.591708  1
  Au  Au26  1  0.558840  0.558840  0.500000  1
  Au  Au27  1  0.324698  0.285909  0.639732  1
  F  F28  1  0.665091  0.043881  0.439437  1
  F  F29  1  0.961822  0.311987  0.958632  1
  F  F30  1  0.410486  0.209221  0.197132  1
  F  F31  1  0.436919  0.677639  0.999316  1
  F  F32  1  0.177639  0.063081  0.749316  1
  F  F33  1  0.589514  0.790779  0.697132  1
  F  F34  1  0.810914  0.896657  0.628267  1
  F  F35  1  0.689086  0.396657  0.621733  1
  F  F36  1  0.209221  0.410486  0.802868  1
  F  F37  1  0.933528  0.329918  0.165607  1
  F  F38  1  0.058989  0.706222  0.251539  1
  F  F39  1  0.478358  0.638216  0.608084  1
  F  F40  1  0.588026  0.798493  0.910097  1
  F  F41  1  0.978358  0.861784  0.141916  1
  F  F42  1  0.322361  0.563081  0.500684  1
  F  F43  1  0.798493  0.588026  0.089903  1
  F  F44  1  0.088026  0.701507  0.839903  1
  F  F45  1  0.936919  0.822361  0.750684  1
  F  F46  1  0.206222  0.441011  0.001539  1
  F  F47  1  0.701507  0.088026  0.160097  1
  F  F48  1  0.021642  0.138216  0.641916  1
  F  F49  1  0.170082  0.433528  0.415607  1
  F  F50  1  0.311987  0.961822  0.041368  1
  F  F51  1  0.138216  0.021642  0.358084  1
  F  F52  1  0.774185  0.595479  0.197086  1
  F  F53  1  0.280044  0.719956  0.750000  1
  F  F54  1  0.910486  0.290779  0.552868  1
  F  F55  1  0.165091  0.456119  0.310563  1
  F  F56  1  0.089514  0.709221  0.052868  1
  F  F57  1  0.829918  0.566472  0.915607  1
  F  F58  1  0.725815  0.095479  0.052914  1
  F  F59  1  0.780044  0.780044  0.000000  1
  F  F60  1  0.461822  0.188013  0.791368  1
  F  F61  1  0.329918  0.933528  0.834393  1
  F  F62  1  0.411974  0.201507  0.410097  1
  F  F63  1  0.396657  0.689086  0.378267  1
  F  F64  1  0.334909  0.956119  0.939437  1
  F  F65  1  0.822361  0.936919  0.249316  1
  F  F66  1  0.793778  0.558989  0.501539  1
  F  F67  1  0.861784  0.978358  0.858084  1
  F  F68  1  0.706222  0.058989  0.748461  1
  F  F69  1  0.677639  0.436919  0.000684  1
  F  F70  1  0.095479  0.725815  0.947086  1
  F  F71  1  0.310914  0.603343  0.121733  1
  F  F72  1  0.189086  0.103343  0.128267  1
  F  F73  1  0.688013  0.038178  0.541368  1
  F  F74  1  0.521642  0.361784  0.108084  1
  F  F75  1  0.904521  0.274185  0.447086  1
  F  F76  1  0.225815  0.404521  0.697086  1
  F  F77  1  0.298493  0.911974  0.660097  1
  F  F78  1  0.274185  0.904521  0.552914  1
  F  F79  1  0.790779  0.589514  0.302868  1
  F  F80  1  0.188013  0.461822  0.208632  1
  F  F81  1  0.896657  0.810914  0.371733  1
  F  F82  1  0.603343  0.310914  0.878267  1
  F  F83  1  0.456119  0.165091  0.689437  1
  F  F84  1  0.066472  0.670082  0.665607  1
  F  F85  1  0.361784  0.521642  0.891916  1
  F  F86  1  0.956119  0.334909  0.060563  1
  F  F87  1  0.566472  0.829918  0.084393  1
  F  F88  1  0.404521  0.225815  0.302914  1
  F  F89  1  0.103343  0.189086  0.871733  1
  F  F90  1  0.538178  0.811987  0.291368  1
  F  F91  1  0.433528  0.170082  0.584393  1
  F  F92  1  0.558989  0.793778  0.498461  1
  F  F93  1  0.719956  0.280044  0.250000  1
  F  F94  1  0.441011  0.206222  0.998461  1
  F  F95  1  0.834909  0.543881  0.810563  1
  F  F96  1  0.038178  0.688013  0.458632  1
  F  F97  1  0.911974  0.298493  0.339903  1
  F  F98  1  0.293778  0.941011  0.248461  1
  F  F99  1  0.595479  0.774185  0.802914  1
  F  F100  1  0.543881  0.834909  0.189437  1
  F  F101  1  0.043881  0.665091  0.560563  1
  F  F102  1  0.709221  0.089514  0.947132  1
  F  F103  1  0.638216  0.478358  0.391916  1
  F  F104  1  0.063081  0.177639  0.250684  1
  F  F105  1  0.201507  0.411974  0.589903  1
  F  F106  1  0.941011  0.293778  0.751539  1
  F  F107  1  0.219956  0.219956  0.500000  1
  F  F108  1  0.563081  0.322361  0.499316  1
  F  F109  1  0.811987  0.538178  0.708632  1
  F  F110  1  0.290779  0.910486  0.447132  1
  F  F111  1  0.670082  0.066472  0.334393  1
