# generated using pymatgen
data_Zr4(AlC2)3
_symmetry_space_group_name_H-M   'P 1'
_cell_length_a   3.36130269
_cell_length_b   3.36130242
_cell_length_c   33.15437331
_cell_angle_alpha   90.00000000
_cell_angle_beta   90.00000000
_cell_angle_gamma   120.00000256
_symmetry_Int_Tables_number   1
_chemical_formula_structural   Zr4(AlC2)3
_chemical_formula_sum   'Zr8 Al6 C12'
_cell_volume   324.40433936
_cell_formula_units_Z   2
loop_
 _symmetry_equiv_pos_site_id
 _symmetry_equiv_pos_as_xyz
  1  'x, y, z'
loop_
 _atom_site_type_symbol
 _atom_site_label
 _atom_site_symmetry_multiplicity
 _atom_site_fract_x
 _atom_site_fract_y
 _atom_site_fract_z
 _atom_site_occupancy
  Zr  Zr0  1  0.666667  0.333333  0.540247  1
  Zr  Zr1  1  0.000000  0.000000  0.379217  1
  Zr  Zr2  1  0.000000  0.000000  0.620783  1
  Zr  Zr3  1  0.333333  0.666667  0.040247  1
  Zr  Zr4  1  0.333333  0.666667  0.459753  1
  Zr  Zr5  1  0.000000  0.000000  0.120783  1
  Zr  Zr6  1  0.000000  0.000000  0.879217  1
  Zr  Zr7  1  0.666667  0.333333  0.959753  1
  Al  Al8  1  0.333333  0.666667  0.810801  1
  Al  Al9  1  0.666667  0.333333  0.189199  1
  Al  Al10  1  0.666667  0.333333  0.310801  1
  Al  Al11  1  0.333333  0.666667  0.689199  1
  Al  Al12  1  0.666667  0.333333  0.750000  1
  Al  Al13  1  0.333333  0.666667  0.250000  1
  C  C14  1  0.333333  0.666667  0.916857  1
  C  C15  1  0.666667  0.333333  0.668570  1
  C  C16  1  0.666667  0.333333  0.083143  1
  C  C17  1  0.333333  0.666667  0.331430  1
  C  C18  1  0.666667  0.333333  0.250000  1
  C  C19  1  0.666667  0.333333  0.416857  1
  C  C20  1  0.000000  0.000000  0.000000  1
  C  C21  1  0.666667  0.333333  0.831430  1
  C  C22  1  0.333333  0.666667  0.750000  1
  C  C23  1  0.333333  0.666667  0.583143  1
  C  C24  1  0.333333  0.666667  0.168570  1
  C  C25  1  0.000000  0.000000  0.500000  1
