# generated using pymatgen
data_ErCuTe2BrO6
_symmetry_space_group_name_H-M   'P 1'
_cell_length_a   5.42640207
_cell_length_b   9.46809362
_cell_length_c   14.98411043
_cell_angle_alpha   90.00000000
_cell_angle_beta   90.00000000
_cell_angle_gamma   98.55440257
_symmetry_Int_Tables_number   1
_chemical_formula_structural   ErCuTe2BrO6
_chemical_formula_sum   'Er4 Cu4 Te8 Br4 O24'
_cell_volume   761.28435945
_cell_formula_units_Z   4
loop_
 _symmetry_equiv_pos_site_id
 _symmetry_equiv_pos_as_xyz
  1  'x, y, z'
loop_
 _atom_site_type_symbol
 _atom_site_label
 _atom_site_symmetry_multiplicity
 _atom_site_fract_x
 _atom_site_fract_y
 _atom_site_fract_z
 _atom_site_occupancy
  Er  Er0  1  0.747339  0.981406  0.587523  1
  Er  Er1  1  0.252661  0.018594  0.412477  1
  Er  Er2  1  0.252661  0.518594  0.087523  1
  Er  Er3  1  0.747339  0.481406  0.912477  1
  Cu  Cu4  1  0.264807  0.803930  0.231527  1
  Cu  Cu5  1  0.735193  0.696070  0.731527  1
  Cu  Cu6  1  0.735193  0.196070  0.768473  1
  Cu  Cu7  1  0.264807  0.303930  0.268473  1
  Te  Te8  1  0.230888  0.219272  0.903800  1
  Te  Te9  1  0.252227  0.225777  0.644169  1
  Te  Te10  1  0.230888  0.719272  0.596200  1
  Te  Te11  1  0.769112  0.780728  0.096200  1
  Te  Te12  1  0.769112  0.280728  0.403800  1
  Te  Te13  1  0.747773  0.774223  0.355831  1
  Te  Te14  1  0.252227  0.725777  0.855831  1
  Te  Te15  1  0.747773  0.274223  0.144169  1
  Br  Br16  1  0.743049  0.954068  0.900146  1
  Br  Br17  1  0.743049  0.454068  0.599854  1
  Br  Br18  1  0.256951  0.545932  0.400146  1
  Br  Br19  1  0.256951  0.045932  0.099854  1
  O  O20  1  0.476832  0.795051  0.684744  1
  O  O21  1  0.623269  0.129368  0.478617  1
  O  O22  1  0.967396  0.309820  0.855243  1
  O  O23  1  0.376731  0.370632  0.978617  1
  O  O24  1  0.032604  0.690180  0.144757  1
  O  O25  1  0.032604  0.190180  0.355243  1
  O  O26  1  0.119645  0.625049  0.959884  1
  O  O27  1  0.989549  0.109044  0.709329  1
  O  O28  1  0.010451  0.890956  0.290671  1
  O  O29  1  0.623269  0.629368  0.021383  1
  O  O30  1  0.523168  0.704949  0.184744  1
  O  O31  1  0.989549  0.609044  0.790671  1
  O  O32  1  0.494179  0.388322  0.171520  1
  O  O33  1  0.476832  0.295051  0.815256  1
  O  O34  1  0.523168  0.204949  0.315256  1
  O  O35  1  0.119645  0.125049  0.540116  1
  O  O36  1  0.010451  0.390956  0.209329  1
  O  O37  1  0.880355  0.874951  0.459884  1
  O  O38  1  0.376731  0.870632  0.521383  1
  O  O39  1  0.505821  0.111678  0.671520  1
  O  O40  1  0.967396  0.809820  0.644757  1
  O  O41  1  0.494179  0.888322  0.328480  1
  O  O42  1  0.505821  0.611678  0.828480  1
  O  O43  1  0.880355  0.374951  0.040116  1
