# generated using pymatgen
data_CsGd(PO3)4
_symmetry_space_group_name_H-M   'P 1'
_cell_length_a   9.04457264
_cell_length_b   10.51286848
_cell_length_c   11.34082145
_cell_angle_alpha   106.68451696
_cell_angle_beta   90.00000000
_cell_angle_gamma   90.00000000
_symmetry_Int_Tables_number   1
_chemical_formula_structural   CsGd(PO3)4
_chemical_formula_sum   'Cs4 Gd4 P16 O48'
_cell_volume   1032.93744205
_cell_formula_units_Z   4
loop_
 _symmetry_equiv_pos_site_id
 _symmetry_equiv_pos_as_xyz
  1  'x, y, z'
loop_
 _atom_site_type_symbol
 _atom_site_label
 _atom_site_symmetry_multiplicity
 _atom_site_fract_x
 _atom_site_fract_y
 _atom_site_fract_z
 _atom_site_occupancy
  Cs  Cs0  1  0.565060  0.682451  0.460703  1
  Cs  Cs1  1  0.434940  0.317549  0.539297  1
  Cs  Cs2  1  0.934940  0.182451  0.960703  1
  Cs  Cs3  1  0.065060  0.817549  0.039297  1
  Gd  Gd4  1  0.225916  0.997481  0.681120  1
  Gd  Gd5  1  0.774084  0.002519  0.318880  1
  Gd  Gd6  1  0.274084  0.497481  0.181120  1
  Gd  Gd7  1  0.725916  0.502519  0.818880  1
  P  P8  1  0.673888  0.460262  0.133139  1
  P  P9  1  0.107643  0.674127  0.473641  1
  P  P10  1  0.173888  0.039738  0.366861  1
  P  P11  1  0.971223  0.746182  0.713733  1
  P  P12  1  0.607643  0.825873  0.026359  1
  P  P13  1  0.408918  0.854156  0.242489  1
  P  P14  1  0.826112  0.960262  0.633139  1
  P  P15  1  0.892357  0.325873  0.526359  1
  P  P16  1  0.326112  0.539738  0.866861  1
  P  P17  1  0.091082  0.354156  0.742489  1
  P  P18  1  0.028777  0.253818  0.286267  1
  P  P19  1  0.591082  0.145844  0.757511  1
  P  P20  1  0.908918  0.645844  0.257511  1
  P  P21  1  0.471223  0.753818  0.786267  1
  P  P22  1  0.528777  0.246182  0.213733  1
  P  P23  1  0.392357  0.174127  0.973641  1
  O  O24  1  0.040825  0.598933  0.176405  1
  O  O25  1  0.206873  0.476485  0.757950  1
  O  O26  1  0.340040  0.686515  0.846573  1
  O  O27  1  0.210561  0.566923  0.403373  1
  O  O28  1  0.531841  0.535546  0.166046  1
  O  O29  1  0.756111  0.940154  0.509566  1
  O  O30  1  0.582309  0.648285  0.726165  1
  O  O31  1  0.042298  0.638758  0.593921  1
  O  O32  1  0.334563  0.313606  0.015303  1
  O  O33  1  0.710561  0.933077  0.096627  1
  O  O34  1  0.659960  0.313485  0.153427  1
  O  O35  1  0.459175  0.098933  0.676405  1
  O  O36  1  0.159960  0.186515  0.346573  1
  O  O37  1  0.452511  0.831680  0.100176  1
  O  O38  1  0.665437  0.686394  0.984697  1
  O  O39  1  0.825325  0.764646  0.245988  1
  O  O40  1  0.706873  0.023515  0.742050  1
  O  O41  1  0.165437  0.813606  0.515303  1
  O  O42  1  0.903302  0.669420  0.792428  1
  O  O43  1  0.096698  0.330580  0.207572  1
  O  O44  1  0.793127  0.523515  0.242050  1
  O  O45  1  0.547489  0.168320  0.899824  1
  O  O46  1  0.540825  0.901067  0.323595  1
  O  O47  1  0.840040  0.813485  0.653427  1
  O  O48  1  0.468159  0.464454  0.833954  1
  O  O49  1  0.957702  0.361242  0.406079  1
  O  O50  1  0.047489  0.331680  0.600176  1
  O  O51  1  0.959175  0.401067  0.823595  1
  O  O52  1  0.031841  0.964454  0.333954  1
  O  O53  1  0.917691  0.148285  0.226165  1
  O  O54  1  0.243889  0.059846  0.490434  1
  O  O55  1  0.403302  0.830580  0.707572  1
  O  O56  1  0.789439  0.433077  0.596627  1
  O  O57  1  0.834563  0.186394  0.484697  1
  O  O58  1  0.174675  0.235354  0.754012  1
  O  O59  1  0.082309  0.851715  0.773835  1
  O  O60  1  0.743889  0.440154  0.009566  1
  O  O61  1  0.256111  0.559846  0.990434  1
  O  O62  1  0.293127  0.976485  0.257950  1
  O  O63  1  0.289439  0.066923  0.903373  1
  O  O64  1  0.952511  0.668320  0.399824  1
  O  O65  1  0.674675  0.264646  0.745988  1
  O  O66  1  0.542298  0.861242  0.906079  1
  O  O67  1  0.457702  0.138758  0.093921  1
  O  O68  1  0.325325  0.735354  0.254012  1
  O  O69  1  0.417691  0.351715  0.273835  1
  O  O70  1  0.968159  0.035546  0.666046  1
  O  O71  1  0.596698  0.169420  0.292428  1
