# generated using pymatgen
data_Ca3(GaN2)2
_symmetry_space_group_name_H-M   'P 1'
_cell_length_a   5.60355100
_cell_length_b   6.80863358
_cell_length_c   6.80863337
_cell_angle_alpha   76.17087860
_cell_angle_beta   89.12647695
_cell_angle_gamma   89.12647903
_symmetry_Int_Tables_number   1
_chemical_formula_structural   Ca3(GaN2)2
_chemical_formula_sum   'Ca6 Ga4 N8'
_cell_volume   252.18936405
_cell_formula_units_Z   2
loop_
 _symmetry_equiv_pos_site_id
 _symmetry_equiv_pos_as_xyz
  1  'x, y, z'
loop_
 _atom_site_type_symbol
 _atom_site_label
 _atom_site_symmetry_multiplicity
 _atom_site_fract_x
 _atom_site_fract_y
 _atom_site_fract_z
 _atom_site_occupancy
  Ca  Ca0  1  0.542508  0.748359  0.019130  1
  Ca  Ca1  1  0.042508  0.019130  0.748359  1
  Ca  Ca2  1  0.250000  0.600464  0.399536  1
  Ca  Ca3  1  0.457492  0.251641  0.980870  1
  Ca  Ca4  1  0.750000  0.399536  0.600464  1
  Ca  Ca5  1  0.957492  0.980870  0.251641  1
  Ga  Ga6  1  0.905463  0.416311  0.177838  1
  Ga  Ga7  1  0.405463  0.177838  0.416311  1
  Ga  Ga8  1  0.594537  0.822162  0.583689  1
  Ga  Ga9  1  0.094537  0.583689  0.822162  1
  N  N10  1  0.432564  0.575429  0.739132  1
  N  N11  1  0.520224  0.057267  0.708109  1
  N  N12  1  0.932564  0.739132  0.575429  1
  N  N13  1  0.567436  0.424571  0.260868  1
  N  N14  1  0.979776  0.291891  0.942733  1
  N  N15  1  0.067436  0.260868  0.424571  1
  N  N16  1  0.020224  0.708109  0.057267  1
  N  N17  1  0.479776  0.942733  0.291891  1
