# generated using pymatgen
data_KFe(MoO4)2
_symmetry_space_group_name_H-M   'P 1'
_cell_length_a   5.75664733
_cell_length_b   5.75664752
_cell_length_c   14.88944810
_cell_angle_alpha   90.00000000
_cell_angle_beta   90.00000000
_cell_angle_gamma   119.99999894
_symmetry_Int_Tables_number   1
_chemical_formula_structural   KFe(MoO4)2
_chemical_formula_sum   'K2 Fe2 Mo4 O16'
_cell_volume   427.31535547
_cell_formula_units_Z   2
loop_
 _symmetry_equiv_pos_site_id
 _symmetry_equiv_pos_as_xyz
  1  'x, y, z'
loop_
 _atom_site_type_symbol
 _atom_site_label
 _atom_site_symmetry_multiplicity
 _atom_site_fract_x
 _atom_site_fract_y
 _atom_site_fract_z
 _atom_site_occupancy
  K  K0  1  0.000000  0.000000  0.750000  1
  K  K1  1  0.000000  0.000000  0.250000  1
  Fe  Fe2  1  0.000000  0.000000  0.000000  1
  Fe  Fe3  1  0.000000  0.000000  0.500000  1
  Mo  Mo4  1  0.666667  0.333333  0.382756  1
  Mo  Mo5  1  0.666667  0.333333  0.882756  1
  Mo  Mo6  1  0.333333  0.666667  0.617244  1
  Mo  Mo7  1  0.333333  0.666667  0.117244  1
  O  O8  1  0.132222  0.809947  0.580461  1
  O  O9  1  0.867778  0.190053  0.419539  1
  O  O10  1  0.322275  0.132222  0.419539  1
  O  O11  1  0.666667  0.333333  0.765257  1
  O  O12  1  0.677725  0.867778  0.580461  1
  O  O13  1  0.677725  0.809947  0.080461  1
  O  O14  1  0.867778  0.677725  0.919539  1
  O  O15  1  0.190053  0.867778  0.080461  1
  O  O16  1  0.132222  0.322275  0.080461  1
  O  O17  1  0.322275  0.190053  0.919539  1
  O  O18  1  0.666667  0.333333  0.265257  1
  O  O19  1  0.809947  0.132222  0.919539  1
  O  O20  1  0.190053  0.322275  0.580461  1
  O  O21  1  0.333333  0.666667  0.734743  1
  O  O22  1  0.809947  0.677725  0.419539  1
  O  O23  1  0.333333  0.666667  0.234743  1
