# generated using pymatgen
data_K4CO4
_symmetry_space_group_name_H-M   'P 1'
_cell_length_a   5.53430071
_cell_length_b   7.22292532
_cell_length_c   7.22292532
_cell_angle_alpha   90.00000000
_cell_angle_beta   90.00000000
_cell_angle_gamma   90.00000000
_symmetry_Int_Tables_number   1
_chemical_formula_structural   K4CO4
_chemical_formula_sum   'K8 C2 O8'
_cell_volume   288.72806632
_cell_formula_units_Z   2
loop_
 _symmetry_equiv_pos_site_id
 _symmetry_equiv_pos_as_xyz
  1  'x, y, z'
loop_
 _atom_site_type_symbol
 _atom_site_label
 _atom_site_symmetry_multiplicity
 _atom_site_fract_x
 _atom_site_fract_y
 _atom_site_fract_z
 _atom_site_occupancy
  K  K0  1  0.108728  0.263804  0.528856  1
  K  K1  1  0.391272  0.971144  0.263804  1
  K  K2  1  0.391272  0.528856  0.236196  1
  K  K3  1  0.891272  0.763804  0.028856  1
  K  K4  1  0.891272  0.736196  0.471144  1
  K  K5  1  0.608728  0.028856  0.736196  1
  K  K6  1  0.608728  0.471144  0.763804  1
  K  K7  1  0.108728  0.236196  0.971144  1
  C  C8  1  0.750000  0.250000  0.250000  1
  C  C9  1  0.250000  0.750000  0.750000  1
  O  O10  1  0.602655  0.242583  0.085096  1
  O  O11  1  0.397345  0.742583  0.585096  1
  O  O12  1  0.102655  0.914904  0.742583  1
  O  O13  1  0.897345  0.085096  0.257417  1
  O  O14  1  0.602655  0.257417  0.414904  1
  O  O15  1  0.897345  0.414904  0.242583  1
  O  O16  1  0.397345  0.757417  0.914904  1
  O  O17  1  0.102655  0.585096  0.757417  1
