# generated using pymatgen
data_TlSb3(AsS4)2
_symmetry_space_group_name_H-M   'P 1'
_cell_length_a   8.32894563
_cell_length_b   8.93584322
_cell_length_c   39.39363253
_cell_angle_alpha   90.00000000
_cell_angle_beta   90.00000000
_cell_angle_gamma   90.00000000
_symmetry_Int_Tables_number   1
_chemical_formula_structural   TlSb3(AsS4)2
_chemical_formula_sum   'Tl8 Sb24 As16 S64'
_cell_volume   2931.91649581
_cell_formula_units_Z   8
loop_
 _symmetry_equiv_pos_site_id
 _symmetry_equiv_pos_as_xyz
  1  'x, y, z'
loop_
 _atom_site_type_symbol
 _atom_site_label
 _atom_site_symmetry_multiplicity
 _atom_site_fract_x
 _atom_site_fract_y
 _atom_site_fract_z
 _atom_site_occupancy
  Tl  Tl0  1  0.442037  -0.002386  0.531201  1
  Tl  Tl1  1  0.942037  0.497614  0.968799  1
  Tl  Tl2  1  0.363054  0.254138  0.718821  1
  Tl  Tl3  1  0.363054  0.245862  0.218821  1
  Tl  Tl4  1  0.863054  0.745862  0.281179  1
  Tl  Tl5  1  0.942037  1.002386  0.468799  1
  Tl  Tl6  1  0.442037  0.502386  0.031201  1
  Tl  Tl7  1  0.863054  0.754138  0.781179  1
  Sb  Sb8  1  0.944434  0.203034  0.570495  1
  Sb  Sb9  1  0.466391  0.552052  0.511556  1
  Sb  Sb10  1  0.872014  0.765695  0.062717  1
  Sb  Sb11  1  0.137320  0.194327  0.860317  1
  Sb  Sb12  1  0.938754  0.517699  0.177193  1
  Sb  Sb13  1  0.137320  0.305673  0.360317  1
  Sb  Sb14  1  0.966391  0.447948  0.488444  1
  Sb  Sb15  1  0.944434  0.296966  0.070495  1
  Sb  Sb16  1  0.637320  0.805673  0.139683  1
  Sb  Sb17  1  0.444434  0.703034  0.929505  1
  Sb  Sb18  1  0.337074  0.695375  0.227649  1
  Sb  Sb19  1  0.466391  0.947948  0.011556  1
  Sb  Sb20  1  0.337074  0.804625  0.727649  1
  Sb  Sb21  1  0.837074  0.195375  0.272351  1
  Sb  Sb22  1  0.637320  0.694327  0.639683  1
  Sb  Sb23  1  0.872014  0.734305  0.562717  1
  Sb  Sb24  1  0.372014  0.265695  0.437283  1
  Sb  Sb25  1  0.837074  0.304625  0.772351  1
  Sb  Sb26  1  0.444434  0.796966  0.429505  1
  Sb  Sb27  1  0.372014  0.234305  0.937283  1
  Sb  Sb28  1  0.438754  0.482301  0.822807  1
  Sb  Sb29  1  0.966391  0.052052  0.988444  1
  Sb  Sb30  1  0.938754  0.982301  0.677193  1
  Sb  Sb31  1  0.438754  0.017699  0.322807  1
  As  As32  1  0.099129  0.769025  0.871824  1
  As  As33  1  0.771714  0.458847  0.874268  1
  As  As34  1  0.783053  0.486426  0.390642  1
  As  As35  1  0.283053  0.986426  0.109358  1
  As  As36  1  0.939041  0.031419  0.192122  1
  As  As37  1  0.939041  0.468581  0.692122  1
  As  As38  1  0.599129  0.269025  0.628176  1
  As  As39  1  0.599129  0.230975  0.128176  1
  As  As40  1  0.099129  0.730975  0.371824  1
  As  As41  1  0.783053  0.013574  0.890642  1
  As  As42  1  0.771714  0.041153  0.374268  1
  As  As43  1  0.271714  0.958847  0.625732  1
  As  As44  1  0.439041  0.531419  0.307878  1
  As  As45  1  0.283053  0.513574  0.609358  1
  As  As46  1  0.271714  0.541153  0.125732  1
  As  As47  1  0.439041  0.968581  0.807878  1
  S  S48  1  0.546485  0.976130  0.752287  1
  S  S49  1  0.074634  0.545463  0.545108  1
  S  S50  1  0.096615  0.971516  0.731702  1
  S  S51  1  0.096615  0.528484  0.231702  1
  S  S52  1  0.715334  0.775168  0.007532  1
  S  S53  1  0.546485  0.523870  0.252287  1
  S  S54  1  0.964030  0.433510  0.831326  1
  S  S55  1  0.046485  0.023870  0.247713  1
  S  S56  1  0.784881  0.236004  0.017481  1
  S  S57  1  0.427763  0.698252  0.584287  1
  S  S58  1  0.587808  0.284078  0.857360  1
  S  S59  1  0.127260  0.339899  0.147780  1
  S  S60  1  0.284881  0.736004  0.482519  1
  S  S61  1  0.427763  0.801748  0.084287  1
  S  S62  1  0.291781  0.559313  0.384033  1
  S  S63  1  0.410508  0.194805  0.085570  1
  S  S64  1  0.425470  0.519932  0.660645  1
  S  S65  1  0.221358  0.567477  0.901238  1
  S  S66  1  0.791781  0.440687  0.615967  1
  S  S67  1  0.587808  0.215922  0.357360  1
  S  S68  1  0.772941  0.828941  0.200231  1
  S  S69  1  0.464030  0.566490  0.168674  1
  S  S70  1  0.074634  0.954537  0.045108  1
  S  S71  1  0.272941  0.328941  0.299769  1
  S  S72  1  0.791781  0.059313  0.115967  1
  S  S73  1  0.046026  0.549714  0.046586  1
  S  S74  1  0.280292  0.768065  0.795426  1
  S  S75  1  0.721358  0.432523  0.098762  1
  S  S76  1  0.925470  0.019932  0.839355  1
  S  S77  1  0.715334  0.724832  0.507532  1
  S  S78  1  0.772941  0.671059  0.700231  1
  S  S79  1  0.546026  0.049714  0.453414  1
  S  S80  1  0.410508  0.305195  0.585570  1
  S  S81  1  0.425470  0.980068  0.160645  1
  S  S82  1  0.464030  0.933510  0.668674  1
  S  S83  1  0.272941  0.171059  0.799769  1
  S  S84  1  0.046026  0.950286  0.546586  1
  S  S85  1  0.927763  0.301748  0.415713  1
  S  S86  1  0.284881  0.763996  0.982519  1
  S  S87  1  0.596615  0.471516  0.768298  1
  S  S88  1  0.574634  0.045463  0.954892  1
  S  S89  1  0.784881  0.263996  0.517481  1
  S  S90  1  0.546026  0.450286  0.953414  1
  S  S91  1  0.046485  0.476130  0.747713  1
  S  S92  1  0.280292  0.731935  0.295426  1
  S  S93  1  0.721358  0.067477  0.598762  1
  S  S94  1  0.627260  0.660101  0.852220  1
  S  S95  1  0.596615  0.028484  0.268298  1
  S  S96  1  0.127260  0.160101  0.647780  1
  S  S97  1  0.627260  0.839899  0.352220  1
  S  S98  1  0.910508  0.805195  0.914430  1
  S  S99  1  0.574634  0.454537  0.454892  1
  S  S100  1  0.215334  0.275168  0.492468  1
  S  S101  1  0.780292  0.231935  0.204574  1
  S  S102  1  0.087808  0.715922  0.142640  1
  S  S103  1  0.910508  0.694805  0.414430  1
  S  S104  1  0.291781  0.940687  0.884033  1
  S  S105  1  0.087808  0.784078  0.642640  1
  S  S106  1  0.927763  0.198252  0.915713  1
  S  S107  1  0.221358  0.932523  0.401238  1
  S  S108  1  0.780292  0.268065  0.704574  1
  S  S109  1  0.925470  0.480068  0.339355  1
  S  S110  1  0.964030  0.066490  0.331326  1
  S  S111  1  0.215334  0.224832  0.992468  1
