# generated using pymatgen
data_CdI2
_symmetry_space_group_name_H-M   'P 1'
_cell_length_a   4.33445733
_cell_length_b   4.33445759
_cell_length_c   90.38394665
_cell_angle_alpha   90.00000000
_cell_angle_beta   90.00000000
_cell_angle_gamma   119.99999796
_symmetry_Int_Tables_number   1
_chemical_formula_structural   CdI2
_chemical_formula_sum   'Cd12 I24'
_cell_volume   1470.58940058
_cell_formula_units_Z   12
loop_
 _symmetry_equiv_pos_site_id
 _symmetry_equiv_pos_as_xyz
  1  'x, y, z'
loop_
 _atom_site_type_symbol
 _atom_site_label
 _atom_site_symmetry_multiplicity
 _atom_site_fract_x
 _atom_site_fract_y
 _atom_site_fract_z
 _atom_site_occupancy
  Cd  Cd0  1  0.000000  0.000000  0.270817  1
  Cd  Cd1  1  0.000000  0.000000  0.937475  1
  Cd  Cd2  1  0.666667  0.333333  0.020865  1
  Cd  Cd3  1  0.000000  0.000000  0.437477  1
  Cd  Cd4  1  0.666667  0.333333  0.770826  1
  Cd  Cd5  1  0.000000  0.000000  0.104151  1
  Cd  Cd6  1  0.666667  0.333333  0.354198  1
  Cd  Cd7  1  0.000000  0.000000  0.604147  1
  Cd  Cd8  1  0.666667  0.333333  0.187533  1
  Cd  Cd9  1  0.000000  0.000000  0.854172  1
  Cd  Cd10  1  0.666667  0.333333  0.520863  1
  Cd  Cd11  1  0.000000  0.000000  0.687494  1
  I  I12  1  0.000000  0.000000  0.168457  1
  I  I13  1  0.666667  0.333333  0.585074  1
  I  I14  1  0.333333  0.666667  0.789894  1
  I  I15  1  0.666667  0.333333  0.085081  1
  I  I16  1  0.333333  0.666667  0.456545  1
  I  I17  1  0.333333  0.666667  0.206604  1
  I  I18  1  0.333333  0.666667  0.956543  1
  I  I19  1  0.666667  0.333333  0.835106  1
  I  I20  1  0.666667  0.333333  0.918404  1
  I  I21  1  0.333333  0.666667  0.539933  1
  I  I22  1  0.333333  0.666667  0.123219  1
  I  I23  1  0.333333  0.666667  0.039936  1
  I  I24  1  0.000000  0.000000  0.751745  1
  I  I25  1  0.333333  0.666667  0.289885  1
  I  I26  1  0.333333  0.666667  0.373269  1
  I  I27  1  0.000000  0.000000  0.335121  1
  I  I28  1  0.333333  0.666667  0.623217  1
  I  I29  1  0.666667  0.333333  0.418405  1
  I  I30  1  0.333333  0.666667  0.706558  1
  I  I31  1  0.000000  0.000000  0.001785  1
  I  I32  1  0.666667  0.333333  0.668430  1
  I  I33  1  0.666667  0.333333  0.251747  1
  I  I34  1  0.333333  0.666667  0.873242  1
  I  I35  1  0.000000  0.000000  0.501783  1
