# generated using pymatgen
data_Pd34Se11
_symmetry_space_group_name_H-M   'P 1'
_cell_length_a   5.61071475
_cell_length_b   12.27848081
_cell_length_c   21.82762234
_cell_angle_alpha   99.67531977
_cell_angle_beta   90.00000000
_cell_angle_gamma   90.00000000
_symmetry_Int_Tables_number   1
_chemical_formula_structural   Pd34Se11
_chemical_formula_sum   'Pd68 Se22'
_cell_volume   1482.33880237
_cell_formula_units_Z   2
loop_
 _symmetry_equiv_pos_site_id
 _symmetry_equiv_pos_as_xyz
  1  'x, y, z'
loop_
 _atom_site_type_symbol
 _atom_site_label
 _atom_site_symmetry_multiplicity
 _atom_site_fract_x
 _atom_site_fract_y
 _atom_site_fract_z
 _atom_site_occupancy
  Pd  Pd0  1  0.571894  0.060314  0.449617  1
  Pd  Pd1  1  0.889306  0.592216  0.478585  1
  Pd  Pd2  1  0.389306  0.907784  0.021415  1
  Pd  Pd3  1  0.579610  0.219347  0.743140  1
  Pd  Pd4  1  0.890541  0.451845  0.174559  1
  Pd  Pd5  1  0.086988  0.726318  0.370710  1
  Pd  Pd6  1  0.702431  0.748978  0.584624  1
  Pd  Pd7  1  0.351991  0.586548  0.713848  1
  Pd  Pd8  1  0.797569  0.248978  0.084624  1
  Pd  Pd9  1  0.071894  0.439686  0.050383  1
  Pd  Pd10  1  0.814419  0.028023  0.104239  1
  Pd  Pd11  1  0.297569  0.251022  0.415376  1
  Pd  Pd12  1  0.926041  0.157271  0.855479  1
  Pd  Pd13  1  0.220997  0.175590  0.533147  1
  Pd  Pd14  1  0.624628  0.315308  0.521618  1
  Pd  Pd15  1  0.079610  0.280653  0.756860  1
  Pd  Pd16  1  0.408882  0.376357  0.165499  1
  Pd  Pd17  1  0.647109  0.192134  0.207819  1
  Pd  Pd18  1  0.648009  0.413452  0.286152  1
  Pd  Pd19  1  0.920390  0.719347  0.243140  1
  Pd  Pd20  1  0.591118  0.623643  0.834501  1
  Pd  Pd21  1  0.375372  0.684692  0.478382  1
  Pd  Pd22  1  0.609459  0.951845  0.674559  1
  Pd  Pd23  1  0.586988  0.773682  0.129290  1
  Pd  Pd24  1  0.110694  0.407784  0.521415  1
  Pd  Pd25  1  0.851991  0.913452  0.786152  1
  Pd  Pd26  1  0.148009  0.086548  0.213848  1
  Pd  Pd27  1  0.091118  0.876357  0.665499  1
  Pd  Pd28  1  0.573959  0.657271  0.355479  1
  Pd  Pd29  1  0.295347  0.035099  0.774935  1
  Pd  Pd30  1  0.814604  0.362935  0.404641  1
  Pd  Pd31  1  0.579497  0.503326  0.066209  1
  Pd  Pd32  1  0.875372  0.815308  0.021618  1
  Pd  Pd33  1  0.202431  0.751022  0.915376  1
  Pd  Pd34  1  0.748178  0.391313  0.844384  1
  Pd  Pd35  1  0.920503  0.003326  0.566209  1
  Pd  Pd36  1  0.204653  0.535099  0.274935  1
  Pd  Pd37  1  0.390541  0.048155  0.325441  1
  Pd  Pd38  1  0.314605  0.137065  0.095359  1
  Pd  Pd39  1  0.352891  0.807866  0.792181  1
  Pd  Pd40  1  0.913012  0.273682  0.629290  1
  Pd  Pd41  1  0.185395  0.637065  0.595360  1
  Pd  Pd42  1  0.704653  0.964901  0.225065  1
  Pd  Pd43  1  0.248178  0.108687  0.655616  1
  Pd  Pd44  1  0.426041  0.342729  0.644521  1
  Pd  Pd45  1  0.428106  0.939686  0.550383  1
  Pd  Pd46  1  0.314419  0.471977  0.395761  1
  Pd  Pd47  1  0.751822  0.891313  0.344384  1
  Pd  Pd48  1  0.928106  0.560314  0.949617  1
  Pd  Pd49  1  0.147109  0.307866  0.292181  1
  Pd  Pd50  1  0.079497  0.996674  0.433791  1
  Pd  Pd51  1  0.109459  0.548155  0.825441  1
  Pd  Pd52  1  0.795347  0.464901  0.725065  1
  Pd  Pd53  1  0.779003  0.824410  0.466853  1
  Pd  Pd54  1  0.852891  0.692134  0.707819  1
  Pd  Pd55  1  0.413012  0.226318  0.870710  1
  Pd  Pd56  1  0.073959  0.842729  0.144521  1
  Pd  Pd57  1  0.685581  0.528023  0.604239  1
  Pd  Pd58  1  0.251822  0.608687  0.155616  1
  Pd  Pd59  1  0.124628  0.184692  0.978382  1
  Pd  Pd60  1  0.685396  0.862935  0.904640  1
  Pd  Pd61  1  0.420390  0.780653  0.256860  1
  Pd  Pd62  1  0.420503  0.496674  0.933791  1
  Pd  Pd63  1  0.610694  0.092216  0.978585  1
  Pd  Pd64  1  0.279003  0.675590  0.033147  1
  Pd  Pd65  1  0.908882  0.123643  0.334501  1
  Pd  Pd66  1  0.720997  0.324410  0.966853  1
  Pd  Pd67  1  0.185581  0.971977  0.895761  1
  Se  Se68  1  0.588745  0.140040  0.588976  1
  Se  Se69  1  0.411255  0.859960  0.411024  1
  Se  Se70  1  0.049772  0.264426  0.178592  1
  Se  Se71  1  0.549772  0.235574  0.321408  1
  Se  Se72  1  0.911255  0.640040  0.088976  1
  Se  Se73  1  0.422212  0.963542  0.138776  1
  Se  Se74  1  0.913162  0.189051  0.454909  1
  Se  Se75  1  0.077788  0.463542  0.638776  1
  Se  Se76  1  0.088745  0.359960  0.911024  1
  Se  Se77  1  0.500000  0.500000  0.500000  1
  Se  Se78  1  0.584727  0.585665  0.227008  1
  Se  Se79  1  0.577788  0.036458  0.861224  1
  Se  Se80  1  0.586838  0.689051  0.954909  1
  Se  Se81  1  0.950228  0.735574  0.821408  1
  Se  Se82  1  0.084727  0.914335  0.272992  1
  Se  Se83  1  0.086838  0.810949  0.545091  1
  Se  Se84  1  0.450228  0.764426  0.678592  1
  Se  Se85  1  0.922212  0.536458  0.361224  1
  Se  Se86  1  0.413162  0.310949  0.045091  1
  Se  Se87  1  0.000000  0.000000  0.000000  1
  Se  Se88  1  0.915273  0.085665  0.727008  1
  Se  Se89  1  0.415273  0.414335  0.772992  1
