# generated using pymatgen
data_Li2Fe(PO4)2
_symmetry_space_group_name_H-M   'P 1'
_cell_length_a   8.15183846
_cell_length_b   5.36536126
_cell_length_c   6.41052947
_cell_angle_alpha   90.00000000
_cell_angle_beta   91.23899524
_cell_angle_gamma   90.00000000
_symmetry_Int_Tables_number   1
_chemical_formula_structural   Li2Fe(PO4)2
_chemical_formula_sum   'Li4 Fe2 P4 O16'
_cell_volume   280.31535278
_cell_formula_units_Z   2
loop_
 _symmetry_equiv_pos_site_id
 _symmetry_equiv_pos_as_xyz
  1  'x, y, z'
loop_
 _atom_site_type_symbol
 _atom_site_label
 _atom_site_symmetry_multiplicity
 _atom_site_fract_x
 _atom_site_fract_y
 _atom_site_fract_z
 _atom_site_occupancy
  Li  Li0  1  0.253341  0.250000  0.487142  1
  Li  Li1  1  0.925813  0.250000  0.728446  1
  Li  Li2  1  0.752314  0.750000  0.488871  1
  Li  Li3  1  0.425600  0.750000  0.730253  1
  Fe  Fe4  1  0.252931  0.250000  0.008628  1
  Fe  Fe5  1  0.752891  0.750000  0.008673  1
  P  P6  1  0.601225  0.250000  0.764794  1
  P  P7  1  0.895974  0.250000  0.232471  1
  P  P8  1  0.395850  0.750000  0.233359  1
  P  P9  1  0.101234  0.750000  0.765527  1
  O  O10  1  0.216979  0.516793  0.770729  1
  O  O11  1  0.989825  0.750000  0.956591  1
  O  O12  1  0.496159  0.250000  0.563542  1
  O  O13  1  0.286868  0.512884  0.228432  1
  O  O14  1  0.786850  0.486994  0.228130  1
  O  O15  1  0.716768  0.016618  0.770216  1
  O  O16  1  0.496684  0.750000  0.440838  1
  O  O17  1  0.997344  0.250000  0.439354  1
  O  O18  1  0.716768  0.483382  0.770216  1
  O  O19  1  0.489591  0.250000  0.955573  1
  O  O20  1  0.216979  0.983207  0.770729  1
  O  O21  1  0.786850  0.013006  0.228130  1
  O  O22  1  0.509030  0.750000  0.039731  1
  O  O23  1  0.008737  0.250000  0.038426  1
  O  O24  1  0.286868  0.987116  0.228432  1
  O  O25  1  0.995454  0.750000  0.565236  1
