# generated using pymatgen
data_RbMn6As7O24
_symmetry_space_group_name_H-M   'P 1'
_cell_length_a   5.63490439
_cell_length_b   6.92742265
_cell_length_c   28.22500317
_cell_angle_alpha   90.00000000
_cell_angle_beta   90.00000000
_cell_angle_gamma   107.71959201
_symmetry_Int_Tables_number   1
_chemical_formula_structural   RbMn6As7O24
_chemical_formula_sum   'Rb2 Mn12 As14 O48'
_cell_volume   1049.50236129
_cell_formula_units_Z   2
loop_
 _symmetry_equiv_pos_site_id
 _symmetry_equiv_pos_as_xyz
  1  'x, y, z'
loop_
 _atom_site_type_symbol
 _atom_site_label
 _atom_site_symmetry_multiplicity
 _atom_site_fract_x
 _atom_site_fract_y
 _atom_site_fract_z
 _atom_site_occupancy
  Rb  Rb0  1  0.697868  0.101848  0.250000  1
  Rb  Rb1  1  0.302132  0.898152  0.750000  1
  Mn  Mn2  1  0.816652  0.819737  0.543290  1
  Mn  Mn3  1  0.214076  0.599444  0.598196  1
  Mn  Mn4  1  0.105995  0.748461  0.315595  1
  Mn  Mn5  1  0.894005  0.251539  0.815595  1
  Mn  Mn6  1  0.105995  0.748461  0.184405  1
  Mn  Mn7  1  0.183348  0.180263  0.456710  1
  Mn  Mn8  1  0.894005  0.251539  0.684405  1
  Mn  Mn9  1  0.785924  0.400556  0.098196  1
  Mn  Mn10  1  0.214076  0.599444  0.901804  1
  Mn  Mn11  1  0.785924  0.400556  0.401804  1
  Mn  Mn12  1  0.183348  0.180263  0.043290  1
  Mn  Mn13  1  0.816652  0.819737  0.956710  1
  As  As14  1  0.524763  0.566797  0.250000  1
  As  As15  1  0.725683  0.301650  0.522645  1
  As  As16  1  0.684466  0.873486  0.387022  1
  As  As17  1  0.274317  0.698350  0.477355  1
  As  As18  1  0.274317  0.698350  0.022645  1
  As  As19  1  0.475237  0.433203  0.750000  1
  As  As20  1  0.773771  0.726267  0.836637  1
  As  As21  1  0.315534  0.126514  0.887022  1
  As  As22  1  0.315534  0.126514  0.612978  1
  As  As23  1  0.226229  0.273733  0.336637  1
  As  As24  1  0.773771  0.726267  0.663363  1
  As  As25  1  0.226229  0.273733  0.163363  1
  As  As26  1  0.684466  0.873486  0.112978  1
  As  As27  1  0.725683  0.301650  0.977355  1
  O  O28  1  0.829791  0.703536  0.250000  1
  O  O29  1  0.391838  0.268548  0.113050  1
  O  O30  1  0.043216  0.431293  0.163180  1
  O  O31  1  0.581913  0.324752  0.029409  1
  O  O32  1  0.888288  0.130145  0.519922  1
  O  O33  1  0.106438  0.473492  0.047726  1
  O  O34  1  0.170209  0.296464  0.750000  1
  O  O35  1  0.307425  0.691441  0.250000  1
  O  O36  1  0.893562  0.526508  0.952274  1
  O  O37  1  0.879110  0.110409  0.401282  1
  O  O38  1  0.504347  0.594643  0.700728  1
  O  O39  1  0.106438  0.473492  0.452274  1
  O  O40  1  0.901464  0.945290  0.807041  1
  O  O41  1  0.879110  0.110409  0.098718  1
  O  O42  1  0.111712  0.869855  0.019922  1
  O  O43  1  0.495653  0.405357  0.200728  1
  O  O44  1  0.956784  0.568707  0.663180  1
  O  O45  1  0.120890  0.889590  0.901282  1
  O  O46  1  0.901464  0.945290  0.692959  1
  O  O47  1  0.495653  0.405357  0.299272  1
  O  O48  1  0.448485  0.201905  0.943877  1
  O  O49  1  0.551515  0.798095  0.443877  1
  O  O50  1  0.581913  0.324752  0.470591  1
  O  O51  1  0.098536  0.054710  0.307041  1
  O  O52  1  0.148100  0.291828  0.623628  1
  O  O53  1  0.551515  0.798095  0.056123  1
  O  O54  1  0.608162  0.731452  0.613050  1
  O  O55  1  0.608162  0.731452  0.886950  1
  O  O56  1  0.448485  0.201905  0.556123  1
  O  O57  1  0.148100  0.291828  0.876372  1
  O  O58  1  0.522189  0.130058  0.843845  1
  O  O59  1  0.098536  0.054710  0.192959  1
  O  O60  1  0.418087  0.675248  0.970591  1
  O  O61  1  0.851900  0.708172  0.123628  1
  O  O62  1  0.120890  0.889590  0.598718  1
  O  O63  1  0.111712  0.869855  0.480078  1
  O  O64  1  0.956784  0.568707  0.836820  1
  O  O65  1  0.522189  0.130058  0.656155  1
  O  O66  1  0.043216  0.431293  0.336820  1
  O  O67  1  0.504347  0.594643  0.799272  1
  O  O68  1  0.893562  0.526508  0.547726  1
  O  O69  1  0.477811  0.869942  0.343845  1
  O  O70  1  0.418087  0.675248  0.529409  1
  O  O71  1  0.851900  0.708172  0.376372  1
  O  O72  1  0.888288  0.130145  0.980078  1
  O  O73  1  0.692575  0.308559  0.750000  1
  O  O74  1  0.391838  0.268548  0.386950  1
  O  O75  1  0.477811  0.869942  0.156155  1
