# generated using pymatgen
data_Ca3V2O8
_symmetry_space_group_name_H-M   'P 1'
_cell_length_a   5.63264647
_cell_length_b   5.64281226
_cell_length_c   7.10935988
_cell_angle_alpha   66.32642824
_cell_angle_beta   66.66518298
_cell_angle_gamma   60.05636119
_symmetry_Int_Tables_number   1
_chemical_formula_structural   Ca3V2O8
_chemical_formula_sum   'Ca3 V2 O8'
_cell_volume   173.78725682
_cell_formula_units_Z   1
loop_
 _symmetry_equiv_pos_site_id
 _symmetry_equiv_pos_as_xyz
  1  'x, y, z'
loop_
 _atom_site_type_symbol
 _atom_site_label
 _atom_site_symmetry_multiplicity
 _atom_site_fract_x
 _atom_site_fract_y
 _atom_site_fract_z
 _atom_site_occupancy
  Ca  Ca0  1  0.000000  0.000000  0.000000  1
  Ca  Ca1  1  0.193393  0.198785  0.414391  1
  Ca  Ca2  1  0.806607  0.801215  0.585609  1
  V  V3  1  0.403746  0.403765  0.788733  1
  V  V4  1  0.596254  0.596235  0.211267  1
  O  O5  1  0.262872  0.773585  0.700553  1
  O  O6  1  0.737128  0.226415  0.299447  1
  O  O7  1  0.316496  0.307336  0.059724  1
  O  O8  1  0.683504  0.692664  0.940276  1
  O  O9  1  0.227544  0.732552  0.301574  1
  O  O10  1  0.261727  0.267415  0.698388  1
  O  O11  1  0.772456  0.267448  0.698426  1
  O  O12  1  0.738273  0.732585  0.301612  1
