# generated using pymatgen
data_NaV3(PO4)3
_symmetry_space_group_name_H-M   'P 1'
_cell_length_a   6.56838332
_cell_length_b   9.16078587
_cell_length_c   9.16078666
_cell_angle_alpha   71.30362144
_cell_angle_beta   68.99156527
_cell_angle_gamma   68.99156239
_symmetry_Int_Tables_number   1
_chemical_formula_structural   NaV3(PO4)3
_chemical_formula_sum   'Na2 V6 P6 O24'
_cell_volume   468.56588862
_cell_formula_units_Z   2
loop_
 _symmetry_equiv_pos_site_id
 _symmetry_equiv_pos_as_xyz
  1  'x, y, z'
loop_
 _atom_site_type_symbol
 _atom_site_label
 _atom_site_symmetry_multiplicity
 _atom_site_fract_x
 _atom_site_fract_y
 _atom_site_fract_z
 _atom_site_occupancy
  Na  Na0  1  0.350616  0.250000  0.250000  1
  Na  Na1  1  0.649384  0.750000  0.750000  1
  V  V2  1  0.113959  0.886041  0.386041  1
  V  V3  1  0.000000  0.000000  0.000000  1
  V  V4  1  0.886041  0.613959  0.113959  1
  V  V5  1  0.886041  0.113959  0.613959  1
  V  V6  1  0.113959  0.386041  0.886041  1
  V  V7  1  0.500000  0.500000  0.500000  1
  P  P8  1  0.323478  0.176522  0.676522  1
  P  P9  1  0.323478  0.676522  0.176522  1
  P  P10  1  0.166568  0.750000  0.750000  1
  P  P11  1  0.833432  0.250000  0.250000  1
  P  P12  1  0.676522  0.323478  0.823478  1
  P  P13  1  0.676522  0.823478  0.323478  1
  O  O14  1  0.287744  0.646592  0.365418  1
  O  O15  1  0.570851  0.079337  0.649707  1
  O  O16  1  0.429149  0.350293  0.920663  1
  O  O17  1  0.608419  0.344535  0.344535  1
  O  O18  1  0.799755  0.853408  0.134582  1
  O  O19  1  0.391581  0.655465  0.655465  1
  O  O20  1  0.799755  0.134582  0.853408  1
  O  O21  1  0.570851  0.649707  0.079337  1
  O  O22  1  0.799895  0.850293  0.420663  1
  O  O23  1  0.016097  0.634774  0.865226  1
  O  O24  1  0.200245  0.865418  0.146592  1
  O  O25  1  0.287744  0.365418  0.646592  1
  O  O26  1  0.712256  0.634582  0.353408  1
  O  O27  1  0.016097  0.865226  0.634774  1
  O  O28  1  0.983903  0.134774  0.365226  1
  O  O29  1  0.797490  0.155465  0.155465  1
  O  O30  1  0.712256  0.353408  0.634582  1
  O  O31  1  0.202510  0.844535  0.844535  1
  O  O32  1  0.200245  0.146592  0.865418  1
  O  O33  1  0.200105  0.579337  0.149707  1
  O  O34  1  0.799895  0.420663  0.850293  1
  O  O35  1  0.429149  0.920663  0.350293  1
  O  O36  1  0.983903  0.365226  0.134774  1
  O  O37  1  0.200105  0.149707  0.579337  1
