# generated using pymatgen
data_SiO2
_symmetry_space_group_name_H-M   'P 1'
_cell_length_a   6.04558691
_cell_length_b   6.04558702
_cell_length_c   6.04558741
_cell_angle_alpha   88.00691228
_cell_angle_beta   88.00691241
_cell_angle_gamma   88.00691420
_symmetry_Int_Tables_number   1
_chemical_formula_structural   SiO2
_chemical_formula_sum   'Si6 O12'
_cell_volume   220.56895558
_cell_formula_units_Z   6
loop_
 _symmetry_equiv_pos_site_id
 _symmetry_equiv_pos_as_xyz
  1  'x, y, z'
loop_
 _atom_site_type_symbol
 _atom_site_label
 _atom_site_symmetry_multiplicity
 _atom_site_fract_x
 _atom_site_fract_y
 _atom_site_fract_z
 _atom_site_occupancy
  Si  Si0  1  0.252799  0.503645  0.889198  1
  Si  Si1  1  0.503645  0.889198  0.252799  1
  Si  Si2  1  0.496355  0.110802  0.747201  1
  Si  Si3  1  0.889198  0.252799  0.503645  1
  Si  Si4  1  0.110802  0.747201  0.496355  1
  Si  Si5  1  0.747201  0.496355  0.110802  1
  O  O6  1  0.247920  0.725783  0.727439  1
  O  O7  1  0.725783  0.727439  0.247920  1
  O  O8  1  0.274217  0.272561  0.752080  1
  O  O9  1  0.000000  0.500000  0.000000  1
  O  O10  1  0.272561  0.752080  0.274217  1
  O  O11  1  0.500000  0.000000  0.000000  1
  O  O12  1  0.727439  0.247920  0.725783  1
  O  O13  1  0.500000  0.000000  0.500000  1
  O  O14  1  0.752080  0.274217  0.272561  1
  O  O15  1  0.000000  0.500000  0.500000  1
  O  O16  1  0.000000  0.000000  0.500000  1
  O  O17  1  0.500000  0.500000  0.000000  1
