# generated using pymatgen
data_Na3VF6
_symmetry_space_group_name_H-M   'P 1'
_cell_length_a   5.59688931
_cell_length_b   5.83030992
_cell_length_c   8.12639550
_cell_angle_alpha   90.00000000
_cell_angle_beta   90.68864598
_cell_angle_gamma   90.00000000
_symmetry_Int_Tables_number   1
_chemical_formula_structural   Na3VF6
_chemical_formula_sum   'Na6 V2 F12'
_cell_volume   265.15812781
_cell_formula_units_Z   2
loop_
 _symmetry_equiv_pos_site_id
 _symmetry_equiv_pos_as_xyz
  1  'x, y, z'
loop_
 _atom_site_type_symbol
 _atom_site_label
 _atom_site_symmetry_multiplicity
 _atom_site_fract_x
 _atom_site_fract_y
 _atom_site_fract_z
 _atom_site_occupancy
  F  F0  1  0.667213  0.219683  0.424380  1
  F  F1  1  0.832787  0.719683  0.075620  1
  F  F2  1  0.332787  0.780317  0.575620  1
  F  F3  1  0.167213  0.280317  0.924380  1
  F  F4  1  0.209799  0.322077  0.551039  1
  F  F5  1  0.290201  0.822077  0.948961  1
  F  F6  1  0.790201  0.677923  0.448961  1
  F  F7  1  0.709799  0.177923  0.051039  1
  F  F8  1  0.119458  0.064279  0.226386  1
  F  F9  1  0.380542  0.564279  0.273614  1
  F  F10  1  0.880542  0.935721  0.773614  1
  F  F11  1  0.619458  0.435721  0.726386  1
  Na  Na12  1  0.015351  0.553328  0.739874  1
  Na  Na13  1  0.484649  0.053328  0.760126  1
  Na  Na14  1  0.984649  0.446672  0.260126  1
  Na  Na15  1  0.515351  0.946672  0.239874  1
  Na  Na16  1  0.500000  0.500000  0.000000  1
  Na  Na17  1  0.000000  0.000000  0.500000  1
  V  V18  1  0.500000  0.500000  0.500000  1
  V  V19  1  0.000000  0.000000  0.000000  1
