# generated using pymatgen
data_Mg8BPt4
_symmetry_space_group_name_H-M   'P 1'
_cell_length_a   8.72149103
_cell_length_b   8.72149104
_cell_length_c   8.72149147
_cell_angle_alpha   60.00000219
_cell_angle_beta   60.00000218
_cell_angle_gamma   60.00000148
_symmetry_Int_Tables_number   1
_chemical_formula_structural   Mg8BPt4
_chemical_formula_sum   'Mg16 B2 Pt8'
_cell_volume   469.09117121
_cell_formula_units_Z   2
loop_
 _symmetry_equiv_pos_site_id
 _symmetry_equiv_pos_as_xyz
  1  'x, y, z'
loop_
 _atom_site_type_symbol
 _atom_site_label
 _atom_site_symmetry_multiplicity
 _atom_site_fract_x
 _atom_site_fract_y
 _atom_site_fract_z
 _atom_site_occupancy
  Mg  Mg0  1  0.675146  0.675146  0.074854  1
  Mg  Mg1  1  0.675146  0.074854  0.074854  1
  Mg  Mg2  1  0.925146  0.925146  0.324854  1
  Mg  Mg3  1  0.500000  0.500000  0.500000  1
  Mg  Mg4  1  0.925146  0.324854  0.925146  1
  Mg  Mg5  1  0.324854  0.925146  0.925146  1
  Mg  Mg6  1  0.324854  0.324854  0.925146  1
  Mg  Mg7  1  0.074854  0.675146  0.074854  1
  Mg  Mg8  1  0.500000  0.500000  0.000000  1
  Mg  Mg9  1  0.675146  0.074854  0.675146  1
  Mg  Mg10  1  0.074854  0.675146  0.675146  1
  Mg  Mg11  1  0.324854  0.925146  0.324854  1
  Mg  Mg12  1  0.500000  0.000000  0.500000  1
  Mg  Mg13  1  0.925146  0.324854  0.324854  1
  Mg  Mg14  1  0.000000  0.500000  0.500000  1
  Mg  Mg15  1  0.074854  0.074854  0.675146  1
  B  B16  1  0.375000  0.375000  0.375000  1
  B  B17  1  0.625000  0.625000  0.625000  1
  Pt  Pt18  1  0.724255  0.724255  0.724255  1
  Pt  Pt19  1  0.724255  0.327235  0.724255  1
  Pt  Pt20  1  0.327235  0.724255  0.724255  1
  Pt  Pt21  1  0.672765  0.275745  0.275745  1
  Pt  Pt22  1  0.275745  0.275745  0.275745  1
  Pt  Pt23  1  0.275745  0.275745  0.672765  1
  Pt  Pt24  1  0.275745  0.672765  0.275745  1
  Pt  Pt25  1  0.724255  0.724255  0.327235  1
