# generated using pymatgen
data_Rb3Hg2S3ClO12
_symmetry_space_group_name_H-M   'P 1'
_cell_length_a   8.08149025
_cell_length_b   10.04379634
_cell_length_c   10.24350309
_cell_angle_alpha   90.00000000
_cell_angle_beta   110.88255539
_cell_angle_gamma   90.00000000
_symmetry_Int_Tables_number   1
_chemical_formula_structural   Rb3Hg2S3ClO12
_chemical_formula_sum   'Rb6 Hg4 S6 Cl2 O24'
_cell_volume   776.83765224
_cell_formula_units_Z   2
loop_
 _symmetry_equiv_pos_site_id
 _symmetry_equiv_pos_as_xyz
  1  'x, y, z'
loop_
 _atom_site_type_symbol
 _atom_site_label
 _atom_site_symmetry_multiplicity
 _atom_site_fract_x
 _atom_site_fract_y
 _atom_site_fract_z
 _atom_site_occupancy
  Rb  Rb0  1  0.098189  0.249603  0.267874  1
  Rb  Rb1  1  0.675909  0.554088  0.301340  1
  Rb  Rb2  1  0.901811  0.749603  0.732126  1
  Rb  Rb3  1  0.324091  0.054088  0.698660  1
  Rb  Rb4  1  0.316444  0.881570  0.131051  1
  Rb  Rb5  1  0.683556  0.381570  0.868949  1
  Hg  Hg6  1  0.240146  0.427077  0.952773  1
  Hg  Hg7  1  0.735161  0.148646  0.500505  1
  Hg  Hg8  1  0.264839  0.648646  0.499495  1
  Hg  Hg9  1  0.759854  0.927077  0.047227  1
  S  S10  1  0.970664  0.097037  0.891632  1
  S  S11  1  0.093819  0.392085  0.608873  1
  S  S12  1  0.548821  0.210096  0.140267  1
  S  S13  1  0.451179  0.710096  0.859733  1
  S  S14  1  0.906181  0.892085  0.391127  1
  S  S15  1  0.029336  0.597037  0.108368  1
  Cl  Cl16  1  0.475891  0.802689  0.479989  1
  Cl  Cl17  1  0.524109  0.302689  0.520011  1
  O  O18  1  0.015592  0.241266  0.907357  1
  O  O19  1  0.898890  0.516704  0.144033  1
  O  O20  1  0.588160  0.655544  0.811424  1
  O  O21  1  0.435496  0.634155  0.979785  1
  O  O22  1  0.977717  0.051205  0.038555  1
  O  O23  1  0.022283  0.551205  0.961445  1
  O  O24  1  0.037826  0.255541  0.554319  1
  O  O25  1  0.275844  0.720422  0.743923  1
  O  O26  1  0.265245  0.383144  0.731765  1
  O  O27  1  0.957630  0.465804  0.641798  1
  O  O28  1  0.101110  0.016704  0.855967  1
  O  O29  1  0.787777  0.077065  0.790397  1
  O  O30  1  0.564504  0.134155  0.020215  1
  O  O31  1  0.497132  0.854736  0.910122  1
  O  O32  1  0.962174  0.755541  0.445681  1
  O  O33  1  0.132867  0.460821  0.488006  1
  O  O34  1  0.867133  0.960821  0.511994  1
  O  O35  1  0.734755  0.883144  0.268235  1
  O  O36  1  0.502868  0.354736  0.089878  1
  O  O37  1  0.984408  0.741266  0.092643  1
  O  O38  1  0.212223  0.577065  0.209603  1
  O  O39  1  0.042370  0.965804  0.358202  1
  O  O40  1  0.724156  0.220422  0.256077  1
  O  O41  1  0.411840  0.155544  0.188576  1
