# generated using pymatgen
data_Li10Mg7Cl24
_symmetry_space_group_name_H-M   'P 1'
_cell_length_a   7.43471631
_cell_length_b   7.43471674
_cell_length_c   44.47569766
_cell_angle_alpha   60.07079138
_cell_angle_beta   60.07078948
_cell_angle_gamma   60.25397284
_symmetry_Int_Tables_number   1
_chemical_formula_structural   Li10Mg7Cl24
_chemical_formula_sum   'Li20 Mg14 Cl48'
_cell_volume   1743.52793708
_cell_formula_units_Z   2
loop_
 _symmetry_equiv_pos_site_id
 _symmetry_equiv_pos_as_xyz
  1  'x, y, z'
loop_
 _atom_site_type_symbol
 _atom_site_label
 _atom_site_symmetry_multiplicity
 _atom_site_fract_x
 _atom_site_fract_y
 _atom_site_fract_z
 _atom_site_occupancy
  Cl  Cl0  1  0.253945  0.253945  0.042525  1
  Cl  Cl1  1  0.252909  0.252909  0.120940  1
  Cl  Cl2  1  0.253509  0.723906  0.042401  1
  Cl  Cl3  1  0.723906  0.253509  0.042401  1
  Cl  Cl4  1  0.278600  0.743804  0.123914  1
  Cl  Cl5  1  0.254720  0.254720  0.209799  1
  Cl  Cl6  1  0.743804  0.278600  0.123914  1
  Cl  Cl7  1  0.255647  0.718640  0.209494  1
  Cl  Cl8  1  0.252035  0.252035  0.289144  1
  Cl  Cl9  1  0.744214  0.744214  0.046336  1
  Cl  Cl10  1  0.743388  0.743388  0.123815  1
  Cl  Cl11  1  0.718640  0.255647  0.209494  1
  Cl  Cl12  1  0.277268  0.750557  0.289163  1
  Cl  Cl13  1  0.252645  0.252645  0.377162  1
  Cl  Cl14  1  0.750557  0.277268  0.289163  1
  Cl  Cl15  1  0.252560  0.252560  0.455381  1
  Cl  Cl16  1  0.250723  0.723198  0.377202  1
  Cl  Cl17  1  0.747102  0.747102  0.211515  1
  Cl  Cl18  1  0.750023  0.750023  0.288580  1
  Cl  Cl19  1  0.723198  0.250723  0.377202  1
  Cl  Cl20  1  0.276654  0.749844  0.456265  1
  Cl  Cl21  1  0.252455  0.252455  0.543942  1
  Cl  Cl22  1  0.249837  0.723458  0.544080  1
  Cl  Cl23  1  0.749844  0.276654  0.456265  1
  Cl  Cl24  1  0.252502  0.252502  0.622073  1
  Cl  Cl25  1  0.747774  0.747774  0.377926  1
  Cl  Cl26  1  0.723458  0.249837  0.544080  1
  Cl  Cl27  1  0.747451  0.747451  0.456225  1
  Cl  Cl28  1  0.276071  0.749736  0.622962  1
  Cl  Cl29  1  0.252300  0.252300  0.710498  1
  Cl  Cl30  1  0.749736  0.276071  0.622962  1
  Cl  Cl31  1  0.253449  0.253449  0.788320  1
  Cl  Cl32  1  0.249429  0.723487  0.710557  1
  Cl  Cl33  1  0.747252  0.747252  0.544801  1
  Cl  Cl34  1  0.746864  0.746864  0.623038  1
  Cl  Cl35  1  0.723487  0.249429  0.710557  1
  Cl  Cl36  1  0.276198  0.749596  0.789603  1
  Cl  Cl37  1  0.250765  0.250765  0.876707  1
  Cl  Cl38  1  0.749596  0.276198  0.789603  1
  Cl  Cl39  1  0.254708  0.254708  0.953373  1
  Cl  Cl40  1  0.250593  0.727774  0.876760  1
  Cl  Cl41  1  0.746784  0.746784  0.711462  1
  Cl  Cl42  1  0.747147  0.747147  0.789678  1
  Cl  Cl43  1  0.727774  0.250593  0.876760  1
  Cl  Cl44  1  0.278543  0.742909  0.957597  1
  Cl  Cl45  1  0.742909  0.278543  0.957597  1
  Cl  Cl46  1  0.746417  0.746417  0.879287  1
  Cl  Cl47  1  0.742637  0.742637  0.957760  1
  Li  Li48  1  0.494273  0.494273  0.082474  1
  Li  Li49  1  0.112963  0.112963  0.356338  1
  Li  Li50  1  0.498869  0.498869  0.250680  1
  Li  Li51  1  0.113853  0.113853  0.522702  1
  Li  Li52  1  0.500432  0.500432  0.333254  1
  Li  Li53  1  0.881803  0.881803  0.146037  1
  Li  Li54  1  0.500095  0.500095  0.416601  1
  Li  Li55  1  0.499994  0.499994  0.499956  1
  Li  Li56  1  0.113693  0.113693  0.689346  1
  Li  Li57  1  0.886982  0.886982  0.310200  1
  Li  Li58  1  0.499873  0.499873  0.583390  1
  Li  Li59  1  0.116235  0.116235  0.854496  1
  Li  Li60  1  0.499900  0.499900  0.666748  1
  Li  Li61  1  0.886387  0.886387  0.477270  1
  Li  Li62  1  0.500471  0.500471  0.749809  1
  Li  Li63  1  0.502686  0.502686  0.832082  1
  Li  Li64  1  0.885905  0.885905  0.643995  1
  Li  Li65  1  0.494570  0.494570  0.915993  1
  Li  Li66  1  0.886411  0.886411  0.810586  1
  Li  Li67  1  0.880501  0.880501  0.980491  1
  Mg  Mg68  1  0.012950  0.494727  0.082680  1
  Mg  Mg69  1  0.002804  0.497458  0.249895  1
  Mg  Mg70  1  0.492938  0.492938  0.169138  1
  Mg  Mg71  1  0.494727  0.012950  0.082680  1
  Mg  Mg72  1  0.000156  0.500244  0.416654  1
  Mg  Mg73  1  0.497458  0.002804  0.249895  1
  Mg  Mg74  1  -0.000214  0.499794  0.583444  1
  Mg  Mg75  1  0.500244  0.000156  0.416654  1
  Mg  Mg76  1  0.000011  0.500027  0.749807  1
  Mg  Mg77  1  0.499794  -0.000214  0.583444  1
  Mg  Mg78  1  0.010391  0.497009  0.916054  1
  Mg  Mg79  1  0.500027  0.000011  0.749807  1
  Mg  Mg80  1  0.497009  0.010391  0.916054  1
  Mg  Mg81  1  0.493779  0.493779  0.002730  1
