# generated using pymatgen
data_BaMo4(PO8)2
_symmetry_space_group_name_H-M   'P 1'
_cell_length_a   7.60041633
_cell_length_b   7.60041664
_cell_length_c   7.85067326
_cell_angle_alpha   118.95099900
_cell_angle_beta   118.95100029
_cell_angle_gamma   89.99999939
_symmetry_Int_Tables_number   1
_chemical_formula_structural   BaMo4(PO8)2
_chemical_formula_sum   'Ba1 Mo4 P2 O16'
_cell_volume   330.58245625
_cell_formula_units_Z   1
loop_
 _symmetry_equiv_pos_site_id
 _symmetry_equiv_pos_as_xyz
  1  'x, y, z'
loop_
 _atom_site_type_symbol
 _atom_site_label
 _atom_site_symmetry_multiplicity
 _atom_site_fract_x
 _atom_site_fract_y
 _atom_site_fract_z
 _atom_site_occupancy
  Ba  Ba0  1  0.000000  0.000000  0.000000  1
  Mo  Mo1  1  0.249494  0.494112  0.743606  1
  Mo  Mo2  1  0.750506  0.750506  0.256394  1
  Mo  Mo3  1  0.494112  0.249494  0.743606  1
  Mo  Mo4  1  0.505888  0.505888  0.256394  1
  P  P5  1  0.500000  0.000000  0.000000  1
  P  P6  1  0.000000  0.500000  0.000000  1
  O  O7  1  0.081688  0.362845  0.444533  1
  O  O8  1  0.190336  0.451688  0.153797  1
  O  O9  1  0.543890  0.543890  0.828299  1
  O  O10  1  0.548312  0.036538  0.846203  1
  O  O11  1  0.809664  0.297891  0.846203  1
  O  O12  1  0.297891  0.809664  0.846203  1
  O  O13  1  0.451688  0.190336  0.153797  1
  O  O14  1  0.963462  0.702109  0.153797  1
  O  O15  1  0.715591  0.456110  0.171701  1
  O  O16  1  0.702109  0.963462  0.153797  1
  O  O17  1  0.456110  0.715591  0.171701  1
  O  O18  1  0.362845  0.081688  0.444533  1
  O  O19  1  0.284409  0.284409  0.828299  1
  O  O20  1  0.036538  0.548312  0.846203  1
  O  O21  1  0.918312  0.918312  0.555467  1
  O  O22  1  0.637155  0.637155  0.555467  1
