# generated using pymatgen
data_SrV3O7
_symmetry_space_group_name_H-M   'P 1'
_cell_length_a   5.65424774
_cell_length_b   5.37612787
_cell_length_c   10.59282037
_cell_angle_alpha   90.00000000
_cell_angle_beta   90.00000000
_cell_angle_gamma   90.00000000
_symmetry_Int_Tables_number   1
_chemical_formula_structural   SrV3O7
_chemical_formula_sum   'Sr2 V6 O14'
_cell_volume   322.00011781
_cell_formula_units_Z   2
loop_
 _symmetry_equiv_pos_site_id
 _symmetry_equiv_pos_as_xyz
  1  'x, y, z'
loop_
 _atom_site_type_symbol
 _atom_site_label
 _atom_site_symmetry_multiplicity
 _atom_site_fract_x
 _atom_site_fract_y
 _atom_site_fract_z
 _atom_site_occupancy
  O  O0  1  0.453716  0.986479  0.880545  1
  O  O1  1  0.453716  0.513521  0.619455  1
  O  O2  1  0.546284  0.486479  0.119455  1
  O  O3  1  0.546284  0.013521  0.380545  1
  O  O4  1  0.546284  0.013521  0.119455  1
  O  O5  1  0.546284  0.486479  0.380545  1
  O  O6  1  0.453716  0.513521  0.880545  1
  O  O7  1  0.453716  0.986479  0.619455  1
  O  O8  1  0.873534  0.750000  0.750000  1
  O  O9  1  0.126466  0.250000  0.250000  1
  O  O10  1  0.902058  0.250000  0.559048  1
  O  O11  1  0.902058  0.250000  0.940952  1
  O  O12  1  0.097942  0.750000  0.440952  1
  O  O13  1  0.097942  0.750000  0.059048  1
  V  V14  1  0.420154  0.250000  0.250000  1
  V  V15  1  0.579846  0.750000  0.750000  1
  V  V16  1  0.381692  0.750000  0.019648  1
  V  V17  1  0.381692  0.750000  0.480352  1
  V  V18  1  0.618308  0.250000  0.980352  1
  V  V19  1  0.618308  0.250000  0.519648  1
  Sr  Sr20  1  0.853148  0.750000  0.250000  1
  Sr  Sr21  1  0.146852  0.250000  0.750000  1
