# generated using pymatgen
data_Nb7S2I19
_symmetry_space_group_name_H-M   'P 1'
_cell_length_a   13.16024882
_cell_length_b   16.21341645
_cell_length_c   22.70485800
_cell_angle_alpha   90.00000000
_cell_angle_beta   90.00000000
_cell_angle_gamma   93.53081658
_symmetry_Int_Tables_number   1
_chemical_formula_structural   Nb7S2I19
_chemical_formula_sum   'Nb28 S8 I76'
_cell_volume   4835.39854659
_cell_formula_units_Z   4
loop_
 _symmetry_equiv_pos_site_id
 _symmetry_equiv_pos_as_xyz
  1  'x, y, z'
loop_
 _atom_site_type_symbol
 _atom_site_label
 _atom_site_symmetry_multiplicity
 _atom_site_fract_x
 _atom_site_fract_y
 _atom_site_fract_z
 _atom_site_occupancy
  Nb  Nb0  1  0.627483  0.233607  0.910362  1
  Nb  Nb1  1  0.655052  0.218216  0.504258  1
  Nb  Nb2  1  0.753627  0.697719  0.886900  1
  Nb  Nb3  1  0.246373  0.802281  0.386900  1
  Nb  Nb4  1  0.246373  0.302281  0.113100  1
  Nb  Nb5  1  0.372517  0.766393  0.089638  1
  Nb  Nb6  1  0.131307  0.283426  0.008564  1
  Nb  Nb7  1  0.372517  0.266393  0.410362  1
  Nb  Nb8  1  0.655052  0.718216  0.995742  1
  Nb  Nb9  1  0.841153  0.733962  0.585260  1
  Nb  Nb10  1  0.841153  0.233962  0.914740  1
  Nb  Nb11  1  0.258809  0.924994  0.790150  1
  Nb  Nb12  1  0.131307  0.783426  0.491436  1
  Nb  Nb13  1  0.738872  0.207924  0.806653  1
  Nb  Nb14  1  0.261128  0.792076  0.193347  1
  Nb  Nb15  1  0.261128  0.292076  0.306653  1
  Nb  Nb16  1  0.738872  0.707924  0.693347  1
  Nb  Nb17  1  0.158847  0.266038  0.414740  1
  Nb  Nb18  1  0.741191  0.075006  0.209850  1
  Nb  Nb19  1  0.868693  0.216574  0.508564  1
  Nb  Nb20  1  0.868693  0.716574  0.991436  1
  Nb  Nb21  1  0.258809  0.424994  0.709850  1
  Nb  Nb22  1  0.753627  0.197719  0.613100  1
  Nb  Nb23  1  0.344948  0.781784  0.495742  1
  Nb  Nb24  1  0.158847  0.766038  0.085260  1
  Nb  Nb25  1  0.627483  0.733607  0.589638  1
  Nb  Nb26  1  0.741191  0.575006  0.290150  1
  Nb  Nb27  1  0.344948  0.281784  0.004258  1
  S  S28  1  0.768282  0.822075  0.947437  1
  S  S29  1  0.255148  0.163839  0.363410  1
  S  S30  1  0.231718  0.177925  0.052563  1
  S  S31  1  0.768282  0.322075  0.552563  1
  S  S32  1  0.231718  0.677925  0.447437  1
  S  S33  1  0.744852  0.836161  0.636590  1
  S  S34  1  0.744852  0.336161  0.863410  1
  S  S35  1  0.255148  0.663839  0.136590  1
  I  I36  1  0.265383  0.419742  0.213247  1
  I  I37  1  0.235605  0.260957  0.712232  1
  I  I38  1  0.193197  0.497182  0.612572  1
  I  I39  1  0.489393  0.626489  0.063357  1
  I  I40  1  0.455925  0.641434  0.527767  1
  I  I41  1  0.757933  0.318183  0.706808  1
  I  I42  1  0.193197  0.997182  0.887428  1
  I  I43  1  0.025761  0.124856  0.445120  1
  I  I44  1  0.510607  0.873511  0.563357  1
  I  I45  1  0.974239  0.375144  0.945120  1
  I  I46  1  0.265383  0.919742  0.286753  1
  I  I47  1  0.252740  0.934247  0.472001  1
  I  I48  1  0.025761  0.624856  0.054880  1
  I  I49  1  0.522647  0.200409  0.802820  1
  I  I50  1  0.967142  0.680407  0.883971  1
  I  I51  1  0.953501  0.197029  0.812282  1
  I  I52  1  0.544075  0.358566  0.472233  1
  I  I53  1  0.728939  0.746469  0.479200  1
  I  I54  1  0.462449  0.812879  0.392290  1
  I  I55  1  0.551419  0.578160  0.338611  1
  I  I56  1  0.462449  0.312879  0.107710  1
  I  I57  1  0.723263  0.081178  0.894786  1
  I  I58  1  0.242067  0.181817  0.206808  1
  I  I59  1  0.271061  0.253531  0.520800  1
  I  I60  1  0.074606  0.442428  0.761781  1
  I  I61  1  0.764395  0.239043  0.212232  1
  I  I62  1  0.032858  0.819593  0.383971  1
  I  I63  1  0.537551  0.187121  0.607710  1
  I  I64  1  0.252740  0.434247  0.027999  1
  I  I65  1  0.925394  0.057572  0.261781  1
  I  I66  1  0.992192  0.644376  0.516528  1
  I  I67  1  0.728939  0.246469  0.020800  1
  I  I68  1  0.477353  0.799591  0.197180  1
  I  I69  1  0.448581  0.921840  0.838611  1
  I  I70  1  0.806803  0.502818  0.387428  1
  I  I71  1  0.544075  0.858566  0.027767  1
  I  I72  1  0.653712  0.495667  0.197009  1
  I  I73  1  0.522647  0.700409  0.697180  1
  I  I74  1  0.032858  0.319593  0.116029  1
  I  I75  1  0.510607  0.373511  0.936643  1
  I  I76  1  0.953501  0.697029  0.687718  1
  I  I77  1  0.235605  0.760957  0.787768  1
  I  I78  1  0.455925  0.141434  0.972233  1
  I  I79  1  0.974239  0.875144  0.554880  1
  I  I80  1  0.925394  0.557572  0.238219  1
  I  I81  1  0.489393  0.126489  0.436643  1
  I  I82  1  0.230951  0.774140  0.601716  1
  I  I83  1  0.346288  0.004333  0.697009  1
  I  I84  1  0.764395  0.739043  0.287768  1
  I  I85  1  0.967142  0.180407  0.616029  1
  I  I86  1  0.007808  0.355624  0.483472  1
  I  I87  1  0.074606  0.942428  0.738219  1
  I  I88  1  0.734617  0.080258  0.713247  1
  I  I89  1  0.769049  0.225860  0.398284  1
  I  I90  1  0.007808  0.855624  0.016528  1
  I  I91  1  0.230951  0.274140  0.898284  1
  I  I92  1  0.046499  0.802971  0.187718  1
  I  I93  1  0.747260  0.565753  0.972001  1
  I  I94  1  0.276737  0.418822  0.394786  1
  I  I95  1  0.271061  0.753531  0.979200  1
  I  I96  1  0.242067  0.681817  0.293192  1
  I  I97  1  0.806803  0.002818  0.112572  1
  I  I98  1  0.734617  0.580258  0.786753  1
  I  I99  1  0.992192  0.144376  0.983472  1
  I  I100  1  0.448581  0.421840  0.661389  1
  I  I101  1  0.769049  0.725860  0.101716  1
  I  I102  1  0.537551  0.687121  0.892290  1
  I  I103  1  0.477353  0.299591  0.302820  1
  I  I104  1  0.551419  0.078160  0.161389  1
  I  I105  1  0.346288  0.504333  0.802991  1
  I  I106  1  0.723263  0.581178  0.605214  1
  I  I107  1  0.747260  0.065753  0.527999  1
  I  I108  1  0.046499  0.302971  0.312282  1
  I  I109  1  0.276737  0.918822  0.105214  1
  I  I110  1  0.653712  0.995667  0.302991  1
  I  I111  1  0.757933  0.818183  0.793192  1
