# generated using pymatgen
data_PCF3
_symmetry_space_group_name_H-M   'P 1'
_cell_length_a   9.99973942
_cell_length_b   10.07546587
_cell_length_c   16.98432094
_cell_angle_alpha   102.85011176
_cell_angle_beta   90.00000000
_cell_angle_gamma   90.00000000
_symmetry_Int_Tables_number   1
_chemical_formula_structural   PCF3
_chemical_formula_sum   'P20 C20 F60'
_cell_volume   1668.34810298
_cell_formula_units_Z   20
loop_
 _symmetry_equiv_pos_site_id
 _symmetry_equiv_pos_as_xyz
  1  'x, y, z'
loop_
 _atom_site_type_symbol
 _atom_site_label
 _atom_site_symmetry_multiplicity
 _atom_site_fract_x
 _atom_site_fract_y
 _atom_site_fract_z
 _atom_site_occupancy
  P  P0  1  0.764899  0.566148  0.398793  1
  P  P1  1  0.434462  0.598406  0.763762  1
  P  P2  1  0.814643  0.208797  0.825458  1
  P  P3  1  0.493087  0.613068  0.279215  1
  P  P4  1  0.735101  0.066148  0.898793  1
  P  P5  1  0.185357  0.791203  0.174542  1
  P  P6  1  0.565538  0.401594  0.236238  1
  P  P7  1  0.065538  0.098406  0.263762  1
  P  P8  1  0.685357  0.708797  0.325458  1
  P  P9  1  0.239288  0.617728  0.703305  1
  P  P10  1  0.993087  0.886932  0.220785  1
  P  P11  1  0.760712  0.382272  0.296695  1
  P  P12  1  0.235101  0.433852  0.601207  1
  P  P13  1  0.314643  0.291203  0.674542  1
  P  P14  1  0.506913  0.386932  0.720785  1
  P  P15  1  0.264899  0.933852  0.101207  1
  P  P16  1  0.006913  0.113068  0.779215  1
  P  P17  1  0.739288  0.882272  0.796695  1
  P  P18  1  0.934462  0.901594  0.736238  1
  P  P19  1  0.260712  0.117728  0.203305  1
  C  C20  1  0.874574  0.355907  0.910318  1
  C  C21  1  0.862758  0.923211  0.635586  1
  C  C22  1  0.374574  0.144093  0.589682  1
  C  C23  1  0.137242  0.076789  0.364414  1
  C  C24  1  0.950585  0.603258  0.384106  1
  C  C25  1  0.549415  0.103258  0.884106  1
  C  C26  1  0.637242  0.423211  0.135586  1
  C  C27  1  0.125426  0.644093  0.089682  1
  C  C28  1  0.049415  0.396742  0.615894  1
  C  C29  1  0.890398  0.918584  0.131092  1
  C  C30  1  0.609602  0.418584  0.631092  1
  C  C31  1  0.450585  0.896742  0.115894  1
  C  C32  1  0.698340  0.257474  0.358454  1
  C  C33  1  0.198340  0.242526  0.141546  1
  C  C34  1  0.625426  0.855907  0.410318  1
  C  C35  1  0.301660  0.742526  0.641546  1
  C  C36  1  0.362758  0.576789  0.864414  1
  C  C37  1  0.801660  0.757474  0.858454  1
  C  C38  1  0.390398  0.581416  0.368908  1
  C  C39  1  0.109602  0.081416  0.868908  1
  F  F40  1  0.078946  0.214614  0.103245  1
  F  F41  1  0.929662  0.321646  0.976076  1
  F  F42  1  0.570338  0.821646  0.476076  1
  F  F43  1  0.291962  0.250990  0.084358  1
  F  F44  1  0.267056  0.478936  0.860333  1
  F  F45  1  0.820137  0.803327  0.099477  1
  F  F46  1  0.040002  0.047062  0.930158  1
  F  F47  1  0.466542  0.069442  0.620422  1
  F  F48  1  0.320137  0.696673  0.400523  1
  F  F49  1  0.312782  0.868190  0.691863  1
  F  F50  1  0.193047  0.197614  0.402705  1
  F  F51  1  0.463387  0.547368  0.911577  1
  F  F52  1  0.767056  0.021064  0.639667  1
  F  F53  1  0.767823  0.438244  0.936741  1
  F  F54  1  0.421054  0.714614  0.603245  1
  F  F55  1  0.732177  0.938244  0.436741  1
  F  F56  1  0.992759  0.597262  0.306940  1
  F  F57  1  0.492759  0.902738  0.193060  1
  F  F58  1  0.533458  0.930558  0.379578  1
  F  F59  1  0.693047  0.302386  0.097295  1
  F  F60  1  0.963387  0.952632  0.588423  1
  F  F61  1  0.518892  0.229963  0.928178  1
  F  F62  1  0.578946  0.285386  0.396755  1
  F  F63  1  0.459998  0.547062  0.430158  1
  F  F64  1  0.507241  0.097262  0.806940  1
  F  F65  1  0.036613  0.047368  0.411577  1
  F  F66  1  0.033458  0.569442  0.120422  1
  F  F67  1  0.300405  0.479962  0.341696  1
  F  F68  1  0.524994  0.988754  0.086615  1
  F  F69  1  0.966542  0.430558  0.879578  1
  F  F70  1  0.481108  0.770037  0.071822  1
  F  F71  1  0.024994  0.511246  0.413385  1
  F  F72  1  0.921054  0.785386  0.896755  1
  F  F73  1  0.806953  0.802386  0.597295  1
  F  F74  1  0.708038  0.749010  0.915642  1
  F  F75  1  0.540002  0.452938  0.569842  1
  F  F76  1  0.812782  0.631810  0.808137  1
  F  F77  1  0.232177  0.561756  0.063259  1
  F  F78  1  0.179863  0.196673  0.900523  1
  F  F79  1  0.732944  0.521064  0.139667  1
  F  F80  1  0.232944  0.978936  0.360333  1
  F  F81  1  0.981108  0.729963  0.428178  1
  F  F82  1  0.800405  0.020038  0.158304  1
  F  F83  1  0.687218  0.131810  0.308137  1
  F  F84  1  0.679863  0.303327  0.599477  1
  F  F85  1  0.187218  0.368190  0.191863  1
  F  F86  1  0.475006  0.011246  0.913385  1
  F  F87  1  0.199595  0.979962  0.841696  1
  F  F88  1  0.070338  0.678354  0.023924  1
  F  F89  1  0.975006  0.488754  0.586615  1
  F  F90  1  0.536613  0.452632  0.088423  1
  F  F91  1  0.306953  0.697614  0.902705  1
  F  F92  1  0.699595  0.520038  0.658304  1
  F  F93  1  0.267823  0.061756  0.563259  1
  F  F94  1  0.791962  0.249010  0.415642  1
  F  F95  1  0.018892  0.270037  0.571822  1
  F  F96  1  0.429662  0.178354  0.523924  1
  F  F97  1  0.007241  0.402738  0.693060  1
  F  F98  1  0.959998  0.952938  0.069842  1
  F  F99  1  0.208038  0.750990  0.584358  1
