# generated using pymatgen
data_In2Te5
_symmetry_space_group_name_H-M   'P 1'
_cell_length_a   4.37797493
_cell_length_b   8.86301139
_cell_length_c   14.04781609
_cell_angle_alpha   89.64824513
_cell_angle_beta   88.45782304
_cell_angle_gamma   75.66460511
_symmetry_Int_Tables_number   1
_chemical_formula_structural   In2Te5
_chemical_formula_sum   'In4 Te10'
_cell_volume   527.92027742
_cell_formula_units_Z   2
loop_
 _symmetry_equiv_pos_site_id
 _symmetry_equiv_pos_as_xyz
  1  'x, y, z'
loop_
 _atom_site_type_symbol
 _atom_site_label
 _atom_site_symmetry_multiplicity
 _atom_site_fract_x
 _atom_site_fract_y
 _atom_site_fract_z
 _atom_site_occupancy
  In  In0  1  0.596999  0.770091  0.310105  1
  In  In1  1  0.997124  0.003228  0.143802  1
  In  In2  1  0.364418  0.229875  0.810334  1
  In  In3  1  1.000492  0.996783  0.643542  1
  Te  Te4  1  0.293637  0.387606  0.232152  1
  Te  Te5  1  0.401632  0.203507  0.603081  1
  Te  Te6  1  0.680067  0.612493  0.731875  1
  Te  Te7  1  0.179880  0.687220  0.585085  1
  Te  Te8  1  0.230510  0.534948  0.876635  1
  Te  Te9  1  0.993434  0.975522  0.352027  1
  Te  Te10  1  0.966977  0.024081  0.851739  1
  Te  Te11  1  0.867745  0.312640  0.085456  1
  Te  Te12  1  0.764976  0.465362  0.376732  1
  Te  Te13  1  0.606309  0.796645  0.102835  1
