# generated using pymatgen
data_Eu3BeO5
_symmetry_space_group_name_H-M   'P 1'
_cell_length_a   6.57633826
_cell_length_b   7.20175551
_cell_length_c   9.52401911
_cell_angle_alpha   89.93999416
_cell_angle_beta   90.00000000
_cell_angle_gamma   90.00000000
_symmetry_Int_Tables_number   1
_chemical_formula_structural   Eu3BeO5
_chemical_formula_sum   'Eu12 Be4 O20'
_cell_volume   451.06853862
_cell_formula_units_Z   4
loop_
 _symmetry_equiv_pos_site_id
 _symmetry_equiv_pos_as_xyz
  1  'x, y, z'
loop_
 _atom_site_type_symbol
 _atom_site_label
 _atom_site_symmetry_multiplicity
 _atom_site_fract_x
 _atom_site_fract_y
 _atom_site_fract_z
 _atom_site_occupancy
  Eu  Eu0  1  0.410597  0.750113  0.021530  1
  Eu  Eu1  1  0.918225  0.520496  0.173601  1
  Eu  Eu2  1  0.419734  0.021173  0.326209  1
  Eu  Eu3  1  0.580266  0.978827  0.673791  1
  Eu  Eu4  1  0.081775  0.479504  0.826399  1
  Eu  Eu5  1  0.418225  0.479504  0.326399  1
  Eu  Eu6  1  0.089403  0.750113  0.521530  1
  Eu  Eu7  1  0.919734  0.978827  0.173791  1
  Eu  Eu8  1  0.589403  0.249887  0.978470  1
  Eu  Eu9  1  0.581775  0.520496  0.673601  1
  Eu  Eu10  1  0.910597  0.249887  0.478470  1
  Eu  Eu11  1  0.080266  0.021173  0.826209  1
  Be  Be12  1  0.193292  0.250092  0.101714  1
  Be  Be13  1  0.806708  0.749908  0.898286  1
  Be  Be14  1  0.306708  0.250092  0.601714  1
  Be  Be15  1  0.693292  0.749908  0.398286  1
  O  O16  1  0.136462  0.250049  0.275081  1
  O  O17  1  0.307584  0.443360  0.070666  1
  O  O18  1  0.836685  0.250481  0.722177  1
  O  O19  1  0.663315  0.250481  0.222177  1
  O  O20  1  0.692203  0.943363  0.928706  1
  O  O21  1  0.307797  0.056637  0.071294  1
  O  O22  1  0.363538  0.250049  0.775081  1
  O  O23  1  0.481692  0.750178  0.489745  1
  O  O24  1  0.863538  0.749951  0.724919  1
  O  O25  1  0.336685  0.749519  0.777823  1
  O  O26  1  0.018308  0.750178  0.989745  1
  O  O27  1  0.807584  0.556640  0.429334  1
  O  O28  1  0.518308  0.249822  0.510255  1
  O  O29  1  0.163315  0.749519  0.277823  1
  O  O30  1  0.692416  0.556640  0.929334  1
  O  O31  1  0.192416  0.443360  0.570666  1
  O  O32  1  0.807797  0.943363  0.428706  1
  O  O33  1  0.636462  0.749951  0.224919  1
  O  O34  1  0.981692  0.249822  0.010255  1
  O  O35  1  0.192203  0.056637  0.571294  1
