# generated using pymatgen
data_Cd2Os(CN)6
_symmetry_space_group_name_H-M   'P 1'
_cell_length_a   6.45403137
_cell_length_b   6.45403123
_cell_length_c   6.63649985
_cell_angle_alpha   90.00000000
_cell_angle_beta   90.00000000
_cell_angle_gamma   120.00000077
_symmetry_Int_Tables_number   1
_chemical_formula_structural   Cd2Os(CN)6
_chemical_formula_sum   'Cd2 Os1 C6 N6'
_cell_volume   239.40424756
_cell_formula_units_Z   1
loop_
 _symmetry_equiv_pos_site_id
 _symmetry_equiv_pos_as_xyz
  1  'x, y, z'
loop_
 _atom_site_type_symbol
 _atom_site_label
 _atom_site_symmetry_multiplicity
 _atom_site_fract_x
 _atom_site_fract_y
 _atom_site_fract_z
 _atom_site_occupancy
  Cd  Cd0  1  0.333333  0.666667  0.501872  1
  Cd  Cd1  1  0.666667  0.333333  0.498128  1
  Os  Os2  1  0.000000  0.000000  0.000000  1
  C  C3  1  0.998784  0.751445  0.815852  1
  C  C4  1  0.248555  0.247339  0.815852  1
  C  C5  1  0.752661  0.001216  0.815852  1
  C  C6  1  0.247339  0.998784  0.184148  1
  C  C7  1  0.751445  0.752661  0.184148  1
  C  C8  1  0.001216  0.248555  0.184148  1
  N  N9  1  0.614511  0.615730  0.303265  1
  N  N10  1  0.001219  0.385489  0.303265  1
  N  N11  1  0.615730  0.001219  0.696735  1
  N  N12  1  0.384270  0.998781  0.303265  1
  N  N13  1  0.998781  0.614511  0.696735  1
  N  N14  1  0.385489  0.384270  0.696735  1
