# generated using pymatgen
data_Lu(PO3)3
_symmetry_space_group_name_H-M   'P 1'
_cell_length_a   6.75715201
_cell_length_b   7.84706455
_cell_length_c   8.78731343
_cell_angle_alpha   74.40182449
_cell_angle_beta   67.38832770
_cell_angle_gamma   64.49735048
_symmetry_Int_Tables_number   1
_chemical_formula_structural   Lu(PO3)3
_chemical_formula_sum   'Lu2 P6 O18'
_cell_volume   385.21436033
_cell_formula_units_Z   2
loop_
 _symmetry_equiv_pos_site_id
 _symmetry_equiv_pos_as_xyz
  1  'x, y, z'
loop_
 _atom_site_type_symbol
 _atom_site_label
 _atom_site_symmetry_multiplicity
 _atom_site_fract_x
 _atom_site_fract_y
 _atom_site_fract_z
 _atom_site_occupancy
  Lu  Lu0  1  0.609764  0.899420  0.353943  1
  Lu  Lu1  1  0.136872  0.399420  0.853943  1
  P  P2  1  0.554709  0.654862  0.082702  1
  P  P3  1  0.110878  0.938950  0.022349  1
  P  P4  1  0.927824  0.438950  0.522348  1
  P  P5  1  0.121149  0.867548  0.691948  1
  P  P6  1  0.707728  0.154862  0.582702  1
  P  P7  1  0.319354  0.367548  0.191948  1
  O  O8  1  0.956720  0.868891  0.177804  1
  O  O9  1  0.371470  0.785472  0.983930  1
  O  O10  1  0.876702  0.965039  0.659690  1
  O  O11  1  0.153193  0.434944  0.369108  1
  O  O12  1  0.785799  0.595851  0.954408  1
  O  O13  1  0.996585  0.368891  0.677804  1
  O  O14  1  0.111787  0.133596  0.007338  1
  O  O15  1  0.747279  0.633596  0.507338  1
  O  O16  1  0.522747  0.750953  0.221432  1
  O  O17  1  0.498569  0.465039  0.159690  1
  O  O18  1  0.859128  0.285472  0.483930  1
  O  O19  1  0.289413  0.950692  0.563657  1
  O  O20  1  0.189782  0.656481  0.709592  1
  O  O21  1  0.663943  0.095851  0.454408  1
  O  O22  1  0.504869  0.250953  0.721432  1
  O  O23  1  0.042755  0.934944  0.869108  1
  O  O24  1  0.444144  0.156481  0.209592  1
  O  O25  1  0.196238  0.450692  0.063657  1
