# generated using pymatgen
data_Pr13Zn58
_symmetry_space_group_name_H-M   'P 1'
_cell_length_a   14.64513711
_cell_length_b   14.64513753
_cell_length_c   14.14479314
_cell_angle_alpha   90.00000000
_cell_angle_beta   90.00000000
_cell_angle_gamma   119.99999902
_symmetry_Int_Tables_number   1
_chemical_formula_structural   Pr13Zn58
_chemical_formula_sum   'Pr26 Zn116'
_cell_volume   2627.32702442
_cell_formula_units_Z   2
loop_
 _symmetry_equiv_pos_site_id
 _symmetry_equiv_pos_as_xyz
  1  'x, y, z'
loop_
 _atom_site_type_symbol
 _atom_site_label
 _atom_site_symmetry_multiplicity
 _atom_site_fract_x
 _atom_site_fract_y
 _atom_site_fract_z
 _atom_site_occupancy
  Pr  Pr0  1  0.871380  0.128620  0.250000  1
  Pr  Pr1  1  0.204920  0.409839  0.051765  1
  Pr  Pr2  1  0.409839  0.204920  0.551765  1
  Pr  Pr3  1  0.257240  0.128620  0.250000  1
  Pr  Pr4  1  0.795080  0.204920  0.551765  1
  Pr  Pr5  1  0.590161  0.795080  0.448235  1
  Pr  Pr6  1  0.540926  0.459074  0.250000  1
  Pr  Pr7  1  0.590161  0.795080  0.051765  1
  Pr  Pr8  1  0.204920  0.409839  0.448235  1
  Pr  Pr9  1  0.795080  0.590161  0.551765  1
  Pr  Pr10  1  0.795080  0.204920  0.948235  1
  Pr  Pr11  1  0.409839  0.204920  0.948235  1
  Pr  Pr12  1  0.204920  0.795080  0.051765  1
  Pr  Pr13  1  0.540926  0.081853  0.250000  1
  Pr  Pr14  1  0.000000  0.000000  0.000000  1
  Pr  Pr15  1  0.871380  0.742760  0.250000  1
  Pr  Pr16  1  0.459074  0.540926  0.750000  1
  Pr  Pr17  1  0.742760  0.871380  0.750000  1
  Pr  Pr18  1  0.128620  0.871380  0.750000  1
  Pr  Pr19  1  0.081853  0.540926  0.750000  1
  Pr  Pr20  1  0.795080  0.590161  0.948235  1
  Pr  Pr21  1  0.459074  0.918147  0.750000  1
  Pr  Pr22  1  0.918147  0.459074  0.250000  1
  Pr  Pr23  1  0.000000  0.000000  0.500000  1
  Pr  Pr24  1  0.204920  0.795080  0.448235  1
  Pr  Pr25  1  0.128620  0.257240  0.750000  1
  Zn  Zn26  1  0.238140  0.476281  0.657933  1
  Zn  Zn27  1  0.500000  0.000000  0.500000  1
  Zn  Zn28  1  0.523719  0.761860  0.657933  1
  Zn  Zn29  1  0.459773  0.729886  0.250000  1
  Zn  Zn30  1  0.797937  0.000000  0.500000  1
  Zn  Zn31  1  0.761860  0.523719  0.342067  1
  Zn  Zn32  1  0.906038  0.093963  0.843657  1
  Zn  Zn33  1  0.398333  0.601667  0.948900  1
  Zn  Zn34  1  0.435278  0.564722  0.141344  1
  Zn  Zn35  1  0.366446  0.331060  0.397416  1
  Zn  Zn36  1  0.366446  0.035386  0.102584  1
  Zn  Zn37  1  0.964614  0.331060  0.102584  1
  Zn  Zn38  1  0.797937  0.797937  0.000000  1
  Zn  Zn39  1  0.564722  0.435278  0.641344  1
  Zn  Zn40  1  0.333333  0.666667  0.404220  1
  Zn  Zn41  1  0.964614  0.633554  0.397416  1
  Zn  Zn42  1  1.000000  0.797937  0.000000  1
  Zn  Zn43  1  0.238140  0.761860  0.657933  1
  Zn  Zn44  1  0.202063  0.000000  0.000000  1
  Zn  Zn45  1  0.564722  0.129444  0.858656  1
  Zn  Zn46  1  0.000000  0.000000  0.250000  1
  Zn  Zn47  1  0.085183  0.718075  0.250000  1
  Zn  Zn48  1  0.035386  0.366446  0.897416  1
  Zn  Zn49  1  0.668940  0.035386  0.102584  1
  Zn  Zn50  1  0.666667  0.333333  0.904220  1
  Zn  Zn51  1  0.796667  0.398333  0.051100  1
  Zn  Zn52  1  0.797937  0.000000  0.000000  1
  Zn  Zn53  1  0.668940  0.035386  0.397416  1
  Zn  Zn54  1  0.633554  0.964614  0.602584  1
  Zn  Zn55  1  0.435278  0.870556  0.358656  1
  Zn  Zn56  1  0.633554  0.668940  0.897416  1
  Zn  Zn57  1  0.035386  0.668940  0.897416  1
  Zn  Zn58  1  0.093963  0.187925  0.156343  1
  Zn  Zn59  1  0.632893  0.718075  0.250000  1
  Zn  Zn60  1  0.093963  0.187925  0.343657  1
  Zn  Zn61  1  0.333333  0.666667  0.750000  1
  Zn  Zn62  1  0.035386  0.668940  0.602584  1
  Zn  Zn63  1  0.281925  0.367107  0.250000  1
  Zn  Zn64  1  0.435278  0.564722  0.358656  1
  Zn  Zn65  1  0.435278  0.870556  0.141344  1
  Zn  Zn66  1  0.633554  0.668940  0.602584  1
  Zn  Zn67  1  0.093963  0.906038  0.343657  1
  Zn  Zn68  1  0.633554  0.964614  0.897416  1
  Zn  Zn69  1  0.203333  0.601667  0.948900  1
  Zn  Zn70  1  0.666667  0.333333  0.595780  1
  Zn  Zn71  1  0.718075  0.632893  0.750000  1
  Zn  Zn72  1  0.035386  0.366446  0.602584  1
  Zn  Zn73  1  1.000000  0.797937  0.500000  1
  Zn  Zn74  1  0.564722  0.129444  0.641344  1
  Zn  Zn75  1  0.500000  0.500000  0.000000  1
  Zn  Zn76  1  0.761860  0.523719  0.157933  1
  Zn  Zn77  1  0.564722  0.435278  0.858656  1
  Zn  Zn78  1  0.202063  0.202063  0.500000  1
  Zn  Zn79  1  0.601667  0.398333  0.051100  1
  Zn  Zn80  1  0.812075  0.906038  0.343657  1
  Zn  Zn81  1  0.398333  0.601667  0.551100  1
  Zn  Zn82  1  0.906038  0.093963  0.656343  1
  Zn  Zn83  1  0.601667  0.203333  0.448900  1
  Zn  Zn84  1  0.367107  0.085183  0.750000  1
  Zn  Zn85  1  0.202063  0.202063  0.000000  1
  Zn  Zn86  1  0.476281  0.238140  0.157933  1
  Zn  Zn87  1  0.523719  0.761860  0.842067  1
  Zn  Zn88  1  0.668940  0.633554  0.102584  1
  Zn  Zn89  1  0.000000  0.500000  0.500000  1
  Zn  Zn90  1  0.476281  0.238140  0.342067  1
  Zn  Zn91  1  0.500000  0.000000  0.000000  1
  Zn  Zn92  1  0.964614  0.331060  0.397416  1
  Zn  Zn93  1  0.129444  0.564722  0.141344  1
  Zn  Zn94  1  0.129444  0.564722  0.358656  1
  Zn  Zn95  1  0.797937  0.797937  0.500000  1
  Zn  Zn96  1  0.085183  0.367107  0.250000  1
  Zn  Zn97  1  0.238140  0.476281  0.842067  1
  Zn  Zn98  1  0.366446  0.331060  0.102584  1
  Zn  Zn99  1  0.601667  0.398333  0.448900  1
  Zn  Zn100  1  0.870556  0.435278  0.641344  1
  Zn  Zn101  1  0.398333  0.796667  0.948900  1
  Zn  Zn102  1  0.632893  0.914817  0.250000  1
  Zn  Zn103  1  0.668940  0.633554  0.397416  1
  Zn  Zn104  1  0.000000  0.202063  0.000000  1
  Zn  Zn105  1  0.331060  0.964614  0.602584  1
  Zn  Zn106  1  0.906038  0.812075  0.843657  1
  Zn  Zn107  1  0.500000  0.500000  0.500000  1
  Zn  Zn108  1  0.187925  0.093963  0.843657  1
  Zn  Zn109  1  0.331060  0.366446  0.897416  1
  Zn  Zn110  1  0.540227  0.270114  0.750000  1
  Zn  Zn111  1  0.761860  0.238140  0.157933  1
  Zn  Zn112  1  0.761860  0.238140  0.342067  1
  Zn  Zn113  1  0.964614  0.633554  0.102584  1
  Zn  Zn114  1  0.666667  0.333333  0.250000  1
  Zn  Zn115  1  0.000000  0.000000  0.750000  1
  Zn  Zn116  1  0.812075  0.906038  0.156343  1
  Zn  Zn117  1  0.333333  0.666667  0.095780  1
  Zn  Zn118  1  0.093963  0.906038  0.156343  1
  Zn  Zn119  1  0.601667  0.203333  0.051100  1
  Zn  Zn120  1  0.366446  0.035386  0.397416  1
  Zn  Zn121  1  0.281925  0.914817  0.250000  1
  Zn  Zn122  1  0.270114  0.540227  0.250000  1
  Zn  Zn123  1  0.331060  0.366446  0.602584  1
  Zn  Zn124  1  0.729886  0.270114  0.750000  1
  Zn  Zn125  1  0.187925  0.093963  0.656343  1
  Zn  Zn126  1  0.906038  0.812075  0.656343  1
  Zn  Zn127  1  0.331060  0.964614  0.897416  1
  Zn  Zn128  1  0.718075  0.085183  0.750000  1
  Zn  Zn129  1  0.202063  0.000000  0.500000  1
  Zn  Zn130  1  0.796667  0.398333  0.448900  1
  Zn  Zn131  1  0.238140  0.761860  0.842067  1
  Zn  Zn132  1  0.270114  0.729886  0.250000  1
  Zn  Zn133  1  0.398333  0.796667  0.551100  1
  Zn  Zn134  1  0.367107  0.281925  0.750000  1
  Zn  Zn135  1  0.870556  0.435278  0.858656  1
  Zn  Zn136  1  0.729886  0.459773  0.750000  1
  Zn  Zn137  1  0.000000  0.500000  0.000000  1
  Zn  Zn138  1  0.203333  0.601667  0.551100  1
  Zn  Zn139  1  0.000000  0.202063  0.500000  1
  Zn  Zn140  1  0.914817  0.281925  0.750000  1
  Zn  Zn141  1  0.914817  0.632893  0.750000  1
