# generated using pymatgen
data_Bi3Ru3O11
_symmetry_space_group_name_H-M   'P 1'
_cell_length_a   9.40169410
_cell_length_b   9.40169410
_cell_length_c   9.40169410
_cell_angle_alpha   90.00000000
_cell_angle_beta   90.00000000
_cell_angle_gamma   90.00000000
_symmetry_Int_Tables_number   1
_chemical_formula_structural   Bi3Ru3O11
_chemical_formula_sum   'Bi12 Ru12 O44'
_cell_volume   831.03315297
_cell_formula_units_Z   4
loop_
 _symmetry_equiv_pos_site_id
 _symmetry_equiv_pos_as_xyz
  1  'x, y, z'
loop_
 _atom_site_type_symbol
 _atom_site_label
 _atom_site_symmetry_multiplicity
 _atom_site_fract_x
 _atom_site_fract_y
 _atom_site_fract_z
 _atom_site_occupancy
  Bi  Bi0  1  0.000000  0.000000  0.000000  1
  Bi  Bi1  1  0.500000  0.500000  0.000000  1
  Bi  Bi2  1  0.000000  0.500000  0.500000  1
  Bi  Bi3  1  0.500000  0.000000  0.500000  1
  Bi  Bi4  1  0.383785  0.383785  0.383785  1
  Bi  Bi5  1  0.116215  0.116215  0.383785  1
  Bi  Bi6  1  0.383785  0.116215  0.116215  1
  Bi  Bi7  1  0.116215  0.383785  0.116215  1
  Bi  Bi8  1  0.616215  0.616215  0.616215  1
  Bi  Bi9  1  0.883785  0.883785  0.616215  1
  Bi  Bi10  1  0.616215  0.883785  0.883785  1
  Bi  Bi11  1  0.883785  0.616215  0.883785  1
  Ru  Ru12  1  0.386335  0.750000  0.250000  1
  Ru  Ru13  1  0.250000  0.386335  0.750000  1
  Ru  Ru14  1  0.750000  0.250000  0.386335  1
  Ru  Ru15  1  0.250000  0.113665  0.750000  1
  Ru  Ru16  1  0.750000  0.250000  0.113665  1
  Ru  Ru17  1  0.113665  0.750000  0.250000  1
  Ru  Ru18  1  0.613665  0.250000  0.750000  1
  Ru  Ru19  1  0.750000  0.613665  0.250000  1
  Ru  Ru20  1  0.250000  0.750000  0.613665  1
  Ru  Ru21  1  0.750000  0.886335  0.250000  1
  Ru  Ru22  1  0.250000  0.750000  0.886335  1
  Ru  Ru23  1  0.886335  0.250000  0.750000  1
  O  O24  1  0.588982  0.250000  0.250000  1
  O  O25  1  0.250000  0.588982  0.250000  1
  O  O26  1  0.250000  0.250000  0.588982  1
  O  O27  1  0.250000  0.911018  0.250000  1
  O  O28  1  0.250000  0.250000  0.911018  1
  O  O29  1  0.911018  0.250000  0.250000  1
  O  O30  1  0.411018  0.750000  0.750000  1
  O  O31  1  0.750000  0.411018  0.750000  1
  O  O32  1  0.750000  0.750000  0.411018  1
  O  O33  1  0.750000  0.088982  0.750000  1
  O  O34  1  0.750000  0.750000  0.088982  1
  O  O35  1  0.088982  0.750000  0.750000  1
  O  O36  1  0.146807  0.146807  0.146807  1
  O  O37  1  0.353193  0.353193  0.146807  1
  O  O38  1  0.146807  0.353193  0.353193  1
  O  O39  1  0.353193  0.146807  0.353193  1
  O  O40  1  0.853193  0.853193  0.853193  1
  O  O41  1  0.646807  0.646807  0.853193  1
  O  O42  1  0.853193  0.646807  0.646807  1
  O  O43  1  0.646807  0.853193  0.646807  1
  O  O44  1  0.599351  0.243392  0.535838  1
  O  O45  1  0.535838  0.599351  0.243392  1
  O  O46  1  0.243392  0.535838  0.599351  1
  O  O47  1  0.256608  0.964162  0.599351  1
  O  O48  1  0.535838  0.900649  0.256608  1
  O  O49  1  0.256608  0.535838  0.900649  1
  O  O50  1  0.964162  0.900649  0.243392  1
  O  O51  1  0.964162  0.599351  0.256608  1
  O  O52  1  0.243392  0.964162  0.900649  1
  O  O53  1  0.599351  0.256608  0.964162  1
  O  O54  1  0.900649  0.243392  0.964162  1
  O  O55  1  0.900649  0.256608  0.535838  1
  O  O56  1  0.400649  0.756608  0.464162  1
  O  O57  1  0.464162  0.400649  0.756608  1
  O  O58  1  0.756608  0.464162  0.400649  1
  O  O59  1  0.743392  0.035838  0.400649  1
  O  O60  1  0.464162  0.099351  0.743392  1
  O  O61  1  0.743392  0.464162  0.099351  1
  O  O62  1  0.035838  0.099351  0.756608  1
  O  O63  1  0.035838  0.400649  0.743392  1
  O  O64  1  0.756608  0.035838  0.099351  1
  O  O65  1  0.400649  0.743392  0.035838  1
  O  O66  1  0.099351  0.756608  0.035838  1
  O  O67  1  0.099351  0.743392  0.464162  1
