# generated using pymatgen
data_K2Ge4O9
_symmetry_space_group_name_H-M   'P 1'
_cell_length_a   12.03558756
_cell_length_b   12.03558776
_cell_length_c   9.95752602
_cell_angle_alpha   90.00000000
_cell_angle_beta   90.00000000
_cell_angle_gamma   119.99999944
_symmetry_Int_Tables_number   1
_chemical_formula_structural   K2Ge4O9
_chemical_formula_sum   'K12 Ge24 O54'
_cell_volume   1249.15601883
_cell_formula_units_Z   6
loop_
 _symmetry_equiv_pos_site_id
 _symmetry_equiv_pos_as_xyz
  1  'x, y, z'
loop_
 _atom_site_type_symbol
 _atom_site_label
 _atom_site_symmetry_multiplicity
 _atom_site_fract_x
 _atom_site_fract_y
 _atom_site_fract_z
 _atom_site_occupancy
  K  K0  1  0.336598  0.334353  0.571478  1
  K  K1  1  0.002245  0.336598  0.428522  1
  K  K2  1  0.665647  0.663402  0.071478  1
  K  K3  1  0.665647  0.002245  0.571478  1
  K  K4  1  0.002245  0.665647  0.928522  1
  K  K5  1  0.663402  0.665647  0.428522  1
  K  K6  1  0.997755  0.663402  0.571478  1
  K  K7  1  0.334353  0.336598  0.928522  1
  K  K8  1  0.334353  0.997755  0.428522  1
  K  K9  1  0.663402  0.997755  0.928522  1
  K  K10  1  0.997755  0.334353  0.071478  1
  K  K11  1  0.336598  0.002245  0.071478  1
  Ge  Ge12  1  0.823194  0.000000  0.250000  1
  Ge  Ge13  1  0.513772  0.849154  0.215002  1
  Ge  Ge14  1  0.176806  0.000000  0.750000  1
  Ge  Ge15  1  0.150846  0.486228  0.715002  1
  Ge  Ge16  1  0.664618  0.513772  0.784998  1
  Ge  Ge17  1  0.849154  0.335382  0.784998  1
  Ge  Ge18  1  0.486228  0.335382  0.284998  1
  Ge  Ge19  1  0.664618  0.150846  0.284998  1
  Ge  Ge20  1  1.000000  0.176806  0.750000  1
  Ge  Ge21  1  0.513772  0.664618  0.715002  1
  Ge  Ge22  1  0.333333  0.666667  0.463021  1
  Ge  Ge23  1  0.849154  0.513772  0.284998  1
  Ge  Ge24  1  0.150846  0.664618  0.215002  1
  Ge  Ge25  1  0.335382  0.849154  0.715002  1
  Ge  Ge26  1  0.000000  0.000000  0.500000  1
  Ge  Ge27  1  0.335382  0.486228  0.215002  1
  Ge  Ge28  1  0.666667  0.333333  0.036979  1
  Ge  Ge29  1  0.486228  0.150846  0.784998  1
  Ge  Ge30  1  0.333333  0.666667  0.963021  1
  Ge  Ge31  1  0.000000  0.823194  0.250000  1
  Ge  Ge32  1  0.176806  0.176806  0.250000  1
  Ge  Ge33  1  0.823194  0.823194  0.750000  1
  Ge  Ge34  1  0.666667  0.333333  0.536979  1
  Ge  Ge35  1  0.000000  0.000000  0.000000  1
  O  O36  1  0.817155  0.418796  0.429445  1
  O  O37  1  0.251937  0.515213  0.852789  1
  O  O38  1  0.263275  0.748063  0.852789  1
  O  O39  1  0.150872  0.079614  0.614909  1
  O  O40  1  0.736725  0.251937  0.147211  1
  O  O41  1  0.581204  0.182845  0.929445  1
  O  O42  1  0.522843  0.000000  0.250000  1
  O  O43  1  0.477157  0.000000  0.750000  1
  O  O44  1  0.398360  0.817155  0.570555  1
  O  O45  1  0.079614  0.150872  0.885091  1
  O  O46  1  0.849128  0.928742  0.885091  1
  O  O47  1  0.251937  0.736725  0.352789  1
  O  O48  1  0.885651  0.674034  0.331982  1
  O  O49  1  0.601640  0.418796  0.929445  1
  O  O50  1  0.885651  0.211617  0.831982  1
  O  O51  1  0.418796  0.601640  0.570555  1
  O  O52  1  0.515213  0.251937  0.647211  1
  O  O53  1  0.920386  0.071258  0.614909  1
  O  O54  1  0.211617  0.325966  0.168018  1
  O  O55  1  0.114349  0.788383  0.168018  1
  O  O56  1  0.928742  0.079614  0.114909  1
  O  O57  1  0.736725  0.484787  0.647211  1
  O  O58  1  0.748063  0.484787  0.147211  1
  O  O59  1  0.788383  0.674034  0.831982  1
  O  O60  1  0.325966  0.114349  0.831982  1
  O  O61  1  0.601640  0.182845  0.429445  1
  O  O62  1  0.071258  0.150872  0.385091  1
  O  O63  1  0.182845  0.601640  0.070555  1
  O  O64  1  0.418796  0.817155  0.070555  1
  O  O65  1  0.325966  0.211617  0.331982  1
  O  O66  1  0.114349  0.325966  0.668018  1
  O  O67  1  0.477157  0.477157  0.250000  1
  O  O68  1  0.748063  0.263275  0.647211  1
  O  O69  1  0.928742  0.849128  0.614909  1
  O  O70  1  0.484787  0.736725  0.852789  1
  O  O71  1  0.515213  0.263275  0.147211  1
  O  O72  1  0.071258  0.920386  0.885091  1
  O  O73  1  0.581204  0.398360  0.429445  1
  O  O74  1  0.522843  0.522843  0.750000  1
  O  O75  1  0.849128  0.920386  0.385091  1
  O  O76  1  0.817155  0.398360  0.929445  1
  O  O77  1  0.398360  0.581204  0.070555  1
  O  O78  1  0.211617  0.885651  0.668018  1
  O  O79  1  0.484787  0.748063  0.352789  1
  O  O80  1  0.150872  0.071258  0.114909  1
  O  O81  1  0.674034  0.885651  0.168018  1
  O  O82  1  0.920386  0.849128  0.114909  1
  O  O83  1  0.788383  0.114349  0.331982  1
  O  O84  1  0.000000  0.477157  0.750000  1
  O  O85  1  0.674034  0.788383  0.668018  1
  O  O86  1  1.000000  0.522843  0.250000  1
  O  O87  1  0.182845  0.581204  0.570555  1
  O  O88  1  0.079614  0.928742  0.385091  1
  O  O89  1  0.263275  0.515213  0.352789  1
