# generated using pymatgen
data_Sr8Mn2FeN8
_symmetry_space_group_name_H-M   'P 1'
_cell_length_a   5.33747153
_cell_length_b   7.56478003
_cell_length_c   9.80521997
_cell_angle_alpha   105.54859016
_cell_angle_beta   105.79373126
_cell_angle_gamma   89.99999977
_symmetry_Int_Tables_number   1
_chemical_formula_structural   Sr8Mn2FeN8
_chemical_formula_sum   'Sr8 Mn2 Fe1 N8'
_cell_volume   365.87707409
_cell_formula_units_Z   1
loop_
 _symmetry_equiv_pos_site_id
 _symmetry_equiv_pos_as_xyz
  1  'x, y, z'
loop_
 _atom_site_type_symbol
 _atom_site_label
 _atom_site_symmetry_multiplicity
 _atom_site_fract_x
 _atom_site_fract_y
 _atom_site_fract_z
 _atom_site_occupancy
  Sr  Sr0  1  0.403830  0.034280  0.807661  1
  Sr  Sr1  1  0.332858  0.533448  0.665717  1
  Sr  Sr2  1  0.970941  0.741411  0.941881  1
  Sr  Sr3  1  0.199306  0.806508  0.398612  1
  Sr  Sr4  1  0.800694  0.193492  0.601388  1
  Sr  Sr5  1  0.029059  0.258589  0.058119  1
  Sr  Sr6  1  0.667142  0.466552  0.334283  1
  Sr  Sr7  1  0.596170  0.965720  0.192339  1
  Mn  Mn8  1  0.812211  0.793663  0.624422  1
  Mn  Mn9  1  0.187789  0.206337  0.375578  1
  Fe  Fe10  1  0.500000  0.500000  0.000000  1
  N  N11  1  0.275691  0.172036  0.551382  1
  N  N12  1  0.822237  0.573576  0.644474  1
  N  N13  1  0.107753  0.014956  0.215506  1
  N  N14  1  0.892247  0.985044  0.784494  1
  N  N15  1  0.177763  0.426424  0.355526  1
  N  N16  1  0.474643  0.717508  0.949286  1
  N  N17  1  0.724309  0.827964  0.448618  1
  N  N18  1  0.525357  0.282492  0.050714  1
