# generated using pymatgen
data_TeOF2
_symmetry_space_group_name_H-M   'P 1'
_cell_length_a   5.45577067
_cell_length_b   5.69715753
_cell_length_c   8.36548196
_cell_angle_alpha   90.00000000
_cell_angle_beta   90.00000000
_cell_angle_gamma   96.42525629
_symmetry_Int_Tables_number   1
_chemical_formula_structural   TeOF2
_chemical_formula_sum   'Te4 O4 F8'
_cell_volume   258.38586850
_cell_formula_units_Z   4
loop_
 _symmetry_equiv_pos_site_id
 _symmetry_equiv_pos_as_xyz
  1  'x, y, z'
loop_
 _atom_site_type_symbol
 _atom_site_label
 _atom_site_symmetry_multiplicity
 _atom_site_fract_x
 _atom_site_fract_y
 _atom_site_fract_z
 _atom_site_occupancy
  Te  Te0  1  0.519689  0.347808  0.147453  1
  Te  Te1  1  0.126997  0.964750  0.910699  1
  Te  Te2  1  0.480311  0.652192  0.647453  1
  Te  Te3  1  0.873003  0.035250  0.410699  1
  O  O4  1  0.694125  0.945188  0.605618  1
  O  O5  1  0.394215  0.774654  0.853158  1
  O  O6  1  0.305875  0.054812  0.105618  1
  O  O7  1  0.605785  0.225346  0.353158  1
  F  F8  1  0.658994  0.728614  0.330876  1
  F  F9  1  0.341006  0.271386  0.830876  1
  F  F10  1  0.997920  0.700838  0.046366  1
  F  F11  1  0.766826  0.565010  0.764859  1
  F  F12  1  0.002080  0.299162  0.546366  1
  F  F13  1  0.192313  0.840456  0.569471  1
  F  F14  1  0.233174  0.434990  0.264859  1
  F  F15  1  0.807687  0.159544  0.069471  1
