# generated using pymatgen
data_RbAu(CN)2
_symmetry_space_group_name_H-M   'P 1'
_cell_length_a   9.33265391
_cell_length_b   10.36980676
_cell_length_c   13.88256745
_cell_angle_alpha   104.86249125
_cell_angle_beta   90.00000000
_cell_angle_gamma   116.74315134
_symmetry_Int_Tables_number   1
_chemical_formula_structural   RbAu(CN)2
_chemical_formula_sum   'Rb8 Au8 C16 N16'
_cell_volume   1149.25564723
_cell_formula_units_Z   8
loop_
 _symmetry_equiv_pos_site_id
 _symmetry_equiv_pos_as_xyz
  1  'x, y, z'
loop_
 _atom_site_type_symbol
 _atom_site_label
 _atom_site_symmetry_multiplicity
 _atom_site_fract_x
 _atom_site_fract_y
 _atom_site_fract_z
 _atom_site_occupancy
  Rb  Rb0  1  0.772092  0.349783  0.982695  1
  Rb  Rb1  1  0.422308  0.650217  0.517305  1
  Rb  Rb2  1  0.577692  0.349783  0.482695  1
  Rb  Rb3  1  0.989359  0.505521  0.316290  1
  Rb  Rb4  1  0.227908  0.650217  0.017305  1
  Rb  Rb5  1  0.010641  0.494479  0.683710  1
  Rb  Rb6  1  0.483837  0.494479  0.183710  1
  Rb  Rb7  1  0.516163  0.505521  0.816290  1
  Au  Au8  1  0.513007  0.000000  0.750000  1
  Au  Au9  1  0.167816  0.032577  0.576983  1
  Au  Au10  1  0.832184  0.967423  0.423017  1
  Au  Au11  1  0.864761  0.032577  0.076983  1
  Au  Au12  1  0.099718  0.000000  0.250000  1
  Au  Au13  1  0.486993  0.000000  0.250000  1
  Au  Au14  1  0.900282  0.000000  0.750000  1
  Au  Au15  1  0.135239  0.967423  0.923017  1
  C  C16  1  0.415708  0.814871  0.794847  1
  C  C17  1  0.774994  0.752057  0.404674  1
  C  C18  1  0.399163  0.814871  0.294847  1
  C  C19  1  0.139366  0.824886  0.558153  1
  C  C20  1  0.780600  0.777589  0.687732  1
  C  C21  1  0.314480  0.175114  0.941847  1
  C  C22  1  0.225006  0.247943  0.595326  1
  C  C23  1  0.685520  0.824886  0.058153  1
  C  C24  1  0.996990  0.777589  0.187732  1
  C  C25  1  0.860634  0.175114  0.441847  1
  C  C26  1  0.600837  0.185129  0.705153  1
  C  C27  1  0.219400  0.222411  0.312268  1
  C  C28  1  0.977062  0.752057  0.904674  1
  C  C29  1  0.022938  0.247943  0.095326  1
  C  C30  1  0.584292  0.185129  0.205153  1
  C  C31  1  0.003010  0.222411  0.812268  1
  N  N32  1  0.107219  0.376955  0.106054  1
  N  N33  1  0.945164  0.647307  0.150393  1
  N  N34  1  0.350911  0.705117  0.320859  1
  N  N35  1  0.269736  0.376955  0.606054  1
  N  N36  1  0.645795  0.294883  0.179141  1
  N  N37  1  0.354205  0.705117  0.820859  1
  N  N38  1  0.573266  0.706126  0.047471  1
  N  N39  1  0.132860  0.706126  0.547471  1
  N  N40  1  0.867140  0.293874  0.452529  1
  N  N41  1  0.892781  0.623045  0.893946  1
  N  N42  1  0.054836  0.352693  0.849607  1
  N  N43  1  0.730264  0.623045  0.393946  1
  N  N44  1  0.649089  0.294883  0.679141  1
  N  N45  1  0.297857  0.352693  0.349607  1
  N  N46  1  0.702143  0.647307  0.650393  1
  N  N47  1  0.426734  0.293874  0.952529  1
