# generated using pymatgen
data_ZnS
_symmetry_space_group_name_H-M   'P 1'
_cell_length_a   3.85259457
_cell_length_b   3.85259447
_cell_length_c   88.20172505
_cell_angle_alpha   90.00000000
_cell_angle_beta   90.00000000
_cell_angle_gamma   120.00000094
_symmetry_Int_Tables_number   1
_chemical_formula_structural   ZnS
_chemical_formula_sum   'Zn28 S28'
_cell_volume   1133.74219912
_cell_formula_units_Z   28
loop_
 _symmetry_equiv_pos_site_id
 _symmetry_equiv_pos_as_xyz
  1  'x, y, z'
loop_
 _atom_site_type_symbol
 _atom_site_label
 _atom_site_symmetry_multiplicity
 _atom_site_fract_x
 _atom_site_fract_y
 _atom_site_fract_z
 _atom_site_occupancy
  Zn  Zn0  1  0.666667  0.333333  0.071427  1
  Zn  Zn1  1  0.000000  0.000000  0.928578  1
  Zn  Zn2  1  0.000000  0.000000  0.642869  1
  Zn  Zn3  1  0.000000  0.000000  0.214298  1
  Zn  Zn4  1  0.666667  0.333333  0.392858  1
  Zn  Zn5  1  0.333333  0.666667  0.107152  1
  Zn  Zn6  1  0.333333  0.666667  0.464286  1
  Zn  Zn7  1  0.333333  0.666667  0.535724  1
  Zn  Zn8  1  0.000000  0.000000  0.857150  1
  Zn  Zn9  1  0.000000  0.000000  0.785714  1
  Zn  Zn10  1  0.666667  0.333333  0.964287  1
  Zn  Zn11  1  0.333333  0.666667  0.321438  1
  Zn  Zn12  1  0.000000  0.000000  0.142856  1
  Zn  Zn13  1  0.000000  0.000000  0.357139  1
  Zn  Zn14  1  0.000000  0.000000  0.000012  1
  Zn  Zn15  1  0.666667  0.333333  0.607141  1
  Zn  Zn16  1  0.333333  0.666667  0.678570  1
  Zn  Zn17  1  0.666667  0.333333  0.714288  1
  Zn  Zn18  1  0.666667  0.333333  0.821454  1
  Zn  Zn19  1  0.666667  0.333333  0.285713  1
  Zn  Zn20  1  0.333333  0.666667  0.035712  1
  Zn  Zn21  1  0.333333  0.666667  0.892858  1
  Zn  Zn22  1  0.333333  0.666667  0.250000  1
  Zn  Zn23  1  0.666667  0.333333  0.178571  1
  Zn  Zn24  1  0.666667  0.333333  0.500001  1
  Zn  Zn25  1  0.000000  0.000000  0.571426  1
  Zn  Zn26  1  0.000000  0.000000  0.428582  1
  Zn  Zn27  1  0.333333  0.666667  0.750012  1
  S  S28  1  0.666667  0.333333  0.205377  1
  S  S29  1  0.333333  0.666667  0.562495  1
  S  S30  1  0.333333  0.666667  0.705335  1
  S  S31  1  0.666667  0.333333  0.633947  1
  S  S32  1  0.000000  0.000000  0.026783  1
  S  S33  1  0.000000  0.000000  0.383905  1
  S  S34  1  0.666667  0.333333  0.991091  1
  S  S35  1  0.666667  0.333333  0.848246  1
  S  S36  1  0.666667  0.333333  0.419661  1
  S  S37  1  0.666667  0.333333  0.526806  1
  S  S38  1  0.333333  0.666667  0.062476  1
  S  S39  1  0.666667  0.333333  0.098231  1
  S  S40  1  0.000000  0.000000  0.455355  1
  S  S41  1  0.666667  0.333333  0.312518  1
  S  S42  1  0.000000  0.000000  0.883905  1
  S  S43  1  0.000000  0.000000  0.598189  1
  S  S44  1  0.000000  0.000000  0.669638  1
  S  S45  1  0.333333  0.666667  0.776784  1
  S  S46  1  0.000000  0.000000  0.955334  1
  S  S47  1  0.000000  0.000000  0.169619  1
  S  S48  1  0.000000  0.000000  0.241068  1
  S  S49  1  0.333333  0.666667  0.919660  1
  S  S50  1  0.666667  0.333333  0.741091  1
  S  S51  1  0.333333  0.666667  0.348207  1
  S  S52  1  0.333333  0.666667  0.276764  1
  S  S53  1  0.000000  0.000000  0.812486  1
  S  S54  1  0.333333  0.666667  0.133924  1
  S  S55  1  0.333333  0.666667  0.491049  1
