# generated using pymatgen
data_Li4Al3Ge3ClO12
_symmetry_space_group_name_H-M   'P 1'
_cell_length_a   8.71803966
_cell_length_b   8.71803966
_cell_length_c   8.71803966
_cell_angle_alpha   90.00000000
_cell_angle_beta   90.00000000
_cell_angle_gamma   90.00000000
_symmetry_Int_Tables_number   1
_chemical_formula_structural   Li4Al3Ge3ClO12
_chemical_formula_sum   'Li8 Al6 Ge6 Cl2 O24'
_cell_volume   662.60776517
_cell_formula_units_Z   2
loop_
 _symmetry_equiv_pos_site_id
 _symmetry_equiv_pos_as_xyz
  1  'x, y, z'
loop_
 _atom_site_type_symbol
 _atom_site_label
 _atom_site_symmetry_multiplicity
 _atom_site_fract_x
 _atom_site_fract_y
 _atom_site_fract_z
 _atom_site_occupancy
  Li  Li0  1  0.826943  0.826943  0.173057  1
  Li  Li1  1  0.826943  0.173057  0.826943  1
  Li  Li2  1  0.326943  0.673057  0.326943  1
  Li  Li3  1  0.173057  0.173057  0.173057  1
  Li  Li4  1  0.673057  0.673057  0.673057  1
  Li  Li5  1  0.326943  0.326943  0.673057  1
  Li  Li6  1  0.673057  0.326943  0.326943  1
  Li  Li7  1  0.173057  0.826943  0.826943  1
  Al  Al8  1  0.000000  0.750000  0.500000  1
  Al  Al9  1  0.250000  0.500000  0.000000  1
  Al  Al10  1  0.500000  0.000000  0.750000  1
  Al  Al11  1  0.500000  0.000000  0.250000  1
  Al  Al12  1  0.000000  0.250000  0.500000  1
  Al  Al13  1  0.750000  0.500000  0.000000  1
  Ge  Ge14  1  0.000000  0.500000  0.250000  1
  Ge  Ge15  1  0.500000  0.750000  0.000000  1
  Ge  Ge16  1  0.500000  0.250000  0.000000  1
  Ge  Ge17  1  0.000000  0.500000  0.750000  1
  Ge  Ge18  1  0.750000  0.000000  0.500000  1
  Ge  Ge19  1  0.250000  0.000000  0.500000  1
  Cl  Cl20  1  0.000000  0.000000  0.000000  1
  Cl  Cl21  1  0.500000  0.500000  0.500000  1
  O  O22  1  0.401877  0.862098  0.862275  1
  O  O23  1  0.637725  0.362098  0.098123  1
  O  O24  1  0.137725  0.598123  0.862098  1
  O  O25  1  0.637902  0.901877  0.637725  1
  O  O26  1  0.901877  0.362275  0.362098  1
  O  O27  1  0.137902  0.862275  0.598123  1
  O  O28  1  0.137725  0.401877  0.137902  1
  O  O29  1  0.362275  0.637902  0.098123  1
  O  O30  1  0.362098  0.901877  0.362275  1
  O  O31  1  0.862275  0.598123  0.137902  1
  O  O32  1  0.362275  0.362098  0.901877  1
  O  O33  1  0.862098  0.137725  0.598123  1
  O  O34  1  0.598123  0.137902  0.862275  1
  O  O35  1  0.401877  0.137902  0.137725  1
  O  O36  1  0.862275  0.401877  0.862098  1
  O  O37  1  0.598123  0.862098  0.137725  1
  O  O38  1  0.137902  0.137725  0.401877  1
  O  O39  1  0.637902  0.098123  0.362275  1
  O  O40  1  0.862098  0.862275  0.401877  1
  O  O41  1  0.362098  0.098123  0.637725  1
  O  O42  1  0.637725  0.637902  0.901877  1
  O  O43  1  0.901877  0.637725  0.637902  1
  O  O44  1  0.098123  0.362275  0.637902  1
  O  O45  1  0.098123  0.637725  0.362098  1
