# generated using pymatgen
data_Ca3Si2O7
_symmetry_space_group_name_H-M   'P 1'
_cell_length_a   5.13912718
_cell_length_b   11.55462884
_cell_length_c   12.78872718
_cell_angle_alpha   116.85719660
_cell_angle_beta   101.59227954
_cell_angle_gamma   89.99948972
_symmetry_Int_Tables_number   1
_chemical_formula_structural   Ca3Si2O7
_chemical_formula_sum   'Ca12 Si8 O28'
_cell_volume   660.08199178
_cell_formula_units_Z   4
loop_
 _symmetry_equiv_pos_site_id
 _symmetry_equiv_pos_as_xyz
  1  'x, y, z'
loop_
 _atom_site_type_symbol
 _atom_site_label
 _atom_site_symmetry_multiplicity
 _atom_site_fract_x
 _atom_site_fract_y
 _atom_site_fract_z
 _atom_site_occupancy
  Ca  Ca0  1  0.599501  0.886989  0.208694  1
  Ca  Ca1  1  0.400493  0.678270  0.791294  1
  Ca  Ca2  1  0.999990  0.010336  0.000001  1
  Ca  Ca3  1  0.336420  0.321166  0.663001  1
  Ca  Ca4  1  0.173434  0.158174  0.336996  1
  Ca  Ca5  1  0.826579  0.821152  0.663003  1
  Ca  Ca6  1  0.500021  0.510336  0.000007  1
  Ca  Ca7  1  0.663593  0.658174  0.337004  1
  Ca  Ca8  1  0.751314  0.463803  0.499998  1
  Ca  Ca9  1  0.248704  0.963812  0.500004  1
  Ca  Ca10  1  0.890811  0.178288  0.791309  1
  Ca  Ca11  1  0.109199  0.386998  0.208701  1
  Si  Si12  1  0.321416  0.652905  0.499990  1
  Si  Si13  1  0.040032  0.692181  0.201420  1
  Si  Si14  1  0.661419  0.192180  0.201413  1
  Si  Si15  1  0.959999  0.490749  0.798600  1
  Si  Si16  1  0.338603  0.990725  0.798594  1
  Si  Si17  1  0.499973  0.258191  0.999989  1
  Si  Si18  1  0.999989  0.758199  0.999998  1
  Si  Si19  1  0.678588  0.152910  0.499993  1
  O  O20  1  0.787909  0.056502  0.184410  1
  O  O21  1  0.648011  0.499115  0.806559  1
  O  O22  1  0.658543  0.999103  0.806565  1
  O  O23  1  0.456012  0.784346  0.499990  1
  O  O24  1  0.103542  0.372097  0.815621  1
  O  O25  1  0.729622  0.209670  0.082187  1
  O  O26  1  0.778671  0.798002  0.917015  1
  O  O27  1  0.488856  0.027524  0.382522  1
  O  O28  1  0.511124  0.644987  0.617459  1
  O  O29  1  0.606360  0.144989  0.617461  1
  O  O30  1  0.270361  0.127467  0.917801  1
  O  O31  1  0.001571  0.652388  0.499982  1
  O  O32  1  0.221258  0.880982  0.082964  1
  O  O33  1  0.393676  0.527520  0.382525  1
  O  O34  1  0.147445  0.627483  0.917813  1
  O  O35  1  0.041573  0.495120  0.682129  1
  O  O36  1  0.896502  0.556506  0.184405  1
  O  O37  1  0.212084  0.872082  0.815627  1
  O  O38  1  0.140519  0.995100  0.682121  1
  O  O39  1  0.958401  0.813032  0.317884  1
  O  O40  1  0.638354  0.298011  0.917042  1
  O  O41  1  0.998412  0.152395  0.499979  1
  O  O42  1  0.543983  0.284358  0.500007  1
  O  O43  1  0.859488  0.313036  0.317876  1
  O  O44  1  0.351998  0.692606  0.193466  1
  O  O45  1  0.852558  0.709670  0.082192  1
  O  O46  1  0.341475  0.192600  0.193450  1
  O  O47  1  0.361613  0.380970  0.082941  1
