# generated using pymatgen
data_P4S9
_symmetry_space_group_name_H-M   'P 1'
_cell_length_a   16.31311280
_cell_length_b   16.31311230
_cell_length_c   16.31311262
_cell_angle_alpha   109.47121952
_cell_angle_beta   109.47121890
_cell_angle_gamma   109.47122301
_symmetry_Int_Tables_number   1
_chemical_formula_structural   P4S9
_chemical_formula_sum   'P32 S72'
_cell_volume   3341.86276482
_cell_formula_units_Z   8
loop_
 _symmetry_equiv_pos_site_id
 _symmetry_equiv_pos_as_xyz
  1  'x, y, z'
loop_
 _atom_site_type_symbol
 _atom_site_label
 _atom_site_symmetry_multiplicity
 _atom_site_fract_x
 _atom_site_fract_y
 _atom_site_fract_z
 _atom_site_occupancy
  P  P0  1  0.598266  0.457061  0.853612  1
  P  P1  1  0.042939  0.641206  0.396552  1
  P  P2  1  0.255346  0.353612  0.896552  1
  P  P3  1  0.401734  0.542939  0.146388  1
  P  P4  1  0.103448  0.744654  0.646388  1
  P  P5  1  0.837403  0.500000  0.000000  1
  P  P6  1  0.744654  0.646388  0.103448  1
  P  P7  1  0.641206  0.396552  0.042939  1
  P  P8  1  1.000000  0.837403  0.500000  1
  P  P9  1  0.000000  0.162597  0.500000  1
  P  P10  1  0.457061  0.853612  0.598266  1
  P  P11  1  0.500000  1.000000  0.162597  1
  P  P12  1  0.853612  0.598266  0.457061  1
  P  P13  1  0.141206  0.098266  0.244654  1
  P  P14  1  0.162597  0.500000  1.000000  1
  P  P15  1  0.755346  0.858794  0.901734  1
  P  P16  1  0.353612  0.896552  0.255346  1
  P  P17  1  0.858794  0.901734  0.755346  1
  P  P18  1  0.542939  0.146388  0.401734  1
  P  P19  1  0.396552  0.042939  0.641206  1
  P  P20  1  0.500000  0.000000  0.837403  1
  P  P21  1  0.098266  0.244654  0.141206  1
  P  P22  1  0.603448  0.957061  0.358794  1
  P  P23  1  0.244654  0.141206  0.098266  1
  P  P24  1  0.901734  0.755346  0.858794  1
  P  P25  1  0.662597  0.662597  0.662597  1
  P  P26  1  0.957061  0.358794  0.603448  1
  P  P27  1  0.146388  0.401734  0.542939  1
  P  P28  1  0.337403  0.337403  0.337403  1
  P  P29  1  0.896552  0.255346  0.353612  1
  P  P30  1  0.646388  0.103448  0.744654  1
  P  P31  1  0.358794  0.603448  0.957061  1
  S  S32  1  0.081293  0.581685  0.303425  1
  S  S33  1  1.000392  0.278260  0.081685  1
  S  S34  1  0.957226  0.637990  0.602786  1
  S  S35  1  0.397214  0.042774  0.362010  1
  S  S36  1  0.918315  -0.000392  0.721740  1
  S  S37  1  0.228981  0.601829  0.956472  1
  S  S38  1  0.043528  0.771019  0.398171  1
  S  S39  1  0.456472  0.854643  0.727491  1
  S  S40  1  0.145357  0.272509  0.543528  1
  S  S41  1  0.145560  0.680764  0.542774  1
  S  S42  1  0.803425  0.221740  0.222132  1
  S  S43  1  0.897214  0.535204  0.354440  1
  S  S44  1  0.398171  0.043528  0.771019  1
  S  S45  1  0.728981  0.772509  0.627152  1
  S  S46  1  0.918707  0.418315  0.696575  1
  S  S47  1  0.696575  0.918707  0.418315  1
  S  S48  1  0.727491  0.456472  0.854643  1
  S  S49  1  0.127152  0.354643  0.898171  1
  S  S50  1  0.042774  0.362010  0.397214  1
  S  S51  1  0.277868  0.499608  0.581293  1
  S  S52  1  0.964796  0.862010  0.819236  1
  S  S53  1  0.645357  0.101829  0.872848  1
  S  S54  1  0.854643  0.727491  0.456472  1
  S  S55  1  0.196575  0.778260  0.777868  1
  S  S56  1  0.221740  0.222132  0.803425  1
  S  S57  1  0.535204  0.354440  0.897214  1
  S  S58  1  0.500392  0.418707  0.722132  1
  S  S59  1  0.543528  0.145357  0.272509  1
  S  S60  1  0.542774  0.145560  0.680764  1
  S  S61  1  0.819236  0.964796  0.862010  1
  S  S62  1  0.464796  0.645560  0.102786  1
  S  S63  1  0.602786  0.957226  0.637990  1
  S  S64  1  0.362010  0.397214  0.042774  1
  S  S65  1  0.081685  1.000392  0.278260  1
  S  S66  1  0.956472  0.228981  0.601829  1
  S  S67  1  0.771019  0.398171  0.043528  1
  S  S68  1  0.637990  0.602786  0.957226  1
  S  S69  1  0.418707  0.722132  0.500392  1
  S  S70  1  0.271019  0.227491  0.372848  1
  S  S71  1  0.278260  0.081685  1.000392  1
  S  S72  1  0.319236  0.457226  0.854440  1
  S  S73  1  0.722132  0.500392  0.418707  1
  S  S74  1  0.035204  0.137990  0.180764  1
  S  S75  1  0.898171  0.127152  0.354643  1
  S  S76  1  0.777868  0.196575  0.778260  1
  S  S77  1  0.354643  0.898171  0.127152  1
  S  S78  1  0.222132  0.803425  0.221740  1
  S  S79  1  0.272509  0.543528  0.145357  1
  S  S80  1  0.372848  0.271019  0.227491  1
  S  S81  1  0.601829  0.956472  0.228981  1
  S  S82  1  0.581685  0.303425  0.081293  1
  S  S83  1  0.872848  0.645357  0.101829  1
  S  S84  1  -0.000392  0.721740  0.918315  1
  S  S85  1  0.581293  0.277868  0.499608  1
  S  S86  1  0.862010  0.819236  0.964796  1
  S  S87  1  0.354440  0.897214  0.535204  1
  S  S88  1  0.137990  0.180764  0.035204  1
  S  S89  1  0.457226  0.854440  0.319236  1
  S  S90  1  0.680764  0.542774  0.145560  1
  S  S91  1  0.854440  0.319236  0.457226  1
  S  S92  1  0.627152  0.728981  0.772509  1
  S  S93  1  0.772509  0.627152  0.728981  1
  S  S94  1  0.499608  0.581293  0.277868  1
  S  S95  1  0.418315  0.696575  0.918707  1
  S  S96  1  0.227491  0.372848  0.271019  1
  S  S97  1  0.303425  0.081293  0.581685  1
  S  S98  1  0.721740  0.918315  -0.000392  1
  S  S99  1  0.102786  0.464796  0.645560  1
  S  S100  1  0.645560  0.102786  0.464796  1
  S  S101  1  0.101829  0.872848  0.645357  1
  S  S102  1  0.778260  0.777868  0.196575  1
  S  S103  1  0.180764  0.035204  0.137990  1
