# generated using pymatgen
data_Ca2CuO3
_symmetry_space_group_name_H-M   'P 1'
_cell_length_a   3.31249827
_cell_length_b   3.38905159
_cell_length_c   9.35247148
_cell_angle_alpha   100.48887451
_cell_angle_beta   100.19691679
_cell_angle_gamma   89.99840107
_symmetry_Int_Tables_number   1
_chemical_formula_structural   Ca2CuO3
_chemical_formula_sum   'Ca2 Cu1 O3'
_cell_volume   101.55167124
_cell_formula_units_Z   1
loop_
 _symmetry_equiv_pos_site_id
 _symmetry_equiv_pos_as_xyz
  1  'x, y, z'
loop_
 _atom_site_type_symbol
 _atom_site_label
 _atom_site_symmetry_multiplicity
 _atom_site_fract_x
 _atom_site_fract_y
 _atom_site_fract_z
 _atom_site_occupancy
  Ca  Ca0  1  0.182250  0.681754  0.364413  1
  O  O1  1  1.000012  0.000323  1.000015  1
  O  O2  1  0.310952  0.811110  0.622068  1
  O  O3  1  0.689034  0.188531  0.377916  1
  Ca  Ca4  1  0.817733  0.317872  0.635562  1
  Cu  Cu5  1  1.000018  0.500409  1.000026  1
