# generated using pymatgen
data_CrXeF6
_symmetry_space_group_name_H-M   'P 1'
_cell_length_a   7.43378293
_cell_length_b   8.06839389
_cell_length_c   10.23950059
_cell_angle_alpha   91.09113362
_cell_angle_beta   90.00000000
_cell_angle_gamma   90.00000000
_symmetry_Int_Tables_number   1
_chemical_formula_structural   CrXeF6
_chemical_formula_sum   'Cr4 Xe4 F24'
_cell_volume   614.04045562
_cell_formula_units_Z   4
loop_
 _symmetry_equiv_pos_site_id
 _symmetry_equiv_pos_as_xyz
  1  'x, y, z'
loop_
 _atom_site_type_symbol
 _atom_site_label
 _atom_site_symmetry_multiplicity
 _atom_site_fract_x
 _atom_site_fract_y
 _atom_site_fract_z
 _atom_site_occupancy
  Cr  Cr0  1  0.585822  0.751820  0.744665  1
  Cr  Cr1  1  0.085822  0.748180  0.755335  1
  Cr  Cr2  1  0.414178  0.248180  0.255335  1
  Cr  Cr3  1  0.914178  0.251820  0.244665  1
  Xe  Xe4  1  0.654889  0.729362  0.113521  1
  Xe  Xe5  1  0.154889  0.770638  0.386479  1
  Xe  Xe6  1  0.345111  0.270638  0.886479  1
  Xe  Xe7  1  0.845111  0.229362  0.613521  1
  F  F8  1  0.544101  0.853975  0.597525  1
  F  F9  1  0.044101  0.646025  0.902475  1
  F  F10  1  0.455899  0.146025  0.402475  1
  F  F11  1  0.955899  0.353975  0.097525  1
  F  F12  1  0.547214  0.542856  0.690877  1
  F  F13  1  0.047214  0.957144  0.809123  1
  F  F14  1  0.452786  0.457144  0.309123  1
  F  F15  1  0.952786  0.042856  0.190877  1
  F  F16  1  0.867077  0.127695  0.415867  1
  F  F17  1  0.367077  0.372305  0.084133  1
  F  F18  1  0.132923  0.872305  0.584133  1
  F  F19  1  0.632923  0.627695  0.915867  1
  F  F20  1  0.832364  0.309135  0.801579  1
  F  F21  1  0.332364  0.190865  0.698421  1
  F  F22  1  0.167636  0.690865  0.198421  1
  F  F23  1  0.667636  0.809135  0.301579  1
  F  F24  1  0.162296  0.273773  0.303754  1
  F  F25  1  0.662296  0.226227  0.196246  1
  F  F26  1  0.837704  0.726227  0.696246  1
  F  F27  1  0.337704  0.773773  0.803754  1
  F  F28  1  0.861587  0.429213  0.346387  1
  F  F29  1  0.361587  0.070787  0.153613  1
  F  F30  1  0.138413  0.570787  0.653613  1
  F  F31  1  0.638413  0.929213  0.846387  1
