# generated using pymatgen
data_Zr2Cu3H32(O8F7)2
_symmetry_space_group_name_H-M   'P 1'
_cell_length_a   10.15370196
_cell_length_b   10.55483664
_cell_length_c   11.06621864
_cell_angle_alpha   91.88003714
_cell_angle_beta   90.00000000
_cell_angle_gamma   90.00000000
_symmetry_Int_Tables_number   1
_chemical_formula_structural   Zr2Cu3H32(O8F7)2
_chemical_formula_sum   'Zr4 Cu6 H64 O32 F28'
_cell_volume   1185.33561495
_cell_formula_units_Z   2
loop_
 _symmetry_equiv_pos_site_id
 _symmetry_equiv_pos_as_xyz
  1  'x, y, z'
loop_
 _atom_site_type_symbol
 _atom_site_label
 _atom_site_symmetry_multiplicity
 _atom_site_fract_x
 _atom_site_fract_y
 _atom_site_fract_z
 _atom_site_occupancy
  Zr  Zr0  1  0.986372  0.824400  0.018832  1
  Zr  Zr1  1  0.486372  0.175600  0.481168  1
  Zr  Zr2  1  0.513628  0.824400  0.518832  1
  Zr  Zr3  1  0.013628  0.175600  0.981168  1
  Cu  Cu4  1  0.382079  0.509395  0.121002  1
  Cu  Cu5  1  0.882079  0.490605  0.378998  1
  Cu  Cu6  1  0.117921  0.509395  0.621002  1
  Cu  Cu7  1  0.000000  0.000000  0.500000  1
  Cu  Cu8  1  0.617921  0.490605  0.878998  1
  Cu  Cu9  1  0.500000  0.000000  0.000000  1
  H  H10  1  0.312109  0.795050  0.925147  1
  H  H11  1  0.123494  0.311014  0.488203  1
  H  H12  1  0.862782  0.945941  0.305783  1
  H  H13  1  0.608039  0.546451  0.237803  1
  H  H14  1  0.097525  0.817604  0.311024  1
  H  H15  1  0.402475  0.817604  0.811024  1
  H  H16  1  0.137218  0.054059  0.694217  1
  H  H17  1  0.752349  0.274467  0.324209  1
  H  H18  1  0.291114  0.316061  0.292822  1
  H  H19  1  0.362782  0.054059  0.194217  1
  H  H20  1  0.208886  0.316061  0.792822  1
  H  H21  1  0.722775  0.694828  0.334230  1
  H  H22  1  0.796913  0.397354  0.016588  1
  H  H23  1  0.747651  0.274467  0.824209  1
  H  H24  1  0.296913  0.602646  0.483412  1
  H  H25  1  0.612723  0.277477  0.747440  1
  H  H26  1  0.489397  0.701352  0.939794  1
  H  H27  1  0.012885  0.551137  0.188664  1
  H  H28  1  0.562552  0.877348  0.194951  1
  H  H29  1  0.167764  0.454031  0.989988  1
  H  H30  1  0.791114  0.683939  0.207178  1
  H  H31  1  0.391961  0.453549  0.762197  1
  H  H32  1  0.697462  0.893957  0.122546  1
  H  H33  1  0.197462  0.106043  0.377454  1
  H  H34  1  0.376506  0.311014  0.988203  1
  H  H35  1  0.687891  0.204950  0.074853  1
  H  H36  1  0.937448  0.877348  0.694951  1
  H  H37  1  0.733611  -0.001997  0.911799  1
  H  H38  1  0.766389  -0.001997  0.411799  1
  H  H39  1  0.252349  0.725533  0.175791  1
  H  H40  1  0.332236  0.454031  0.489988  1
  H  H41  1  0.708886  0.683939  0.707178  1
  H  H42  1  0.203087  0.602646  0.983412  1
  H  H43  1  0.667764  0.545969  0.510012  1
  H  H44  1  0.876506  0.688986  0.511797  1
  H  H45  1  0.387277  0.722523  0.252560  1
  H  H46  1  0.266389  1.001997  0.088201  1
  H  H47  1  0.832236  0.545969  0.010012  1
  H  H48  1  0.437448  0.122652  0.805049  1
  H  H49  1  0.187891  0.795050  0.425147  1
  H  H50  1  0.512885  0.448863  0.311336  1
  H  H51  1  0.623494  0.688986  0.011797  1
  H  H52  1  0.112723  0.722523  0.752560  1
  H  H53  1  0.247651  0.725533  0.675791  1
  H  H54  1  0.989397  0.298648  0.560206  1
  H  H55  1  0.812109  0.204950  0.574853  1
  H  H56  1  0.062552  0.122652  0.305049  1
  H  H57  1  0.703087  0.397354  0.516588  1
  H  H58  1  0.510603  0.298648  0.060206  1
  H  H59  1  0.487115  0.551137  0.688664  1
  H  H60  1  0.637218  0.945941  0.805783  1
  H  H61  1  0.222775  0.305172  0.165770  1
  H  H62  1  0.777225  0.694828  0.834230  1
  H  H63  1  0.802538  0.893957  0.622546  1
  H  H64  1  0.302538  0.106043  0.877454  1
  H  H65  1  0.887277  0.277477  0.247440  1
  H  H66  1  0.233611  1.001997  0.588201  1
  H  H67  1  0.108039  0.453549  0.262197  1
  H  H68  1  0.891961  0.546451  0.737803  1
  H  H69  1  0.277225  0.305172  0.665770  1
  H  H70  1  0.987115  0.448863  0.811336  1
  H  H71  1  0.902475  0.182396  0.688976  1
  H  H72  1  0.597525  0.182396  0.188976  1
  H  H73  1  0.010603  0.701352  0.439794  1
  O  O74  1  0.356566  0.996013  0.121596  1
  O  O75  1  0.969064  0.486831  0.732208  1
  O  O76  1  0.050941  0.363370  0.521136  1
  O  O77  1  0.404218  0.813938  0.901308  1
  O  O78  1  0.449059  0.363370  0.021136  1
  O  O79  1  0.336678  0.679263  0.187338  1
  O  O80  1  0.469064  0.513169  0.767792  1
  O  O81  1  0.550941  0.636630  0.978864  1
  O  O82  1  0.836678  0.320737  0.312662  1
  O  O83  1  0.530936  0.486831  0.232208  1
  O  O84  1  0.742322  0.633923  0.265347  1
  O  O85  1  0.242322  0.366077  0.234653  1
  O  O86  1  0.904218  0.186062  0.598692  1
  O  O87  1  0.856566  0.003987  0.378404  1
  O  O88  1  0.259803  0.516669  0.499540  1
  O  O89  1  0.095782  0.813938  0.401308  1
  O  O90  1  0.030936  0.513169  0.267792  1
  O  O91  1  0.257678  0.366077  0.734653  1
  O  O92  1  0.899174  0.888199  0.612827  1
  O  O93  1  0.740197  0.483331  0.500460  1
  O  O94  1  0.757678  0.633923  0.765347  1
  O  O95  1  0.163322  0.679263  0.687338  1
  O  O96  1  0.600826  0.888199  0.112827  1
  O  O97  1  0.143434  0.996013  0.621596  1
  O  O98  1  0.759803  0.483331  1.000460  1
  O  O99  1  0.643434  0.003987  0.878404  1
  O  O100  1  0.240197  0.516669  -0.000460  1
  O  O101  1  0.100826  0.111801  0.387173  1
  O  O102  1  0.595782  0.186062  0.098692  1
  O  O103  1  0.663322  0.320737  0.812662  1
  O  O104  1  0.949059  0.636630  0.478864  1
  O  O105  1  0.399174  0.111801  0.887173  1
  F  F106  1  0.009287  0.166271  0.170942  1
  F  F107  1  0.135993  0.139439  0.825478  1
  F  F108  1  0.703645  0.767656  0.462341  1
  F  F109  1  0.035859  0.367940  0.934432  1
  F  F110  1  0.535859  0.632060  0.565568  1
  F  F111  1  0.296355  0.232344  0.537659  1
  F  F112  1  0.796355  0.767656  0.962341  1
  F  F113  1  0.382679  0.991582  0.511857  1
  F  F114  1  0.990713  0.833729  0.829058  1
  F  F115  1  0.635993  0.860561  0.674522  1
  F  F116  1  0.464141  0.367940  0.434432  1
  F  F117  1  0.364007  0.139439  0.325478  1
  F  F118  1  0.884337  0.186312  0.829879  1
  F  F119  1  0.164190  0.738250  0.953889  1
  F  F120  1  0.203645  0.232344  0.037659  1
  F  F121  1  0.617321  0.008418  0.488143  1
  F  F122  1  0.964141  0.632060  0.065568  1
  F  F123  1  0.115663  0.813688  0.170121  1
  F  F124  1  0.117321  0.991582  0.011857  1
  F  F125  1  0.384337  0.813688  0.670121  1
  F  F126  1  0.864007  0.860561  0.174522  1
  F  F127  1  0.882679  0.008418  0.988143  1
  F  F128  1  0.835810  0.261750  0.046111  1
  F  F129  1  0.335810  0.738250  0.453889  1
  F  F130  1  0.509287  0.833729  0.329058  1
  F  F131  1  0.615663  0.186312  0.329879  1
  F  F132  1  0.664190  0.261750  0.546111  1
  F  F133  1  0.490713  0.166271  0.670942  1
