# generated using pymatgen
data_Na2TeSe3
_symmetry_space_group_name_H-M   'P 1'
_cell_length_a   6.06333815
_cell_length_b   11.41442814
_cell_length_c   11.82689793
_cell_angle_alpha   63.12909172
_cell_angle_beta   75.14307600
_cell_angle_gamma   74.59320410
_symmetry_Int_Tables_number   1
_chemical_formula_structural   Na2TeSe3
_chemical_formula_sum   'Na8 Te4 Se12'
_cell_volume   695.01457618
_cell_formula_units_Z   4
loop_
 _symmetry_equiv_pos_site_id
 _symmetry_equiv_pos_as_xyz
  1  'x, y, z'
loop_
 _atom_site_type_symbol
 _atom_site_label
 _atom_site_symmetry_multiplicity
 _atom_site_fract_x
 _atom_site_fract_y
 _atom_site_fract_z
 _atom_site_occupancy
  Na  Na0  1  0.763033  0.620560  0.875841  1
  Na  Na1  1  0.393221  0.953189  0.190698  1
  Na  Na2  1  0.740600  0.120559  0.375833  1
  Na  Na3  1  0.259400  0.879441  0.624167  1
  Na  Na4  1  0.537088  0.546805  0.309318  1
  Na  Na5  1  0.236967  0.379440  0.124159  1
  Na  Na6  1  0.462912  0.453195  0.690682  1
  Na  Na7  1  0.606779  0.046811  0.809302  1
  Te  Te8  1  0.842652  0.205799  0.007642  1
  Te  Te9  1  0.157348  0.794201  0.992358  1
  Te  Te10  1  0.055988  0.294182  0.492339  1
  Te  Te11  1  0.944012  0.705818  0.507661  1
  Se  Se12  1  0.768801  0.863697  0.616702  1
  Se  Se13  1  0.447032  0.221992  0.957364  1
  Se  Se14  1  0.231199  0.136303  0.383298  1
  Se  Se15  1  0.552968  0.778008  0.042636  1
  Se  Se16  1  0.118239  0.022959  0.806004  1
  Se  Se17  1  0.750930  0.363663  0.116667  1
  Se  Se18  1  0.373793  0.721986  0.457333  1
  Se  Se19  1  0.626207  0.278014  0.542667  1
  Se  Se20  1  0.052781  0.522900  0.306003  1
  Se  Se21  1  0.249070  0.636337  0.883333  1
  Se  Se22  1  0.881761  0.977041  0.193996  1
  Se  Se23  1  0.947219  0.477100  0.693997  1
