# generated using pymatgen
data_K3SbN3(O3F)3
_symmetry_space_group_name_H-M   'P 1'
_cell_length_a   7.54336649
_cell_length_b   9.15076973
_cell_length_c   9.15076913
_cell_angle_alpha   101.78816804
_cell_angle_beta   90.00000000
_cell_angle_gamma   90.00000000
_symmetry_Int_Tables_number   1
_chemical_formula_structural   K3SbN3(O3F)3
_chemical_formula_sum   'K6 Sb2 N6 O18 F6'
_cell_volume   618.33384676
_cell_formula_units_Z   2
loop_
 _symmetry_equiv_pos_site_id
 _symmetry_equiv_pos_as_xyz
  1  'x, y, z'
loop_
 _atom_site_type_symbol
 _atom_site_label
 _atom_site_symmetry_multiplicity
 _atom_site_fract_x
 _atom_site_fract_y
 _atom_site_fract_z
 _atom_site_occupancy
  K  K0  1  0.773490  0.029031  0.385056  1
  K  K1  1  0.273490  0.970969  0.614944  1
  K  K2  1  0.273490  0.385056  0.029031  1
  K  K3  1  0.005060  0.403301  0.596699  1
  K  K4  1  0.505060  0.596699  0.403301  1
  K  K5  1  0.773490  0.614944  0.970969  1
  Sb  Sb6  1  0.848795  0.137424  0.862576  1
  Sb  Sb7  1  0.348795  0.862576  0.137424  1
  N  N8  1  0.754565  0.793322  0.686274  1
  N  N9  1  0.254565  0.686274  0.793322  1
  N  N10  1  0.254565  0.206678  0.313726  1
  N  N11  1  0.754565  0.313726  0.206678  1
  N  N12  1  0.483569  0.297085  0.702915  1
  N  N13  1  0.983569  0.702915  0.297085  1
  O  O14  1  0.565675  0.208803  0.600891  1
  O  O15  1  0.363446  0.789519  0.854314  1
  O  O16  1  0.247757  0.347379  0.348267  1
  O  O17  1  0.157331  0.126672  0.376773  1
  O  O18  1  0.863446  0.210481  0.145686  1
  O  O19  1  0.363446  0.145686  0.210481  1
  O  O20  1  0.657331  0.873328  0.623227  1
  O  O21  1  0.657331  0.376773  0.126672  1
  O  O22  1  0.065675  0.600891  0.208803  1
  O  O23  1  0.565675  0.399109  0.791197  1
  O  O24  1  0.747757  0.652621  0.651733  1
  O  O25  1  0.863446  0.854314  0.789519  1
  O  O26  1  0.317525  0.280252  0.719748  1
  O  O27  1  0.247757  0.651733  0.652621  1
  O  O28  1  0.747757  0.348267  0.347379  1
  O  O29  1  0.157331  0.623227  0.873328  1
  O  O30  1  0.065675  0.791197  0.399109  1
  O  O31  1  0.817525  0.719748  0.280252  1
  F  F32  1  0.087460  0.081732  0.918268  1
  F  F33  1  0.587460  0.918268  0.081732  1
  F  F34  1  0.947732  0.345184  0.884929  1
  F  F35  1  0.447732  0.884929  0.345184  1
  F  F36  1  0.447732  0.654816  0.115071  1
  F  F37  1  0.947732  0.115071  0.654816  1
