# generated using pymatgen
data_Na2Sn(CO2)4
_symmetry_space_group_name_H-M   'P 1'
_cell_length_a   5.76384506
_cell_length_b   6.00338171
_cell_length_c   13.52147143
_cell_angle_alpha   80.80168887
_cell_angle_beta   77.69719932
_cell_angle_gamma   61.31383223
_symmetry_Int_Tables_number   1
_chemical_formula_structural   Na2Sn(CO2)4
_chemical_formula_sum   'Na4 Sn2 C8 O16'
_cell_volume   400.11960070
_cell_formula_units_Z   2
loop_
 _symmetry_equiv_pos_site_id
 _symmetry_equiv_pos_as_xyz
  1  'x, y, z'
loop_
 _atom_site_type_symbol
 _atom_site_label
 _atom_site_symmetry_multiplicity
 _atom_site_fract_x
 _atom_site_fract_y
 _atom_site_fract_z
 _atom_site_occupancy
  Na  Na0  1  0.824854  0.324986  0.051180  1
  Na  Na1  1  0.175146  0.675014  0.948820  1
  Na  Na2  1  0.201039  0.175021  0.448814  1
  Na  Na3  1  0.798961  0.824979  0.551186  1
  Sn  Sn4  1  0.824189  0.750068  0.249957  1
  Sn  Sn5  1  0.175811  0.249932  0.750043  1
  C  C6  1  0.330945  0.674628  0.634202  1
  C  C7  1  0.360305  0.174576  0.134114  1
  C  C8  1  0.639695  0.825424  0.865886  1
  C  C9  1  0.417956  0.587009  0.389572  1
  C  C10  1  0.582044  0.412991  0.610428  1
  C  C11  1  0.669055  0.325372  0.365798  1
  C  C12  1  0.394535  0.912983  0.110374  1
  C  C13  1  0.605465  0.087017  0.889626  1
  O  O14  1  0.527438  0.166233  0.185123  1
  O  O15  1  0.178805  0.373164  0.098300  1
  O  O16  1  0.209527  0.586056  0.440398  1
  O  O17  1  0.472562  0.833767  0.814877  1
  O  O18  1  0.407159  0.288110  0.858660  1
  O  O19  1  0.821195  0.626836  0.901700  1
  O  O20  1  0.553830  0.211906  0.641365  1
  O  O21  1  0.764022  0.086078  0.940450  1
  O  O22  1  0.592841  0.711890  0.141340  1
  O  O23  1  0.235978  0.913922  0.059550  1
  O  O24  1  0.446170  0.788094  0.358635  1
  O  O25  1  0.121183  0.666234  0.685199  1
  O  O26  1  0.878817  0.333766  0.314801  1
  O  O27  1  0.349646  0.873217  0.598363  1
  O  O28  1  0.650354  0.126783  0.401637  1
  O  O29  1  0.790473  0.413944  0.559602  1
