# generated using pymatgen
data_KLaCr2O8
_symmetry_space_group_name_H-M   'P 1'
_cell_length_a   7.59578541
_cell_length_b   8.91670621
_cell_length_c   11.16106166
_cell_angle_alpha   92.51481276
_cell_angle_beta   90.00000000
_cell_angle_gamma   90.00000000
_symmetry_Int_Tables_number   1
_chemical_formula_structural   KLaCr2O8
_chemical_formula_sum   'K4 La4 Cr8 O32'
_cell_volume   755.20383401
_cell_formula_units_Z   4
loop_
 _symmetry_equiv_pos_site_id
 _symmetry_equiv_pos_as_xyz
  1  'x, y, z'
loop_
 _atom_site_type_symbol
 _atom_site_label
 _atom_site_symmetry_multiplicity
 _atom_site_fract_x
 _atom_site_fract_y
 _atom_site_fract_z
 _atom_site_occupancy
  La  La0  1  0.837053  0.940962  0.655025  1
  La  La1  1  0.337053  0.059038  0.844975  1
  La  La2  1  0.162947  0.059038  0.344975  1
  La  La3  1  0.662947  0.940962  0.155025  1
  Cr  Cr4  1  0.664127  0.720189  0.911554  1
  Cr  Cr5  1  0.164127  0.279811  0.588446  1
  Cr  Cr6  1  0.335873  0.279811  0.088446  1
  Cr  Cr7  1  0.835873  0.720189  0.411554  1
  Cr  Cr8  1  0.836496  0.189600  0.893484  1
  Cr  Cr9  1  0.336496  0.810400  0.606516  1
  Cr  Cr10  1  0.163504  0.810400  0.106516  1
  Cr  Cr11  1  0.663504  0.189600  0.393484  1
  K  K12  1  0.151914  0.567615  0.838517  1
  K  K13  1  0.651914  0.432385  0.661483  1
  K  K14  1  0.848086  0.432385  0.161483  1
  K  K15  1  0.348086  0.567615  0.338517  1
  O  O16  1  0.819080  0.742722  0.806435  1
  O  O17  1  0.319080  0.257278  0.693565  1
  O  O18  1  0.180920  0.257278  0.193565  1
  O  O19  1  0.680920  0.742722  0.306435  1
  O  O20  1  0.558594  0.884501  0.938846  1
  O  O21  1  0.058594  0.115499  0.561154  1
  O  O22  1  0.441406  0.115499  0.061154  1
  O  O23  1  0.941406  0.884501  0.438846  1
  O  O24  1  0.752402  0.694224  0.045919  1
  O  O25  1  0.252402  0.305776  0.454081  1
  O  O26  1  0.247598  0.305776  0.954081  1
  O  O27  1  0.747598  0.694224  0.545919  1
  O  O28  1  0.526856  0.587645  0.869888  1
  O  O29  1  0.026856  0.412355  0.630112  1
  O  O30  1  0.473144  0.412355  0.130112  1
  O  O31  1  0.973144  0.587645  0.369888  1
  O  O32  1  0.659380  0.144128  0.808447  1
  O  O33  1  0.159380  0.855872  0.691553  1
  O  O34  1  0.340620  0.855872  0.191553  1
  O  O35  1  0.840620  0.144128  0.308447  1
  O  O36  1  0.001405  0.092755  0.822530  1
  O  O37  1  0.501405  0.907245  0.677470  1
  O  O38  1  0.998595  0.907245  0.177470  1
  O  O39  1  0.498595  0.092755  0.322530  1
  O  O40  1  0.868479  0.370191  0.894914  1
  O  O41  1  0.368479  0.629809  0.605086  1
  O  O42  1  0.131521  0.629809  0.105086  1
  O  O43  1  0.631521  0.370191  0.394914  1
  O  O44  1  0.811062  0.136207  0.032975  1
  O  O45  1  0.311062  0.863793  0.467025  1
  O  O46  1  0.188938  0.863793  0.967025  1
  O  O47  1  0.688938  0.136207  0.532975  1
