# generated using pymatgen
data_TlBiS2
_symmetry_space_group_name_H-M   'P 1'
_cell_length_a   7.77318183
_cell_length_b   7.77318186
_cell_length_c   7.77318158
_cell_angle_alpha   31.00345550
_cell_angle_beta   31.00345504
_cell_angle_gamma   31.00345385
_symmetry_Int_Tables_number   1
_chemical_formula_structural   TlBiS2
_chemical_formula_sum   'Tl1 Bi1 S2'
_cell_volume   110.54656579
_cell_formula_units_Z   1
loop_
 _symmetry_equiv_pos_site_id
 _symmetry_equiv_pos_as_xyz
  1  'x, y, z'
loop_
 _atom_site_type_symbol
 _atom_site_label
 _atom_site_symmetry_multiplicity
 _atom_site_fract_x
 _atom_site_fract_y
 _atom_site_fract_z
 _atom_site_occupancy
  Tl  Tl0  1  0.500000  0.500000  0.500000  1
  Bi  Bi1  1  0.000000  0.000000  0.000000  1
  S  S2  1  0.262408  0.262408  0.262408  1
  S  S3  1  0.737592  0.737592  0.737592  1
