# generated using pymatgen
data_Ca2Sb4Pd3
_symmetry_space_group_name_H-M   'P 1'
_cell_length_a   4.51526075
_cell_length_b   4.51526078
_cell_length_c   21.38813431
_cell_angle_alpha   96.05916271
_cell_angle_beta   96.05916275
_cell_angle_gamma   89.99999501
_symmetry_Int_Tables_number   1
_chemical_formula_structural   Ca2Sb4Pd3
_chemical_formula_sum   'Ca4 Sb8 Pd6'
_cell_volume   431.16645899
_cell_formula_units_Z   2
loop_
 _symmetry_equiv_pos_site_id
 _symmetry_equiv_pos_as_xyz
  1  'x, y, z'
loop_
 _atom_site_type_symbol
 _atom_site_label
 _atom_site_symmetry_multiplicity
 _atom_site_fract_x
 _atom_site_fract_y
 _atom_site_fract_z
 _atom_site_occupancy
  Ca  Ca0  1  0.812524  0.812524  0.625048  1
  Ca  Ca1  1  0.187476  0.187476  0.374952  1
  Ca  Ca2  1  0.944515  0.944515  0.889029  1
  Ca  Ca3  1  0.055485  0.055485  0.110971  1
  Sb  Sb4  1  0.118222  0.618222  0.236444  1
  Sb  Sb5  1  0.715581  0.715581  0.431162  1
  Sb  Sb6  1  0.381778  0.881778  0.763556  1
  Sb  Sb7  1  0.537242  0.537242  0.074484  1
  Sb  Sb8  1  0.881778  0.381778  0.763556  1
  Sb  Sb9  1  0.462758  0.462758  0.925516  1
  Sb  Sb10  1  0.618222  0.118222  0.236444  1
  Sb  Sb11  1  0.284419  0.284419  0.568838  1
  Pd  Pd12  1  0.653917  0.653917  0.307833  1
  Pd  Pd13  1  0.250000  0.750000  0.500000  1
  Pd  Pd14  1  0.750000  0.250000  0.500000  1
  Pd  Pd15  1  0.346083  0.346083  0.692167  1
  Pd  Pd16  1  0.000000  0.500000  0.000000  1
  Pd  Pd17  1  0.500000  0.000000  0.000000  1
