# generated using pymatgen
data_CrCl3
_symmetry_space_group_name_H-M   'P 1'
_cell_length_a   6.07022955
_cell_length_b   6.07022962
_cell_length_c   19.68237050
_cell_angle_alpha   90.00000000
_cell_angle_beta   90.00000000
_cell_angle_gamma   119.99999970
_symmetry_Int_Tables_number   1
_chemical_formula_structural   CrCl3
_chemical_formula_sum   'Cr6 Cl18'
_cell_volume   628.08477992
_cell_formula_units_Z   6
loop_
 _symmetry_equiv_pos_site_id
 _symmetry_equiv_pos_as_xyz
  1  'x, y, z'
loop_
 _atom_site_type_symbol
 _atom_site_label
 _atom_site_symmetry_multiplicity
 _atom_site_fract_x
 _atom_site_fract_y
 _atom_site_fract_z
 _atom_site_occupancy
  Cr  Cr0  1  0.888947  0.111053  0.666667  1
  Cr  Cr1  1  0.555569  0.444431  0.666667  1
  Cr  Cr2  1  0.888947  0.777894  0.333333  1
  Cr  Cr3  1  0.555569  0.111137  0.333333  1
  Cr  Cr4  1  0.888863  0.444431  0.000000  1
  Cr  Cr5  1  0.222106  0.111053  0.000000  1
  Cl  Cl6  1  0.916188  0.777673  0.931995  1
  Cl  Cl7  1  0.861609  0.416941  0.598714  1
  Cl  Cl8  1  0.916188  0.138515  0.068005  1
  Cl  Cl9  1  0.222327  0.805353  0.265338  1
  Cl  Cl10  1  0.222327  0.416974  0.734662  1
  Cl  Cl11  1  0.861485  0.777673  0.734672  1
  Cl  Cl12  1  0.222327  0.083812  0.401338  1
  Cl  Cl13  1  0.583059  0.444668  0.265380  1
  Cl  Cl14  1  0.583059  0.138391  0.734620  1
  Cl  Cl15  1  0.194647  0.416974  0.932005  1
  Cl  Cl16  1  0.861609  0.444668  0.401286  1
  Cl  Cl17  1  0.194647  0.777673  0.067995  1
  Cl  Cl18  1  0.555332  0.416941  0.067953  1
  Cl  Cl19  1  0.583026  0.805353  0.401328  1
  Cl  Cl20  1  0.583026  0.777673  0.598672  1
  Cl  Cl21  1  0.222327  0.138515  0.598662  1
  Cl  Cl22  1  0.861485  0.083812  0.265328  1
  Cl  Cl23  1  0.555332  0.138391  0.932047  1
