# generated using pymatgen
data_K2LiAlF6
_symmetry_space_group_name_H-M   'P 1'
_cell_length_a   5.69419453
_cell_length_b   5.69419486
_cell_length_c   13.93136361
_cell_angle_alpha   90.00000000
_cell_angle_beta   90.00000000
_cell_angle_gamma   119.99999812
_symmetry_Int_Tables_number   1
_chemical_formula_structural   K2LiAlF6
_chemical_formula_sum   'K6 Li3 Al3 F18'
_cell_volume   391.19103421
_cell_formula_units_Z   3
loop_
 _symmetry_equiv_pos_site_id
 _symmetry_equiv_pos_as_xyz
  1  'x, y, z'
loop_
 _atom_site_type_symbol
 _atom_site_label
 _atom_site_symmetry_multiplicity
 _atom_site_fract_x
 _atom_site_fract_y
 _atom_site_fract_z
 _atom_site_occupancy
  K  K0  1  0.000000  0.000000  0.744509  1
  K  K1  1  0.333333  0.666667  0.081008  1
  K  K2  1  0.000000  0.000000  0.439772  1
  K  K3  1  0.333333  0.666667  0.585674  1
  K  K4  1  0.666667  0.333333  0.922103  1
  K  K5  1  0.666667  0.333333  0.226776  1
  Li  Li6  1  0.000000  0.000000  0.190107  1
  Li  Li7  1  0.666667  0.333333  0.476552  1
  Li  Li8  1  0.333333  0.666667  0.833329  1
  Al  Al9  1  0.666667  0.333333  0.671993  1
  Al  Al10  1  0.000000  0.000000  0.994694  1
  Al  Al11  1  0.333333  0.666667  0.333331  1
  F  F12  1  0.639717  0.819859  0.257496  1
  F  F13  1  0.814477  0.185523  0.591217  1
  F  F14  1  0.852193  0.147807  0.075473  1
  F  F15  1  0.026961  0.513481  0.409170  1
  F  F16  1  0.512978  0.025956  0.746236  1
  F  F17  1  0.486519  0.973039  0.409170  1
  F  F18  1  0.153696  0.846304  0.920460  1
  F  F19  1  0.512978  0.487022  0.746236  1
  F  F20  1  0.180141  0.360283  0.257496  1
  F  F21  1  0.814477  0.628953  0.591217  1
  F  F22  1  0.852193  0.704387  0.075473  1
  F  F23  1  0.371047  0.185523  0.591217  1
  F  F24  1  0.295613  0.147807  0.075473  1
  F  F25  1  0.180141  0.819859  0.257496  1
  F  F26  1  0.692608  0.846304  0.920460  1
  F  F27  1  0.974044  0.487022  0.746236  1
  F  F28  1  0.153696  0.307392  0.920460  1
  F  F29  1  0.486519  0.513481  0.409170  1
