# generated using pymatgen
data_GdH8C10N(O2F3)4
_symmetry_space_group_name_H-M   'P 1'
_cell_length_a   9.00727568
_cell_length_b   10.41204626
_cell_length_c   11.89286877
_cell_angle_alpha   105.67894557
_cell_angle_beta   99.40490476
_cell_angle_gamma   108.17982326
_symmetry_Int_Tables_number   1
_chemical_formula_structural   GdH8C10N(O2F3)4
_chemical_formula_sum   'Gd2 H16 C20 N2 O16 F24'
_cell_volume   982.12937319
_cell_formula_units_Z   2
loop_
 _symmetry_equiv_pos_site_id
 _symmetry_equiv_pos_as_xyz
  1  'x, y, z'
loop_
 _atom_site_type_symbol
 _atom_site_label
 _atom_site_symmetry_multiplicity
 _atom_site_fract_x
 _atom_site_fract_y
 _atom_site_fract_z
 _atom_site_occupancy
  Gd  Gd0  1  0.266094  0.047208  0.488237  1
  Gd  Gd1  1  0.733906  0.952792  0.511763  1
  H  H2  1  0.718030  0.822020  0.924129  1
  H  H3  1  0.447520  0.378192  0.327199  1
  H  H4  1  0.418840  0.468855  0.147160  1
  H  H5  1  0.251219  0.288150  0.279279  1
  H  H6  1  0.281970  0.177980  0.075871  1
  H  H7  1  0.748781  0.711850  0.720721  1
  H  H8  1  0.581160  0.531145  0.852840  1
  H  H9  1  0.504147  0.741244  0.853069  1
  H  H10  1  0.365711  0.128974  0.197770  1
  H  H11  1  0.208966  0.411844  0.146092  1
  H  H12  1  0.495853  0.258756  0.146931  1
  H  H13  1  0.634289  0.871026  0.802230  1
  H  H14  1  0.361976  0.547778  0.277370  1
  H  H15  1  0.791034  0.588156  0.853908  1
  H  H16  1  0.638024  0.452222  0.722630  1
  H  H17  1  0.552480  0.621808  0.672801  1
  C  C18  1  0.375843  0.216186  0.161248  1
  C  C19  1  0.155152  0.375793  0.791415  1
  C  C20  1  0.026903  0.900571  0.675217  1
  C  C21  1  0.361321  0.803219  0.123568  1
  C  C22  1  0.973097  0.099429  0.324783  1
  C  C23  1  0.101512  0.245475  0.670424  1
  C  C24  1  0.617267  0.249020  0.487028  1
  C  C25  1  0.888588  0.118543  0.208307  1
  C  C26  1  0.757777  0.379005  0.482194  1
  C  C27  1  0.624157  0.783814  0.838752  1
  C  C28  1  0.242223  0.620995  0.517806  1
  C  C29  1  0.638679  0.196781  0.876432  1
  C  C30  1  0.420102  0.885069  0.264164  1
  C  C31  1  0.111412  0.881457  0.791693  1
  C  C32  1  0.666458  0.551002  0.798158  1
  C  C33  1  0.579898  0.114931  0.735836  1
  C  C34  1  0.898488  0.754525  0.329576  1
  C  C35  1  0.844848  0.624207  0.208585  1
  C  C36  1  0.333543  0.448998  0.201842  1
  C  C37  1  0.382733  0.750980  0.512972  1
  N  N38  1  0.351291  0.334520  0.250563  1
  N  N39  1  0.648709  0.665480  0.749437  1
  O  O40  1  0.349016  0.854901  0.500525  1
  O  O41  1  0.793331  0.761053  0.386274  1
  O  O42  1  0.882983  0.045886  0.382983  1
  O  O43  1  0.347855  0.966683  0.302638  1
  O  O44  1  0.650984  0.145099  0.499475  1
  O  O45  1  0.957697  0.159831  0.647483  1
  O  O46  1  0.481388  0.262520  0.477396  1
  O  O47  1  0.042303  0.840169  0.352517  1
  O  O48  1  0.529276  0.857063  0.321223  1
  O  O49  1  0.874339  0.863748  0.655143  1
  O  O50  1  0.125661  0.136252  0.344857  1
  O  O51  1  0.470724  0.142937  0.678777  1
  O  O52  1  0.518612  0.737480  0.522604  1
  O  O53  1  0.652145  0.033317  0.697362  1
  O  O54  1  0.206669  0.238947  0.613726  1
  O  O55  1  0.117017  0.954114  0.617017  1
  F  F56  1  0.733412  0.106951  0.202291  1
  F  F57  1  0.897275  0.355967  0.484945  1
  F  F58  1  0.788156  0.303028  0.907023  1
  F  F59  1  0.029458  0.750625  0.799530  1
  F  F60  1  0.462877  0.740121  0.082584  1
  F  F61  1  0.715094  0.407358  0.378233  1
  F  F62  1  0.112699  0.984344  0.892057  1
  F  F63  1  0.651193  0.107183  0.939415  1
  F  F64  1  0.970542  0.249375  0.200470  1
  F  F65  1  0.266588  0.893049  0.797709  1
  F  F66  1  0.210389  0.498572  0.422908  1
  F  F67  1  0.957701  0.563583  0.199766  1
  F  F68  1  0.789611  0.501428  0.577092  1
  F  F69  1  0.298165  0.482419  0.805440  1
  F  F70  1  0.887301  0.015656  0.107943  1
  F  F71  1  0.176750  0.329459  0.888037  1
  F  F72  1  0.284906  0.592642  0.621767  1
  F  F73  1  0.211844  0.696972  0.092977  1
  F  F74  1  0.701835  0.517581  0.194560  1
  F  F75  1  0.537123  0.259879  0.917416  1
  F  F76  1  0.823250  0.670541  0.111963  1
  F  F77  1  0.042299  0.436417  0.800234  1
  F  F78  1  0.348807  0.892817  0.060585  1
  F  F79  1  0.102725  0.644033  0.515055  1
