# generated using pymatgen
data_Tb8CrTe13Cl
_symmetry_space_group_name_H-M   'P 1'
_cell_length_a   4.19810138
_cell_length_b   13.46663213
_cell_length_c   23.83521872
_cell_angle_alpha   89.99983916
_cell_angle_beta   90.00000000
_cell_angle_gamma   98.96728591
_symmetry_Int_Tables_number   1
_chemical_formula_structural   Tb8CrTe13Cl
_chemical_formula_sum   'Tb16 Cr2 Te26 Cl2'
_cell_volume   1331.03718679
_cell_formula_units_Z   2
loop_
 _symmetry_equiv_pos_site_id
 _symmetry_equiv_pos_as_xyz
  1  'x, y, z'
loop_
 _atom_site_type_symbol
 _atom_site_label
 _atom_site_symmetry_multiplicity
 _atom_site_fract_x
 _atom_site_fract_y
 _atom_site_fract_z
 _atom_site_occupancy
  Tb  Tb0  1  0.107451  0.214903  0.615443  1
  Tb  Tb1  1  0.275420  0.550839  0.594987  1
  Tb  Tb2  1  0.147802  0.295604  0.282443  1
  Tb  Tb3  1  0.724577  0.449155  0.094987  1
  Tb  Tb4  1  0.017769  0.035538  0.777718  1
  Tb  Tb5  1  0.559427  0.118855  0.102691  1
  Tb  Tb6  1  0.982230  0.964459  0.277719  1
  Tb  Tb7  1  0.306684  0.613367  0.268265  1
  Tb  Tb8  1  0.052276  0.104551  0.443661  1
  Tb  Tb9  1  0.440572  0.881143  0.602690  1
  Tb  Tb10  1  0.947723  0.895446  0.943663  1
  Tb  Tb11  1  0.632019  0.264038  0.935068  1
  Tb  Tb12  1  0.892548  0.785096  0.115442  1
  Tb  Tb13  1  0.367979  0.735958  0.435066  1
  Tb  Tb14  1  0.852195  0.704390  0.782442  1
  Tb  Tb15  1  0.693315  0.386630  0.768264  1
  Cr  Cr16  1  0.708825  0.417650  0.441014  1
  Cr  Cr17  1  0.291189  0.582379  0.940974  1
  Te  Te18  1  0.622901  0.245802  0.380523  1
  Te  Te19  1  0.566067  0.132135  0.240043  1
  Te  Te20  1  0.449826  0.899653  0.041240  1
  Te  Te21  1  0.304302  0.608604  0.135446  1
  Te  Te22  1  0.202438  0.404876  0.997903  1
  Te  Te23  1  0.826620  0.653241  0.004536  1
  Te  Te24  1  0.130188  0.260376  0.836605  1
  Te  Te25  1  0.797565  0.595130  0.497906  1
  Te  Te26  1  0.518636  0.037272  0.878710  1
  Te  Te27  1  0.143584  0.287167  0.141816  1
  Te  Te28  1  0.695697  0.391393  0.635447  1
  Te  Te29  1  0.856415  0.712830  0.641816  1
  Te  Te30  1  0.550173  0.100345  0.541240  1
  Te  Te31  1  0.433931  0.867862  0.740043  1
  Te  Te32  1  0.243721  0.487442  0.376718  1
  Te  Te33  1  0.756281  0.512561  0.876714  1
  Te  Te34  1  0.274653  0.549305  0.734427  1
  Te  Te35  1  0.173381  0.346762  0.504540  1
  Te  Te36  1  0.061830  0.123660  -0.000039  1
  Te  Te37  1  0.413797  0.827593  0.215012  1
  Te  Te38  1  0.586202  0.172405  0.715012  1
  Te  Te39  1  0.938169  0.876338  0.499961  1
  Te  Te40  1  0.377104  0.754208  0.880519  1
  Te  Te41  1  0.725346  0.450692  0.234428  1
  Te  Te42  1  0.869810  0.739621  0.336605  1
  Te  Te43  1  0.481362  0.962725  0.378710  1
  Cl  Cl44  1  1.000503  1.001006  0.146481  1
  Cl  Cl45  1  -0.000504  -0.001009  0.646481  1
