# generated using pymatgen
data_CoP2O7
_symmetry_space_group_name_H-M   'P 1'
_cell_length_a   6.14736066
_cell_length_b   6.14712209
_cell_length_c   12.82767578
_cell_angle_alpha   79.57859497
_cell_angle_beta   77.11122426
_cell_angle_gamma   99.05284883
_symmetry_Int_Tables_number   1
_chemical_formula_structural   CoP2O7
_chemical_formula_sum   'Co4 P8 O28'
_cell_volume   454.74409240
_cell_formula_units_Z   4
loop_
 _symmetry_equiv_pos_site_id
 _symmetry_equiv_pos_as_xyz
  1  'x, y, z'
loop_
 _atom_site_type_symbol
 _atom_site_label
 _atom_site_symmetry_multiplicity
 _atom_site_fract_x
 _atom_site_fract_y
 _atom_site_fract_z
 _atom_site_occupancy
  Co  Co0  1  0.729470  0.877886  0.856177  1
  Co  Co1  1  0.234073  0.585687  0.643834  1
  Co  Co2  1  0.765925  0.414313  0.356167  1
  Co  Co3  1  0.270530  0.122114  0.143822  1
  P  P4  1  0.782651  0.248831  0.138225  1
  P  P5  1  0.112923  0.079138  0.638260  1
  P  P6  1  0.655149  0.332464  0.930560  1
  P  P7  1  0.236979  0.414304  0.430586  1
  P  P8  1  0.763020  0.585684  0.569421  1
  P  P9  1  0.217340  0.751163  0.861774  1
  P  P10  1  0.887085  0.920878  0.361734  1
  P  P11  1  0.344850  0.667534  0.069441  1
  O  O12  1  0.213691  0.605630  0.980508  1
  O  O13  1  0.783091  0.189450  0.862197  1
  O  O14  1  0.448363  0.354762  0.362199  1
  O  O15  1  0.407734  0.204760  0.992526  1
  O  O16  1  0.134894  0.033546  0.296515  1
  O  O17  1  0.913292  0.521037  0.645796  1
  O  O18  1  0.169949  0.568575  0.796540  1
  O  O19  1  0.333175  0.440885  0.145837  1
  O  O20  1  0.551634  0.645239  0.637801  1
  O  O21  1  0.266941  0.909289  0.618856  1
  O  O22  1  0.449546  0.915920  0.820993  1
  O  O23  1  0.028050  0.885700  0.881177  1
  O  O24  1  0.733065  0.090704  0.381141  1
  O  O25  1  0.086708  0.478965  0.354202  1
  O  O26  1  0.830049  0.431423  0.203458  1
  O  O27  1  0.763180  0.729452  0.320953  1
  O  O28  1  0.697251  0.400247  0.507473  1
  O  O29  1  0.216903  0.810545  0.137805  1
  O  O30  1  0.086153  0.194178  0.519530  1
  O  O31  1  0.786306  0.394369  0.019492  1
  O  O32  1  0.666818  0.559119  0.854164  1
  O  O33  1  0.971950  0.114294  0.118820  1
  O  O34  1  0.302749  0.599760  0.492530  1
  O  O35  1  0.236827  0.270556  0.679046  1
  O  O36  1  0.550461  0.084078  0.179006  1
  O  O37  1  0.592258  0.795241  0.007475  1
  O  O38  1  0.865109  0.966450  0.703489  1
  O  O39  1  0.913854  0.805827  0.480471  1
