# generated using pymatgen
data_Dy3Ge5
_symmetry_space_group_name_H-M   'P 1'
_cell_length_a   5.77792367
_cell_length_b   7.46622762
_cell_length_c   9.16905686
_cell_angle_alpha   82.98548208
_cell_angle_beta   71.61206528
_cell_angle_gamma   67.23949107
_symmetry_Int_Tables_number   1
_chemical_formula_structural   Dy3Ge5
_chemical_formula_sum   'Dy6 Ge10'
_cell_volume   346.12242185
_cell_formula_units_Z   2
loop_
 _symmetry_equiv_pos_site_id
 _symmetry_equiv_pos_as_xyz
  1  'x, y, z'
loop_
 _atom_site_type_symbol
 _atom_site_label
 _atom_site_symmetry_multiplicity
 _atom_site_fract_x
 _atom_site_fract_y
 _atom_site_fract_z
 _atom_site_occupancy
  Dy  Dy0  1  0.996259  0.007487  0.000024  1
  Dy  Dy1  1  0.246252  0.507559  0.499951  1
  Dy  Dy2  1  0.567558  0.492897  0.835186  1
  Dy  Dy3  1  0.939611  0.492891  0.164848  1
  Dy  Dy4  1  0.354411  0.992837  0.335158  1
  Dy  Dy5  1  0.652783  0.992877  0.664818  1
  Ge  Ge6  1  0.441678  0.116877  0.999933  1
  Ge  Ge7  1  0.691601  0.616833  0.500059  1
  Ge  Ge8  1  0.896545  0.700546  0.873358  1
  Ge  Ge9  1  0.402817  0.700394  0.126759  1
  Ge  Ge10  1  0.779575  0.200537  0.373224  1
  Ge  Ge11  1  0.019794  0.200697  0.626631  1
  Ge  Ge12  1  0.165204  0.334357  0.825464  1
  Ge  Ge13  1  0.500396  0.334290  0.174567  1
  Ge  Ge14  1  0.924877  0.834405  0.325513  1
  Ge  Ge15  1  0.240640  0.834516  0.674506  1
