# generated using pymatgen
data_P4O7
_symmetry_space_group_name_H-M   'P 1'
_cell_length_a   6.94230169
_cell_length_b   10.50694705
_cell_length_c   10.68806982
_cell_angle_alpha   90.00000000
_cell_angle_beta   90.00000000
_cell_angle_gamma   97.94655947
_symmetry_Int_Tables_number   1
_chemical_formula_structural   P4O7
_chemical_formula_sum   'P16 O28'
_cell_volume   772.12714473
_cell_formula_units_Z   4
loop_
 _symmetry_equiv_pos_site_id
 _symmetry_equiv_pos_as_xyz
  1  'x, y, z'
loop_
 _atom_site_type_symbol
 _atom_site_label
 _atom_site_symmetry_multiplicity
 _atom_site_fract_x
 _atom_site_fract_y
 _atom_site_fract_z
 _atom_site_occupancy
  P  P0  1  0.926909  0.955648  0.672501  1
  P  P1  1  0.692368  0.836714  0.885117  1
  P  P2  1  0.573091  0.544352  0.172501  1
  P  P3  1  0.073091  0.044352  0.327499  1
  P  P4  1  0.476320  0.987725  0.290013  1
  P  P5  1  0.523680  0.012275  0.709987  1
  P  P6  1  0.668188  0.389253  0.383315  1
  P  P7  1  0.307632  0.163286  0.114883  1
  P  P8  1  0.192368  0.336714  0.614883  1
  P  P9  1  0.976320  0.487725  0.209987  1
  P  P10  1  0.168188  0.889253  0.116685  1
  P  P11  1  0.807632  0.663286  0.385117  1
  P  P12  1  0.831812  0.110747  0.883315  1
  P  P13  1  0.331812  0.610747  0.616685  1
  P  P14  1  0.426909  0.455648  0.827499  1
  P  P15  1  0.023680  0.512275  0.790013  1
  O  O16  1  0.989003  0.613215  0.305876  1
  O  O17  1  0.221908  0.022927  0.043091  1
  O  O18  1  0.786031  0.510153  0.123067  1
  O  O19  1  0.406345  0.719907  0.537348  1
  O  O20  1  0.093655  0.780093  0.037348  1
  O  O21  1  0.363831  0.873699  0.191450  1
  O  O22  1  0.519591  0.421900  0.276155  1
  O  O23  1  0.019591  0.921900  0.223845  1
  O  O24  1  0.136169  0.626301  0.691450  1
  O  O25  1  0.357733  0.338207  0.727038  1
  O  O26  1  0.642267  0.661793  0.272962  1
  O  O27  1  0.636169  0.126301  0.808550  1
  O  O28  1  0.778092  0.977073  0.956909  1
  O  O29  1  0.980409  0.078100  0.776155  1
  O  O30  1  0.489003  0.113215  0.194124  1
  O  O31  1  0.906345  0.219907  0.962652  1
  O  O32  1  0.721908  0.522927  0.456909  1
  O  O33  1  0.857733  0.838207  0.772962  1
  O  O34  1  0.480409  0.578100  0.723845  1
  O  O35  1  0.510997  0.886785  0.805876  1
  O  O36  1  0.713969  0.989847  0.623067  1
  O  O37  1  0.863831  0.373699  0.308550  1
  O  O38  1  0.010997  0.386785  0.694124  1
  O  O39  1  0.142267  0.161793  0.227038  1
  O  O40  1  0.593655  0.280093  0.462652  1
  O  O41  1  0.213969  0.489847  0.876933  1
  O  O42  1  0.278092  0.477073  0.543091  1
  O  O43  1  0.286031  0.010153  0.376933  1
