# generated using pymatgen
data_Eu2(Ga3Ir)3
_symmetry_space_group_name_H-M   'P 1'
_cell_length_a   7.61432454
_cell_length_b   7.61432501
_cell_length_c   9.77839241
_cell_angle_alpha   90.00000000
_cell_angle_beta   90.00000000
_cell_angle_gamma   119.49603079
_symmetry_Int_Tables_number   1
_chemical_formula_structural   Eu2(Ga3Ir)3
_chemical_formula_sum   'Eu4 Ga18 Ir6'
_cell_volume   493.45102090
_cell_formula_units_Z   2
loop_
 _symmetry_equiv_pos_site_id
 _symmetry_equiv_pos_as_xyz
  1  'x, y, z'
loop_
 _atom_site_type_symbol
 _atom_site_label
 _atom_site_symmetry_multiplicity
 _atom_site_fract_x
 _atom_site_fract_y
 _atom_site_fract_z
 _atom_site_occupancy
  Eu  Eu0  1  0.330555  0.002816  0.750000  1
  Eu  Eu1  1  0.669445  0.997184  0.250000  1
  Eu  Eu2  1  0.002816  0.330555  0.750000  1
  Eu  Eu3  1  0.997184  0.669445  0.250000  1
  Ir  Ir4  1  0.000000  0.000000  0.500000  1
  Ir  Ir5  1  0.000000  0.000000  0.000000  1
  Ir  Ir6  1  0.329600  0.670400  0.500000  1
  Ir  Ir7  1  0.670400  0.329600  0.000000  1
  Ir  Ir8  1  0.670400  0.329600  0.500000  1
  Ir  Ir9  1  0.329600  0.670400  0.000000  1
  Ga  Ga10  1  0.665651  0.665651  0.442073  1
  Ga  Ga11  1  0.334349  0.334349  0.942073  1
  Ga  Ga12  1  0.665651  0.665651  0.057927  1
  Ga  Ga13  1  0.334349  0.334349  0.557927  1
  Ga  Ga14  1  0.334783  0.001894  0.425514  1
  Ga  Ga15  1  0.665217  0.998106  0.925514  1
  Ga  Ga16  1  0.001894  0.334783  0.074486  1
  Ga  Ga17  1  0.998106  0.665217  0.574486  1
  Ga  Ga18  1  0.665217  0.998106  0.574486  1
  Ga  Ga19  1  0.334783  0.001894  0.074486  1
  Ga  Ga20  1  0.998106  0.665217  0.925514  1
  Ga  Ga21  1  0.001894  0.334783  0.425514  1
  Ga  Ga22  1  0.129611  0.129611  0.250000  1
  Ga  Ga23  1  0.870389  0.870389  0.750000  1
  Ga  Ga24  1  0.455853  0.663316  0.750000  1
  Ga  Ga25  1  0.544147  0.336684  0.250000  1
  Ga  Ga26  1  0.663316  0.455853  0.750000  1
  Ga  Ga27  1  0.336684  0.544147  0.250000  1
