# generated using pymatgen
data_WSCl4
_symmetry_space_group_name_H-M   'P 1'
_cell_length_a   9.60594732
_cell_length_b   13.31586538
_cell_length_c   13.63797745
_cell_angle_alpha   90.00000000
_cell_angle_beta   90.00000000
_cell_angle_gamma   110.27172528
_symmetry_Int_Tables_number   1
_chemical_formula_structural   WSCl4
_chemical_formula_sum   'W8 S8 Cl32'
_cell_volume   1636.40273014
_cell_formula_units_Z   8
loop_
 _symmetry_equiv_pos_site_id
 _symmetry_equiv_pos_as_xyz
  1  'x, y, z'
loop_
 _atom_site_type_symbol
 _atom_site_label
 _atom_site_symmetry_multiplicity
 _atom_site_fract_x
 _atom_site_fract_y
 _atom_site_fract_z
 _atom_site_occupancy
  W  W0  1  0.708281  0.337566  0.086699  1
  W  W1  1  0.791719  0.162434  0.586699  1
  W  W2  1  0.628580  0.584211  0.639763  1
  W  W3  1  0.371420  0.415789  0.360237  1
  W  W4  1  0.291719  0.662434  0.913301  1
  W  W5  1  0.128580  0.084211  0.860237  1
  W  W6  1  0.208281  0.837566  0.413301  1
  W  W7  1  0.871420  0.915789  0.139763  1
  S  S8  1  0.738136  0.232291  0.460570  1
  S  S9  1  0.760977  0.771756  0.213707  1
  S  S10  1  0.761864  0.267709  0.960570  1
  S  S11  1  0.239023  0.228244  0.786293  1
  S  S12  1  0.261864  0.767709  0.539430  1
  S  S13  1  0.739023  0.728244  0.713707  1
  S  S14  1  0.260977  0.271756  0.286293  1
  S  S15  1  0.238136  0.732291  0.039430  1
  Cl  Cl16  1  0.516247  0.646225  0.951692  1
  Cl  Cl17  1  0.187731  0.481043  0.941785  1
  Cl  Cl18  1  0.186083  0.450054  0.444258  1
  Cl  Cl19  1  0.483753  0.353775  0.048308  1
  Cl  Cl20  1  0.686083  0.950054  0.055742  1
  Cl  Cl21  1  0.594701  0.141889  0.691002  1
  Cl  Cl22  1  0.687731  0.981043  0.558215  1
  Cl  Cl23  1  0.565101  0.645207  0.492006  1
  Cl  Cl24  1  0.312269  0.018957  0.441785  1
  Cl  Cl25  1  0.576614  0.192513  0.181718  1
  Cl  Cl26  1  0.866996  0.044233  0.250738  1
  Cl  Cl27  1  0.923386  0.307487  0.681718  1
  Cl  Cl28  1  0.094701  0.641889  0.808998  1
  Cl  Cl29  1  0.617100  0.453768  0.316138  1
  Cl  Cl30  1  0.076614  0.692513  0.318282  1
  Cl  Cl31  1  0.813917  0.549946  0.555742  1
  Cl  Cl32  1  0.133004  0.955767  0.749262  1
  Cl  Cl33  1  0.633004  0.455767  0.750738  1
  Cl  Cl34  1  0.117100  0.953768  0.183862  1
  Cl  Cl35  1  0.016247  0.146225  0.548308  1
  Cl  Cl36  1  0.313917  0.049946  0.944258  1
  Cl  Cl37  1  0.065101  0.145207  0.007994  1
  Cl  Cl38  1  0.405299  0.858111  0.308998  1
  Cl  Cl39  1  0.434899  0.354793  0.507994  1
  Cl  Cl40  1  0.983753  0.853775  0.451692  1
  Cl  Cl41  1  0.366996  0.544233  0.249262  1
  Cl  Cl42  1  0.882900  0.046232  0.816138  1
  Cl  Cl43  1  0.382900  0.546232  0.683862  1
  Cl  Cl44  1  0.423386  0.807487  0.818282  1
  Cl  Cl45  1  0.812269  0.518957  0.058215  1
  Cl  Cl46  1  0.934899  0.854793  0.992006  1
  Cl  Cl47  1  0.905299  0.358111  0.191002  1
