# generated using pymatgen
data_YMg4Cu
_symmetry_space_group_name_H-M   'P 1'
_cell_length_a   4.04653432
_cell_length_b   11.96854210
_cell_length_c   11.96854209
_cell_angle_alpha   112.81755063
_cell_angle_beta   90.00000000
_cell_angle_gamma   90.00000000
_symmetry_Int_Tables_number   1
_chemical_formula_structural   YMg4Cu
_chemical_formula_sum   'Y4 Mg16 Cu4'
_cell_volume   534.28901111
_cell_formula_units_Z   4
loop_
 _symmetry_equiv_pos_site_id
 _symmetry_equiv_pos_as_xyz
  1  'x, y, z'
loop_
 _atom_site_type_symbol
 _atom_site_label
 _atom_site_symmetry_multiplicity
 _atom_site_fract_x
 _atom_site_fract_y
 _atom_site_fract_z
 _atom_site_occupancy
  Y  Y0  1  0.000000  0.301364  0.301364  1
  Y  Y1  1  0.000000  0.698636  0.698636  1
  Y  Y2  1  0.000000  0.367351  0.632649  1
  Y  Y3  1  0.000000  0.632649  0.367351  1
  Mg  Mg4  1  0.000000  0.164701  0.835299  1
  Mg  Mg5  1  0.000000  0.586801  0.923045  1
  Mg  Mg6  1  0.500000  0.789239  0.949843  1
  Mg  Mg7  1  0.500000  0.624858  0.135137  1
  Mg  Mg8  1  0.500000  0.949843  0.789239  1
  Mg  Mg9  1  0.000000  0.413199  0.076955  1
  Mg  Mg10  1  0.500000  0.050157  0.210761  1
  Mg  Mg11  1  0.000000  0.835299  0.164701  1
  Mg  Mg12  1  0.500000  0.375142  0.864863  1
  Mg  Mg13  1  0.500000  0.864863  0.375142  1
  Mg  Mg14  1  0.000000  0.923045  0.586801  1
  Mg  Mg15  1  0.500000  0.135137  0.624858  1
  Mg  Mg16  1  0.500000  0.210761  0.050157  1
  Mg  Mg17  1  0.000000  0.076955  0.413199  1
  Mg  Mg18  1  0.000000  0.000000  0.000000  1
  Mg  Mg19  1  0.500000  0.500000  0.500000  1
  Cu  Cu20  1  0.500000  0.235243  0.446067  1
  Cu  Cu21  1  0.500000  0.446067  0.235243  1
  Cu  Cu22  1  0.500000  0.553933  0.764757  1
  Cu  Cu23  1  0.500000  0.764757  0.553933  1
