# generated using pymatgen
data_Rb4CO4
_symmetry_space_group_name_H-M   'P 1'
_cell_length_a   6.84558663
_cell_length_b   5.80494095
_cell_length_c   5.80494083
_cell_angle_alpha   88.80632325
_cell_angle_beta   104.88009622
_cell_angle_gamma   104.88010082
_symmetry_Int_Tables_number   1
_chemical_formula_structural   Rb4CO4
_chemical_formula_sum   'Rb4 C1 O4'
_cell_volume   215.21459192
_cell_formula_units_Z   1
loop_
 _symmetry_equiv_pos_site_id
 _symmetry_equiv_pos_as_xyz
  1  'x, y, z'
loop_
 _atom_site_type_symbol
 _atom_site_label
 _atom_site_symmetry_multiplicity
 _atom_site_fract_x
 _atom_site_fract_y
 _atom_site_fract_z
 _atom_site_occupancy
  Rb  Rb0  1  0.619411  0.092118  0.568131  1
  Rb  Rb1  1  0.097468  0.956480  0.445292  1
  Rb  Rb2  1  0.619411  0.568131  0.092118  1
  Rb  Rb3  1  0.097468  0.445292  0.956480  1
  O  O4  1  0.332021  0.880223  0.168574  1
  O  O5  1  0.332021  0.168574  0.880223  1
  O  O6  1  0.647299  0.071880  0.071880  1
  O  O7  1  0.374129  0.796817  0.796817  1
  C  C8  1  0.419193  0.980246  0.980246  1
