# generated using pymatgen
data_Mn3B7BrO13
_symmetry_space_group_name_H-M   'P 1'
_cell_length_a   8.76732988
_cell_length_b   8.76732962
_cell_length_c   8.76732852
_cell_angle_alpha   60.00000038
_cell_angle_beta   60.00000135
_cell_angle_gamma   60.00000213
_symmetry_Int_Tables_number   1
_chemical_formula_structural   Mn3B7BrO13
_chemical_formula_sum   'Mn6 B14 Br2 O26'
_cell_volume   476.52641253
_cell_formula_units_Z   2
loop_
 _symmetry_equiv_pos_site_id
 _symmetry_equiv_pos_as_xyz
  1  'x, y, z'
loop_
 _atom_site_type_symbol
 _atom_site_label
 _atom_site_symmetry_multiplicity
 _atom_site_fract_x
 _atom_site_fract_y
 _atom_site_fract_z
 _atom_site_occupancy
  Mn  Mn0  1  0.500000  0.000000  0.500000  1
  Mn  Mn1  1  0.500000  0.000000  0.000000  1
  Mn  Mn2  1  0.000000  0.000000  0.500000  1
  Mn  Mn3  1  0.000000  0.500000  0.500000  1
  Mn  Mn4  1  0.500000  0.500000  0.000000  1
  Mn  Mn5  1  0.000000  0.500000  0.000000  1
  B  B6  1  0.260792  0.579736  0.579736  1
  B  B7  1  0.079736  0.079736  0.760792  1
  B  B8  1  0.760792  0.079736  0.079736  1
  B  B9  1  0.579736  0.260792  0.579736  1
  B  B10  1  0.750000  0.750000  0.250000  1
  B  B11  1  0.579736  0.579736  0.260792  1
  B  B12  1  0.250000  0.750000  0.250000  1
  B  B13  1  0.750000  0.250000  0.250000  1
  B  B14  1  0.250000  0.250000  0.750000  1
  B  B15  1  0.750000  0.250000  0.750000  1
  B  B16  1  0.250000  0.750000  0.750000  1
  B  B17  1  0.579736  0.579736  0.579736  1
  B  B18  1  0.079736  0.079736  0.079736  1
  B  B19  1  0.079736  0.760792  0.079736  1
  Br  Br20  1  0.750000  0.750000  0.750000  1
  Br  Br21  1  0.250000  0.250000  0.250000  1
  O  O22  1  0.251287  0.109065  0.936379  1
  O  O23  1  0.703269  0.109065  0.251287  1
  O  O24  1  0.609065  0.203269  0.751287  1
  O  O25  1  0.936379  0.251287  0.109065  1
  O  O26  1  0.751287  0.436379  0.609065  1
  O  O27  1  0.703269  0.251287  0.936379  1
  O  O28  1  0.203269  0.436379  0.751287  1
  O  O29  1  0.436379  0.609065  0.751287  1
  O  O30  1  0.109065  0.936379  0.251287  1
  O  O31  1  0.109065  0.703269  0.936379  1
  O  O32  1  0.751287  0.609065  0.203269  1
  O  O33  1  0.251287  0.936379  0.703269  1
  O  O34  1  0.609065  0.751287  0.436379  1
  O  O35  1  0.203269  0.609065  0.436379  1
  O  O36  1  0.500000  0.500000  0.500000  1
  O  O37  1  0.936379  0.703269  0.251287  1
  O  O38  1  0.436379  0.203269  0.609065  1
  O  O39  1  0.936379  0.109065  0.703269  1
  O  O40  1  0.000000  0.000000  0.000000  1
  O  O41  1  0.436379  0.751287  0.203269  1
  O  O42  1  0.203269  0.751287  0.609065  1
  O  O43  1  0.751287  0.203269  0.436379  1
  O  O44  1  0.251287  0.703269  0.109065  1
  O  O45  1  0.703269  0.936379  0.109065  1
  O  O46  1  0.109065  0.251287  0.703269  1
  O  O47  1  0.609065  0.436379  0.203269  1
