# generated using pymatgen
data_Cr(B3H8)2
_symmetry_space_group_name_H-M   'P 1'
_cell_length_a   4.47519247
_cell_length_b   5.88429475
_cell_length_c   8.98925287
_cell_angle_alpha   105.93312795
_cell_angle_beta   92.45341680
_cell_angle_gamma   111.62065480
_symmetry_Int_Tables_number   1
_chemical_formula_structural   Cr(B3H8)2
_chemical_formula_sum   'Cr1 B6 H16'
_cell_volume   208.84661149
_cell_formula_units_Z   1
loop_
 _symmetry_equiv_pos_site_id
 _symmetry_equiv_pos_as_xyz
  1  'x, y, z'
loop_
 _atom_site_type_symbol
 _atom_site_label
 _atom_site_symmetry_multiplicity
 _atom_site_fract_x
 _atom_site_fract_y
 _atom_site_fract_z
 _atom_site_occupancy
  Cr  Cr0  1  0.000000  0.500000  0.500000  1
  B  B1  1  0.312482  0.611897  0.304715  1
  B  B2  1  0.687518  0.388103  0.695285  1
  B  B3  1  0.110882  0.335627  0.132296  1
  B  B4  1  0.265967  0.308376  0.312877  1
  B  B5  1  0.889118  0.664373  0.867704  1
  B  B6  1  0.734033  0.691624  0.687123  1
  H  H7  1  0.256125  0.308589  0.023977  1
  H  H8  1  0.410356  0.235404  0.668734  1
  H  H9  1  0.518584  0.284310  0.341950  1
  H  H10  1  0.141949  0.715440  0.382866  1
  H  H11  1  0.873618  0.870775  0.814407  1
  H  H12  1  0.481416  0.715690  0.658050  1
  H  H13  1  0.858051  0.284560  0.617134  1
  H  H14  1  0.201903  0.607902  0.171382  1
  H  H15  1  0.179669  0.738228  0.897505  1
  H  H16  1  0.743875  0.691411  0.976023  1
  H  H17  1  0.820331  0.261772  0.102495  1
  H  H18  1  0.073357  0.214283  0.399200  1
  H  H19  1  0.926643  0.785717  0.600800  1
  H  H20  1  0.126382  0.129225  0.185593  1
  H  H21  1  0.798097  0.392098  0.828618  1
  H  H22  1  0.589644  0.764596  0.331266  1
