# generated using pymatgen
data_NaNb4Tl3P2O17
_symmetry_space_group_name_H-M   'P 1'
_cell_length_a   7.49101857
_cell_length_b   10.09422667
_cell_length_c   11.95469951
_cell_angle_alpha   114.97595223
_cell_angle_beta   90.00000000
_cell_angle_gamma   90.00000000
_symmetry_Int_Tables_number   1
_chemical_formula_structural   NaNb4Tl3P2O17
_chemical_formula_sum   'Na2 Nb8 Tl6 P4 O34'
_cell_volume   819.43263057
_cell_formula_units_Z   2
loop_
 _symmetry_equiv_pos_site_id
 _symmetry_equiv_pos_as_xyz
  1  'x, y, z'
loop_
 _atom_site_type_symbol
 _atom_site_label
 _atom_site_symmetry_multiplicity
 _atom_site_fract_x
 _atom_site_fract_y
 _atom_site_fract_z
 _atom_site_occupancy
  Na  Na0  1  0.500004  0.632111  0.000011  1
  Na  Na1  1  0.999996  0.632111  0.000011  1
  Nb  Nb2  1  0.000653  0.345800  0.307326  1
  Nb  Nb3  1  0.750000  0.673031  0.526494  1
  Nb  Nb4  1  0.499347  0.345800  0.307326  1
  Nb  Nb5  1  0.999998  0.001011  0.999993  1
  Nb  Nb6  1  0.500654  0.038505  0.692678  1
  Nb  Nb7  1  0.500002  0.001011  0.999993  1
  Nb  Nb8  1  0.999346  0.038505  0.692678  1
  Nb  Nb9  1  0.250000  0.146502  0.473486  1
  Tl  Tl10  1  0.250000  0.687812  0.722079  1
  Tl  Tl11  1  0.250000  0.713830  0.395885  1
  Tl  Tl12  1  0.750000  0.317909  0.604115  1
  Tl  Tl13  1  0.250000  0.366785  0.056255  1
  Tl  Tl14  1  0.750000  0.310499  0.943769  1
  Tl  Tl15  1  0.750000  0.965780  0.277945  1
  P  P16  1  0.250000  0.351340  0.770133  1
  P  P17  1  0.750000  0.686756  0.824756  1
  P  P18  1  0.750000  0.581202  0.229874  1
  P  P19  1  0.250000  0.861997  0.175225  1
  O  O20  1  0.750000  0.116636  0.699869  1
  O  O21  1  0.750000  0.653927  0.140748  1
  O  O22  1  0.076243  0.899491  0.122705  1
  O  O23  1  0.541229  0.060174  0.869822  1
  O  O24  1  0.437466  0.073936  0.544404  1
  O  O25  1  0.958771  0.060174  0.869822  1
  O  O26  1  0.750000  1.000562  0.055998  1
  O  O27  1  0.420322  0.272598  0.787259  1
  O  O28  1  0.062534  0.073936  0.544404  1
  O  O29  1  0.423757  0.899491  0.122705  1
  O  O30  1  0.750000  0.285798  0.293841  1
  O  O31  1  0.250000  0.416767  0.300215  1
  O  O32  1  0.562548  0.529530  0.455582  1
  O  O33  1  0.431589  0.235993  0.395064  1
  O  O34  1  0.250000  0.944555  0.943997  1
  O  O35  1  0.920319  0.485348  0.212746  1
  O  O36  1  0.250000  0.700539  0.150114  1
  O  O37  1  0.041215  0.190379  0.130163  1
  O  O38  1  0.923757  0.776745  0.877318  1
  O  O39  1  0.576243  0.776745  0.877318  1
  O  O40  1  0.250000  0.957454  0.318045  1
  O  O41  1  0.750000  0.703612  0.367703  1
  O  O42  1  0.750000  0.550365  0.849840  1
  O  O43  1  0.250000  0.992042  0.706168  1
  O  O44  1  0.568430  0.840983  0.604910  1
  O  O45  1  0.458785  0.190379  0.130163  1
  O  O46  1  0.250000  0.513161  0.859233  1
  O  O47  1  0.079678  0.272598  0.787259  1
  O  O48  1  0.931570  0.840983  0.604910  1
  O  O49  1  0.068411  0.235993  0.395064  1
  O  O50  1  0.937452  0.529530  0.455582  1
  O  O51  1  0.750000  0.639466  0.681958  1
  O  O52  1  0.579681  0.485348  0.212746  1
  O  O53  1  0.250000  0.335865  0.632293  1
