# generated using pymatgen
data_Rb2ZnO2
_symmetry_space_group_name_H-M   'P 1'
_cell_length_a   6.43856112
_cell_length_b   9.73424047
_cell_length_c   14.28370536
_cell_angle_alpha   97.84751296
_cell_angle_beta   90.00000000
_cell_angle_gamma   90.00000000
_symmetry_Int_Tables_number   1
_chemical_formula_structural   Rb2ZnO2
_chemical_formula_sum   'Rb16 Zn8 O16'
_cell_volume   886.84031104
_cell_formula_units_Z   8
loop_
 _symmetry_equiv_pos_site_id
 _symmetry_equiv_pos_as_xyz
  1  'x, y, z'
loop_
 _atom_site_type_symbol
 _atom_site_label
 _atom_site_symmetry_multiplicity
 _atom_site_fract_x
 _atom_site_fract_y
 _atom_site_fract_z
 _atom_site_occupancy
  Rb  Rb0  1  0.417990  0.083474  0.761159  1
  Rb  Rb1  1  0.629986  0.743814  0.663385  1
  Rb  Rb2  1  0.370014  0.256186  0.336615  1
  Rb  Rb3  1  0.129986  0.756186  0.836615  1
  Rb  Rb4  1  0.675662  0.827705  0.972299  1
  Rb  Rb5  1  0.582010  0.916526  0.238841  1
  Rb  Rb6  1  0.433715  0.446126  0.879039  1
  Rb  Rb7  1  0.824338  0.327705  0.472299  1
  Rb  Rb8  1  0.933715  0.053874  0.620961  1
  Rb  Rb9  1  0.066285  0.946126  0.379039  1
  Rb  Rb10  1  0.324338  0.172295  0.027701  1
  Rb  Rb11  1  0.917990  0.416526  0.738841  1
  Rb  Rb12  1  0.870014  0.243814  0.163385  1
  Rb  Rb13  1  0.175662  0.672295  0.527701  1
  Rb  Rb14  1  0.566285  0.553874  0.120961  1
  Rb  Rb15  1  0.082010  0.583474  0.261159  1
  Zn  Zn16  1  0.446982  0.127494  0.540055  1
  Zn  Zn17  1  0.127256  0.888723  0.128659  1
  Zn  Zn18  1  0.553018  0.872506  0.459945  1
  Zn  Zn19  1  0.872744  0.111277  0.871341  1
  Zn  Zn20  1  0.372744  0.388723  0.628659  1
  Zn  Zn21  1  0.053018  0.627494  0.040055  1
  Zn  Zn22  1  0.946982  0.372506  0.959945  1
  Zn  Zn23  1  0.627256  0.611277  0.371341  1
  O  O24  1  0.133136  0.439056  0.072594  1
  O  O25  1  0.778801  0.730374  0.472447  1
  O  O26  1  0.804599  0.940619  0.802076  1
  O  O27  1  0.695401  0.440619  0.302076  1
  O  O28  1  0.278801  0.769626  0.027553  1
  O  O29  1  0.601298  0.260188  0.641885  1
  O  O30  1  0.398702  0.739812  0.358115  1
  O  O31  1  0.866864  0.560944  0.927406  1
  O  O32  1  0.721199  0.230374  0.972447  1
  O  O33  1  0.195401  0.059381  0.197924  1
  O  O34  1  0.101298  0.239812  0.858115  1
  O  O35  1  0.304599  0.559381  0.697924  1
  O  O36  1  0.898702  0.760188  0.141885  1
  O  O37  1  0.221199  0.269626  0.527553  1
  O  O38  1  0.633136  0.060944  0.427406  1
  O  O39  1  0.366864  0.939056  0.572594  1
