# generated using pymatgen
data_Rb2Y(NO3)5
_symmetry_space_group_name_H-M   'P 1'
_cell_length_a   11.48269054
_cell_length_b   11.48269099
_cell_length_c   9.61719618
_cell_angle_alpha   90.00000000
_cell_angle_beta   90.00000000
_cell_angle_gamma   119.99999869
_symmetry_Int_Tables_number   1
_chemical_formula_structural   Rb2Y(NO3)5
_chemical_formula_sum   'Rb6 Y3 N15 O45'
_cell_volume   1098.16210007
_cell_formula_units_Z   3
loop_
 _symmetry_equiv_pos_site_id
 _symmetry_equiv_pos_as_xyz
  1  'x, y, z'
loop_
 _atom_site_type_symbol
 _atom_site_label
 _atom_site_symmetry_multiplicity
 _atom_site_fract_x
 _atom_site_fract_y
 _atom_site_fract_z
 _atom_site_occupancy
  Rb  Rb0  1  0.395332  0.334201  0.461387  1
  Rb  Rb1  1  0.666441  0.870655  0.295228  1
  Rb  Rb2  1  0.665799  0.061131  0.794720  1
  Rb  Rb3  1  0.129345  0.795786  0.628562  1
  Rb  Rb4  1  0.938869  0.604668  0.128053  1
  Rb  Rb5  1  0.204214  0.333559  0.961895  1
  Y  Y6  1  0.338937  0.006121  0.128748  1
  Y  Y7  1  0.993879  0.332817  0.462081  1
  Y  Y8  1  0.667183  0.661063  0.795415  1
  N  N9  1  0.088203  0.003163  0.193478  1
  N  N10  1  0.914960  0.911797  0.860145  1
  N  N11  1  0.408663  0.973903  0.414073  1
  N  N12  1  0.923183  0.231649  0.176616  1
  N  N13  1  0.026097  0.434760  0.747406  1
  N  N14  1  0.418670  0.662668  0.730427  1
  N  N15  1  0.996837  0.085040  0.526811  1
  N  N16  1  0.243999  0.581330  0.397094  1
  N  N17  1  0.585896  0.253139  0.131973  1
  N  N18  1  0.667243  0.414104  0.798640  1
  N  N19  1  0.768351  0.691534  0.509950  1
  N  N20  1  0.746861  0.332757  0.465306  1
  N  N21  1  0.565240  0.591337  0.080739  1
  N  N22  1  0.308466  0.076817  0.843283  1
  N  N23  1  0.337332  0.756001  0.063761  1
  O  O24  1  0.662496  0.698762  0.541433  1
  O  O25  1  0.002934  0.982996  0.551361  1
  O  O26  1  0.422428  0.553153  0.720786  1
  O  O27  1  0.332519  0.157504  0.945380  1
  O  O28  1  0.887222  0.088698  0.536282  1
  O  O29  1  0.295497  0.966342  0.382401  1
  O  O30  1  0.842496  0.175015  0.278713  1
  O  O31  1  0.482771  0.235194  0.202641  1
  O  O32  1  1.001362  0.491115  0.645581  1
  O  O33  1  0.911302  0.798523  0.869616  1
  O  O34  1  0.811476  0.707984  0.389908  1
  O  O35  1  0.017004  0.019938  0.884694  1
  O  O36  1  0.803788  0.904801  0.821409  1
  O  O37  1  0.352216  0.683577  0.373318  1
  O  O38  1  0.752423  0.517229  0.869307  1
  O  O39  1  0.848490  0.417683  0.392944  1
  O  O40  1  0.095199  0.898987  0.154742  1
  O  O41  1  0.508885  0.510248  0.978914  1
  O  O42  1  0.896508  0.188524  0.056574  1
  O  O43  1  0.237073  0.470020  0.435248  1
  O  O44  1  0.640099  0.332836  0.467045  1
  O  O45  1  0.670845  0.704503  0.049067  1
  O  O46  1  0.824985  0.667481  0.612047  1
  O  O47  1  0.529980  0.767053  0.768582  1
  O  O48  1  0.331361  0.647784  0.039985  1
  O  O49  1  0.667164  0.307263  0.800379  1
  O  O50  1  0.435120  0.957148  0.534116  1
  O  O51  1  0.301238  0.963734  0.874766  1
  O  O52  1  0.582317  0.430807  0.726277  1
  O  O53  1  0.489752  -0.001362  0.312248  1
  O  O54  1  0.232947  0.762927  0.101915  1
  O  O55  1  0.036266  0.337504  0.208099  1
  O  O56  1  0.042852  0.477972  0.867449  1
  O  O57  1  0.201477  0.112778  0.202949  1
  O  O58  1  0.292016  0.103492  0.723241  1
  O  O59  1  0.692737  0.359901  0.133712  1
  O  O60  1  0.522028  0.564880  0.200782  1
  O  O61  1  0.764806  0.247577  0.535974  1
  O  O62  1  0.980062  0.997066  0.218028  1
  O  O63  1  0.130725  0.577572  0.387453  1
  O  O64  1  0.033658  0.329155  0.715734  1
  O  O65  1  0.446847  0.869275  0.054119  1
  O  O66  1  0.316423  0.668639  0.706652  1
  O  O67  1  0.569193  0.151510  0.059610  1
  O  O68  1  0.101013  0.196212  0.488075  1
