# generated using pymatgen
data_NaBi2AuO5
_symmetry_space_group_name_H-M   'P 1'
_cell_length_a   3.62009769
_cell_length_b   12.56700254
_cell_length_c   12.56700254
_cell_angle_alpha   90.00000000
_cell_angle_beta   90.00000000
_cell_angle_gamma   90.00000000
_symmetry_Int_Tables_number   1
_chemical_formula_structural   NaBi2AuO5
_chemical_formula_sum   'Na4 Bi8 Au4 O20'
_cell_volume   571.72040942
_cell_formula_units_Z   4
loop_
 _symmetry_equiv_pos_site_id
 _symmetry_equiv_pos_as_xyz
  1  'x, y, z'
loop_
 _atom_site_type_symbol
 _atom_site_label
 _atom_site_symmetry_multiplicity
 _atom_site_fract_x
 _atom_site_fract_y
 _atom_site_fract_z
 _atom_site_occupancy
  Na  Na0  1  0.500000  0.800733  0.300733  1
  Na  Na1  1  0.500000  0.699267  0.800733  1
  Na  Na2  1  0.500000  0.199267  0.699267  1
  Na  Na3  1  0.500000  0.300733  0.199267  1
  Bi  Bi4  1  0.006049  0.767984  0.050229  1
  Bi  Bi5  1  0.993951  0.550229  0.267984  1
  Bi  Bi6  1  0.993951  0.949771  0.767984  1
  Bi  Bi7  1  0.006049  0.267984  0.449771  1
  Bi  Bi8  1  0.006049  0.232016  0.949771  1
  Bi  Bi9  1  0.006049  0.732016  0.550229  1
  Bi  Bi10  1  0.993951  0.050229  0.232016  1
  Bi  Bi11  1  0.993951  0.449771  0.732016  1
  Au  Au12  1  0.500000  0.500000  0.000000  1
  Au  Au13  1  0.500000  0.000000  0.000000  1
  Au  Au14  1  0.500000  0.500000  0.500000  1
  Au  Au15  1  0.500000  0.000000  0.500000  1
  O  O16  1  0.501971  0.161464  0.504267  1
  O  O17  1  0.000000  0.712253  0.212253  1
  O  O18  1  0.500164  0.114078  0.115911  1
  O  O19  1  0.500164  0.385922  0.615911  1
  O  O20  1  0.498029  0.995733  0.338536  1
  O  O21  1  0.498029  0.495733  0.161464  1
  O  O22  1  0.499836  0.115911  0.885922  1
  O  O23  1  0.501971  0.838536  0.495733  1
  O  O24  1  0.501971  0.661464  0.995733  1
  O  O25  1  0.000000  0.212253  0.287747  1
  O  O26  1  0.000000  0.287747  0.787747  1
  O  O27  1  0.498029  0.504267  0.838536  1
  O  O28  1  0.499836  0.615911  0.614078  1
  O  O29  1  0.500164  0.614078  0.384089  1
  O  O30  1  0.499836  0.384089  0.385922  1
  O  O31  1  0.499836  0.884089  0.114078  1
  O  O32  1  0.000000  0.787747  0.712253  1
  O  O33  1  0.500164  0.885922  0.884089  1
  O  O34  1  0.501971  0.338536  0.004267  1
  O  O35  1  0.498029  0.004267  0.661464  1
