# generated using pymatgen
data_Ba(Mo3O5)2
_symmetry_space_group_name_H-M   'P 1'
_cell_length_a   9.09301617
_cell_length_b   9.61542304
_cell_length_c   10.73146806
_cell_angle_alpha   90.00000000
_cell_angle_beta   90.00000000
_cell_angle_gamma   90.00000000
_symmetry_Int_Tables_number   1
_chemical_formula_structural   Ba(Mo3O5)2
_chemical_formula_sum   'Ba4 Mo24 O40'
_cell_volume   938.28656296
_cell_formula_units_Z   4
loop_
 _symmetry_equiv_pos_site_id
 _symmetry_equiv_pos_as_xyz
  1  'x, y, z'
loop_
 _atom_site_type_symbol
 _atom_site_label
 _atom_site_symmetry_multiplicity
 _atom_site_fract_x
 _atom_site_fract_y
 _atom_site_fract_z
 _atom_site_occupancy
  Ba  Ba0  1  0.250000  0.014212  0.910211  1
  Ba  Ba1  1  0.750000  0.985788  0.089789  1
  Ba  Ba2  1  0.750000  0.514212  0.589789  1
  Ba  Ba3  1  0.250000  0.485788  0.410211  1
  Mo  Mo4  1  0.598044  0.889331  0.707922  1
  Mo  Mo5  1  0.098044  0.110669  0.292078  1
  Mo  Mo6  1  0.401956  0.389331  0.792078  1
  Mo  Mo7  1  0.901956  0.610669  0.207922  1
  Mo  Mo8  1  0.401956  0.110669  0.292078  1
  Mo  Mo9  1  0.901956  0.889331  0.707922  1
  Mo  Mo10  1  0.598044  0.610669  0.207922  1
  Mo  Mo11  1  0.098044  0.389331  0.792078  1
  Mo  Mo12  1  0.250000  0.857718  0.217078  1
  Mo  Mo13  1  0.750000  0.142282  0.782922  1
  Mo  Mo14  1  0.750000  0.357718  0.282922  1
  Mo  Mo15  1  0.250000  0.642282  0.717078  1
  Mo  Mo16  1  0.592196  0.140692  0.548878  1
  Mo  Mo17  1  0.092196  0.859308  0.451122  1
  Mo  Mo18  1  0.407804  0.640692  0.951122  1
  Mo  Mo19  1  0.907804  0.359308  0.048878  1
  Mo  Mo20  1  0.407804  0.859308  0.451122  1
  Mo  Mo21  1  0.907804  0.140692  0.548878  1
  Mo  Mo22  1  0.592196  0.359308  0.048878  1
  Mo  Mo23  1  0.092196  0.640692  0.951122  1
  Mo  Mo24  1  0.250000  0.131577  0.559384  1
  Mo  Mo25  1  0.750000  0.868423  0.440616  1
  Mo  Mo26  1  0.750000  0.631577  0.940616  1
  Mo  Mo27  1  0.250000  0.368423  0.059384  1
  O  O28  1  0.595399  0.009493  0.856743  1
  O  O29  1  0.095399  0.990507  0.143257  1
  O  O30  1  0.404601  0.509493  0.643257  1
  O  O31  1  0.904601  0.490507  0.356743  1
  O  O32  1  0.404601  0.990507  0.143257  1
  O  O33  1  0.904601  0.009493  0.856743  1
  O  O34  1  0.595399  0.490507  0.356743  1
  O  O35  1  0.095399  0.509493  0.643257  1
  O  O36  1  0.250000  0.735904  0.534720  1
  O  O37  1  0.750000  0.264096  0.465280  1
  O  O38  1  0.750000  0.235904  0.965280  1
  O  O39  1  0.250000  0.764096  0.034720  1
  O  O40  1  0.571238  0.003245  0.381890  1
  O  O41  1  0.071238  0.996755  0.618110  1
  O  O42  1  0.428762  0.503245  0.118110  1
  O  O43  1  0.928762  0.496755  0.881890  1
  O  O44  1  0.584855  0.232479  0.212155  1
  O  O45  1  0.428762  0.996755  0.618110  1
  O  O46  1  0.571238  0.496755  0.881890  1
  O  O47  1  0.071238  0.503245  0.118110  1
  O  O48  1  0.250000  0.253495  0.724400  1
  O  O49  1  0.750000  0.746505  0.275600  1
  O  O50  1  0.750000  0.753495  0.775600  1
  O  O51  1  0.250000  0.246505  0.224400  1
  O  O52  1  0.415145  0.767521  0.787845  1
  O  O53  1  0.915145  0.232479  0.212155  1
  O  O54  1  0.584855  0.267521  0.712155  1
  O  O55  1  0.084855  0.732479  0.287845  1
  O  O56  1  0.086179  0.265675  0.957120  1
  O  O57  1  0.586179  0.734325  0.042880  1
  O  O58  1  0.913821  0.765675  0.542880  1
  O  O59  1  0.413821  0.234325  0.457120  1
  O  O60  1  0.913821  0.734325  0.042880  1
  O  O61  1  0.413821  0.265675  0.957120  1
  O  O62  1  0.086179  0.234325  0.457120  1
  O  O63  1  0.586179  0.765675  0.542880  1
  O  O64  1  0.915145  0.267521  0.712155  1
  O  O65  1  0.415145  0.732479  0.287845  1
  O  O66  1  0.084855  0.767521  0.787845  1
  O  O67  1  0.928762  0.003245  0.381890  1
