# generated using pymatgen
data_KNa2
_symmetry_space_group_name_H-M   'P 1'
_cell_length_a   7.44788800
_cell_length_b   7.44788781
_cell_length_c   12.18827219
_cell_angle_alpha   90.00000000
_cell_angle_beta   90.00000000
_cell_angle_gamma   120.00000086
_symmetry_Int_Tables_number   1
_chemical_formula_structural   KNa2
_chemical_formula_sum   'K4 Na8'
_cell_volume   585.51636160
_cell_formula_units_Z   4
loop_
 _symmetry_equiv_pos_site_id
 _symmetry_equiv_pos_as_xyz
  1  'x, y, z'
loop_
 _atom_site_type_symbol
 _atom_site_label
 _atom_site_symmetry_multiplicity
 _atom_site_fract_x
 _atom_site_fract_y
 _atom_site_fract_z
 _atom_site_occupancy
  K  K0  1  0.333333  0.666667  0.941257  1
  K  K1  1  0.666667  0.333333  0.058743  1
  K  K2  1  0.333333  0.666667  0.558743  1
  K  K3  1  0.666667  0.333333  0.441257  1
  Na  Na4  1  0.833533  0.166467  0.750000  1
  Na  Na5  1  0.667067  0.833533  0.250000  1
  Na  Na6  1  0.166467  0.332933  0.250000  1
  Na  Na7  1  0.332933  0.166467  0.750000  1
  Na  Na8  1  0.166467  0.833533  0.250000  1
  Na  Na9  1  0.000000  0.000000  0.000000  1
  Na  Na10  1  0.833533  0.667067  0.750000  1
  Na  Na11  1  0.000000  0.000000  0.500000  1
