# generated using pymatgen
data_K2Cr3O10
_symmetry_space_group_name_H-M   'P 1'
_cell_length_a   7.65577365
_cell_length_b   7.66365438
_cell_length_c   18.24806062
_cell_angle_alpha   90.00000000
_cell_angle_beta   90.00000000
_cell_angle_gamma   100.08349897
_symmetry_Int_Tables_number   1
_chemical_formula_structural   K2Cr3O10
_chemical_formula_sum   'K8 Cr12 O40'
_cell_volume   1054.09825491
_cell_formula_units_Z   4
loop_
 _symmetry_equiv_pos_site_id
 _symmetry_equiv_pos_as_xyz
  1  'x, y, z'
loop_
 _atom_site_type_symbol
 _atom_site_label
 _atom_site_symmetry_multiplicity
 _atom_site_fract_x
 _atom_site_fract_y
 _atom_site_fract_z
 _atom_site_occupancy
  O  O0  1  0.293291  0.889693  0.309892  1
  O  O1  1  0.206709  0.610307  0.809892  1
  O  O2  1  0.706709  0.110307  0.690108  1
  O  O3  1  0.793291  0.389693  0.190108  1
  O  O4  1  0.785617  0.421426  0.431240  1
  O  O5  1  0.714383  0.078574  0.931240  1
  O  O6  1  0.214383  0.578574  0.568760  1
  O  O7  1  0.285617  0.921426  0.068760  1
  O  O8  1  0.377134  0.189918  0.235647  1
  O  O9  1  0.122866  0.310082  0.735647  1
  O  O10  1  0.622866  0.810082  0.764353  1
  O  O11  1  0.877134  0.689918  0.264353  1
  O  O12  1  0.738467  0.451881  0.024749  1
  O  O13  1  0.761533  0.048119  0.524749  1
  O  O14  1  0.378409  0.252916  0.936981  1
  O  O15  1  0.261533  0.548119  0.975251  1
  O  O16  1  0.414251  0.054861  0.773937  1
  O  O17  1  0.085749  0.445139  0.273937  1
  O  O18  1  0.585749  0.945139  0.226063  1
  O  O19  1  0.914251  0.554861  0.726063  1
  O  O20  1  0.993254  0.967890  0.137474  1
  O  O21  1  0.506746  0.532110  0.637474  1
  O  O22  1  0.006746  0.032110  0.862526  1
  O  O23  1  0.493254  0.467890  0.362526  1
  O  O24  1  0.968565  0.776065  0.010337  1
  O  O25  1  0.531435  0.723935  0.510337  1
  O  O26  1  0.031435  0.223935  0.989663  1
  O  O27  1  0.468565  0.276065  0.489663  1
  O  O28  1  0.093150  0.644692  0.145201  1
  O  O29  1  0.406850  0.855308  0.645201  1
  O  O30  1  0.906850  0.355308  0.854799  1
  O  O31  1  0.593150  0.144692  0.354799  1
  O  O32  1  0.662186  0.671026  0.920746  1
  O  O33  1  0.837814  0.828974  0.420746  1
  O  O34  1  0.337814  0.328974  0.079254  1
  O  O35  1  0.162186  0.171026  0.579254  1
  O  O36  1  0.878409  0.752916  0.563019  1
  O  O37  1  0.621591  0.747084  0.063019  1
  O  O38  1  0.121591  0.247084  0.436981  1
  O  O39  1  0.238467  0.951881  0.475251  1
  K  K40  1  0.526191  0.436140  0.803657  1
  K  K41  1  0.973809  0.063860  0.303657  1
  K  K42  1  0.473809  0.563860  0.196343  1
  K  K43  1  0.026191  0.936140  0.696343  1
  K  K44  1  0.866406  0.371642  0.590711  1
  K  K45  1  0.633594  0.128358  0.090711  1
  K  K46  1  0.133594  0.628358  0.409289  1
  K  K47  1  0.366406  0.871642  0.909289  1
  Cr  Cr48  1  0.456810  0.037584  0.279523  1
  Cr  Cr49  1  0.043190  0.462416  0.779523  1
  Cr  Cr50  1  0.543190  0.962416  0.720477  1
  Cr  Cr51  1  0.956810  0.537584  0.220477  1
  Cr  Cr52  1  0.586290  0.331559  0.409204  1
  Cr  Cr53  1  0.913710  0.168441  0.909204  1
  Cr  Cr54  1  0.413710  0.668441  0.590796  1
  Cr  Cr55  1  0.086290  0.831559  0.090796  1
  Cr  Cr56  1  0.238015  0.156867  0.496534  1
  Cr  Cr57  1  0.261985  0.343133  0.996534  1
  Cr  Cr58  1  0.761985  0.843133  0.503466  1
  Cr  Cr59  1  0.738015  0.656867  0.003466  1
