# generated using pymatgen
data_Nd2Mo4O15
_symmetry_space_group_name_H-M   'P 1'
_cell_length_a   9.65998333
_cell_length_b   11.21565634
_cell_length_c   11.77542521
_cell_angle_alpha   104.30986976
_cell_angle_beta   109.70053398
_cell_angle_gamma   108.81581260
_symmetry_Int_Tables_number   1
_chemical_formula_structural   Nd2Mo4O15
_chemical_formula_sum   'Nd6 Mo12 O45'
_cell_volume   1042.32531942
_cell_formula_units_Z   3
loop_
 _symmetry_equiv_pos_site_id
 _symmetry_equiv_pos_as_xyz
  1  'x, y, z'
loop_
 _atom_site_type_symbol
 _atom_site_label
 _atom_site_symmetry_multiplicity
 _atom_site_fract_x
 _atom_site_fract_y
 _atom_site_fract_z
 _atom_site_occupancy
  O  O0  1  0.448193  0.423802  0.188092  1
  O  O1  1  0.551807  0.576198  0.811908  1
  O  O2  1  0.325274  0.612957  0.165726  1
  O  O3  1  0.674726  0.387043  0.834274  1
  O  O4  1  0.384693  0.141794  0.068372  1
  O  O5  1  0.615307  0.858206  0.931628  1
  O  O6  1  0.056922  0.919017  0.893390  1
  O  O7  1  0.943079  0.080983  0.106611  1
  O  O8  1  0.333297  0.853927  0.942637  1
  O  O9  1  0.666703  0.146073  0.057362  1
  O  O10  1  0.405328  0.552163  0.957993  1
  O  O11  1  0.594672  0.447837  0.042007  1
  O  O12  1  0.088969  0.506430  0.801372  1
  O  O13  1  0.911032  0.493570  0.198628  1
  O  O14  1  0.190828  0.459524  0.596817  1
  O  O15  1  0.809172  0.540477  0.403183  1
  O  O16  1  0.217350  0.305809  0.375199  1
  O  O17  1  0.883747  0.615310  0.831679  1
  O  O18  1  0.417797  0.162701  0.518948  1
  O  O19  1  0.582203  0.837299  0.481052  1
  O  O20  1  0.340913  0.287033  0.755900  1
  O  O21  1  0.659087  0.712967  0.244100  1
  O  O22  1  0.281480  0.015323  0.784543  1
  O  O23  1  0.718520  0.984677  0.215457  1
  O  O24  1  0.966119  0.844299  0.513736  1
  O  O25  1  0.033881  0.155701  0.486264  1
  O  O26  1  0.033460  0.931186  0.343288  1
  O  O27  1  0.966541  0.068814  0.656712  1
  O  O28  1  0.653459  0.095765  0.446191  1
  O  O29  1  0.346541  0.904235  0.553809  1
  O  O30  1  0.525506  0.269778  0.341190  1
  O  O31  1  0.474494  0.730222  0.658810  1
  O  O32  1  0.752905  0.376426  0.620744  1
  O  O33  1  0.247094  0.623574  0.379256  1
  O  O34  1  1.000000  0.500000  -0.000000  1
  O  O35  1  0.218060  0.010872  0.202767  1
  O  O36  1  0.781940  0.989128  0.797233  1
  O  O37  1  0.145600  0.743270  0.220075  1
  O  O38  1  0.854400  0.256731  0.779925  1
  O  O39  1  0.883401  0.793180  0.053822  1
  O  O40  1  0.116599  0.206820  0.946178  1
  O  O41  1  0.102650  0.696268  0.659067  1
  O  O42  1  0.897350  0.303732  0.340933  1
  O  O43  1  0.782650  0.694191  0.624801  1
  O  O44  1  0.116253  0.384690  0.168321  1
  Mo  Mo45  1  0.470143  0.565271  0.131203  1
  Mo  Mo46  1  0.529857  0.434729  0.868797  1
  Mo  Mo47  1  0.265697  0.981438  0.921660  1
  Mo  Mo48  1  0.734303  0.018562  0.078340  1
  Mo  Mo49  1  0.092592  0.535618  0.181832  1
  Mo  Mo50  1  0.907408  0.464382  0.818168  1
  Mo  Mo51  1  0.083211  0.309056  0.448661  1
  Mo  Mo52  1  0.916789  0.690945  0.551339  1
  Mo  Mo53  1  0.932603  0.131317  0.796584  1
  Mo  Mo54  1  0.583348  0.222448  0.480057  1
  Mo  Mo55  1  0.416652  0.777552  0.519943  1
  Mo  Mo56  1  0.067397  0.868683  0.203416  1
  Nd  Nd57  1  0.333555  0.657746  0.798013  1
  Nd  Nd58  1  0.666445  0.342254  0.201987  1
  Nd  Nd59  1  0.232740  0.223126  0.174405  1
  Nd  Nd60  1  0.767260  0.776874  0.825595  1
  Nd  Nd61  1  0.782018  0.943423  0.409016  1
  Nd  Nd62  1  0.217982  0.056577  0.590984  1
