# generated using pymatgen
data_MgAl2O4
_symmetry_space_group_name_H-M   'P 1'
_cell_length_a   5.78452971
_cell_length_b   5.76092806
_cell_length_c   40.36889849
_cell_angle_alpha   60.03473973
_cell_angle_beta   60.15495297
_cell_angle_gamma   60.13487847
_symmetry_Int_Tables_number   1
_chemical_formula_structural   MgAl2O4
_chemical_formula_sum   'Mg14 Al28 O56'
_cell_volume   953.57440621
_cell_formula_units_Z   14
loop_
 _symmetry_equiv_pos_site_id
 _symmetry_equiv_pos_as_xyz
  1  'x, y, z'
loop_
 _atom_site_type_symbol
 _atom_site_label
 _atom_site_symmetry_multiplicity
 _atom_site_fract_x
 _atom_site_fract_y
 _atom_site_fract_z
 _atom_site_occupancy
  Al  Al0  1  0.137021  0.118064  0.160978  1
  Al  Al1  1  0.497200  0.497961  0.072361  1
  Al  Al2  1  0.505135  0.503250  0.141195  1
  Al  Al3  1  0.141291  0.119900  0.302701  1
  Al  Al4  1  0.497200  0.998319  0.072361  1
  Al  Al5  1  0.502588  0.503769  0.214933  1
  Al  Al6  1  0.505051  0.502522  0.284272  1
  Al  Al7  1  0.144782  0.122361  0.444357  1
  Al  Al8  1  0.502588  0.989116  0.214933  1
  Al  Al9  1  0.503892  0.504072  0.357625  1
  Al  Al10  1  0.506124  0.503277  0.426760  1
  Al  Al11  1  0.502720  0.992406  0.500171  1
  Al  Al12  1  0.503892  0.988661  0.357625  1
  Al  Al13  1  0.502720  0.503675  0.500171  1
  Al  Al14  1  0.495461  0.502901  0.571249  1
  Al  Al15  1  0.499730  0.001973  0.642580  1
  Al  Al16  1  0.499730  0.500237  0.642580  1
  Al  Al17  1  0.001723  0.500356  0.785366  1
  Al  Al18  1  0.500868  0.501725  0.713669  1
  Al  Al19  1  0.500213  0.001814  0.785367  1
  Al  Al20  1  0.500213  0.500402  0.785367  1
  Al  Al21  1  0.006338  0.496821  0.928574  1
  Al  Al22  1  -0.000615  0.500232  0.642879  1
  Al  Al23  1  0.502293  0.501581  0.856364  1
  Al  Al24  1  0.496273  0.497203  0.928827  1
  Al  Al25  1  0.496273  0.004735  0.928827  1
  Al  Al26  1  0.498075  0.488559  0.003544  1
  Al  Al27  1  0.871618  0.873990  0.982915  1
  Mg  Mg28  1  0.126043  0.115926  0.020301  1
  Mg  Mg29  1  0.999800  0.499101  0.071714  1
  Mg  Mg30  1  0.864379  0.879756  0.125158  1
  Mg  Mg31  1  0.996354  0.501518  0.214373  1
  Mg  Mg32  1  0.862454  0.878266  0.268716  1
  Mg  Mg33  1  0.132634  0.129853  0.586809  1
  Mg  Mg34  1  0.996337  0.502241  0.357026  1
  Mg  Mg35  1  0.125103  0.126889  0.731589  1
  Mg  Mg36  1  0.862409  0.878017  0.411651  1
  Mg  Mg37  1  0.996770  0.502639  0.499707  1
  Mg  Mg38  1  0.865353  0.878023  0.554086  1
  Mg  Mg39  1  0.124873  0.126882  0.874480  1
  Mg  Mg40  1  0.878217  0.876619  0.695507  1
  Mg  Mg41  1  0.875932  0.874274  0.839360  1
  O  O42  1  0.287223  0.251266  0.036171  1
  O  O43  1  0.287223  0.708313  0.036171  1
  O  O44  1  0.265655  0.246380  0.105941  1
  O  O45  1  0.713259  0.258953  0.038405  1
  O  O46  1  0.275404  0.252412  0.177505  1
  O  O47  1  0.286706  0.744399  0.103499  1
  O  O48  1  0.738111  0.754711  0.036066  1
  O  O49  1  0.275404  0.729651  0.177505  1
  O  O50  1  0.719765  0.293690  0.105150  1
  O  O51  1  0.275109  0.250075  0.246392  1
  O  O52  1  0.737841  0.256948  0.178323  1
  O  O53  1  0.719765  0.750496  0.105150  1
  O  O54  1  0.275501  0.251968  0.320164  1
  O  O55  1  0.280394  0.743012  0.247654  1
  O  O56  1  0.718171  0.749284  0.183323  1
  O  O57  1  0.277861  0.251649  0.388406  1
  O  O58  1  0.275501  0.731385  0.320164  1
  O  O59  1  0.719539  0.289611  0.248773  1
  O  O60  1  0.741511  0.256757  0.320711  1
  O  O61  1  0.719539  0.749439  0.248773  1
  O  O62  1  0.274948  0.251608  0.462594  1
  O  O63  1  0.280105  0.742504  0.390698  1
  O  O64  1  0.274948  0.735286  0.462594  1
  O  O65  1  0.719909  0.288772  0.391708  1
  O  O66  1  0.717322  0.748396  0.326556  1
  O  O67  1  0.290646  0.259412  0.527219  1
  O  O68  1  0.748525  0.255467  0.462934  1
  O  O69  1  0.719909  0.749357  0.391708  1
  O  O70  1  0.255912  0.261460  0.610414  1
  O  O71  1  0.278084  0.740140  0.534520  1
  O  O72  1  0.255912  0.709733  0.610414  1
  O  O73  1  0.711820  0.286918  0.536579  1
  O  O74  1  0.263496  0.262034  0.673205  1
  O  O75  1  0.716344  0.746313  0.470147  1
  O  O76  1  0.709581  0.261234  0.609708  1
  O  O77  1  0.711820  0.745208  0.536579  1
  O  O78  1  0.260154  0.260391  0.753015  1
  O  O79  1  0.289230  0.733187  0.677771  1
  O  O80  1  0.732551  0.288917  0.677883  1
  O  O81  1  0.732502  0.734441  0.614088  1
  O  O82  1  0.262426  0.262321  0.816133  1
  O  O83  1  0.260154  0.708355  0.753015  1
  O  O84  1  0.707504  0.260708  0.753012  1
  O  O85  1  0.732551  0.733353  0.677883  1
  O  O86  1  0.261669  0.261097  0.895606  1
  O  O87  1  0.288884  0.733393  0.820619  1
  O  O88  1  0.733834  0.288116  0.820638  1
  O  O89  1  0.261669  0.707993  0.895606  1
  O  O90  1  0.734818  0.734870  0.756491  1
  O  O91  1  0.262570  0.260961  0.959359  1
  O  O92  1  0.707228  0.261107  0.895794  1
  O  O93  1  0.733834  0.733583  0.820638  1
  O  O94  1  0.268998  0.742058  0.963841  1
  O  O95  1  0.729443  0.730720  0.901302  1
  O  O96  1  0.747082  0.269991  0.963231  1
  O  O97  1  0.747082  0.740312  0.963231  1
