# generated using pymatgen
data_Ca4Nb2O9
_symmetry_space_group_name_H-M   'P 1'
_cell_length_a   16.84357938
_cell_length_b   8.09693034
_cell_length_c   9.86572442
_cell_angle_alpha   67.15328578
_cell_angle_beta   55.21924240
_cell_angle_gamma   46.28326143
_symmetry_Int_Tables_number   1
_chemical_formula_structural   Ca4Nb2O9
_chemical_formula_sum   'Ca16 Nb8 O36'
_cell_volume   798.69797880
_cell_formula_units_Z   4
loop_
 _symmetry_equiv_pos_site_id
 _symmetry_equiv_pos_as_xyz
  1  'x, y, z'
loop_
 _atom_site_type_symbol
 _atom_site_label
 _atom_site_symmetry_multiplicity
 _atom_site_fract_x
 _atom_site_fract_y
 _atom_site_fract_z
 _atom_site_occupancy
  Ca  Ca0  1  0.167799  0.995111  1.003249  1
  Ca  Ca1  1  0.238953  0.060100  0.237673  1
  Ca  Ca2  1  0.216144  0.564001  0.249165  1
  Ca  Ca3  1  0.499030  0.004901  -0.005362  1
  Ca  Ca4  1  0.097563  0.437806  0.774544  1
  Ca  Ca5  1  0.097546  0.958124  0.750822  1
  Ca  Ca6  1  0.331448  0.499769  0.501433  1
  Ca  Ca7  1  0.566824  0.038949  0.255162  1
  Ca  Ca8  1  0.555537  0.574876  0.243546  1
  Ca  Ca9  1  0.832002  1.001354  0.003453  1
  Ca  Ca10  1  0.447634  0.443084  0.748686  1
  Ca  Ca11  1  0.426234  0.938687  0.758580  1
  Ca  Ca12  1  0.906384  0.051045  0.251838  1
  Ca  Ca13  1  0.903130  0.549192  0.237173  1
  Ca  Ca14  1  0.765053  0.443641  0.768906  1
  Ca  Ca15  1  0.759174  0.943750  0.762270  1
  Nb  Nb16  1  0.001527  1.002270  0.514995  1
  Nb  Nb17  1  0.175453  0.503825  0.987373  1
  Nb  Nb18  1  0.322926  0.024838  0.493497  1
  Nb  Nb19  1  0.490717  0.495799  0.014892  1
  Nb  Nb20  1  0.662390  0.003651  0.484424  1
  Nb  Nb21  1  0.669810  0.482287  0.505556  1
  Nb  Nb22  1  0.829195  0.498347  0.008280  1
  Nb  Nb23  1  0.987142  0.525193  0.504568  1
  O  O24  1  0.005423  0.209176  0.563639  1
  O  O25  1  0.055937  0.453201  0.277415  1
  O  O26  1  0.106042  0.779626  0.080964  1
  O  O27  1  0.298313  0.315894  0.071529  1
  O  O28  1  0.183026  0.304666  0.449617  1
  O  O29  1  0.210077  0.037445  0.730133  1
  O  O30  1  0.122714  0.954877  0.280365  1
  O  O31  1  0.119917  0.729047  0.586781  1
  O  O32  1  0.026684  0.665032  0.964738  1
  O  O33  1  0.359861  0.165627  0.552401  1
  O  O34  1  0.224425  0.211700  0.950936  1
  O  O35  1  0.395612  0.446386  0.232555  1
  O  O36  1  0.269236  0.555222  0.768415  1
  O  O37  1  0.441220  0.790123  0.048823  1
  O  O38  1  0.320101  0.817066  0.439681  1
  O  O39  1  0.637781  0.341193  0.038777  1
  O  O40  1  0.545014  0.271759  0.412747  1
  O  O41  1  0.544021  0.045190  0.718065  1
  O  O42  1  0.460851  0.957994  0.265705  1
  O  O43  1  0.498637  0.681680  0.539398  1
  O  O44  1  0.369348  0.686276  0.926089  1
  O  O45  1  0.685161  0.205531  0.546375  1
  O  O46  1  0.558958  0.224396  0.918997  1
  O  O47  1  0.730327  0.461659  0.246011  1
  O  O48  1  0.614375  0.541394  0.725042  1
  O  O49  1  0.772008  0.794820  0.052157  1
  O  O50  1  0.665290  0.786323  0.434670  1
  O  O51  1  0.975093  0.331494  0.041523  1
  O  O52  1  0.853315  0.293831  0.432438  1
  O  O53  1  0.860150  0.060264  0.729204  1
  O  O54  1  0.807707  0.936914  0.273817  1
  O  O55  1  0.816061  0.699169  0.565287  1
  O  O56  1  0.696163  0.678529  0.944328  1
  O  O57  1  0.894293  0.209966  0.939651  1
  O  O58  1  0.942921  0.528777  0.743585  1
  O  O59  1  0.984323  0.787151  0.453416  1
