# generated using pymatgen
data_NiP2(H4O5)2
_symmetry_space_group_name_H-M   'P 1'
_cell_length_a   5.33033274
_cell_length_b   7.19400373
_cell_length_c   9.92344667
_cell_angle_alpha   90.00000000
_cell_angle_beta   90.00000000
_cell_angle_gamma   93.68444423
_symmetry_Int_Tables_number   1
_chemical_formula_structural   NiP2(H4O5)2
_chemical_formula_sum   'Ni2 P4 H16 O20'
_cell_volume   379.74227492
_cell_formula_units_Z   2
loop_
 _symmetry_equiv_pos_site_id
 _symmetry_equiv_pos_as_xyz
  1  'x, y, z'
loop_
 _atom_site_type_symbol
 _atom_site_label
 _atom_site_symmetry_multiplicity
 _atom_site_fract_x
 _atom_site_fract_y
 _atom_site_fract_z
 _atom_site_occupancy
  Ni  Ni0  1  0.500000  0.500000  0.500000  1
  Ni  Ni1  1  0.000000  0.000000  0.000000  1
  P  P2  1  0.738811  0.835025  0.283613  1
  P  P3  1  0.761189  0.664975  0.783613  1
  P  P4  1  0.261189  0.164975  0.716387  1
  P  P5  1  0.238811  0.335025  0.216387  1
  O  O6  1  0.650795  0.638604  0.329133  1
  O  O7  1  0.849205  0.861396  0.829133  1
  O  O8  1  0.349205  0.361396  0.670867  1
  O  O9  1  0.150795  0.138604  0.170867  1
  O  O10  1  0.725042  0.863841  0.131121  1
  O  O11  1  0.774958  0.636159  0.631121  1
  O  O12  1  0.274958  0.136159  0.868879  1
  O  O13  1  0.225042  0.363841  0.368879  1
  O  O14  1  0.567163  0.970998  0.360014  1
  O  O15  1  0.932837  0.529002  0.860014  1
  O  O16  1  0.432837  0.029002  0.639986  1
  O  O17  1  0.067163  0.470998  0.139986  1
  O  O18  1  0.020949  0.877237  0.332510  1
  O  O19  1  0.479051  0.622763  0.832510  1
  O  O20  1  0.979051  0.122763  0.667490  1
  O  O21  1  0.520949  0.377237  0.167490  1
  O  O22  1  0.754237  0.295398  0.464280  1
  O  O23  1  0.745763  0.204602  0.964280  1
  O  O24  1  0.245763  0.704602  0.535720  1
  O  O25  1  0.254237  0.795398  0.035720  1
  H  H26  1  0.920169  0.340302  0.423112  1
  H  H27  1  0.579831  0.159698  0.923112  1
  H  H28  1  0.079831  0.659698  0.576888  1
  H  H29  1  0.420169  0.840302  0.076888  1
  H  H30  1  0.807639  0.236208  0.549650  1
  H  H31  1  0.692361  0.263792  0.049650  1
  H  H32  1  0.192361  0.763792  0.450350  1
  H  H33  1  0.307639  0.736208  0.950350  1
  H  H34  1  0.641148  0.096251  0.390340  1
  H  H35  1  0.858852  0.403749  0.890340  1
  H  H36  1  0.358852  0.903749  0.609660  1
  H  H37  1  0.141148  0.596251  0.109660  1
  H  H38  1  0.104252  0.986548  0.278131  1
  H  H39  1  0.395748  0.513452  0.778131  1
  H  H40  1  0.895748  0.013452  0.721869  1
  H  H41  1  0.604252  0.486548  0.221869  1
