# generated using pymatgen
data_NiBiPO5
_symmetry_space_group_name_H-M   'P 1'
_cell_length_a   5.24684092
_cell_length_b   7.30169416
_cell_length_c   11.30940123
_cell_angle_alpha   90.00000000
_cell_angle_beta   90.00000000
_cell_angle_gamma   107.44808104
_symmetry_Int_Tables_number   1
_chemical_formula_structural   NiBiPO5
_chemical_formula_sum   'Ni4 Bi4 P4 O20'
_cell_volume   413.33723975
_cell_formula_units_Z   4
loop_
 _symmetry_equiv_pos_site_id
 _symmetry_equiv_pos_as_xyz
  1  'x, y, z'
loop_
 _atom_site_type_symbol
 _atom_site_label
 _atom_site_symmetry_multiplicity
 _atom_site_fract_x
 _atom_site_fract_y
 _atom_site_fract_z
 _atom_site_occupancy
  Ni  Ni0  1  0.130524  0.685206  0.578926  1
  Ni  Ni1  1  0.369476  0.814794  0.078926  1
  Ni  Ni2  1  0.869476  0.314794  0.421074  1
  Ni  Ni3  1  0.630524  0.185206  0.921074  1
  Bi  Bi4  1  0.114326  0.189444  0.101396  1
  Bi  Bi5  1  0.385674  0.310556  0.601396  1
  Bi  Bi6  1  0.885674  0.810556  0.898604  1
  Bi  Bi7  1  0.614326  0.689444  0.398604  1
  P  P8  1  0.282844  0.475960  0.848103  1
  P  P9  1  0.782844  0.975960  0.651897  1
  P  P10  1  0.717156  0.524040  0.151897  1
  P  P11  1  0.217156  0.024040  0.348103  1
  O  O12  1  0.242740  0.484887  0.474834  1
  O  O13  1  0.190456  0.512515  0.721730  1
  O  O14  1  0.487503  0.615389  0.172829  1
  O  O15  1  0.987503  0.115389  0.327171  1
  O  O16  1  0.309544  0.987485  0.221730  1
  O  O17  1  0.809544  0.487485  0.278270  1
  O  O18  1  0.452123  0.160889  0.418446  1
  O  O19  1  0.257260  0.015113  0.974834  1
  O  O20  1  0.512497  0.384611  0.827171  1
  O  O21  1  0.392595  0.667275  0.917342  1
  O  O22  1  0.107405  0.832725  0.417342  1
  O  O23  1  0.952123  0.660889  0.081554  1
  O  O24  1  0.757260  0.515113  0.525166  1
  O  O25  1  0.742740  0.984887  0.025166  1
  O  O26  1  0.547877  0.839111  0.581554  1
  O  O27  1  0.892595  0.167275  0.582658  1
  O  O28  1  0.607405  0.332725  0.082658  1
  O  O29  1  0.690456  0.012515  0.778270  1
  O  O30  1  0.012497  0.884611  0.672829  1
  O  O31  1  0.047877  0.339111  0.918446  1
