# generated using pymatgen
data_H5(NO)3
_symmetry_space_group_name_H-M   'P 1'
_cell_length_a   5.87387902
_cell_length_b   8.07695793
_cell_length_c   8.24426045
_cell_angle_alpha   90.49481108
_cell_angle_beta   90.00000000
_cell_angle_gamma   90.00000000
_symmetry_Int_Tables_number   1
_chemical_formula_structural   H5(NO)3
_chemical_formula_sum   'H20 N12 O12'
_cell_volume   391.11847082
_cell_formula_units_Z   4
loop_
 _symmetry_equiv_pos_site_id
 _symmetry_equiv_pos_as_xyz
  1  'x, y, z'
loop_
 _atom_site_type_symbol
 _atom_site_label
 _atom_site_symmetry_multiplicity
 _atom_site_fract_x
 _atom_site_fract_y
 _atom_site_fract_z
 _atom_site_occupancy
  H  H0  1  0.593180  0.522794  0.193979  1
  H  H1  1  0.462223  0.052622  0.345873  1
  H  H2  1  0.025308  0.176091  0.244041  1
  H  H3  1  0.201710  0.059738  0.130625  1
  H  H4  1  0.705110  0.822700  0.546447  1
  H  H5  1  0.037777  0.552622  0.845873  1
  H  H6  1  0.205110  0.677300  0.953553  1
  H  H7  1  0.294890  0.177300  0.453553  1
  H  H8  1  0.537777  0.947378  0.654127  1
  H  H9  1  0.906820  0.022794  0.693979  1
  H  H10  1  0.798290  0.940262  0.869375  1
  H  H11  1  0.525308  0.323909  0.255959  1
  H  H12  1  0.093180  0.977206  0.306021  1
  H  H13  1  0.962223  0.447378  0.154127  1
  H  H14  1  0.298290  0.559738  0.630625  1
  H  H15  1  0.794890  0.322700  0.046447  1
  H  H16  1  0.974692  0.823909  0.755959  1
  H  H17  1  0.701710  0.440262  0.369375  1
  H  H18  1  0.406820  0.477206  0.806021  1
  H  H19  1  0.474692  0.676091  0.744041  1
  N  N20  1  0.348792  0.149619  0.337971  1
  N  N21  1  0.160032  0.671600  0.365814  1
  N  N22  1  0.846388  0.915328  0.748404  1
  N  N23  1  0.339968  0.171600  0.865814  1
  N  N24  1  0.848792  0.350381  0.162029  1
  N  N25  1  0.346388  0.584672  0.751596  1
  N  N26  1  0.153612  0.084672  0.251596  1
  N  N27  1  0.653612  0.415328  0.248404  1
  N  N28  1  0.151208  0.649619  0.837971  1
  N  N29  1  0.651208  0.850381  0.662029  1
  N  N30  1  0.660032  0.828400  0.134186  1
  N  N31  1  0.839968  0.328400  0.634186  1
  O  O32  1  0.607158  0.822247  0.282672  1
  O  O33  1  0.392842  0.177753  0.717328  1
  O  O34  1  0.263013  0.037698  0.924533  1
  O  O35  1  0.107158  0.677753  0.217328  1
  O  O36  1  0.864412  0.201600  0.543490  1
  O  O37  1  0.763013  0.462302  0.575467  1
  O  O38  1  0.635588  0.701600  0.043490  1
  O  O39  1  0.892842  0.322247  0.782672  1
  O  O40  1  0.236987  0.537698  0.424533  1
  O  O41  1  0.364412  0.298400  0.956510  1
  O  O42  1  0.135588  0.798400  0.456510  1
  O  O43  1  0.736987  0.962302  0.075467  1
