# generated using pymatgen
data_KCrCuF6
_symmetry_space_group_name_H-M   'P 1'
_cell_length_a   6.84503716
_cell_length_b   7.42913156
_cell_length_c   10.18761776
_cell_angle_alpha   90.00000000
_cell_angle_beta   90.00000000
_cell_angle_gamma   94.12133510
_symmetry_Int_Tables_number   1
_chemical_formula_structural   KCrCuF6
_chemical_formula_sum   'K4 Cr4 Cu4 F24'
_cell_volume   516.72800634
_cell_formula_units_Z   4
loop_
 _symmetry_equiv_pos_site_id
 _symmetry_equiv_pos_as_xyz
  1  'x, y, z'
loop_
 _atom_site_type_symbol
 _atom_site_label
 _atom_site_symmetry_multiplicity
 _atom_site_fract_x
 _atom_site_fract_y
 _atom_site_fract_z
 _atom_site_occupancy
  Cu  Cu0  1  0.818759  0.254978  0.267237  1
  Cu  Cu1  1  0.681241  0.745022  0.767237  1
  Cu  Cu2  1  0.181241  0.745022  0.732763  1
  Cu  Cu3  1  0.318759  0.254978  0.232763  1
  Cr  Cr4  1  0.000000  0.500000  0.000000  1
  Cr  Cr5  1  0.500000  0.500000  0.500000  1
  Cr  Cr6  1  0.000000  0.000000  0.000000  1
  Cr  Cr7  1  0.500000  0.000000  0.500000  1
  K  K8  1  0.498133  0.242696  0.884701  1
  K  K9  1  0.001867  0.757304  0.384701  1
  K  K10  1  0.501867  0.757304  0.115299  1
  K  K11  1  0.998133  0.242696  0.615299  1
  F  F12  1  0.864800  0.973163  0.165021  1
  F  F13  1  0.635200  0.026837  0.665021  1
  F  F14  1  0.135200  0.026837  0.834979  1
  F  F15  1  0.364800  0.973163  0.334979  1
  F  F16  1  0.099229  0.511970  0.819484  1
  F  F17  1  0.400771  0.488030  0.319484  1
  F  F18  1  0.900771  0.488030  0.180516  1
  F  F19  1  0.599229  0.511970  0.680516  1
  F  F20  1  0.079993  0.244137  0.330473  1
  F  F21  1  0.420007  0.755863  0.830473  1
  F  F22  1  0.920007  0.755863  0.669527  1
  F  F23  1  0.579993  0.244137  0.169527  1
  F  F24  1  0.086715  0.755046  0.022568  1
  F  F25  1  0.413285  0.244954  0.522568  1
  F  F26  1  0.913285  0.244954  0.977432  1
  F  F27  1  0.586715  0.755046  0.477432  1
  F  F28  1  0.244403  0.077086  0.089384  1
  F  F29  1  0.255597  0.922914  0.589384  1
  F  F30  1  0.755597  0.922914  0.910616  1
  F  F31  1  0.744403  0.077086  0.410616  1
  F  F32  1  0.243409  0.554033  0.558289  1
  F  F33  1  0.256591  0.445967  0.058289  1
  F  F34  1  0.756591  0.445967  0.441711  1
  F  F35  1  0.743409  0.554033  0.941711  1
