# generated using pymatgen
data_Pu3Co
_symmetry_space_group_name_H-M   'P 1'
_cell_length_a   2.78161415
_cell_length_b   5.86440036
_cell_length_c   9.32978648
_cell_angle_alpha   90.00000000
_cell_angle_beta   90.00000000
_cell_angle_gamma   103.71904091
_symmetry_Int_Tables_number   1
_chemical_formula_structural   Pu3Co
_chemical_formula_sum   'Pu6 Co2'
_cell_volume   147.85014584
_cell_formula_units_Z   2
loop_
 _symmetry_equiv_pos_site_id
 _symmetry_equiv_pos_as_xyz
  1  'x, y, z'
loop_
 _atom_site_type_symbol
 _atom_site_label
 _atom_site_symmetry_multiplicity
 _atom_site_fract_x
 _atom_site_fract_y
 _atom_site_fract_z
 _atom_site_occupancy
  Pu  Pu0  1  0.626770  0.253541  0.061499  1
  Pu  Pu1  1  0.373230  0.746459  0.938501  1
  Pu  Pu2  1  0.035399  0.070798  0.750000  1
  Pu  Pu3  1  0.964601  0.929202  0.250000  1
  Pu  Pu4  1  0.373230  0.746459  0.561499  1
  Pu  Pu5  1  0.626770  0.253541  0.438501  1
  Co  Co6  1  0.280398  0.560795  0.250000  1
  Co  Co7  1  0.719602  0.439205  0.750000  1
