# generated using pymatgen
data_MgH8C4(N3O2)2
_symmetry_space_group_name_H-M   'P 1'
_cell_length_a   7.36761601
_cell_length_b   7.48492826
_cell_length_c   9.81698051
_cell_angle_alpha   99.17811255
_cell_angle_beta   90.00000000
_cell_angle_gamma   90.00000000
_symmetry_Int_Tables_number   1
_chemical_formula_structural   MgH8C4(N3O2)2
_chemical_formula_sum   'Mg2 H16 C8 N12 O8'
_cell_volume   534.43697751
_cell_formula_units_Z   2
loop_
 _symmetry_equiv_pos_site_id
 _symmetry_equiv_pos_as_xyz
  1  'x, y, z'
loop_
 _atom_site_type_symbol
 _atom_site_label
 _atom_site_symmetry_multiplicity
 _atom_site_fract_x
 _atom_site_fract_y
 _atom_site_fract_z
 _atom_site_occupancy
  Mg  Mg0  1  0.000000  0.000000  0.000000  1
  Mg  Mg1  1  0.500000  0.000000  0.500000  1
  H  H2  1  0.308034  0.831422  0.075669  1
  H  H3  1  0.310822  0.149385  0.922589  1
  H  H4  1  0.810822  0.850615  0.577411  1
  H  H5  1  0.191966  0.831422  0.575669  1
  H  H6  1  0.243938  0.014028  0.788742  1
  H  H7  1  0.256062  0.014028  0.288742  1
  H  H8  1  0.689178  0.850615  0.077411  1
  H  H9  1  0.743938  0.985972  0.711258  1
  H  H10  1  0.756062  0.985972  0.211258  1
  H  H11  1  0.140429  0.765879  0.154428  1
  H  H12  1  0.189178  0.149385  0.422589  1
  H  H13  1  0.808034  0.168578  0.424331  1
  H  H14  1  0.640429  0.234121  0.345572  1
  H  H15  1  0.859571  0.234121  0.845572  1
  H  H16  1  0.691966  0.168578  0.924331  1
  H  H17  1  0.359571  0.765879  0.654428  1
  C  C18  1  0.477175  0.647699  0.871636  1
  C  C19  1  0.538174  0.596988  0.306181  1
  C  C20  1  0.977175  0.352301  0.628364  1
  C  C21  1  0.038174  0.403012  0.193819  1
  C  C22  1  0.522825  0.352301  0.128364  1
  C  C23  1  0.961826  0.596988  0.806181  1
  C  C24  1  0.022825  0.647699  0.371636  1
  C  C25  1  0.461826  0.403012  0.693819  1
  N  N26  1  0.526815  0.745628  0.366004  1
  N  N27  1  0.999611  0.735006  0.481689  1
  N  N28  1  0.026815  0.254372  0.133996  1
  N  N29  1  0.000389  0.264994  0.518311  1
  N  N30  1  0.973185  0.745628  0.866004  1
  N  N31  1  0.056999  0.572558  0.246176  1
  N  N32  1  0.500389  0.735006  0.981689  1
  N  N33  1  0.473185  0.254372  0.633996  1
  N  N34  1  0.556999  0.427442  0.253824  1
  N  N35  1  0.943001  0.427442  0.753824  1
  N  N36  1  0.499611  0.264994  0.018311  1
  N  N37  1  0.443001  0.572558  0.746176  1
  O  O38  1  0.204924  0.080295  0.879350  1
  O  O39  1  0.704924  0.919705  0.620650  1
  O  O40  1  0.693005  0.124870  0.375533  1
  O  O41  1  0.193005  0.875130  0.124467  1
  O  O42  1  0.306995  0.875130  0.624467  1
  O  O43  1  0.795076  0.919705  0.120650  1
  O  O44  1  0.806995  0.124870  0.875533  1
  O  O45  1  0.295076  0.080295  0.379350  1
