# generated using pymatgen
data_Te4As2S(OF6)2
_symmetry_space_group_name_H-M   'P 1'
_cell_length_a   9.04877035
_cell_length_b   9.91333772
_cell_length_c   18.90201633
_cell_angle_alpha   90.00000000
_cell_angle_beta   90.00000000
_cell_angle_gamma   96.76407837
_symmetry_Int_Tables_number   1
_chemical_formula_structural   Te4As2S(OF6)2
_chemical_formula_sum   'Te16 As8 S4 O8 F48'
_cell_volume   1683.77534425
_cell_formula_units_Z   4
loop_
 _symmetry_equiv_pos_site_id
 _symmetry_equiv_pos_as_xyz
  1  'x, y, z'
loop_
 _atom_site_type_symbol
 _atom_site_label
 _atom_site_symmetry_multiplicity
 _atom_site_fract_x
 _atom_site_fract_y
 _atom_site_fract_z
 _atom_site_occupancy
  Te  Te0  1  0.284220  0.619097  0.930268  1
  Te  Te1  1  0.342627  0.892539  0.928314  1
  Te  Te2  1  0.657373  0.107461  0.071686  1
  Te  Te3  1  0.191253  0.385795  0.287425  1
  Te  Te4  1  0.308747  0.614205  0.787425  1
  Te  Te5  1  0.374851  0.888747  0.786066  1
  Te  Te6  1  0.215780  0.380903  0.430268  1
  Te  Te7  1  0.625149  0.111253  0.213934  1
  Te  Te8  1  0.842627  0.892539  0.571686  1
  Te  Te9  1  0.125149  0.111253  0.286066  1
  Te  Te10  1  0.808747  0.614205  0.712575  1
  Te  Te11  1  0.691253  0.385795  0.212575  1
  Te  Te12  1  0.874851  0.888747  0.713934  1
  Te  Te13  1  0.784220  0.619097  0.569732  1
  Te  Te14  1  0.157373  0.107461  0.428314  1
  Te  Te15  1  0.715780  0.380903  0.069732  1
  As  As16  1  0.680205  0.227570  0.423937  1
  As  As17  1  0.819795  0.772430  0.923937  1
  As  As18  1  0.880511  0.716021  0.354191  1
  As  As19  1  0.119489  0.283979  0.645809  1
  As  As20  1  0.619489  0.283979  0.854191  1
  As  As21  1  0.380511  0.716021  0.145809  1
  As  As22  1  0.319795  0.772430  0.576063  1
  As  As23  1  0.180205  0.227570  0.076063  1
  S  S24  1  0.439434  0.768627  0.369453  1
  S  S25  1  0.560566  0.231373  0.630547  1
  S  S26  1  0.060566  0.231373  0.869453  1
  S  S27  1  0.939434  0.768627  0.130547  1
  O  O28  1  0.174186  0.348297  0.866667  1
  O  O29  1  0.674186  0.348297  0.633333  1
  O  O30  1  0.103857  0.102094  0.847035  1
  O  O31  1  0.603857  0.102094  0.652965  1
  O  O32  1  0.325814  0.651703  0.366667  1
  O  O33  1  0.825814  0.651703  0.133333  1
  O  O34  1  0.896143  0.897906  0.152965  1
  O  O35  1  0.396143  0.897906  0.347035  1
  F  F36  1  0.707581  0.220378  0.930857  1
  F  F37  1  0.699863  0.166500  0.800603  1
  F  F38  1  0.300137  0.833500  0.199397  1
  F  F39  1  0.961471  0.602998  0.410619  1
  F  F40  1  0.222157  0.596062  0.159146  1
  F  F41  1  0.032723  0.148881  0.023152  1
  F  F42  1  0.787292  0.931732  0.888952  1
  F  F43  1  0.962208  0.158750  0.632533  1
  F  F44  1  0.970181  0.651817  0.280160  1
  F  F45  1  0.287292  0.931732  0.611048  1
  F  F46  1  0.855712  0.612637  0.957461  1
  F  F47  1  0.722157  0.596062  0.340854  1
  F  F48  1  0.175746  0.692423  0.631111  1
  F  F49  1  0.292419  0.779622  0.069143  1
  F  F50  1  0.449067  0.755354  0.647499  1
  F  F51  1  0.324254  0.307577  0.131111  1
  F  F52  1  0.277843  0.403938  0.659146  1
  F  F53  1  0.212708  0.068268  0.111048  1
  F  F54  1  0.038529  0.397002  0.589381  1
  F  F55  1  0.050933  0.244646  0.147499  1
  F  F56  1  0.675746  0.692423  0.868889  1
  F  F57  1  0.461471  0.602998  0.089381  1
  F  F58  1  0.800137  0.833500  0.300603  1
  F  F59  1  0.199863  0.166500  0.699397  1
  F  F60  1  0.777843  0.403938  0.840854  1
  F  F61  1  0.967277  0.851119  0.976848  1
  F  F62  1  0.355712  0.612637  0.542539  1
  F  F63  1  0.537792  0.841250  0.132533  1
  F  F64  1  0.529819  0.348183  0.780160  1
  F  F65  1  0.644288  0.387363  0.457461  1
  F  F66  1  0.690657  0.789820  0.992707  1
  F  F67  1  0.809343  0.210180  0.492707  1
  F  F68  1  0.207581  0.220378  0.569143  1
  F  F69  1  0.532723  0.148881  0.476848  1
  F  F70  1  0.309343  0.210180  0.007293  1
  F  F71  1  0.467277  0.851119  0.523152  1
  F  F72  1  0.462208  0.158750  0.867467  1
  F  F73  1  0.037792  0.841250  0.367467  1
  F  F74  1  0.792419  0.779622  0.430857  1
  F  F75  1  0.538529  0.397002  0.910619  1
  F  F76  1  0.144288  0.387363  0.042539  1
  F  F77  1  0.190657  0.789820  0.507293  1
  F  F78  1  0.712708  0.068268  0.388952  1
  F  F79  1  0.550933  0.244646  0.352501  1
  F  F80  1  0.470181  0.651817  0.219840  1
  F  F81  1  0.824254  0.307577  0.368889  1
  F  F82  1  0.949067  0.755354  0.852501  1
  F  F83  1  0.029819  0.348183  0.719840  1
