# generated using pymatgen
data_KTeOF3
_symmetry_space_group_name_H-M   'P 1'
_cell_length_a   8.04286460
_cell_length_b   10.31308408
_cell_length_c   10.31308408
_cell_angle_alpha   90.00000000
_cell_angle_beta   90.00000000
_cell_angle_gamma   90.00000000
_symmetry_Int_Tables_number   1
_chemical_formula_structural   KTeOF3
_chemical_formula_sum   'K8 Te8 O8 F24'
_cell_volume   855.43669206
_cell_formula_units_Z   8
loop_
 _symmetry_equiv_pos_site_id
 _symmetry_equiv_pos_as_xyz
  1  'x, y, z'
loop_
 _atom_site_type_symbol
 _atom_site_label
 _atom_site_symmetry_multiplicity
 _atom_site_fract_x
 _atom_site_fract_y
 _atom_site_fract_z
 _atom_site_occupancy
  K  K0  1  0.750000  0.750000  0.750000  1
  K  K1  1  0.250000  0.250000  0.250000  1
  K  K2  1  0.250000  0.750000  0.750000  1
  K  K3  1  0.750000  0.250000  0.250000  1
  K  K4  1  0.500000  0.500000  0.000000  1
  K  K5  1  0.500000  0.000000  0.500000  1
  K  K6  1  0.000000  0.500000  0.500000  1
  K  K7  1  0.000000  0.000000  0.000000  1
  Te  Te8  1  0.459695  0.116897  0.906629  1
  Te  Te9  1  0.040305  0.906629  0.383103  1
  Te  Te10  1  0.540305  0.883103  0.093371  1
  Te  Te11  1  0.959695  0.093371  0.616897  1
  Te  Te12  1  0.040305  0.593371  0.116897  1
  Te  Te13  1  0.959695  0.406629  0.883103  1
  Te  Te14  1  0.459695  0.383103  0.593371  1
  Te  Te15  1  0.540305  0.616897  0.406629  1
  O  O16  1  0.848515  0.971542  0.503786  1
  O  O17  1  0.151485  0.028458  0.496214  1
  O  O18  1  0.651485  0.503786  0.528458  1
  O  O19  1  0.348515  0.003786  0.028458  1
  O  O20  1  0.151485  0.471542  0.003786  1
  O  O21  1  0.348515  0.496214  0.471542  1
  O  O22  1  0.848515  0.528458  0.996214  1
  O  O23  1  0.651485  0.996214  0.971542  1
  F  F24  1  0.396731  0.988996  0.763795  1
  F  F25  1  0.013270  0.434560  0.244540  1
  F  F26  1  0.603269  0.011004  0.236205  1
  F  F27  1  0.486730  0.255460  0.434560  1
  F  F28  1  0.896731  0.263795  0.011004  1
  F  F29  1  0.396731  0.511004  0.736205  1
  F  F30  1  0.513270  0.744540  0.565440  1
  F  F31  1  0.986730  0.565440  0.755460  1
  F  F32  1  0.276243  0.890027  0.311625  1
  F  F33  1  0.013270  0.065440  0.255460  1
  F  F34  1  0.276243  0.609973  0.188375  1
  F  F35  1  0.223757  0.188375  0.890027  1
  F  F36  1  0.723757  0.390027  0.811625  1
  F  F37  1  0.776243  0.688375  0.390027  1
  F  F38  1  0.776243  0.811625  0.109973  1
  F  F39  1  0.896731  0.236205  0.488996  1
  F  F40  1  0.723757  0.109973  0.688375  1
  F  F41  1  0.223757  0.311625  0.609973  1
  F  F42  1  0.513270  0.755460  0.934560  1
  F  F43  1  0.103269  0.763795  0.511004  1
  F  F44  1  0.103269  0.736205  0.988996  1
  F  F45  1  0.603269  0.488996  0.263795  1
  F  F46  1  0.486730  0.244540  0.065440  1
  F  F47  1  0.986730  0.934560  0.744540  1
