# generated using pymatgen
data_Sm10S14O
_symmetry_space_group_name_H-M   'P 1'
_cell_length_a   14.49911225
_cell_length_b   14.49911207
_cell_length_c   14.49911250
_cell_angle_alpha   93.68752016
_cell_angle_beta   117.89433755
_cell_angle_gamma   117.89433537
_symmetry_Int_Tables_number   1
_chemical_formula_structural   Sm10S14O
_chemical_formula_sum   'Sm40 S56 O4'
_cell_volume   2218.93360283
_cell_formula_units_Z   4
loop_
 _symmetry_equiv_pos_site_id
 _symmetry_equiv_pos_as_xyz
  1  'x, y, z'
loop_
 _atom_site_type_symbol
 _atom_site_label
 _atom_site_symmetry_multiplicity
 _atom_site_fract_x
 _atom_site_fract_y
 _atom_site_fract_z
 _atom_site_occupancy
  Sm  Sm0  1  0.250000  0.010093  0.489907  1
  Sm  Sm1  1  0.399762  0.919233  0.074122  1
  Sm  Sm2  1  0.875392  0.074275  0.185921  1
  Sm  Sm3  1  0.654890  0.674360  0.574122  1
  Sm  Sm4  1  0.345110  0.325640  0.425878  1
  Sm  Sm5  1  0.020187  0.760093  0.010093  1
  Sm  Sm6  1  0.654889  0.480530  0.080767  1
  Sm  Sm7  1  0.375392  0.189471  0.801117  1
  Sm  Sm8  1  0.899762  0.574122  0.419233  1
  Sm  Sm9  1  0.979813  0.239907  0.989907  1
  Sm  Sm10  1  0.250000  0.739907  0.760093  1
  Sm  Sm11  1  0.111645  0.425725  0.301117  1
  Sm  Sm12  1  0.100238  0.174360  0.519470  1
  Sm  Sm13  1  0.111645  0.185920  0.810529  1
  Sm  Sm14  1  0.875392  0.301117  0.689472  1
  Sm  Sm15  1  0.124608  0.698883  0.310528  1
  Sm  Sm16  1  0.600238  0.080767  0.925878  1
  Sm  Sm17  1  0.750000  0.260093  0.239907  1
  Sm  Sm18  1  0.375392  0.685921  0.574275  1
  Sm  Sm19  1  0.888355  0.574275  0.698883  1
  Sm  Sm20  1  0.611645  0.801117  0.925725  1
  Sm  Sm21  1  0.124608  0.925725  0.814079  1
  Sm  Sm22  1  0.154889  0.580767  0.980530  1
  Sm  Sm23  1  0.899762  0.825640  0.480530  1
  Sm  Sm24  1  0.154890  0.074122  0.174360  1
  Sm  Sm25  1  0.611645  0.310529  0.685920  1
  Sm  Sm26  1  0.520187  0.510093  0.260093  1
  Sm  Sm27  1  0.388355  0.689471  0.314080  1
  Sm  Sm28  1  0.100238  0.425878  0.580767  1
  Sm  Sm29  1  0.345111  0.519470  0.919233  1
  Sm  Sm30  1  0.845111  0.419233  0.019470  1
  Sm  Sm31  1  0.624608  0.314079  0.425725  1
  Sm  Sm32  1  0.624608  0.810528  0.198883  1
  Sm  Sm33  1  0.600238  0.019470  0.674360  1
  Sm  Sm34  1  0.888355  0.814080  0.189471  1
  Sm  Sm35  1  0.479813  0.489907  0.739907  1
  Sm  Sm36  1  0.750000  0.989907  0.510093  1
  Sm  Sm37  1  0.399762  0.980530  0.325640  1
  Sm  Sm38  1  0.388355  0.198883  0.074275  1
  Sm  Sm39  1  0.845110  0.925878  0.825640  1
  S  S40  1  0.092441  0.471140  0.113276  1
  S  S41  1  0.592441  0.479165  0.621301  1
  S  S42  1  0.857864  0.979165  0.386724  1
  S  S43  1  0.907559  0.528860  0.886724  1
  S  S44  1  0.108485  0.366636  0.898804  1
  S  S45  1  0.407559  0.520835  0.378699  1
  S  S46  1  0.771136  0.020338  0.937630  1
  S  S47  1  0.857864  0.378699  0.471140  1
  S  S48  1  0.851483  0.250000  0.101483  1
  S  S49  1  0.648517  0.750000  0.398517  1
  S  S50  1  0.467831  0.866635  0.758151  1
  S  S51  1  0.891515  0.633364  0.101196  1
  S  S52  1  0.728864  0.666494  0.249203  1
  S  S53  1  0.608485  0.709680  0.741849  1
  S  S54  1  0.532169  0.133365  0.241849  1
  S  S55  1  0.351483  0.601483  0.750000  1
  S  S56  1  0.092441  0.121301  0.979165  1
  S  S57  1  0.891515  0.758151  0.790320  1
  S  S58  1  0.467832  0.101196  0.709681  1
  S  S59  1  0.642136  0.028860  0.121301  1
  S  S60  1  0.351483  0.250000  0.601483  1
  S  S61  1  0.271136  0.333506  0.750797  1
  S  S62  1  0.582709  0.249203  0.020338  1
  S  S63  1  0.142136  0.621301  0.528860  1
  S  S64  1  0.967831  0.258151  0.366635  1
  S  S65  1  0.142136  0.020835  0.613276  1
  S  S66  1  0.082709  0.520338  0.749203  1
  S  S67  1  0.391515  0.601196  0.133364  1
  S  S68  1  0.917291  0.479662  0.250797  1
  S  S69  1  0.728864  0.562370  0.479662  1
  S  S70  1  0.391515  0.290320  0.258151  1
  S  S71  1  0.228864  0.749203  0.166494  1
  S  S72  1  0.407559  0.386724  0.028860  1
  S  S73  1  0.967832  0.209681  0.601196  1
  S  S74  1  0.357864  0.971140  0.878699  1
  S  S75  1  0.082708  0.062370  0.333506  1
  S  S76  1  0.148517  0.750000  0.898517  1
  S  S77  1  0.032168  0.790319  0.398804  1
  S  S78  1  0.582708  0.833506  0.562370  1
  S  S79  1  0.771136  0.250797  0.833506  1
  S  S80  1  0.608485  0.398804  0.866636  1
  S  S81  1  0.917292  0.937630  0.666494  1
  S  S82  1  0.851483  0.101483  0.750000  1
  S  S83  1  0.648517  0.398517  0.250000  1
  S  S84  1  0.357864  0.886724  0.479165  1
  S  S85  1  0.032169  0.741849  0.633365  1
  S  S86  1  0.642136  0.113276  0.520835  1
  S  S87  1  0.271136  0.437630  0.520338  1
  S  S88  1  0.907559  0.878699  0.020835  1
  S  S89  1  0.592441  0.613276  0.971140  1
  S  S90  1  0.148517  0.898517  0.250000  1
  S  S91  1  0.417292  0.166494  0.437630  1
  S  S92  1  0.228864  0.979662  0.062370  1
  S  S93  1  0.417291  0.750797  0.979662  1
  S  S94  1  0.108485  0.241849  0.209680  1
  S  S95  1  0.532168  0.898804  0.290319  1
  O  O96  1  0.750000  0.875000  0.125000  1
  O  O97  1  0.750000  0.375000  0.625000  1
  O  O98  1  0.250000  0.125000  0.875000  1
  O  O99  1  0.250000  0.625000  0.375000  1
