# generated using pymatgen
data_Nd4Br9
_symmetry_space_group_name_H-M   'P 1'
_cell_length_a   7.15606062
_cell_length_b   7.65483451
_cell_length_c   29.37923920
_cell_angle_alpha   90.41585351
_cell_angle_beta   90.00000000
_cell_angle_gamma   90.00000000
_symmetry_Int_Tables_number   1
_chemical_formula_structural   Nd4Br9
_chemical_formula_sum   'Nd16 Br36'
_cell_volume   1609.30708410
_cell_formula_units_Z   4
loop_
 _symmetry_equiv_pos_site_id
 _symmetry_equiv_pos_as_xyz
  1  'x, y, z'
loop_
 _atom_site_type_symbol
 _atom_site_label
 _atom_site_symmetry_multiplicity
 _atom_site_fract_x
 _atom_site_fract_y
 _atom_site_fract_z
 _atom_site_occupancy
  Nd  Nd0  1  0.477492  0.839621  0.429135  1
  Nd  Nd1  1  0.040291  0.340681  0.430824  1
  Nd  Nd2  1  0.970601  0.694701  0.806265  1
  Nd  Nd3  1  0.522508  0.839621  0.929135  1
  Nd  Nd4  1  0.457699  0.152433  0.071333  1
  Nd  Nd5  1  0.024563  0.650653  0.070187  1
  Nd  Nd6  1  0.493025  0.186436  0.307762  1
  Nd  Nd7  1  0.542301  0.152433  0.571333  1
  Nd  Nd8  1  0.482694  0.795154  0.193798  1
  Nd  Nd9  1  0.506975  0.186436  0.807762  1
  Nd  Nd10  1  0.029399  0.694701  0.306265  1
  Nd  Nd11  1  0.975437  0.650653  0.570187  1
  Nd  Nd12  1  0.022293  0.297371  0.192092  1
  Nd  Nd13  1  0.959709  0.340681  0.930824  1
  Nd  Nd14  1  0.977707  0.297371  0.692092  1
  Nd  Nd15  1  0.517306  0.795154  0.693798  1
  Br  Br16  1  0.238936  0.610922  0.489840  1
  Br  Br17  1  0.184760  0.021925  0.371435  1
  Br  Br18  1  0.666806  0.833227  0.101344  1
  Br  Br19  1  0.333193  0.833227  0.601344  1
  Br  Br20  1  0.192526  -0.001716  0.250346  1
  Br  Br21  1  0.320122  0.488654  0.250061  1
  Br  Br22  1  0.322095  0.473418  0.128996  1
  Br  Br23  1  0.366991  0.152615  0.705464  1
  Br  Br24  1  0.118605  0.336469  0.795068  1
  Br  Br25  1  0.677905  0.473418  0.628996  1
  Br  Br26  1  0.679878  0.488654  0.750061  1
  Br  Br27  1  0.882144  0.658876  0.203724  1
  Br  Br28  1  0.881395  0.336469  0.295068  1
  Br  Br29  1  0.176705  0.330219  0.601334  1
  Br  Br30  1  0.331601  0.518797  0.370889  1
  Br  Br31  1  0.761064  0.610922  0.989840  1
  Br  Br32  1  0.770633  0.388807  0.509931  1
  Br  Br33  1  0.229367  0.388807  0.009931  1
  Br  Br34  1  0.629897  0.825248  0.295200  1
  Br  Br35  1  0.837225  0.658553  0.398079  1
  Br  Br36  1  0.312794  0.155554  0.898674  1
  Br  Br37  1  0.743616  0.889250  0.509937  1
  Br  Br38  1  0.807474  -0.001716  0.750346  1
  Br  Br39  1  0.668399  0.518797  0.870889  1
  Br  Br40  1  0.162775  0.658553  0.898079  1
  Br  Br41  1  0.717322  0.109914  0.989803  1
  Br  Br42  1  0.117856  0.658876  0.703724  1
  Br  Br43  1  0.370103  0.825248  0.795200  1
  Br  Br44  1  0.815240  0.021925  0.871435  1
  Br  Br45  1  0.633009  0.152615  0.205463  1
  Br  Br46  1  0.687206  0.155554  0.398674  1
  Br  Br47  1  0.171767  0.965830  0.129852  1
  Br  Br48  1  0.282678  0.109914  0.489803  1
  Br  Br49  1  0.823295  0.330219  0.101334  1
  Br  Br50  1  0.256384  0.889250  0.009937  1
  Br  Br51  1  0.828233  0.965830  0.629852  1
