# generated using pymatgen
data_Cs2BeF4
_symmetry_space_group_name_H-M   'P 1'
_cell_length_a   6.25028575
_cell_length_b   8.29321016
_cell_length_c   10.92501106
_cell_angle_alpha   90.00000000
_cell_angle_beta   90.00000000
_cell_angle_gamma   90.00000000
_symmetry_Int_Tables_number   1
_chemical_formula_structural   Cs2BeF4
_chemical_formula_sum   'Cs8 Be4 F16'
_cell_volume   566.29721943
_cell_formula_units_Z   4
loop_
 _symmetry_equiv_pos_site_id
 _symmetry_equiv_pos_as_xyz
  1  'x, y, z'
loop_
 _atom_site_type_symbol
 _atom_site_label
 _atom_site_symmetry_multiplicity
 _atom_site_fract_x
 _atom_site_fract_y
 _atom_site_fract_z
 _atom_site_occupancy
  Be  Be0  1  0.250000  0.241578  0.417169  1
  Be  Be1  1  0.250000  0.741578  0.082831  1
  Be  Be2  1  0.750000  0.258422  0.917169  1
  Be  Be3  1  0.750000  0.758422  0.582831  1
  F  F4  1  0.250000  0.552861  0.088665  1
  F  F5  1  0.750000  0.447139  0.911335  1
  F  F6  1  0.250000  0.052861  0.411335  1
  F  F7  1  0.750000  0.947139  0.588665  1
  F  F8  1  0.750000  0.695862  0.445817  1
  F  F9  1  0.250000  0.804138  0.945817  1
  F  F10  1  0.250000  0.304138  0.554183  1
  F  F11  1  0.750000  0.195862  0.054183  1
  F  F12  1  0.956218  0.690750  0.648285  1
  F  F13  1  0.456218  0.309250  0.351715  1
  F  F14  1  0.543782  0.190750  0.851715  1
  F  F15  1  0.043782  0.809250  0.148285  1
  F  F16  1  0.043782  0.309250  0.351715  1
  F  F17  1  0.543782  0.690750  0.648285  1
  F  F18  1  0.456218  0.809250  0.148285  1
  F  F19  1  0.956218  0.190750  0.851715  1
  Cs  Cs20  1  0.250000  0.487969  0.811227  1
  Cs  Cs21  1  0.750000  0.512031  0.188773  1
  Cs  Cs22  1  0.250000  0.987969  0.688773  1
  Cs  Cs23  1  0.750000  0.012031  0.311227  1
  Cs  Cs24  1  0.250000  0.662705  0.406352  1
  Cs  Cs25  1  0.750000  0.337295  0.593648  1
  Cs  Cs26  1  0.250000  0.162705  0.093648  1
  Cs  Cs27  1  0.750000  0.837295  0.906352  1
