# generated using pymatgen
data_Pr4Se3(O5F3)2
_symmetry_space_group_name_H-M   'P 1'
_cell_length_a   7.19982554
_cell_length_b   8.44072296
_cell_length_c   11.87695905
_cell_angle_alpha   98.67372077
_cell_angle_beta   107.64392429
_cell_angle_gamma   90.00000350
_symmetry_Int_Tables_number   1
_chemical_formula_structural   Pr4Se3(O5F3)2
_chemical_formula_sum   'Pr8 Se6 O20 F12'
_cell_volume   679.16217851
_cell_formula_units_Z   2
loop_
 _symmetry_equiv_pos_site_id
 _symmetry_equiv_pos_as_xyz
  1  'x, y, z'
loop_
 _atom_site_type_symbol
 _atom_site_label
 _atom_site_symmetry_multiplicity
 _atom_site_fract_x
 _atom_site_fract_y
 _atom_site_fract_z
 _atom_site_occupancy
  Pr  Pr0  1  0.144449  0.669601  0.425388  1
  Pr  Pr1  1  0.456228  0.469356  0.741745  1
  Pr  Pr2  1  0.543772  0.530644  0.258255  1
  Pr  Pr3  1  0.280939  0.169601  0.425388  1
  Pr  Pr4  1  0.714483  0.030644  0.258255  1
  Pr  Pr5  1  0.855551  0.330399  0.574612  1
  Pr  Pr6  1  0.719061  0.830399  0.574612  1
  Pr  Pr7  1  0.285517  0.969356  0.741745  1
  Se  Se8  1  0.015883  0.366387  0.185776  1
  Se  Se9  1  0.610381  0.750000  1.000000  1
  Se  Se10  1  0.830107  0.133613  0.814224  1
  Se  Se11  1  0.169893  0.866387  0.185776  1
  Se  Se12  1  0.984117  0.633613  0.814224  1
  Se  Se13  1  0.389619  0.250000  0.000000  1
  O  O14  1  0.417916  0.756373  0.877470  1
  O  O15  1  0.250946  0.080198  0.960657  1
  O  O16  1  0.960515  0.099669  0.710612  1
  O  O17  1  0.582084  0.243627  0.122530  1
  O  O18  1  0.892549  0.508450  0.255322  1
  O  O19  1  0.107451  0.491550  0.744678  1
  O  O20  1  0.362774  0.008450  0.255322  1
  O  O21  1  0.249903  0.400331  0.289388  1
  O  O22  1  0.749054  0.919802  0.039343  1
  O  O23  1  0.256800  0.690850  0.232696  1
  O  O24  1  0.743200  0.309150  0.767304  1
  O  O25  1  0.637226  0.991550  0.744678  1
  O  O26  1  0.975896  0.190850  0.232696  1
  O  O27  1  0.459554  0.256373  0.877470  1
  O  O28  1  0.290289  0.419802  0.039343  1
  O  O29  1  0.540446  0.743627  0.122530  1
  O  O30  1  0.709711  0.580198  0.960657  1
  O  O31  1  0.039485  0.900331  0.289388  1
  O  O32  1  0.024104  0.809150  0.767304  1
  O  O33  1  0.750097  0.599669  0.710612  1
  F  F34  1  0.481238  0.632757  0.446278  1
  F  F35  1  0.354112  0.702021  0.642312  1
  F  F36  1  0.645888  0.297979  0.357688  1
  F  F37  1  0.356162  0.919714  0.507906  1
  F  F38  1  0.151744  0.419714  0.507906  1
  F  F39  1  0.034960  0.867243  0.553722  1
  F  F40  1  0.288200  0.202021  0.642312  1
  F  F41  1  0.643838  0.080286  0.492094  1
  F  F42  1  0.518762  0.367243  0.553722  1
  F  F43  1  0.965040  0.132757  0.446278  1
  F  F44  1  0.711800  0.797979  0.357688  1
  F  F45  1  0.848256  0.580286  0.492094  1
