# generated using pymatgen
data_RePCl8O
_symmetry_space_group_name_H-M   'P 1'
_cell_length_a   8.39701403
_cell_length_b   9.10644640
_cell_length_c   17.11422575
_cell_angle_alpha   90.00000000
_cell_angle_beta   90.00000000
_cell_angle_gamma   90.00000000
_symmetry_Int_Tables_number   1
_chemical_formula_structural   RePCl8O
_chemical_formula_sum   'Re4 P4 Cl32 O4'
_cell_volume   1308.67278478
_cell_formula_units_Z   4
loop_
 _symmetry_equiv_pos_site_id
 _symmetry_equiv_pos_as_xyz
  1  'x, y, z'
loop_
 _atom_site_type_symbol
 _atom_site_label
 _atom_site_symmetry_multiplicity
 _atom_site_fract_x
 _atom_site_fract_y
 _atom_site_fract_z
 _atom_site_occupancy
  Re  Re0  1  0.250000  0.923097  0.148039  1
  Re  Re1  1  0.750000  0.076903  0.851961  1
  Re  Re2  1  0.750000  0.423097  0.351961  1
  Re  Re3  1  0.250000  0.576903  0.648039  1
  P  P4  1  0.750000  0.782452  0.422896  1
  P  P5  1  0.250000  0.282452  0.077104  1
  P  P6  1  0.750000  0.717548  0.922896  1
  P  P7  1  0.250000  0.217548  0.577104  1
  Cl  Cl8  1  0.060933  0.132679  0.629617  1
  Cl  Cl9  1  0.560933  0.867321  0.370383  1
  Cl  Cl10  1  0.750000  0.211493  0.967158  1
  Cl  Cl11  1  0.478314  0.445150  0.359086  1
  Cl  Cl12  1  0.521686  0.554850  0.640914  1
  Cl  Cl13  1  0.439067  0.132679  0.629617  1
  Cl  Cl14  1  0.560933  0.632679  0.870383  1
  Cl  Cl15  1  0.939067  0.867321  0.370383  1
  Cl  Cl16  1  0.521686  0.945150  0.140914  1
  Cl  Cl17  1  0.250000  0.140372  0.468921  1
  Cl  Cl18  1  0.750000  0.219246  0.277667  1
  Cl  Cl19  1  0.750000  0.574689  0.241130  1
  Cl  Cl20  1  0.021686  0.445150  0.359086  1
  Cl  Cl21  1  0.021686  0.054850  0.859086  1
  Cl  Cl22  1  0.978314  0.554850  0.640914  1
  Cl  Cl23  1  0.750000  0.859628  0.531079  1
  Cl  Cl24  1  0.439067  0.367321  0.129617  1
  Cl  Cl25  1  0.060933  0.367321  0.129617  1
  Cl  Cl26  1  0.750000  0.288507  0.467158  1
  Cl  Cl27  1  0.939067  0.632679  0.870383  1
  Cl  Cl28  1  0.250000  0.788507  0.032842  1
  Cl  Cl29  1  0.250000  0.359628  0.968921  1
  Cl  Cl30  1  0.250000  0.719246  0.222333  1
  Cl  Cl31  1  0.750000  0.925311  0.741130  1
  Cl  Cl32  1  0.978314  0.945150  0.140914  1
  Cl  Cl33  1  0.750000  0.640372  0.031079  1
  Cl  Cl34  1  0.250000  0.780754  0.722333  1
  Cl  Cl35  1  0.250000  0.425311  0.758870  1
  Cl  Cl36  1  0.478314  0.054850  0.859086  1
  Cl  Cl37  1  0.250000  0.074689  0.258870  1
  Cl  Cl38  1  0.250000  0.711493  0.532842  1
  Cl  Cl39  1  0.750000  0.280754  0.777667  1
  O  O40  1  0.250000  0.118156  0.075127  1
  O  O41  1  0.750000  0.881844  0.924873  1
  O  O42  1  0.250000  0.381844  0.575127  1
  O  O43  1  0.750000  0.618156  0.424873  1
