# generated using pymatgen
data_K2CdP2O7
_symmetry_space_group_name_H-M   'P 1'
_cell_length_a   5.64354076
_cell_length_b   5.70065988
_cell_length_c   12.83369492
_cell_angle_alpha   78.91112850
_cell_angle_beta   77.29942443
_cell_angle_gamma   60.33128223
_symmetry_Int_Tables_number   1
_chemical_formula_structural   K2CdP2O7
_chemical_formula_sum   'K4 Cd2 P4 O14'
_cell_volume   348.27567013
_cell_formula_units_Z   2
loop_
 _symmetry_equiv_pos_site_id
 _symmetry_equiv_pos_as_xyz
  1  'x, y, z'
loop_
 _atom_site_type_symbol
 _atom_site_label
 _atom_site_symmetry_multiplicity
 _atom_site_fract_x
 _atom_site_fract_y
 _atom_site_fract_z
 _atom_site_occupancy
  K  K0  1  0.940482  0.870252  0.831585  1
  K  K1  1  0.059518  0.129748  0.168415  1
  K  K2  1  0.642332  0.629789  0.668395  1
  K  K3  1  0.357668  0.370211  0.331605  1
  Cd  Cd4  1  0.500000  0.500000  0.000000  1
  Cd  Cd5  1  0.000000  0.000000  0.500000  1
  P  P6  1  0.689322  0.685847  0.369751  1
  P  P7  1  0.255096  0.185866  0.869740  1
  P  P8  1  0.744904  0.814134  0.130260  1
  P  P9  1  0.310678  0.314153  0.630249  1
  O  O10  1  0.157376  0.250019  0.749997  1
  O  O11  1  0.556005  0.123517  0.120890  1
  O  O12  1  0.842624  0.749981  0.250003  1
  O  O13  1  0.443995  0.876483  0.879110  1
  O  O14  1  0.588112  0.654811  0.134743  1
  O  O15  1  0.016376  0.719697  0.054914  1
  O  O16  1  0.800375  0.376487  0.379117  1
  O  O17  1  0.208940  0.219722  0.554919  1
  O  O18  1  0.199625  0.623513  0.620883  1
  O  O19  1  0.377671  0.845234  0.365268  1
  O  O20  1  0.791060  0.780278  0.445081  1
  O  O21  1  0.411888  0.345189  0.865257  1
  O  O22  1  0.983624  0.280303  0.945086  1
  O  O23  1  0.622329  0.154766  0.634732  1
