# generated using pymatgen
data_LiGaAs2O7
_symmetry_space_group_name_H-M   'P 1'
_cell_length_a   4.77544045
_cell_length_b   5.36614194
_cell_length_c   5.36613659
_cell_angle_alpha   102.05739984
_cell_angle_beta   98.78584948
_cell_angle_gamma   98.78573401
_symmetry_Int_Tables_number   1
_chemical_formula_structural   LiGaAs2O7
_chemical_formula_sum   'Li1 Ga1 As2 O7'
_cell_volume   130.45131245
_cell_formula_units_Z   1
loop_
 _symmetry_equiv_pos_site_id
 _symmetry_equiv_pos_as_xyz
  1  'x, y, z'
loop_
 _atom_site_type_symbol
 _atom_site_label
 _atom_site_symmetry_multiplicity
 _atom_site_fract_x
 _atom_site_fract_y
 _atom_site_fract_z
 _atom_site_occupancy
  O  O0  1  0.667558  0.358657  0.142115  1
  O  O1  1  0.332443  0.857885  0.641343  1
  O  O2  1  0.238597  0.611370  0.054030  1
  Li  Li3  1  0.500000  0.249310  0.750690  1
  Ga  Ga4  1  0.500000  0.624694  0.375306  1
  As  As5  1  0.906105  0.179621  0.252948  1
  O  O6  1  0.761402  0.945971  0.388630  1
  O  O7  1  0.771897  0.548444  0.662208  1
  O  O8  1  0.228103  0.337792  0.451556  1
  O  O9  1  1.000000  0.049884  0.950116  1
  As  As10  1  0.093896  0.747052  0.820378  1
