# generated using pymatgen
data_Y5Mg13Cu5
_symmetry_space_group_name_H-M   'P 1'
_cell_length_a   4.15407572
_cell_length_b   9.74753608
_cell_length_c   25.54792746
_cell_angle_alpha   90.00000000
_cell_angle_beta   90.00000000
_cell_angle_gamma   102.30310722
_symmetry_Int_Tables_number   1
_chemical_formula_structural   Y5Mg13Cu5
_chemical_formula_sum   'Y10 Mg26 Cu10'
_cell_volume   1010.72875207
_cell_formula_units_Z   2
loop_
 _symmetry_equiv_pos_site_id
 _symmetry_equiv_pos_as_xyz
  1  'x, y, z'
loop_
 _atom_site_type_symbol
 _atom_site_label
 _atom_site_symmetry_multiplicity
 _atom_site_fract_x
 _atom_site_fract_y
 _atom_site_fract_z
 _atom_site_occupancy
  Y  Y0  1  0.325225  0.650449  0.356178  1
  Y  Y1  1  0.674775  0.349551  0.856178  1
  Y  Y2  1  0.444391  0.888781  0.750000  1
  Y  Y3  1  0.484230  0.968460  0.605995  1
  Y  Y4  1  0.515770  0.031540  0.105995  1
  Y  Y5  1  0.515770  0.031540  0.394005  1
  Y  Y6  1  0.325225  0.650449  0.143822  1
  Y  Y7  1  0.484230  0.968460  0.894005  1
  Y  Y8  1  0.555609  0.111219  0.250000  1
  Y  Y9  1  0.674775  0.349551  0.643822  1
  Mg  Mg10  1  0.616930  0.233860  0.982981  1
  Mg  Mg11  1  0.314510  0.629019  0.657681  1
  Mg  Mg12  1  0.053390  0.106781  0.810980  1
  Mg  Mg13  1  0.850219  0.700438  0.929026  1
  Mg  Mg14  1  0.767209  0.534418  0.045806  1
  Mg  Mg15  1  0.232791  0.465582  0.954194  1
  Mg  Mg16  1  0.193360  0.386721  0.750000  1
  Mg  Mg17  1  0.149781  0.299562  0.429026  1
  Mg  Mg18  1  0.685490  0.370981  0.157681  1
  Mg  Mg19  1  0.194359  0.388717  0.250000  1
  Mg  Mg20  1  0.850219  0.700438  0.570974  1
  Mg  Mg21  1  0.383070  0.766140  0.017019  1
  Mg  Mg22  1  0.946610  0.893220  0.189020  1
  Mg  Mg23  1  0.149781  0.299562  0.070974  1
  Mg  Mg24  1  0.946610  0.893220  0.310980  1
  Mg  Mg25  1  0.000000  0.000000  0.500000  1
  Mg  Mg26  1  0.806640  0.613279  0.250000  1
  Mg  Mg27  1  0.383070  0.766140  0.482981  1
  Mg  Mg28  1  0.232791  0.465582  0.545806  1
  Mg  Mg29  1  0.616930  0.233860  0.517019  1
  Mg  Mg30  1  0.767209  0.534418  0.454194  1
  Mg  Mg31  1  0.805641  0.611283  0.750000  1
  Mg  Mg32  1  0.000000  0.000000  0.000000  1
  Mg  Mg33  1  0.685490  0.370981  0.342319  1
  Mg  Mg34  1  0.053390  0.106781  0.689020  1
  Mg  Mg35  1  0.314510  0.629019  0.842319  1
  Cu  Cu36  1  0.093329  0.186659  0.170570  1
  Cu  Cu37  1  0.095621  0.191242  0.914602  1
  Cu  Cu38  1  0.600371  0.200743  0.750000  1
  Cu  Cu39  1  0.399629  0.799257  0.250000  1
  Cu  Cu40  1  0.906671  0.813341  0.829430  1
  Cu  Cu41  1  0.904379  0.808758  0.414602  1
  Cu  Cu42  1  0.093329  0.186659  0.329430  1
  Cu  Cu43  1  0.906671  0.813341  0.670570  1
  Cu  Cu44  1  0.904379  0.808758  0.085398  1
  Cu  Cu45  1  0.095621  0.191242  0.585398  1
