# generated using pymatgen
data_Ce4Co2Sn5
_symmetry_space_group_name_H-M   'P 1'
_cell_length_a   4.42600473
_cell_length_b   7.37281470
_cell_length_c   8.93419586
_cell_angle_alpha   84.20773722
_cell_angle_beta   75.66432650
_cell_angle_gamma   72.54052294
_symmetry_Int_Tables_number   1
_chemical_formula_structural   Ce4Co2Sn5
_chemical_formula_sum   'Ce4 Co2 Sn5'
_cell_volume   269.33841787
_cell_formula_units_Z   1
loop_
 _symmetry_equiv_pos_site_id
 _symmetry_equiv_pos_as_xyz
  1  'x, y, z'
loop_
 _atom_site_type_symbol
 _atom_site_label
 _atom_site_symmetry_multiplicity
 _atom_site_fract_x
 _atom_site_fract_y
 _atom_site_fract_z
 _atom_site_occupancy
  Ce  Ce0  1  0.931824  0.914328  0.222053  1
  Ce  Ce1  1  0.068176  0.085672  0.777947  1
  Ce  Ce2  1  0.666407  0.447685  0.219241  1
  Ce  Ce3  1  0.333593  0.552315  0.780759  1
  Sn  Sn4  1  0.625728  0.795851  0.953386  1
  Sn  Sn5  1  0.374272  0.204149  0.046614  1
  Sn  Sn6  1  0.000000  0.500000  0.500000  1
  Sn  Sn7  1  0.649996  0.174517  0.525497  1
  Sn  Sn8  1  0.350004  0.825483  0.474503  1
  Co  Co9  1  0.234781  0.181710  0.348619  1
  Co  Co10  1  0.765219  0.818290  0.651381  1
