# generated using pymatgen
data_K2MnF4
_symmetry_space_group_name_H-M   'P 1'
_cell_length_a   4.24830571
_cell_length_b   4.24830571
_cell_length_c   7.35678118
_cell_angle_alpha   106.78217762
_cell_angle_beta   106.78217761
_cell_angle_gamma   90.00000004
_symmetry_Int_Tables_number   1
_chemical_formula_structural   K2MnF4
_chemical_formula_sum   'K2 Mn1 F4'
_cell_volume   121.20234524
_cell_formula_units_Z   1
loop_
 _symmetry_equiv_pos_site_id
 _symmetry_equiv_pos_as_xyz
  1  'x, y, z'
loop_
 _atom_site_type_symbol
 _atom_site_label
 _atom_site_symmetry_multiplicity
 _atom_site_fract_x
 _atom_site_fract_y
 _atom_site_fract_z
 _atom_site_occupancy
  F  F0  1  0.500000  0.000000  0.000000  1
  F  F1  1  0.000000  0.500000  0.000000  1
  F  F2  1  0.840767  0.840767  0.681534  1
  F  F3  1  0.159233  0.159233  0.318466  1
  K  K4  1  0.353538  0.353538  0.707077  1
  K  K5  1  0.646462  0.646462  0.292923  1
  Mn  Mn6  1  0.000000  0.000000  0.000000  1
