# generated using pymatgen
data_CeH16C4Cl3O4
_symmetry_space_group_name_H-M   'P 1'
_cell_length_a   8.62372984
_cell_length_b   9.04076959
_cell_length_c   18.82356505
_cell_angle_alpha   90.00000000
_cell_angle_beta   90.00000000
_cell_angle_gamma   109.18891554
_symmetry_Int_Tables_number   1
_chemical_formula_structural   CeH16C4Cl3O4
_chemical_formula_sum   'Ce4 H64 C16 Cl12 O16'
_cell_volume   1386.04325549
_cell_formula_units_Z   4
loop_
 _symmetry_equiv_pos_site_id
 _symmetry_equiv_pos_as_xyz
  1  'x, y, z'
loop_
 _atom_site_type_symbol
 _atom_site_label
 _atom_site_symmetry_multiplicity
 _atom_site_fract_x
 _atom_site_fract_y
 _atom_site_fract_z
 _atom_site_occupancy
  Ce  Ce0  1  0.371779  0.824812  0.411541  1
  Ce  Ce1  1  0.128221  0.175188  0.911541  1
  Ce  Ce2  1  0.628221  0.175188  0.588459  1
  Ce  Ce3  1  0.871779  0.824812  0.088459  1
  H  H4  1  0.463717  0.547703  0.591256  1
  H  H5  1  0.081326  0.381807  0.321080  1
  H  H6  1  0.616141  0.493924  0.064312  1
  H  H7  1  0.735039  0.559355  0.374766  1
  H  H8  1  0.930425  0.955943  0.565352  1
  H  H9  1  0.299013  0.465646  0.312051  1
  H  H10  1  0.816629  0.896915  0.904389  1
  H  H11  1  0.069575  0.044057  0.434648  1
  H  H12  1  0.316629  0.896915  0.595611  1
  H  H13  1  0.172338  0.609258  0.040455  1
  H  H14  1  0.754713  0.234363  0.308307  1
  H  H15  1  0.426568  0.849845  0.059142  1
  H  H16  1  0.926568  0.849845  0.440858  1
  H  H17  1  0.923978  0.967722  0.364502  1
  H  H18  1  0.745287  0.765637  0.808307  1
  H  H19  1  0.116141  0.493924  0.435688  1
  H  H20  1  0.963177  0.822201  0.797434  1
  H  H21  1  0.576141  0.834869  0.176032  1
  H  H22  1  0.622135  0.714673  0.327307  1
  H  H23  1  0.183371  0.103085  0.095611  1
  H  H24  1  0.122135  0.714673  0.172693  1
  H  H25  1  0.963717  0.547703  0.908744  1
  H  H26  1  0.377865  0.285327  0.672693  1
  H  H27  1  0.799013  0.465646  0.187949  1
  H  H28  1  0.076022  0.032278  0.635498  1
  H  H29  1  0.423978  0.967722  0.135498  1
  H  H30  1  0.569575  0.044057  0.065352  1
  H  H31  1  0.213562  0.310665  0.375193  1
  H  H32  1  0.700987  0.534354  0.687949  1
  H  H33  1  0.713562  0.310665  0.124807  1
  H  H34  1  0.918674  0.618193  0.678920  1
  H  H35  1  0.264961  0.440645  0.625234  1
  H  H36  1  0.073432  0.150155  0.559142  1
  H  H37  1  0.254713  0.234363  0.191693  1
  H  H38  1  0.573432  0.150155  0.940858  1
  H  H39  1  0.245287  0.765637  0.691693  1
  H  H40  1  0.877865  0.285327  0.827307  1
  H  H41  1  0.683371  0.103085  0.404389  1
  H  H42  1  0.536823  0.177799  0.297434  1
  H  H43  1  0.286438  0.689335  0.875193  1
  H  H44  1  0.036823  0.177799  0.202566  1
  H  H45  1  0.672338  0.609258  0.459545  1
  H  H46  1  0.883859  0.506076  0.564312  1
  H  H47  1  0.383859  0.506076  0.935688  1
  H  H48  1  0.786438  0.689335  0.624807  1
  H  H49  1  0.351136  0.935432  0.743574  1
  H  H50  1  0.036283  0.452297  0.091256  1
  H  H51  1  0.648864  0.064568  0.256426  1
  H  H52  1  0.423859  0.165131  0.823968  1
  H  H53  1  0.200987  0.534354  0.812051  1
  H  H54  1  0.581326  0.381807  0.178920  1
  H  H55  1  0.327662  0.390742  0.540455  1
  H  H56  1  0.827662  0.390742  0.959545  1
  H  H57  1  0.463177  0.822201  0.702566  1
  H  H58  1  0.148864  0.064568  0.243574  1
  H  H59  1  0.764961  0.440645  0.874766  1
  H  H60  1  0.076141  0.834869  0.323968  1
  H  H61  1  0.418674  0.618193  0.821080  1
  H  H62  1  0.851136  0.935432  0.756426  1
  H  H63  1  0.923859  0.165131  0.676032  1
  H  H64  1  0.576022  0.032278  0.864502  1
  H  H65  1  0.430425  0.955943  0.934648  1
  H  H66  1  0.536283  0.452297  0.408744  1
  H  H67  1  0.235039  0.559355  0.125234  1
  C  C68  1  0.002119  0.939375  0.404478  1
  C  C69  1  0.358755  0.865776  0.696958  1
  C  C70  1  0.858755  0.865776  0.803042  1
  C  C71  1  0.301048  0.585449  0.849612  1
  C  C72  1  0.497881  0.060625  0.904478  1
  C  C73  1  0.698952  0.414551  0.150388  1
  C  C74  1  0.130897  0.568299  0.094306  1
  C  C75  1  0.630897  0.568299  0.405694  1
  C  C76  1  0.369103  0.431701  0.594306  1
  C  C77  1  0.997880  0.060625  0.595522  1
  C  C78  1  0.801048  0.585449  0.650388  1
  C  C79  1  0.141245  0.134224  0.196958  1
  C  C80  1  0.869103  0.431701  0.905694  1
  C  C81  1  0.502120  0.939375  0.095522  1
  C  C82  1  0.641245  0.134224  0.303042  1
  C  C83  1  0.198952  0.414551  0.349612  1
  Cl  Cl84  1  0.888727  0.123458  0.022735  1
  Cl  Cl85  1  0.835532  0.782078  0.239200  1
  Cl  Cl86  1  0.388727  0.123458  0.477265  1
  Cl  Cl87  1  0.611273  0.876542  0.522735  1
  Cl  Cl88  1  0.664468  0.217922  0.739200  1
  Cl  Cl89  1  0.111273  0.876542  0.977265  1
  Cl  Cl90  1  0.839324  0.284613  0.469253  1
  Cl  Cl91  1  0.660676  0.715387  0.969253  1
  Cl  Cl92  1  0.164468  0.217922  0.760800  1
  Cl  Cl93  1  0.339324  0.284613  0.030747  1
  Cl  Cl94  1  0.160676  0.715387  0.530747  1
  Cl  Cl95  1  0.335532  0.782078  0.260800  1
  O  O96  1  0.293271  0.466770  0.901897  1
  O  O97  1  0.793271  0.466770  0.598103  1
  O  O98  1  0.378229  0.116617  0.869262  1
  O  O99  1  0.878022  0.964015  0.864803  1
  O  O100  1  0.935989  0.321891  0.872337  1
  O  O101  1  0.378022  0.964015  0.635197  1
  O  O102  1  0.121771  0.883383  0.369262  1
  O  O103  1  0.621771  0.883383  0.130738  1
  O  O104  1  0.435989  0.321891  0.627663  1
  O  O105  1  0.706729  0.533230  0.098103  1
  O  O106  1  0.121978  0.035985  0.135197  1
  O  O107  1  0.206729  0.533230  0.401897  1
  O  O108  1  0.064011  0.678109  0.127663  1
  O  O109  1  0.878229  0.116617  0.630738  1
  O  O110  1  0.621978  0.035985  0.364803  1
  O  O111  1  0.564011  0.678109  0.372337  1
