# generated using pymatgen
data_La4Ti9(Si2O15)2
_symmetry_space_group_name_H-M   'P 1'
_cell_length_a   5.78258541
_cell_length_b   7.42363662
_cell_length_c   14.37415420
_cell_angle_alpha   94.96166083
_cell_angle_beta   90.00000000
_cell_angle_gamma   112.92160031
_symmetry_Int_Tables_number   1
_chemical_formula_structural   La4Ti9(Si2O15)2
_chemical_formula_sum   'La4 Ti9 Si4 O30'
_cell_volume   565.81652627
_cell_formula_units_Z   1
loop_
 _symmetry_equiv_pos_site_id
 _symmetry_equiv_pos_as_xyz
  1  'x, y, z'
loop_
 _atom_site_type_symbol
 _atom_site_label
 _atom_site_symmetry_multiplicity
 _atom_site_fract_x
 _atom_site_fract_y
 _atom_site_fract_z
 _atom_site_occupancy
  La  La0  1  0.016413  0.032826  0.308577  1
  La  La1  1  0.299672  0.599344  0.313526  1
  La  La2  1  0.700328  0.400656  0.686474  1
  La  La3  1  0.983587  0.967174  0.691423  1
  Ti  Ti4  1  0.623419  0.727842  0.890140  1
  Ti  Ti5  1  0.871047  0.742093  0.117676  1
  Ti  Ti6  1  0.401188  0.802376  0.117549  1
  Ti  Ti7  1  0.104423  0.727842  0.890140  1
  Ti  Ti8  1  0.598812  0.197624  0.882451  1
  Ti  Ti9  1  0.895577  0.272158  0.109860  1
  Ti  Ti10  1  0.128953  0.257907  0.882324  1
  Ti  Ti11  1  0.500000  0.000000  0.500000  1
  Ti  Ti12  1  0.376581  0.272158  0.109860  1
  Si  Si13  1  0.652246  0.304492  0.322188  1
  Si  Si14  1  0.347754  0.695508  0.677812  1
  Si  Si15  1  0.147539  0.295079  0.534324  1
  Si  Si16  1  0.852461  0.704921  0.465676  1
  O  O17  1  0.247211  0.494421  0.607433  1
  O  O18  1  0.833309  0.666618  0.574222  1
  O  O19  1  0.322345  0.177579  0.566657  1
  O  O20  1  0.238027  0.476054  0.131582  1
  O  O21  1  0.752789  0.505579  0.392567  1
  O  O22  1  0.677655  0.822421  0.433343  1
  O  O23  1  0.265245  0.530490  0.883506  1
  O  O24  1  0.855078  0.208981  0.783785  1
  O  O25  1  0.108807  0.694396  0.739253  1
  O  O26  1  0.144766  0.822421  0.433343  1
  O  O27  1  0.414411  0.305604  0.260747  1
  O  O28  1  0.761973  0.523946  0.868418  1
  O  O29  1  0.038762  0.077524  0.133612  1
  O  O30  1  0.629848  0.756949  0.023962  1
  O  O31  1  0.166691  0.333382  0.425778  1
  O  O32  1  0.443250  0.886501  0.618689  1
  O  O33  1  0.127101  0.756949  0.023962  1
  O  O34  1  0.646097  0.791019  0.216215  1
  O  O35  1  0.891193  0.305604  0.260747  1
  O  O36  1  0.855234  0.177579  0.566657  1
  O  O37  1  0.872899  0.243051  0.976038  1
  O  O38  1  0.353903  0.208981  0.783785  1
  O  O39  1  0.144922  0.791019  0.216215  1
  O  O40  1  0.538264  0.076528  0.119177  1
  O  O41  1  0.734755  0.469510  0.116494  1
  O  O42  1  0.961238  0.922476  0.866388  1
  O  O43  1  0.556750  0.113499  0.381311  1
  O  O44  1  0.461736  0.923472  0.880823  1
  O  O45  1  0.585589  0.694396  0.739253  1
  O  O46  1  0.370152  0.243051  0.976038  1
