# generated using pymatgen
data_Mn3B7BrO13
_symmetry_space_group_name_H-M   'P 1'
_cell_length_a   8.78522572
_cell_length_b   8.80523728
_cell_length_c   12.45451994
_cell_angle_alpha   90.00000000
_cell_angle_beta   90.00000000
_cell_angle_gamma   90.00000000
_symmetry_Int_Tables_number   1
_chemical_formula_structural   Mn3B7BrO13
_chemical_formula_sum   'Mn12 B28 Br4 O52'
_cell_volume   963.43180740
_cell_formula_units_Z   4
loop_
 _symmetry_equiv_pos_site_id
 _symmetry_equiv_pos_as_xyz
  1  'x, y, z'
loop_
 _atom_site_type_symbol
 _atom_site_label
 _atom_site_symmetry_multiplicity
 _atom_site_fract_x
 _atom_site_fract_y
 _atom_site_fract_z
 _atom_site_occupancy
  Mn  Mn0  1  0.747842  0.240231  0.768671  1
  Mn  Mn1  1  0.029846  0.988794  0.990608  1
  Mn  Mn2  1  0.529449  0.012216  0.494622  1
  Mn  Mn3  1  0.529449  0.487784  0.994622  1
  Mn  Mn4  1  0.970154  0.011206  0.490608  1
  Mn  Mn5  1  0.747842  0.259769  0.268671  1
  Mn  Mn6  1  0.252158  0.740231  0.768671  1
  Mn  Mn7  1  0.970154  0.488794  0.990608  1
  Mn  Mn8  1  0.029846  0.511206  0.490608  1
  Mn  Mn9  1  0.252158  0.759769  0.268671  1
  Mn  Mn10  1  0.470551  0.512216  0.494622  1
  Mn  Mn11  1  0.470551  0.987784  0.994622  1
  B  B12  1  0.902413  0.744424  0.324364  1
  B  B13  1  0.495863  0.501050  0.245535  1
  B  B14  1  0.249337  0.044967  0.643941  1
  B  B15  1  0.996880  0.000367  0.243809  1
  B  B16  1  0.996880  0.499634  0.743809  1
  B  B17  1  0.246832  0.242537  0.497809  1
  B  B18  1  0.753168  0.742537  0.497809  1
  B  B19  1  0.249337  0.455033  0.143941  1
  B  B20  1  0.400849  0.255136  0.825044  1
  B  B21  1  0.750007  0.594432  0.173726  1
  B  B22  1  0.249993  0.094432  0.173726  1
  B  B23  1  0.750007  0.905568  0.673726  1
  B  B24  1  0.097587  0.244424  0.324364  1
  B  B25  1  0.504137  0.001050  0.245535  1
  B  B26  1  0.003120  0.500367  0.243809  1
  B  B27  1  0.902413  0.755576  0.824364  1
  B  B28  1  0.097587  0.255576  0.824364  1
  B  B29  1  0.753168  0.757463  0.997809  1
  B  B30  1  0.246832  0.257463  0.997809  1
  B  B31  1  0.599151  0.744864  0.325044  1
  B  B32  1  0.750663  0.955033  0.143941  1
  B  B33  1  0.495863  0.998950  0.745535  1
  B  B34  1  0.750663  0.544967  0.643941  1
  B  B35  1  0.003120  0.999633  0.743809  1
  B  B36  1  0.504137  0.498950  0.745535  1
  B  B37  1  0.249993  0.405568  0.673726  1
  B  B38  1  0.400849  0.244864  0.325044  1
  B  B39  1  0.599151  0.755136  0.825044  1
  Br  Br40  1  0.749403  0.239021  0.489597  1
  Br  Br41  1  0.250597  0.760979  0.989597  1
  Br  Br42  1  0.749403  0.260979  0.989597  1
  Br  Br43  1  0.250597  0.739021  0.489597  1
  O  O44  1  0.158387  0.530135  0.719570  1
  O  O45  1  0.056178  0.094476  0.834484  1
  O  O46  1  0.976194  0.161842  0.270090  1
  O  O47  1  0.536214  0.591371  0.340767  1
  O  O48  1  0.487623  0.662107  0.767627  1
  O  O49  1  0.875131  0.821315  0.931108  1
  O  O50  1  0.406251  0.454949  0.655161  1
  O  O51  1  0.976194  0.338158  0.770090  1
  O  O52  1  0.332837  0.538343  0.217354  1
  O  O53  1  0.676934  0.882700  0.060300  1
  O  O54  1  0.463786  0.408629  0.840767  1
  O  O55  1  0.023806  0.661842  0.270090  1
  O  O56  1  0.124869  0.178685  0.431108  1
  O  O57  1  0.092595  0.034805  0.643636  1
  O  O58  1  0.907405  0.534805  0.643636  1
  O  O59  1  0.362669  0.314018  0.428415  1
  O  O60  1  0.593749  0.954949  0.655161  1
  O  O61  1  0.158387  0.969865  0.219570  1
  O  O62  1  0.512377  0.162107  0.767627  1
  O  O63  1  0.182570  0.357441  0.571382  1
  O  O64  1  0.667163  0.461657  0.717354  1
  O  O65  1  0.512377  0.337893  0.267627  1
  O  O66  1  0.406251  0.045051  0.155161  1
  O  O67  1  0.023806  0.838158  0.770090  1
  O  O68  1  0.841613  0.469865  0.219570  1
  O  O69  1  0.463786  0.091371  0.340767  1
  O  O70  1  0.536214  0.908629  0.840767  1
  O  O71  1  0.907405  0.965195  0.143636  1
  O  O72  1  0.332837  0.961657  0.717354  1
  O  O73  1  0.092595  0.465195  0.143636  1
  O  O74  1  0.875131  0.678685  0.431108  1
  O  O75  1  0.750178  0.773327  0.757999  1
  O  O76  1  0.817430  0.857441  0.571382  1
  O  O77  1  0.817430  0.642559  0.071382  1
  O  O78  1  0.182570  0.142559  0.071382  1
  O  O79  1  0.637331  0.814018  0.428415  1
  O  O80  1  0.667163  0.038343  0.217354  1
  O  O81  1  0.056178  0.405524  0.334484  1
  O  O82  1  0.943822  0.594476  0.834484  1
  O  O83  1  0.124869  0.321315  0.931108  1
  O  O84  1  0.750178  0.726673  0.257999  1
  O  O85  1  0.676934  0.617300  0.560300  1
  O  O86  1  0.249822  0.226673  0.257999  1
  O  O87  1  0.323066  0.117300  0.560300  1
  O  O88  1  0.593749  0.545051  0.155161  1
  O  O89  1  0.249822  0.273327  0.757999  1
  O  O90  1  0.323066  0.382700  0.060300  1
  O  O91  1  0.362669  0.185982  0.928415  1
  O  O92  1  0.841613  0.030135  0.719570  1
  O  O93  1  0.637331  0.685982  0.928415  1
  O  O94  1  0.943822  0.905524  0.334484  1
  O  O95  1  0.487623  0.837893  0.267627  1
