# generated using pymatgen
data_H8C3N2O
_symmetry_space_group_name_H-M   'P 1'
_cell_length_a   6.11167794
_cell_length_b   8.81598273
_cell_length_c   9.44885404
_cell_angle_alpha   109.54615998
_cell_angle_beta   90.00000000
_cell_angle_gamma   90.00000000
_symmetry_Int_Tables_number   1
_chemical_formula_structural   H8C3N2O
_chemical_formula_sum   'H32 C12 N8 O4'
_cell_volume   479.76970809
_cell_formula_units_Z   4
loop_
 _symmetry_equiv_pos_site_id
 _symmetry_equiv_pos_as_xyz
  1  'x, y, z'
loop_
 _atom_site_type_symbol
 _atom_site_label
 _atom_site_symmetry_multiplicity
 _atom_site_fract_x
 _atom_site_fract_y
 _atom_site_fract_z
 _atom_site_occupancy
  H  H0  1  0.751257  0.738311  0.957460  1
  H  H1  1  0.053847  0.453942  0.629787  1
  H  H2  1  0.953278  0.091634  0.621078  1
  H  H3  1  1.000533  0.836466  0.035700  1
  H  H4  1  0.046722  0.908366  0.378922  1
  H  H5  1  0.655957  0.100014  0.160906  1
  H  H6  1  0.553847  0.046058  0.870213  1
  H  H7  1  0.181037  0.558608  0.262082  1
  H  H8  1  0.601332  0.351021  0.363015  1
  H  H9  1  0.101332  0.148979  0.136985  1
  H  H10  1  0.946153  0.546058  0.370213  1
  H  H11  1  0.818963  0.441392  0.737918  1
  H  H12  1  0.546722  0.591634  0.121078  1
  H  H13  1  0.398668  0.648979  0.636985  1
  H  H14  1  -0.000533  0.163534  0.964300  1
  H  H15  1  0.741570  0.638114  0.265147  1
  H  H16  1  0.748743  0.238311  0.457460  1
  H  H17  1  0.258430  0.361886  0.734853  1
  H  H18  1  0.446153  0.953942  0.129787  1
  H  H19  1  0.251257  0.761689  0.542540  1
  H  H20  1  0.318963  0.058608  0.762082  1
  H  H21  1  0.453278  0.408366  0.878922  1
  H  H22  1  0.155957  0.399986  0.339094  1
  H  H23  1  0.681037  0.941392  0.237918  1
  H  H24  1  0.499467  0.336466  0.535700  1
  H  H25  1  0.344043  0.899986  0.839094  1
  H  H26  1  0.758430  0.138114  0.765147  1
  H  H27  1  0.241570  0.861886  0.234853  1
  H  H28  1  0.248743  0.261689  0.042540  1
  H  H29  1  0.844043  0.600014  0.660906  1
  H  H30  1  0.898668  0.851021  0.863015  1
  H  H31  1  0.500533  0.663534  0.464300  1
  C  C32  1  0.583820  0.271673  0.430967  1
  C  C33  1  0.065069  0.475482  0.287518  1
  C  C34  1  0.721786  0.915920  0.590265  1
  C  C35  1  0.434931  0.975482  0.787518  1
  C  C36  1  0.934931  0.524518  0.712482  1
  C  C37  1  0.778214  0.415920  0.090265  1
  C  C38  1  0.916180  0.771673  0.930967  1
  C  C39  1  0.221786  0.584080  0.909735  1
  C  C40  1  0.565069  0.024518  0.212482  1
  C  C41  1  0.083820  0.228327  0.069033  1
  C  C42  1  0.278214  0.084080  0.409735  1
  C  C43  1  0.416180  0.728327  0.569033  1
  N  N44  1  0.040442  0.629096  0.848072  1
  N  N45  1  0.540442  0.870904  0.651928  1
  N  N46  1  0.821118  0.056825  0.669967  1
  N  N47  1  0.321118  0.443175  0.830033  1
  N  N48  1  0.459558  0.129096  0.348072  1
  N  N49  1  0.178882  0.943175  0.330033  1
  N  N50  1  0.678882  0.556825  0.169967  1
  N  N51  1  0.959558  0.370904  0.151928  1
  O  O52  1  0.199541  0.172084  0.534412  1
  O  O53  1  0.699541  0.327916  0.965588  1
  O  O54  1  0.300459  0.672084  0.034412  1
  O  O55  1  0.800459  0.827916  0.465588  1
