# generated using pymatgen
data_Na13Ca7S12(O16F)3
_symmetry_space_group_name_H-M   'P 1'
_cell_length_a   9.52499836
_cell_length_b   19.07702462
_cell_length_c   6.96804538
_cell_angle_alpha   90.00000000
_cell_angle_beta   90.00000000
_cell_angle_gamma   119.88193934
_symmetry_Int_Tables_number   1
_chemical_formula_structural   Na13Ca7S12(O16F)3
_chemical_formula_sum   'Na13 Ca7 S12 O48 F3'
_cell_volume   1097.82365745
_cell_formula_units_Z   1
loop_
 _symmetry_equiv_pos_site_id
 _symmetry_equiv_pos_as_xyz
  1  'x, y, z'
loop_
 _atom_site_type_symbol
 _atom_site_label
 _atom_site_symmetry_multiplicity
 _atom_site_fract_x
 _atom_site_fract_y
 _atom_site_fract_z
 _atom_site_occupancy
  Ca  Ca0  1  0.005893  0.625327  0.250000  1
  Ca  Ca1  1  0.234628  0.496461  0.250000  1
  Ca  Ca2  1  0.994024  0.875312  0.750000  1
  Ca  Ca3  1  0.246968  0.120935  0.750000  1
  Ca  Ca4  1  0.756987  0.501712  0.750000  1
  Ca  Ca5  1  0.993044  0.378121  0.750000  1
  Ca  Ca6  1  0.759102  0.002603  0.750000  1
  F  F7  1  0.001482  -0.000036  0.750000  1
  F  F8  1  0.010638  0.508591  0.250000  1
  F  F9  1  0.984369  0.493650  0.750000  1
  Na  Na10  1  0.280510  0.994445  0.250000  1
  Na  Na11  1  0.335662  0.832083  0.007454  1
  Na  Na12  1  0.335662  0.832083  0.492546  1
  Na  Na13  1  0.248160  0.621294  0.750000  1
  Na  Na14  1  0.722679  0.866402  0.250000  1
  Na  Na15  1  0.012875  0.141074  0.250000  1
  Na  Na16  1  0.661642  0.668369  0.502584  1
  Na  Na17  1  0.335784  0.331408  0.009099  1
  Na  Na18  1  0.661642  0.668369  0.997416  1
  Na  Na19  1  0.335784  0.331408  0.490901  1
  Na  Na20  1  0.746645  0.377281  0.250000  1
  Na  Na21  1  0.668796  0.168550  0.496433  1
  Na  Na22  1  0.668796  0.168550  0.003567  1
  O  O23  1  0.256649  0.958449  0.578757  1
  O  O24  1  0.256649  0.958449  0.921243  1
  O  O25  1  0.156056  0.839417  0.250000  1
  O  O26  1  0.099869  0.784791  0.750000  1
  O  O27  1  0.073998  0.668211  0.577111  1
  O  O28  1  0.073998  0.668211  0.922889  1
  O  O29  1  0.472382  0.951221  0.750000  1
  O  O30  1  0.309335  0.729577  0.250000  1
  O  O31  1  0.529121  0.924070  0.250000  1
  O  O32  1  0.430922  0.767837  0.750000  1
  O  O33  1  0.335838  0.624946  0.077688  1
  O  O34  1  0.335838  0.624946  0.422312  1
  O  O35  1  0.663856  0.873421  0.578685  1
  O  O36  1  0.663856  0.873421  0.921315  1
  O  O37  1  0.257632  0.459870  0.921189  1
  O  O38  1  0.257632  0.459870  0.578811  1
  O  O39  1  0.156996  0.344446  0.250000  1
  O  O40  1  0.097350  0.285195  0.750000  1
  O  O41  1  0.567489  0.729575  0.250000  1
  O  O42  1  0.474870  0.575839  0.750000  1
  O  O43  1  0.083321  0.170352  0.578893  1
  O  O44  1  0.083321  0.170352  0.921107  1
  O  O45  1  0.690584  0.768826  0.750000  1
  O  O46  1  0.531715  0.552898  0.250000  1
  O  O47  1  0.464355  0.445155  0.750000  1
  O  O48  1  0.316812  0.235056  0.250000  1
  O  O49  1  0.927676  0.835810  0.077884  1
  O  O50  1  0.927676  0.835810  0.422116  1
  O  O51  1  0.527639  0.423802  0.250000  1
  O  O52  1  0.427172  0.262862  0.750000  1
  O  O53  1  0.890614  0.716404  0.250000  1
  O  O54  1  0.840651  0.656550  0.750000  1
  O  O55  1  0.741575  0.540774  0.078474  1
  O  O56  1  0.741575  0.540774  0.421526  1
  O  O57  1  0.321814  0.124332  0.077909  1
  O  O58  1  0.321814  0.124332  0.422091  1
  O  O59  1  0.654678  0.370905  0.578115  1
  O  O60  1  0.654678  0.370905  0.921885  1
  O  O61  1  0.561693  0.223862  0.250000  1
  O  O62  1  0.463437  0.077548  0.750000  1
  O  O63  1  0.690410  0.268734  0.750000  1
  O  O64  1  0.561514  0.059463  0.250000  1
  O  O65  1  0.928380  0.337987  0.077181  1
  O  O66  1  0.928380  0.337987  0.422819  1
  O  O67  1  0.891766  0.219261  0.250000  1
  O  O68  1  0.844466  0.154555  0.750000  1
  O  O69  1  0.755428  0.034948  0.078034  1
  O  O70  1  0.755428  0.034948  0.421966  1
  S  S71  1  0.020543  0.694659  0.750000  1
  S  S72  1  0.365204  0.987433  0.750000  1
  S  S73  1  0.388537  0.678827  0.250000  1
  S  S74  1  0.609355  0.818596  0.750000  1
  S  S75  1  0.025049  0.195693  0.750000  1
  S  S76  1  0.368137  0.487514  0.750000  1
  S  S77  1  0.630924  0.512376  0.250000  1
  S  S78  1  0.978780  0.807174  0.250000  1
  S  S79  1  0.381568  0.178655  0.250000  1
  S  S80  1  0.606619  0.317232  0.750000  1
  S  S81  1  0.647358  0.012101  0.250000  1
  S  S82  1  0.977249  0.308790  0.250000  1
