# generated using pymatgen
data_Mo17O47
_symmetry_space_group_name_H-M   'P 1'
_cell_length_a   3.92928878
_cell_length_b   20.36455423
_cell_length_c   22.31317526
_cell_angle_alpha   90.00000000
_cell_angle_beta   90.00000000
_cell_angle_gamma   90.00000000
_symmetry_Int_Tables_number   1
_chemical_formula_structural   Mo17O47
_chemical_formula_sum   'Mo34 O94'
_cell_volume   1785.46044292
_cell_formula_units_Z   2
loop_
 _symmetry_equiv_pos_site_id
 _symmetry_equiv_pos_as_xyz
  1  'x, y, z'
loop_
 _atom_site_type_symbol
 _atom_site_label
 _atom_site_symmetry_multiplicity
 _atom_site_fract_x
 _atom_site_fract_y
 _atom_site_fract_z
 _atom_site_occupancy
  Mo  Mo0  1  0.435193  0.437097  0.960780  1
  Mo  Mo1  1  0.435193  0.562903  0.039220  1
  Mo  Mo2  1  0.435193  0.062903  0.460780  1
  Mo  Mo3  1  0.435193  0.937097  0.539220  1
  Mo  Mo4  1  0.563711  0.133924  0.886173  1
  Mo  Mo5  1  0.563711  0.866076  0.113827  1
  Mo  Mo6  1  0.563711  0.366076  0.386173  1
  Mo  Mo7  1  0.563711  0.633924  0.613827  1
  Mo  Mo8  1  0.564462  0.303151  0.879435  1
  Mo  Mo9  1  0.564462  0.696849  0.120565  1
  Mo  Mo10  1  0.564462  0.196849  0.379435  1
  Mo  Mo11  1  0.564462  0.803151  0.620565  1
  Mo  Mo12  1  0.444523  0.432925  0.786701  1
  Mo  Mo13  1  0.444523  0.567075  0.213299  1
  Mo  Mo14  1  0.444523  0.067075  0.286701  1
  Mo  Mo15  1  0.444523  0.932925  0.713299  1
  Mo  Mo16  1  0.445714  0.239727  0.740051  1
  Mo  Mo17  1  0.445714  0.760273  0.259949  1
  Mo  Mo18  1  0.445714  0.260273  0.240051  1
  Mo  Mo19  1  0.445714  0.739727  0.759949  1
  Mo  Mo20  1  0.509242  0.096668  0.631282  1
  Mo  Mo21  1  0.509242  0.903332  0.368718  1
  Mo  Mo22  1  0.509242  0.403332  0.131282  1
  Mo  Mo23  1  0.509242  0.596668  0.868718  1
  Mo  Mo24  1  0.554886  0.381123  0.628715  1
  Mo  Mo25  1  0.554886  0.618877  0.371285  1
  Mo  Mo26  1  0.554886  0.118877  0.128715  1
  Mo  Mo27  1  0.554886  0.881123  0.871285  1
  Mo  Mo28  1  0.442016  0.240895  0.522887  1
  Mo  Mo29  1  0.442016  0.759105  0.477113  1
  Mo  Mo30  1  0.442016  0.259105  0.022887  1
  Mo  Mo31  1  0.442016  0.740895  0.977113  1
  Mo  Mo32  1  0.440820  0.500000  0.500000  1
  Mo  Mo33  1  0.440820  0.000000  0.000000  1
  O  O34  1  0.984601  0.438185  0.961265  1
  O  O35  1  0.984601  0.561815  0.038735  1
  O  O36  1  0.984601  0.061815  0.461265  1
  O  O37  1  0.984601  0.938185  0.538735  1
  O  O38  1  0.017301  0.145022  0.890526  1
  O  O39  1  0.017301  0.854978  0.109474  1
  O  O40  1  0.017301  0.354978  0.390526  1
  O  O41  1  0.017301  0.645022  0.609474  1
  O  O42  1  0.011440  0.305269  0.880811  1
  O  O43  1  0.011440  0.694731  0.119189  1
  O  O44  1  0.011440  0.194731  0.380811  1
  O  O45  1  0.011440  0.805269  0.619189  1
  O  O46  1  0.992742  0.426935  0.789778  1
  O  O47  1  0.992742  0.573065  0.210222  1
  O  O48  1  0.992742  0.073065  0.289778  1
  O  O49  1  0.992742  0.926935  0.710222  1
  O  O50  1  0.994781  0.241647  0.747006  1
  O  O51  1  0.994781  0.758353  0.252994  1
  O  O52  1  0.994781  0.258353  0.247006  1
  O  O53  1  0.994781  0.741647  0.752994  1
  O  O54  1  0.000019  0.095525  0.630604  1
  O  O55  1  0.000019  0.904475  0.369396  1
  O  O56  1  0.000019  0.404475  0.130604  1
  O  O57  1  0.000019  0.595525  0.869396  1
  O  O58  1  0.014256  0.379088  0.631584  1
  O  O59  1  0.014256  0.620912  0.368416  1
  O  O60  1  0.014256  0.120912  0.131584  1
  O  O61  1  0.014256  0.879088  0.868416  1
  O  O62  1  0.504904  0.082354  0.954872  1
  O  O63  1  0.504904  0.917646  0.045128  1
  O  O64  1  0.504904  0.417646  0.454872  1
  O  O65  1  0.504948  0.271573  0.436526  1
  O  O66  1  0.504904  0.582354  0.545128  1
  O  O67  1  0.504948  0.771573  0.063474  1
  O  O68  1  0.994569  0.000000  0.000000  1
  O  O69  1  0.994569  0.500000  0.500000  1
  O  O70  1  0.502135  0.954089  0.926611  1
  O  O71  1  0.502135  0.045911  0.073389  1
  O  O72  1  0.502135  0.545911  0.426611  1
  O  O73  1  0.502135  0.454089  0.573389  1
  O  O74  1  0.503289  0.820214  0.942124  1
  O  O75  1  0.503289  0.179786  0.057876  1
  O  O76  1  0.503289  0.679786  0.442124  1
  O  O77  1  0.503289  0.320214  0.557876  1
  O  O78  1  0.493373  0.680633  0.917474  1
  O  O79  1  0.493373  0.319367  0.082526  1
  O  O80  1  0.493373  0.819367  0.417474  1
  O  O81  1  0.493373  0.180633  0.582526  1
  O  O82  1  0.494261  0.537042  0.949898  1
  O  O83  1  0.494261  0.462958  0.050102  1
  O  O84  1  0.494261  0.962958  0.449898  1
  O  O85  1  0.494261  0.037042  0.550102  1
  O  O86  1  0.505233  0.933248  0.794128  1
  O  O87  1  0.505233  0.066752  0.205872  1
  O  O88  1  0.505233  0.566752  0.294128  1
  O  O89  1  0.505233  0.433248  0.705872  1
  O  O90  1  0.498624  0.796050  0.821799  1
  O  O91  1  0.498624  0.203950  0.178201  1
  O  O92  1  0.498624  0.703950  0.321799  1
  O  O93  1  0.498624  0.296050  0.678201  1
  O  O94  1  0.495207  0.659778  0.794799  1
  O  O95  1  0.495207  0.340222  0.205201  1
  O  O96  1  0.495207  0.840222  0.294799  1
  O  O97  1  0.495207  0.159778  0.705201  1
  O  O98  1  0.494079  0.516942  0.812484  1
  O  O99  1  0.494079  0.483058  0.187516  1
  O  O100  1  0.494079  0.983058  0.312484  1
  O  O101  1  0.494079  0.016942  0.687516  1
  O  O102  1  0.499073  0.829843  0.705600  1
  O  O103  1  0.499073  0.170157  0.294400  1
  O  O104  1  0.499073  0.670157  0.205600  1
  O  O105  1  0.499073  0.329843  0.794400  1
  O  O106  1  0.511478  0.719161  0.669923  1
  O  O107  1  0.511478  0.280839  0.330077  1
  O  O108  1  0.511478  0.780839  0.169923  1
  O  O109  1  0.511478  0.219161  0.830077  1
  O  O110  1  0.990809  0.739565  0.981837  1
  O  O111  1  0.990809  0.260435  0.018163  1
  O  O112  1  0.990809  0.760435  0.481837  1
  O  O113  1  0.990809  0.239565  0.518163  1
  O  O114  1  0.523797  0.580667  0.672689  1
  O  O115  1  0.523797  0.419333  0.327311  1
  O  O116  1  0.523797  0.919333  0.172689  1
  O  O117  1  0.523797  0.080667  0.827311  1
  O  O118  1  0.505012  0.904451  0.623626  1
  O  O119  1  0.505012  0.095549  0.376374  1
  O  O120  1  0.505012  0.595549  0.123626  1
  O  O121  1  0.505012  0.404451  0.876374  1
  O  O122  1  0.505699  0.840127  0.535039  1
  O  O123  1  0.505699  0.159873  0.464961  1
  O  O124  1  0.505699  0.659873  0.035039  1
  O  O125  1  0.505699  0.340127  0.964961  1
  O  O126  1  0.504948  0.728427  0.563474  1
  O  O127  1  0.504948  0.228427  0.936526  1
