# generated using pymatgen
data_BaLiAlF6
_symmetry_space_group_name_H-M   'P 1'
_cell_length_a   5.42481327
_cell_length_b   8.64929233
_cell_length_c   10.32096405
_cell_angle_alpha   90.00000000
_cell_angle_beta   90.00000000
_cell_angle_gamma   90.34807586
_symmetry_Int_Tables_number   1
_chemical_formula_structural   BaLiAlF6
_chemical_formula_sum   'Ba4 Li4 Al4 F24'
_cell_volume   484.25891055
_cell_formula_units_Z   4
loop_
 _symmetry_equiv_pos_site_id
 _symmetry_equiv_pos_as_xyz
  1  'x, y, z'
loop_
 _atom_site_type_symbol
 _atom_site_label
 _atom_site_symmetry_multiplicity
 _atom_site_fract_x
 _atom_site_fract_y
 _atom_site_fract_z
 _atom_site_occupancy
  Al  Al0  1  0.238105  0.768664  0.911523  1
  Al  Al1  1  0.761895  0.731336  0.411523  1
  Al  Al2  1  0.761895  0.231336  0.088477  1
  Al  Al3  1  0.238105  0.268664  0.588477  1
  F  F4  1  0.388164  0.740383  0.751039  1
  F  F5  1  0.611836  0.759617  0.251039  1
  F  F6  1  0.611836  0.259617  0.248961  1
  F  F7  1  0.388164  0.240383  0.748961  1
  F  F8  1  0.330841  0.967990  0.897684  1
  F  F9  1  0.669159  0.532010  0.397684  1
  F  F10  1  0.669159  0.032010  0.102316  1
  F  F11  1  0.330841  0.467990  0.602316  1
  F  F12  1  0.110069  0.793212  0.075628  1
  F  F13  1  0.889931  0.706788  0.575628  1
  F  F14  1  0.889931  0.206788  0.924372  1
  F  F15  1  0.110069  0.293212  0.424372  1
  F  F16  1  0.169907  0.559307  0.910692  1
  F  F17  1  0.830093  0.940693  0.410692  1
  F  F18  1  0.830093  0.440693  0.089308  1
  F  F19  1  0.169907  0.059307  0.589308  1
  F  F20  1  0.938282  0.802488  0.841796  1
  F  F21  1  0.061718  0.697512  0.341796  1
  F  F22  1  0.061718  0.197512  0.158204  1
  F  F23  1  0.938282  0.302488  0.658204  1
  F  F24  1  0.528808  0.709309  0.989744  1
  F  F25  1  0.471192  0.790691  0.489744  1
  F  F26  1  0.471192  0.290691  0.010256  1
  F  F27  1  0.528808  0.209309  0.510256  1
  Li  Li28  1  0.238870  0.675092  0.585832  1
  Li  Li29  1  0.761130  0.824908  0.085832  1
  Li  Li30  1  0.761130  0.324908  0.414168  1
  Li  Li31  1  0.238870  0.175092  0.914168  1
  Ba  Ba32  1  0.702967  0.995547  0.686861  1
  Ba  Ba33  1  0.297033  0.504453  0.186861  1
  Ba  Ba34  1  0.297033  0.004453  0.313139  1
  Ba  Ba35  1  0.702967  0.495547  0.813139  1
