# generated using pymatgen
data_Yb(ClO4)3
_symmetry_space_group_name_H-M   'P 1'
_cell_length_a   9.58253763
_cell_length_b   9.58253753
_cell_length_c   9.58253721
_cell_angle_alpha   51.98284367
_cell_angle_beta   51.98284416
_cell_angle_gamma   51.98284382
_symmetry_Int_Tables_number   1
_chemical_formula_structural   Yb(ClO4)3
_chemical_formula_sum   'Yb2 Cl6 O24'
_cell_volume   504.91230168
_cell_formula_units_Z   2
loop_
 _symmetry_equiv_pos_site_id
 _symmetry_equiv_pos_as_xyz
  1  'x, y, z'
loop_
 _atom_site_type_symbol
 _atom_site_label
 _atom_site_symmetry_multiplicity
 _atom_site_fract_x
 _atom_site_fract_y
 _atom_site_fract_z
 _atom_site_occupancy
  Yb  Yb0  1  0.059752  0.059752  0.059752  1
  Yb  Yb1  1  0.559752  0.559752  0.559752  1
  Cl  Cl2  1  0.340124  0.967120  0.692142  1
  Cl  Cl3  1  0.692142  0.340124  0.967120  1
  Cl  Cl4  1  0.967120  0.692142  0.340124  1
  Cl  Cl5  1  0.840124  0.192142  0.467120  1
  Cl  Cl6  1  0.467120  0.840124  0.192142  1
  Cl  Cl7  1  0.192142  0.467120  0.840124  1
  O  O8  1  0.250414  0.577709  0.632796  1
  O  O9  1  0.881342  0.200574  0.288061  1
  O  O10  1  0.919687  0.836089  0.393529  1
  O  O11  1  0.132796  0.077709  0.750414  1
  O  O12  1  0.288061  0.881342  0.200574  1
  O  O13  1  0.632796  0.250414  0.577709  1
  O  O14  1  0.077709  0.750414  0.132796  1
  O  O15  1  0.004596  0.573950  0.944415  1
  O  O16  1  0.577709  0.632796  0.250414  1
  O  O17  1  0.381342  0.788061  0.700574  1
  O  O18  1  0.893529  0.336089  0.419687  1
  O  O19  1  0.700574  0.381342  0.788061  1
  O  O20  1  0.444415  0.073950  0.504596  1
  O  O21  1  0.393529  0.919687  0.836089  1
  O  O22  1  0.573950  0.944415  0.004596  1
  O  O23  1  0.336089  0.419687  0.893529  1
  O  O24  1  0.073950  0.504596  0.444415  1
  O  O25  1  0.788061  0.700574  0.381342  1
  O  O26  1  0.504596  0.444415  0.073950  1
  O  O27  1  0.836089  0.393529  0.919687  1
  O  O28  1  0.419687  0.893529  0.336089  1
  O  O29  1  0.944415  0.004596  0.573950  1
  O  O30  1  0.200574  0.288061  0.881342  1
  O  O31  1  0.750414  0.132796  0.077709  1
