# generated using pymatgen
data_K4Na2(Si2O5)3
_symmetry_space_group_name_H-M   'P 1'
_cell_length_a   7.40545495
_cell_length_b   10.70262822
_cell_length_c   12.63483601
_cell_angle_alpha   66.33901614
_cell_angle_beta   72.95667672
_cell_angle_gamma   69.76114668
_symmetry_Int_Tables_number   1
_chemical_formula_structural   K4Na2(Si2O5)3
_chemical_formula_sum   'K8 Na4 Si12 O30'
_cell_volume   846.61801722
_cell_formula_units_Z   2
loop_
 _symmetry_equiv_pos_site_id
 _symmetry_equiv_pos_as_xyz
  1  'x, y, z'
loop_
 _atom_site_type_symbol
 _atom_site_label
 _atom_site_symmetry_multiplicity
 _atom_site_fract_x
 _atom_site_fract_y
 _atom_site_fract_z
 _atom_site_occupancy
  Si  Si0  1  0.454119  0.300616  0.002759  1
  Si  Si1  1  0.757471  0.199423  0.497218  1
  Si  Si2  1  0.545881  0.699384  0.997241  1
  Si  Si3  1  0.242529  0.800577  0.502782  1
  Si  Si4  1  0.187370  0.247870  0.885982  1
  Si  Si5  1  0.321206  0.252146  0.613982  1
  Si  Si6  1  0.812630  0.752130  0.114018  1
  Si  Si7  1  0.678794  0.747854  0.386018  1
  Si  Si8  1  0.223636  0.536048  0.115028  1
  Si  Si9  1  0.874688  0.963966  0.385000  1
  Si  Si10  1  0.776364  0.463952  0.884972  1
  Si  Si11  1  0.125312  0.036034  0.615000  1
  O  O12  1  0.468959  0.167509  0.119334  1
  O  O13  1  0.755811  0.332535  0.380662  1
  O  O14  1  0.531041  0.832491  0.880666  1
  O  O15  1  0.244189  0.667465  0.619338  1
  O  O16  1  0.301526  0.451496  0.017488  1
  O  O17  1  0.770416  0.048551  0.482499  1
  O  O18  1  0.698474  0.548504  0.982512  1
  O  O19  1  0.229584  0.951449  0.517501  1
  O  O20  1  0.673536  0.330413  0.938896  1
  O  O21  1  0.942882  0.169542  0.561058  1
  O  O22  1  0.326464  0.669587  0.061104  1
  O  O23  1  0.057118  0.830458  0.438942  1
  O  O24  1  0.386137  0.279979  0.896628  1
  O  O25  1  0.562724  0.220067  0.603336  1
  O  O26  1  0.613863  0.720021  0.103372  1
  O  O27  1  0.437276  0.779933  0.396664  1
  O  O28  1  0.141546  0.104882  0.979011  1
  O  O29  1  0.225445  0.395096  0.520958  1
  O  O30  1  0.858454  0.895118  0.020989  1
  O  O31  1  0.774555  0.604904  0.479042  1
  O  O32  1  0.009868  0.389768  0.899213  1
  O  O33  1  0.298856  0.110232  0.600769  1
  O  O34  1  0.990132  0.610232  0.100787  1
  O  O35  1  0.701144  0.889768  0.399231  1
  O  O36  1  0.229939  0.250032  0.749980  1
  O  O37  1  0.770061  0.749968  0.250020  1
  O  O38  1  0.247252  0.437709  0.245761  1
  O  O39  1  0.930675  0.062307  0.254251  1
  O  O40  1  0.752748  0.562291  0.754239  1
  O  O41  1  0.069325  0.937693  0.745749  1
  K  K42  1  0.312027  0.958927  0.165904  1
  K  K43  1  0.436878  0.541045  0.334115  1
  K  K44  1  0.687973  0.041073  0.834096  1
  K  K45  1  0.563122  0.458955  0.665885  1
  K  K46  1  0.424773  0.166675  0.334745  1
  K  K47  1  0.926083  0.333437  0.165211  1
  K  K48  1  0.575227  0.833325  0.665255  1
  K  K49  1  0.073917  0.666563  0.834789  1
  Na  Na50  1  0.830346  0.070309  0.092437  1
  Na  Na51  1  0.993131  0.429671  0.407602  1
  Na  Na52  1  0.169654  0.929691  0.907563  1
  Na  Na53  1  0.006869  0.570329  0.592398  1
