# generated using pymatgen
data_Li2MoF6
_symmetry_space_group_name_H-M   'P 1'
_cell_length_a   4.77241457
_cell_length_b   4.77241457
_cell_length_c   9.42551826
_cell_angle_alpha   90.00000000
_cell_angle_beta   90.00000000
_cell_angle_gamma   90.00000000
_symmetry_Int_Tables_number   1
_chemical_formula_structural   Li2MoF6
_chemical_formula_sum   'Li4 Mo2 F12'
_cell_volume   214.67504616
_cell_formula_units_Z   2
loop_
 _symmetry_equiv_pos_site_id
 _symmetry_equiv_pos_as_xyz
  1  'x, y, z'
loop_
 _atom_site_type_symbol
 _atom_site_label
 _atom_site_symmetry_multiplicity
 _atom_site_fract_x
 _atom_site_fract_y
 _atom_site_fract_z
 _atom_site_occupancy
  Li  Li0  1  0.000000  0.000000  0.335597  1
  Li  Li1  1  0.000000  0.000000  0.664403  1
  Li  Li2  1  0.500000  0.500000  0.164403  1
  Li  Li3  1  0.500000  0.500000  0.835597  1
  F  F4  1  0.704937  0.704937  0.000000  1
  F  F5  1  0.795063  0.204937  0.500000  1
  F  F6  1  0.305236  0.305236  0.338092  1
  F  F7  1  0.194764  0.805236  0.838092  1
  F  F8  1  0.805236  0.194764  0.838092  1
  F  F9  1  0.805236  0.194764  0.161908  1
  F  F10  1  0.194764  0.805236  0.161908  1
  F  F11  1  0.694764  0.694764  0.338092  1
  F  F12  1  0.305236  0.305236  0.661908  1
  F  F13  1  0.694764  0.694764  0.661908  1
  F  F14  1  0.295063  0.295063  0.000000  1
  F  F15  1  0.204937  0.795063  0.500000  1
  Mo  Mo16  1  0.500000  0.500000  0.500000  1
  Mo  Mo17  1  0.000000  0.000000  0.000000  1
