# generated using pymatgen
data_Ag2BrNO3
_symmetry_space_group_name_H-M   'P 1'
_cell_length_a   5.15686005
_cell_length_b   6.90573147
_cell_length_c   13.26076123
_cell_angle_alpha   90.00000000
_cell_angle_beta   90.00000000
_cell_angle_gamma   90.00000000
_symmetry_Int_Tables_number   1
_chemical_formula_structural   Ag2BrNO3
_chemical_formula_sum   'Ag8 Br4 N4 O12'
_cell_volume   472.24077997
_cell_formula_units_Z   4
loop_
 _symmetry_equiv_pos_site_id
 _symmetry_equiv_pos_as_xyz
  1  'x, y, z'
loop_
 _atom_site_type_symbol
 _atom_site_label
 _atom_site_symmetry_multiplicity
 _atom_site_fract_x
 _atom_site_fract_y
 _atom_site_fract_z
 _atom_site_occupancy
  Ag  Ag0  1  0.250000  0.854106  0.745321  1
  Ag  Ag1  1  0.250000  0.247859  0.031246  1
  Ag  Ag2  1  0.750000  0.252141  0.531246  1
  Ag  Ag3  1  0.750000  0.752141  0.968754  1
  Ag  Ag4  1  0.750000  0.645894  0.245321  1
  Ag  Ag5  1  0.750000  0.145894  0.254679  1
  Ag  Ag6  1  0.250000  0.747859  0.468754  1
  Ag  Ag7  1  0.250000  0.354106  0.754679  1
  Br  Br8  1  0.750000  0.388006  0.091759  1
  Br  Br9  1  0.250000  0.111994  0.591759  1
  Br  Br10  1  0.750000  0.888006  0.408241  1
  Br  Br11  1  0.250000  0.611994  0.908241  1
  N  N12  1  0.250000  0.356322  0.352304  1
  N  N13  1  0.250000  0.856322  0.147696  1
  N  N14  1  0.750000  0.643678  0.647696  1
  N  N15  1  0.750000  0.143678  0.852304  1
  O  O16  1  0.250000  0.713230  0.207366  1
  O  O17  1  0.463049  0.929668  0.117582  1
  O  O18  1  0.750000  0.286770  0.792634  1
  O  O19  1  0.036951  0.929668  0.117582  1
  O  O20  1  0.463049  0.429668  0.382418  1
  O  O21  1  0.036951  0.429668  0.382418  1
  O  O22  1  0.250000  0.213230  0.292634  1
  O  O23  1  0.750000  0.786770  0.707366  1
  O  O24  1  0.963049  0.570332  0.617582  1
  O  O25  1  0.536951  0.070332  0.882418  1
  O  O26  1  0.536951  0.570332  0.617582  1
  O  O27  1  0.963049  0.070332  0.882418  1
