# generated using pymatgen
data_Na3LuSi2O7
_symmetry_space_group_name_H-M   'P 1'
_cell_length_a   9.42917863
_cell_length_b   9.42917827
_cell_length_c   13.77283332
_cell_angle_alpha   90.00000000
_cell_angle_beta   90.00000000
_cell_angle_gamma   120.00000130
_symmetry_Int_Tables_number   1
_chemical_formula_structural   Na3LuSi2O7
_chemical_formula_sum   'Na18 Lu6 Si12 O42'
_cell_volume   1060.47791246
_cell_formula_units_Z   6
loop_
 _symmetry_equiv_pos_site_id
 _symmetry_equiv_pos_as_xyz
  1  'x, y, z'
loop_
 _atom_site_type_symbol
 _atom_site_label
 _atom_site_symmetry_multiplicity
 _atom_site_fract_x
 _atom_site_fract_y
 _atom_site_fract_z
 _atom_site_occupancy
  Na  Na0  1  0.331843  0.316518  0.909806  1
  Na  Na1  1  0.316518  0.984675  0.409806  1
  Na  Na2  1  0.331843  0.316518  0.590194  1
  Na  Na3  1  0.668157  0.683482  0.090194  1
  Na  Na4  1  0.015325  0.331843  0.409806  1
  Na  Na5  1  0.683482  0.015325  0.909806  1
  Na  Na6  1  0.984675  0.668157  0.909806  1
  Na  Na7  1  0.666667  0.333333  0.750000  1
  Na  Na8  1  0.984675  0.668157  0.590194  1
  Na  Na9  1  0.015325  0.331843  0.090194  1
  Na  Na10  1  0.683482  0.015325  0.590194  1
  Na  Na11  1  0.668157  0.683482  0.409806  1
  Na  Na12  1  0.316518  0.984675  0.090194  1
  Na  Na13  1  0.333333  0.666667  0.250000  1
  Na  Na14  1  0.000000  0.000000  0.000000  1
  Na  Na15  1  0.666667  0.333333  0.250000  1
  Na  Na16  1  0.000000  0.000000  0.500000  1
  Na  Na17  1  0.333333  0.666667  0.750000  1
  Lu  Lu18  1  0.666667  0.333333  0.981610  1
  Lu  Lu19  1  0.000000  0.000000  0.250000  1
  Lu  Lu20  1  0.666667  0.333333  0.518390  1
  Lu  Lu21  1  0.333333  0.666667  0.018390  1
  Lu  Lu22  1  0.333333  0.666667  0.481610  1
  Lu  Lu23  1  0.000000  0.000000  0.750000  1
  Si  Si24  1  0.653036  0.671410  0.640152  1
  Si  Si25  1  0.346964  0.328590  0.140152  1
  Si  Si26  1  0.671410  0.018375  0.359848  1
  Si  Si27  1  0.328590  0.981625  0.859848  1
  Si  Si28  1  0.018375  0.346964  0.640152  1
  Si  Si29  1  0.018375  0.346964  0.859848  1
  Si  Si30  1  0.981625  0.653036  0.359848  1
  Si  Si31  1  0.328590  0.981625  0.640152  1
  Si  Si32  1  0.346964  0.328590  0.359848  1
  Si  Si33  1  0.671410  0.018375  0.140152  1
  Si  Si34  1  0.653036  0.671410  0.859848  1
  Si  Si35  1  0.981625  0.653036  0.140152  1
  O  O36  1  0.172300  0.443949  0.564678  1
  O  O37  1  0.849495  0.804362  0.858431  1
  O  O38  1  0.728351  0.172300  0.064678  1
  O  O39  1  0.443949  0.271649  0.064678  1
  O  O40  1  0.172300  0.443949  0.935322  1
  O  O41  1  0.614115  0.485258  0.618407  1
  O  O42  1  0.271649  0.827700  0.935322  1
  O  O43  1  0.804362  0.954866  0.358431  1
  O  O44  1  0.675218  0.098916  0.250000  1
  O  O45  1  0.485258  0.871143  0.118407  1
  O  O46  1  0.827700  0.556051  0.435322  1
  O  O47  1  0.871143  0.385885  0.618407  1
  O  O48  1  0.556051  0.728351  0.935322  1
  O  O49  1  0.514742  0.128857  0.881593  1
  O  O50  1  0.045134  0.849495  0.141569  1
  O  O51  1  0.576302  0.675218  0.750000  1
  O  O52  1  0.128857  0.614115  0.381593  1
  O  O53  1  0.443949  0.271649  0.435322  1
  O  O54  1  0.485258  0.871143  0.381593  1
  O  O55  1  0.871143  0.385885  0.881593  1
  O  O56  1  0.804362  0.954866  0.141569  1
  O  O57  1  0.728351  0.172300  0.435322  1
  O  O58  1  0.098916  0.423698  0.750000  1
  O  O59  1  0.195638  0.045134  0.858431  1
  O  O60  1  0.901084  0.576302  0.250000  1
  O  O61  1  0.827700  0.556051  0.064678  1
  O  O62  1  0.045134  0.849495  0.358431  1
  O  O63  1  0.514742  0.128857  0.618407  1
  O  O64  1  0.954866  0.150505  0.641569  1
  O  O65  1  0.556051  0.728351  0.564678  1
  O  O66  1  0.423698  0.324782  0.250000  1
  O  O67  1  0.195638  0.045134  0.641569  1
  O  O68  1  0.150505  0.195638  0.358431  1
  O  O69  1  0.385885  0.514742  0.381593  1
  O  O70  1  0.849495  0.804362  0.641569  1
  O  O71  1  0.614115  0.485258  0.881593  1
  O  O72  1  0.385885  0.514742  0.118407  1
  O  O73  1  0.150505  0.195638  0.141569  1
  O  O74  1  0.954866  0.150505  0.858431  1
  O  O75  1  0.324782  0.901084  0.750000  1
  O  O76  1  0.271649  0.827700  0.564678  1
  O  O77  1  0.128857  0.614115  0.118407  1
