# generated using pymatgen
data_AlPO4
_symmetry_space_group_name_H-M   'P 1'
_cell_length_a   9.80533008
_cell_length_b   14.13297215
_cell_length_c   18.27797505
_cell_angle_alpha   90.00000000
_cell_angle_beta   90.00000000
_cell_angle_gamma   90.00000000
_symmetry_Int_Tables_number   1
_chemical_formula_structural   AlPO4
_chemical_formula_sum   'Al24 P24 O96'
_cell_volume   2532.93357846
_cell_formula_units_Z   24
loop_
 _symmetry_equiv_pos_site_id
 _symmetry_equiv_pos_as_xyz
  1  'x, y, z'
loop_
 _atom_site_type_symbol
 _atom_site_label
 _atom_site_symmetry_multiplicity
 _atom_site_fract_x
 _atom_site_fract_y
 _atom_site_fract_z
 _atom_site_occupancy
  O  O0  1  0.676575  0.783358  0.764791  1
  O  O1  1  0.176575  0.216642  0.735209  1
  O  O2  1  0.823425  0.283358  0.235209  1
  O  O3  1  0.323425  0.716642  0.264791  1
  O  O4  1  0.323425  0.216642  0.235209  1
  O  O5  1  0.823425  0.783358  0.264791  1
  O  O6  1  0.176575  0.716642  0.764791  1
  O  O7  1  0.676575  0.283358  0.735209  1
  O  O8  1  0.599637  0.827804  0.637249  1
  O  O9  1  0.099637  0.172196  0.862751  1
  O  O10  1  0.900363  0.327804  0.362751  1
  O  O11  1  0.400363  0.672196  0.137249  1
  O  O12  1  0.400363  0.172196  0.362751  1
  O  O13  1  0.900363  0.827804  0.137249  1
  O  O14  1  0.099637  0.672196  0.637249  1
  O  O15  1  0.599637  0.327804  0.862751  1
  O  O16  1  0.444471  0.739162  0.721800  1
  O  O17  1  0.944471  0.260838  0.778200  1
  O  O18  1  0.055529  0.239162  0.278200  1
  O  O19  1  0.555529  0.760838  0.221800  1
  O  O20  1  0.555529  0.260838  0.278200  1
  O  O21  1  0.055529  0.739162  0.221800  1
  O  O22  1  0.944471  0.760838  0.721800  1
  O  O23  1  0.444471  0.239162  0.778200  1
  O  O24  1  0.648809  0.659413  0.665152  1
  O  O25  1  0.148809  0.340587  0.834848  1
  O  O26  1  0.851191  0.159413  0.334848  1
  O  O27  1  0.351191  0.840587  0.165152  1
  O  O28  1  0.351191  0.340587  0.334848  1
  O  O29  1  0.851191  0.659413  0.165152  1
  O  O30  1  0.148809  0.840587  0.665152  1
  O  O31  1  0.648809  0.159413  0.834848  1
  O  O32  1  0.488901  0.994270  0.809470  1
  O  O33  1  0.988901  0.005730  0.690530  1
  O  O34  1  0.011099  0.494270  0.190530  1
  O  O35  1  0.253638  0.986584  0.756548  1
  O  O36  1  0.511099  0.505730  0.309470  1
  O  O37  1  0.011099  0.994270  0.309470  1
  O  O38  1  0.988901  0.505730  0.809470  1
  O  O39  1  0.488901  0.494270  0.690530  1
  O  O40  1  0.339375  0.855949  0.839585  1
  O  O41  1  0.839375  0.144051  0.660415  1
  O  O42  1  0.160625  0.355949  0.160415  1
  O  O43  1  0.660625  0.644051  0.339585  1
  O  O44  1  0.660625  0.144051  0.160415  1
  O  O45  1  0.160625  0.855949  0.339585  1
  O  O46  1  0.839375  0.644051  0.839585  1
  O  O47  1  0.339375  0.355949  0.660415  1
  O  O48  1  0.883971  0.338793  0.634004  1
  O  O49  1  0.383971  0.661207  0.865996  1
  O  O50  1  0.616029  0.838793  0.365996  1
  O  O51  1  0.116029  0.161207  0.134004  1
  O  O52  1  0.116029  0.661207  0.365996  1
  O  O53  1  0.616029  0.338793  0.134004  1
  O  O54  1  0.383971  0.161207  0.634004  1
  O  O55  1  0.883971  0.838793  0.865996  1
  O  O56  1  0.865947  0.398253  0.506335  1
  O  O57  1  0.365947  0.601747  0.993665  1
  O  O58  1  0.634053  0.898253  0.493665  1
  O  O59  1  0.134053  0.101747  0.006335  1
  O  O60  1  0.134053  0.601747  0.493665  1
  O  O61  1  0.634053  0.398253  0.006335  1
  O  O62  1  0.365947  0.101747  0.506335  1
  O  O63  1  0.865947  0.898253  0.993665  1
  O  O64  1  0.736341  0.481132  0.605060  1
  O  O65  1  0.236341  0.518868  0.894940  1
  O  O66  1  0.763659  0.981132  0.394940  1
  O  O67  1  0.263659  0.018868  0.105060  1
  O  O68  1  0.263659  0.518868  0.394940  1
  O  O69  1  0.763659  0.481132  0.105060  1
  O  O70  1  0.236341  0.018868  0.605060  1
  O  O71  1  0.736341  0.981132  0.894940  1
  O  O72  1  0.993191  0.492031  0.602124  1
  O  O73  1  0.493191  0.507969  0.897876  1
  O  O74  1  0.506809  0.992031  0.397876  1
  O  O75  1  0.006809  0.007969  0.102124  1
  O  O76  1  0.006809  0.507969  0.397876  1
  O  O77  1  0.506809  0.492031  0.102124  1
  O  O78  1  0.493191  0.007969  0.602124  1
  O  O79  1  0.993191  0.992031  0.897876  1
  O  O80  1  0.283834  0.516251  0.609564  1
  O  O81  1  0.783834  0.483749  0.890436  1
  O  O82  1  0.216166  0.016251  0.390436  1
  O  O83  1  0.716166  0.983749  0.109564  1
  O  O84  1  0.716166  0.483749  0.390436  1
  O  O85  1  0.216166  0.516251  0.109564  1
  O  O86  1  0.783834  0.983749  0.609564  1
  O  O87  1  0.283834  0.016251  0.890436  1
  O  O88  1  0.253638  0.486584  0.743452  1
  O  O89  1  0.753638  0.513416  0.756548  1
  O  O90  1  0.246362  0.986584  0.256548  1
  O  O91  1  0.746362  0.013416  0.243452  1
  O  O92  1  0.746362  0.513416  0.256548  1
  O  O93  1  0.246362  0.486584  0.243452  1
  O  O94  1  0.753638  0.013416  0.743452  1
  O  O95  1  0.511099  0.005730  0.190530  1
  Al  Al96  1  0.839231  0.756688  0.799428  1
  Al  Al97  1  0.339231  0.243312  0.700572  1
  Al  Al98  1  0.660769  0.256688  0.200572  1
  Al  Al99  1  0.160769  0.743312  0.299428  1
  Al  Al100  1  0.160769  0.243312  0.200572  1
  Al  Al101  1  0.660769  0.756688  0.299428  1
  Al  Al102  1  0.339231  0.743312  0.799428  1
  Al  Al103  1  0.839231  0.256688  0.700572  1
  Al  Al104  1  0.154543  0.963407  0.678741  1
  Al  Al105  1  0.654543  0.036593  0.821259  1
  Al  Al106  1  0.345457  0.463407  0.321259  1
  Al  Al107  1  0.845457  0.536593  0.178741  1
  Al  Al108  1  0.845457  0.036593  0.321259  1
  Al  Al109  1  0.345457  0.963407  0.178741  1
  Al  Al110  1  0.654543  0.536593  0.678741  1
  Al  Al111  1  0.154543  0.463407  0.821259  1
  Al  Al112  1  0.628150  0.929692  0.585969  1
  Al  Al113  1  0.128150  0.070308  0.914031  1
  Al  Al114  1  0.871850  0.429692  0.414031  1
  Al  Al115  1  0.371850  0.570308  0.085969  1
  Al  Al116  1  0.371850  0.070308  0.414031  1
  Al  Al117  1  0.871850  0.929692  0.085969  1
  Al  Al118  1  0.128150  0.570308  0.585969  1
  Al  Al119  1  0.628150  0.429692  0.914031  1
  P  P120  1  0.593141  0.752592  0.697046  1
  P  P121  1  0.093141  0.247408  0.802954  1
  P  P122  1  0.906859  0.252592  0.302954  1
  P  P123  1  0.406859  0.747408  0.197046  1
  P  P124  1  0.406859  0.247408  0.302954  1
  P  P125  1  0.906859  0.752592  0.197046  1
  P  P126  1  0.093141  0.747408  0.697046  1
  P  P127  1  0.593141  0.252592  0.802954  1
  P  P128  1  0.341682  0.962917  0.823882  1
  P  P129  1  0.841682  0.037083  0.676118  1
  P  P130  1  0.158318  0.462917  0.176118  1
  P  P131  1  0.658318  0.537083  0.323882  1
  P  P132  1  0.658318  0.037083  0.176118  1
  P  P133  1  0.158318  0.962917  0.323882  1
  P  P134  1  0.841682  0.537083  0.823882  1
  P  P135  1  0.341682  0.462917  0.676118  1
  P  P136  1  0.869663  0.928160  0.913057  1
  P  P137  1  0.369663  0.071840  0.586943  1
  P  P138  1  0.630337  0.428160  0.086943  1
  P  P139  1  0.130337  0.571840  0.413057  1
  P  P140  1  0.130337  0.071840  0.086943  1
  P  P141  1  0.630337  0.928160  0.413057  1
  P  P142  1  0.369663  0.571840  0.913057  1
  P  P143  1  0.869663  0.428160  0.586943  1
