# generated using pymatgen
data_Pr9(SbO)5
_symmetry_space_group_name_H-M   'P 1'
_cell_length_a   9.31961670
_cell_length_b   10.34106479
_cell_length_c   10.34106479
_cell_angle_alpha   90.00000000
_cell_angle_beta   90.00000000
_cell_angle_gamma   90.00000000
_symmetry_Int_Tables_number   1
_chemical_formula_structural   Pr9(SbO)5
_chemical_formula_sum   'Pr18 Sb10 O10'
_cell_volume   996.61763845
_cell_formula_units_Z   2
loop_
 _symmetry_equiv_pos_site_id
 _symmetry_equiv_pos_as_xyz
  1  'x, y, z'
loop_
 _atom_site_type_symbol
 _atom_site_label
 _atom_site_symmetry_multiplicity
 _atom_site_fract_x
 _atom_site_fract_y
 _atom_site_fract_z
 _atom_site_occupancy
  Pr  Pr0  1  0.001212  0.668608  0.976626  1
  Pr  Pr1  1  0.001212  0.976626  0.831392  1
  Pr  Pr2  1  0.331743  0.250000  0.250000  1
  Pr  Pr3  1  0.998788  0.331392  0.023374  1
  Pr  Pr4  1  0.998788  0.168608  0.476626  1
  Pr  Pr5  1  0.344488  0.646150  0.454363  1
  Pr  Pr6  1  0.001212  0.831392  0.523374  1
  Pr  Pr7  1  0.655512  0.545637  0.146150  1
  Pr  Pr8  1  0.998788  0.023374  0.168608  1
  Pr  Pr9  1  0.655512  0.353850  0.545637  1
  Pr  Pr10  1  0.001212  0.523374  0.668608  1
  Pr  Pr11  1  0.655512  0.954363  0.353850  1
  Pr  Pr12  1  0.344488  0.853850  0.045637  1
  Pr  Pr13  1  0.668257  0.750000  0.750000  1
  Pr  Pr14  1  0.998788  0.476626  0.331392  1
  Pr  Pr15  1  0.344488  0.045637  0.646150  1
  Pr  Pr16  1  0.655512  0.146150  0.954363  1
  Pr  Pr17  1  0.344488  0.454363  0.853850  1
  Sb  Sb18  1  0.314526  0.750000  0.750000  1
  Sb  Sb19  1  0.700321  0.653307  0.446671  1
  Sb  Sb20  1  0.700321  0.053329  0.653307  1
  Sb  Sb21  1  0.685474  0.250000  0.250000  1
  Sb  Sb22  1  0.299679  0.153307  0.946671  1
  Sb  Sb23  1  0.299679  0.946671  0.346693  1
  Sb  Sb24  1  0.700321  0.446671  0.846693  1
  Sb  Sb25  1  0.299679  0.346693  0.553329  1
  Sb  Sb26  1  0.700321  0.846693  0.053329  1
  Sb  Sb27  1  0.299679  0.553329  0.153307  1
  O  O28  1  0.932603  0.750000  0.750000  1
  O  O29  1  0.910214  0.129095  0.974735  1
  O  O30  1  0.089786  0.474735  0.870905  1
  O  O31  1  0.089786  0.025264  0.629095  1
  O  O32  1  0.910214  0.974735  0.370905  1
  O  O33  1  0.910214  0.370905  0.525265  1
  O  O34  1  0.067397  0.250000  0.250000  1
  O  O35  1  0.089786  0.629095  0.474735  1
  O  O36  1  0.910214  0.525265  0.129095  1
  O  O37  1  0.089786  0.870905  0.025264  1
