# generated using pymatgen
data_Tm2Te4O11
_symmetry_space_group_name_H-M   'P 1'
_cell_length_a   5.12623928
_cell_length_b   6.70547192
_cell_length_c   15.92511718
_cell_angle_alpha   80.22153207
_cell_angle_beta   80.73420228
_cell_angle_gamma   67.53411757
_symmetry_Int_Tables_number   1
_chemical_formula_structural   Tm2Te4O11
_chemical_formula_sum   'Tm4 Te8 O22'
_cell_volume   495.72990133
_cell_formula_units_Z   2
loop_
 _symmetry_equiv_pos_site_id
 _symmetry_equiv_pos_as_xyz
  1  'x, y, z'
loop_
 _atom_site_type_symbol
 _atom_site_label
 _atom_site_symmetry_multiplicity
 _atom_site_fract_x
 _atom_site_fract_y
 _atom_site_fract_z
 _atom_site_occupancy
  Tm  Tm0  1  0.870130  0.297680  0.463211  1
  Tm  Tm1  1  0.631047  0.202324  0.036782  1
  Tm  Tm2  1  0.368953  0.797676  0.963218  1
  Tm  Tm3  1  0.129870  0.702320  0.536789  1
  Te  Te4  1  0.590353  0.879223  0.375077  1
  Te  Te5  1  0.598335  0.546917  0.697661  1
  Te  Te6  1  0.401665  0.453083  0.302339  1
  Te  Te7  1  0.842701  0.952885  0.802294  1
  Te  Te8  1  0.409647  0.120777  0.624923  1
  Te  Te9  1  0.844445  0.620784  0.124959  1
  Te  Te10  1  0.157299  0.047115  0.197706  1
  Te  Te11  1  0.155555  0.379216  0.875041  1
  O  O12  1  0.088951  0.367590  0.333985  1
  O  O13  1  0.550700  0.453566  0.594330  1
  O  O14  1  0.598748  0.046303  0.905614  1
  O  O15  1  0.660217  0.532814  0.051317  1
  O  O16  1  0.790941  0.132391  0.165996  1
  O  O17  1  0.144271  0.750025  0.249961  1
  O  O18  1  0.172124  0.318505  0.544003  1
  O  O19  1  0.827876  0.681495  0.455997  1
  O  O20  1  0.855729  0.249975  0.750039  1
  O  O21  1  0.034758  0.181574  0.955956  1
  O  O22  1  0.339783  0.467186  0.948683  1
  O  O23  1  0.192239  0.366741  0.127186  1
  O  O24  1  0.755582  0.032806  0.551324  1
  O  O25  1  0.401252  0.953697  0.094386  1
  O  O26  1  0.209059  0.867609  0.834004  1
  O  O27  1  0.965242  0.818426  0.044044  1
  O  O28  1  0.807761  0.633259  0.872814  1
  O  O29  1  0.911049  0.632410  0.666015  1
  O  O30  1  0.686234  0.133271  0.372809  1
  O  O31  1  0.449300  0.546434  0.405670  1
  O  O32  1  0.313766  0.866729  0.627191  1
  O  O33  1  0.244418  0.967194  0.448676  1
