# generated using pymatgen
data_V3O5
_symmetry_space_group_name_H-M   'P 1'
_cell_length_a   5.19243307
_cell_length_b   5.72043912
_cell_length_c   7.08408924
_cell_angle_alpha   109.91869504
_cell_angle_beta   90.00220985
_cell_angle_gamma   117.01665081
_symmetry_Int_Tables_number   1
_chemical_formula_structural   V3O5
_chemical_formula_sum   'V6 O10'
_cell_volume   173.20644895
_cell_formula_units_Z   2
loop_
 _symmetry_equiv_pos_site_id
 _symmetry_equiv_pos_as_xyz
  1  'x, y, z'
loop_
 _atom_site_type_symbol
 _atom_site_label
 _atom_site_symmetry_multiplicity
 _atom_site_fract_x
 _atom_site_fract_y
 _atom_site_fract_z
 _atom_site_occupancy
  V  V0  1  0.626853  0.760221  0.471851  1
  V  V1  1  0.633352  0.760200  0.971998  1
  V  V2  1  0.366648  0.239800  0.528002  1
  V  V3  1  0.373147  0.239779  0.028149  1
  V  V4  1  0.000000  0.500000  0.250000  1
  V  V5  1  0.000000  0.500000  0.750000  1
  O  O6  1  0.652612  0.112595  0.085183  1
  O  O7  1  0.960467  0.112855  0.585422  1
  O  O8  1  0.269189  0.341830  0.307230  1
  O  O9  1  0.572682  0.341589  0.807020  1
  O  O10  1  0.730811  0.658170  0.192770  1
  O  O11  1  0.427318  0.658411  0.692980  1
  O  O12  1  0.347388  0.887405  0.414817  1
  O  O13  1  0.039533  0.887145  0.914578  1
  O  O14  1  0.195667  0.500123  0.000186  1
  O  O15  1  0.804333  0.499877  0.499814  1
