# generated using pymatgen
data_BaSc3AgS6
_symmetry_space_group_name_H-M   'P 1'
_cell_length_a   11.02160155
_cell_length_b   11.23221031
_cell_length_c   16.32738747
_cell_angle_alpha   90.00000000
_cell_angle_beta   90.00000000
_cell_angle_gamma   90.00000000
_symmetry_Int_Tables_number   1
_chemical_formula_structural   BaSc3AgS6
_chemical_formula_sum   'Ba8 Sc24 Ag8 S48'
_cell_volume   2021.28071413
_cell_formula_units_Z   8
loop_
 _symmetry_equiv_pos_site_id
 _symmetry_equiv_pos_as_xyz
  1  'x, y, z'
loop_
 _atom_site_type_symbol
 _atom_site_label
 _atom_site_symmetry_multiplicity
 _atom_site_fract_x
 _atom_site_fract_y
 _atom_site_fract_z
 _atom_site_occupancy
  Ba  Ba0  1  0.734184  0.944260  0.203661  1
  Ba  Ba1  1  0.765816  0.555740  0.703661  1
  Ba  Ba2  1  0.765816  0.944260  0.703661  1
  Ba  Ba3  1  0.234184  0.444260  0.296339  1
  Ba  Ba4  1  0.734184  0.555740  0.203661  1
  Ba  Ba5  1  0.265816  0.444260  0.796339  1
  Ba  Ba6  1  0.265816  0.055740  0.796339  1
  Ba  Ba7  1  0.234184  0.055740  0.296339  1
  Sc  Sc8  1  0.921715  0.085616  0.413738  1
  Sc  Sc9  1  0.860572  0.250000  0.975062  1
  Sc  Sc10  1  0.578285  0.085616  0.913738  1
  Sc  Sc11  1  0.078285  0.914384  0.586262  1
  Sc  Sc12  1  0.141105  0.416715  0.034245  1
  Sc  Sc13  1  0.078285  0.585616  0.586262  1
  Sc  Sc14  1  0.358895  0.416715  0.534245  1
  Sc  Sc15  1  0.578285  0.414384  0.913738  1
  Sc  Sc16  1  0.639428  0.250000  0.475062  1
  Sc  Sc17  1  0.641105  0.916715  0.465755  1
  Sc  Sc18  1  0.858895  0.916715  0.965755  1
  Sc  Sc19  1  0.360572  0.750000  0.524938  1
  Sc  Sc20  1  0.930124  0.750000  0.406854  1
  Sc  Sc21  1  0.421715  0.585616  0.086262  1
  Sc  Sc22  1  0.139428  0.750000  0.024938  1
  Sc  Sc23  1  0.069876  0.250000  0.593146  1
  Sc  Sc24  1  0.858895  0.583285  0.965755  1
  Sc  Sc25  1  0.430124  0.250000  0.093146  1
  Sc  Sc26  1  0.921715  0.414384  0.413738  1
  Sc  Sc27  1  0.569876  0.750000  0.906854  1
  Sc  Sc28  1  0.141105  0.083285  0.034245  1
  Sc  Sc29  1  0.641105  0.583285  0.465755  1
  Sc  Sc30  1  0.358895  0.083285  0.534245  1
  Sc  Sc31  1  0.421715  0.914384  0.086262  1
  Ag  Ag32  1  0.956816  0.250000  0.788258  1
  Ag  Ag33  1  0.049209  0.750000  0.823183  1
  Ag  Ag34  1  0.950792  0.250000  0.176817  1
  Ag  Ag35  1  0.450792  0.750000  0.323183  1
  Ag  Ag36  1  0.043184  0.750000  0.211742  1
  Ag  Ag37  1  0.456816  0.750000  0.711742  1
  Ag  Ag38  1  0.549208  0.250000  0.676817  1
  Ag  Ag39  1  0.543184  0.250000  0.288258  1
  S  S40  1  0.364873  0.083747  0.985522  1
  S  S41  1  0.590759  0.750000  0.572654  1
  S  S42  1  0.135127  0.416253  0.485522  1
  S  S43  1  0.296459  0.250000  0.637088  1
  S  S44  1  0.409241  0.250000  0.427346  1
  S  S45  1  0.203541  0.250000  0.137088  1
  S  S46  1  0.020904  0.078091  0.689373  1
  S  S47  1  0.085762  0.578654  0.924678  1
  S  S48  1  0.363444  0.750000  0.980864  1
  S  S49  1  0.801087  0.411814  0.868924  1
  S  S50  1  0.914238  0.078654  0.075322  1
  S  S51  1  0.635127  0.916253  0.014478  1
  S  S52  1  0.636556  0.250000  0.019136  1
  S  S53  1  0.414238  0.921346  0.424678  1
  S  S54  1  0.510092  0.750000  0.178883  1
  S  S55  1  0.085762  0.921346  0.924678  1
  S  S56  1  0.979096  0.921909  0.310627  1
  S  S57  1  0.864873  0.916253  0.514478  1
  S  S58  1  0.989908  0.750000  0.678883  1
  S  S59  1  0.198913  0.588186  0.131076  1
  S  S60  1  0.479096  0.078091  0.189373  1
  S  S61  1  0.479096  0.421909  0.189373  1
  S  S62  1  0.301087  0.588186  0.631076  1
  S  S63  1  0.863444  0.250000  0.519136  1
  S  S64  1  0.489908  0.250000  0.821117  1
  S  S65  1  0.135127  0.083747  0.485522  1
  S  S66  1  0.635127  0.583747  0.014478  1
  S  S67  1  0.801087  0.088186  0.868924  1
  S  S68  1  0.585762  0.421346  0.575322  1
  S  S69  1  0.864873  0.583747  0.514478  1
  S  S70  1  0.136556  0.750000  0.480864  1
  S  S71  1  0.698913  0.411814  0.368924  1
  S  S72  1  0.010092  0.250000  0.321117  1
  S  S73  1  0.909241  0.750000  0.072654  1
  S  S74  1  0.520904  0.921909  0.810627  1
  S  S75  1  0.585762  0.078654  0.575322  1
  S  S76  1  0.364873  0.416253  0.985522  1
  S  S77  1  0.090759  0.250000  0.927346  1
  S  S78  1  0.796459  0.750000  0.862912  1
  S  S79  1  0.301087  0.911814  0.631076  1
  S  S80  1  0.198913  0.911814  0.131076  1
  S  S81  1  0.520904  0.578091  0.810627  1
  S  S82  1  0.979096  0.578091  0.310627  1
  S  S83  1  0.914238  0.421346  0.075322  1
  S  S84  1  0.414238  0.578654  0.424678  1
  S  S85  1  0.703541  0.750000  0.362912  1
  S  S86  1  0.020904  0.421909  0.689373  1
  S  S87  1  0.698913  0.088186  0.368924  1
