# generated using pymatgen
data_RbLa9(IrO6)4
_symmetry_space_group_name_H-M   'P 1'
_cell_length_a   7.82485796
_cell_length_b   7.82342321
_cell_length_c   10.51172718
_cell_angle_alpha   111.84613886
_cell_angle_beta   111.85089751
_cell_angle_gamma   90.00360900
_symmetry_Int_Tables_number   1
_chemical_formula_structural   RbLa9(IrO6)4
_chemical_formula_sum   'Rb1 La9 Ir4 O24'
_cell_volume   547.15722629
_cell_formula_units_Z   1
loop_
 _symmetry_equiv_pos_site_id
 _symmetry_equiv_pos_as_xyz
  1  'x, y, z'
loop_
 _atom_site_type_symbol
 _atom_site_label
 _atom_site_symmetry_multiplicity
 _atom_site_fract_x
 _atom_site_fract_y
 _atom_site_fract_z
 _atom_site_occupancy
  Rb  Rb0  1  0.500000  0.500000  0.000000  1
  La  La1  1  0.540860  0.674923  0.710754  1
  La  La2  1  0.035838  0.540862  0.710789  1
  La  La3  1  0.674953  0.169931  0.710793  1
  La  La4  1  0.964162  0.459138  0.289211  1
  La  La5  1  0.459140  0.325077  0.289246  1
  La  La6  1  0.325047  0.830069  0.289207  1
  La  La7  1  0.169906  0.035851  0.710763  1
  La  La8  1  0.000000  0.000000  0.000000  1
  La  La9  1  0.830094  0.964149  0.289237  1
  Ir  Ir10  1  0.500000  0.000000  0.000000  1
  Ir  Ir11  1  0.240514  0.240519  0.481021  1
  Ir  Ir12  1  0.759486  0.759481  0.518979  1
  Ir  Ir13  1  0.000000  0.500000  0.000000  1
  O  O14  1  0.508405  0.046557  0.823461  1
  O  O15  1  0.046561  0.315030  0.823401  1
  O  O16  1  0.989188  0.295956  0.469043  1
  O  O17  1  0.826914  0.010849  0.530954  1
  O  O18  1  0.130954  0.712720  1.000015  1
  O  O19  1  0.295960  0.479905  0.469043  1
  O  O20  1  0.776841  0.508384  0.823411  1
  O  O21  1  0.287428  0.130936  0.999993  1
  O  O22  1  0.520134  0.826899  0.530944  1
  O  O23  1  0.684944  0.223082  0.176547  1
  O  O24  1  0.315056  0.776918  0.823453  1
  O  O25  1  0.127629  0.127627  0.255209  1
  O  O26  1  0.953439  0.684970  0.176599  1
  O  O27  1  0.010812  0.704044  0.530957  1
  O  O28  1  0.491595  0.953443  0.176539  1
  O  O29  1  0.872371  0.872373  0.744791  1
  O  O30  1  0.712572  0.869064  0.000007  1
  O  O31  1  0.869046  0.287280  -0.000015  1
  O  O32  1  0.173086  0.989151  0.469046  1
  O  O33  1  0.704040  0.520095  0.530957  1
  O  O34  1  0.650306  0.650295  0.300611  1
  O  O35  1  0.349694  0.349705  0.699389  1
  O  O36  1  0.223159  0.491616  0.176589  1
  O  O37  1  0.479866  0.173101  0.469056  1
