# generated using pymatgen
data_Sr11(Ge2N3)2
_symmetry_space_group_name_H-M   'P 1'
_cell_length_a   7.32711959
_cell_length_b   7.32711959
_cell_length_c   18.85333081
_cell_angle_alpha   90.00000000
_cell_angle_beta   90.00000000
_cell_angle_gamma   90.00000000
_symmetry_Int_Tables_number   1
_chemical_formula_structural   Sr11(Ge2N3)2
_chemical_formula_sum   'Sr22 Ge8 N12'
_cell_volume   1012.17276615
_cell_formula_units_Z   2
loop_
 _symmetry_equiv_pos_site_id
 _symmetry_equiv_pos_as_xyz
  1  'x, y, z'
loop_
 _atom_site_type_symbol
 _atom_site_label
 _atom_site_symmetry_multiplicity
 _atom_site_fract_x
 _atom_site_fract_y
 _atom_site_fract_z
 _atom_site_occupancy
  Sr  Sr0  1  0.077929  0.922071  0.599048  1
  Sr  Sr1  1  0.471131  0.528869  0.129837  1
  Sr  Sr2  1  0.250000  0.250000  0.726160  1
  Sr  Sr3  1  0.028869  0.528869  0.870163  1
  Sr  Sr4  1  0.577929  0.077929  0.599048  1
  Sr  Sr5  1  0.922071  0.077929  0.400952  1
  Sr  Sr6  1  0.422071  0.577929  0.599048  1
  Sr  Sr7  1  0.971131  0.471131  0.129837  1
  Sr  Sr8  1  0.028869  0.971131  0.129837  1
  Sr  Sr9  1  0.528869  0.471131  0.870163  1
  Sr  Sr10  1  0.422071  0.922071  0.400952  1
  Sr  Sr11  1  0.528869  0.028869  0.129837  1
  Sr  Sr12  1  0.250000  0.250000  0.000000  1
  Sr  Sr13  1  0.750000  0.750000  0.726160  1
  Sr  Sr14  1  0.922071  0.422071  0.599048  1
  Sr  Sr15  1  0.577929  0.422071  0.400952  1
  Sr  Sr16  1  0.471131  0.971131  0.870163  1
  Sr  Sr17  1  0.077929  0.577929  0.400952  1
  Sr  Sr18  1  0.971131  0.028869  0.870163  1
  Sr  Sr19  1  0.750000  0.750000  0.000000  1
  Sr  Sr20  1  0.250000  0.250000  0.273840  1
  Sr  Sr21  1  0.750000  0.750000  0.273840  1
  Ge  Ge22  1  0.250000  0.750000  0.258402  1
  Ge  Ge23  1  0.750000  0.250000  0.741598  1
  Ge  Ge24  1  0.250000  0.750000  0.741598  1
  Ge  Ge25  1  0.250000  0.750000  0.000000  1
  Ge  Ge26  1  0.750000  0.750000  0.500000  1
  Ge  Ge27  1  0.750000  0.250000  0.258402  1
  Ge  Ge28  1  0.250000  0.250000  0.500000  1
  Ge  Ge29  1  0.750000  0.250000  0.000000  1
  N  N30  1  0.750000  0.750000  0.856035  1
  N  N31  1  0.250000  0.250000  0.856035  1
  N  N32  1  0.894557  0.105443  0.682993  1
  N  N33  1  0.605443  0.105443  0.317007  1
  N  N34  1  0.394557  0.894557  0.682993  1
  N  N35  1  0.750000  0.750000  0.143965  1
  N  N36  1  0.394557  0.605443  0.317007  1
  N  N37  1  0.894557  0.394557  0.317007  1
  N  N38  1  0.105443  0.605443  0.682993  1
  N  N39  1  0.605443  0.394557  0.682993  1
  N  N40  1  0.105443  0.894557  0.317007  1
  N  N41  1  0.250000  0.250000  0.143965  1
