# generated using pymatgen
data_NaZr2VF11
_symmetry_space_group_name_H-M   'P 1'
_cell_length_a   5.80239932
_cell_length_b   5.80239940
_cell_length_c   7.93098800
_cell_angle_alpha   69.28455773
_cell_angle_beta   69.28455748
_cell_angle_gamma   72.83323889
_symmetry_Int_Tables_number   1
_chemical_formula_structural   NaZr2VF11
_chemical_formula_sum   'Na1 Zr2 V1 F11'
_cell_volume   229.15471215
_cell_formula_units_Z   1
loop_
 _symmetry_equiv_pos_site_id
 _symmetry_equiv_pos_as_xyz
  1  'x, y, z'
loop_
 _atom_site_type_symbol
 _atom_site_label
 _atom_site_symmetry_multiplicity
 _atom_site_fract_x
 _atom_site_fract_y
 _atom_site_fract_z
 _atom_site_occupancy
  Na  Na0  1  0.000000  0.000000  0.000000  1
  Zr  Zr1  1  0.504255  0.504255  0.765313  1
  Zr  Zr2  1  0.495745  0.495745  0.234687  1
  V  V3  1  0.000000  0.000000  0.500000  1
  F  F4  1  0.805489  0.221071  0.691941  1
  F  F5  1  0.778930  0.194511  0.308059  1
  F  F6  1  0.194511  0.778930  0.308059  1
  F  F7  1  0.221071  0.805489  0.691941  1
  F  F8  1  0.500000  0.500000  0.500000  1
  F  F9  1  0.330151  0.669849  0.000000  1
  F  F10  1  0.669849  0.330151  1.000000  1
  F  F11  1  0.251384  0.251384  0.353284  1
  F  F12  1  0.748616  0.748616  0.646716  1
  F  F13  1  0.267494  0.267494  0.889733  1
  F  F14  1  0.732506  0.732506  0.110267  1
