# generated using pymatgen
data_Na3Li3Co2F12
_symmetry_space_group_name_H-M   'P 1'
_cell_length_a   10.82880353
_cell_length_b   10.82880353
_cell_length_c   10.82880353
_cell_angle_alpha   109.47122065
_cell_angle_beta   109.47122065
_cell_angle_gamma   109.47122062
_symmetry_Int_Tables_number   1
_chemical_formula_structural   Na3Li3Co2F12
_chemical_formula_sum   'Na12 Li12 Co8 F48'
_cell_volume   977.50622605
_cell_formula_units_Z   4
loop_
 _symmetry_equiv_pos_site_id
 _symmetry_equiv_pos_as_xyz
  1  'x, y, z'
loop_
 _atom_site_type_symbol
 _atom_site_label
 _atom_site_symmetry_multiplicity
 _atom_site_fract_x
 _atom_site_fract_y
 _atom_site_fract_z
 _atom_site_occupancy
  Li  Li0  1  0.250000  0.625000  0.375000  1
  Li  Li1  1  0.875000  0.250000  0.125000  1
  Li  Li2  1  0.125000  0.750000  0.875000  1
  Li  Li3  1  0.875000  0.125000  0.750000  1
  Li  Li4  1  0.625000  0.375000  0.250000  1
  Li  Li5  1  0.750000  0.875000  0.125000  1
  Li  Li6  1  0.125000  0.875000  0.250000  1
  Li  Li7  1  0.375000  0.625000  0.750000  1
  Li  Li8  1  0.625000  0.750000  0.375000  1
  Li  Li9  1  0.750000  0.375000  0.625000  1
  Li  Li10  1  0.250000  0.125000  0.875000  1
  Li  Li11  1  0.375000  0.250000  0.625000  1
  F  F12  1  0.807064  0.421828  0.825997  1
  F  F13  1  0.518933  0.404169  0.825997  1
  F  F14  1  0.674003  0.078172  0.692936  1
  F  F15  1  0.421828  0.095831  0.614764  1
  F  F16  1  0.825997  0.518933  0.404169  1
  F  F17  1  0.404169  0.078172  0.885236  1
  F  F18  1  0.095831  0.981067  0.674003  1
  F  F19  1  0.421828  0.825997  0.807064  1
  F  F20  1  0.078172  0.692936  0.674003  1
  F  F21  1  0.981067  0.807064  0.885236  1
  F  F22  1  0.885236  0.981067  0.807064  1
  F  F23  1  0.404169  0.825997  0.518933  1
  F  F24  1  0.614764  0.692936  0.518933  1
  F  F25  1  0.095831  0.614764  0.421828  1
  F  F26  1  0.518933  0.614764  0.692936  1
  F  F27  1  0.692936  0.674003  0.078172  1
  F  F28  1  0.692936  0.518933  0.614764  1
  F  F29  1  0.614764  0.421828  0.095831  1
  F  F30  1  0.674003  0.095831  0.981067  1
  F  F31  1  0.078172  0.885236  0.404169  1
  F  F32  1  0.192936  0.114764  0.018933  1
  F  F33  1  0.114764  0.595831  0.921828  1
  F  F34  1  0.174003  0.192936  0.578172  1
  F  F35  1  0.578172  0.174003  0.192936  1
  F  F36  1  0.018933  0.325997  0.904169  1
  F  F37  1  0.904169  0.018933  0.325997  1
  F  F38  1  0.595831  0.921828  0.114764  1
  F  F39  1  0.174003  0.481067  0.595831  1
  F  F40  1  0.578172  0.904169  0.385236  1
  F  F41  1  0.325997  0.921828  0.307064  1
  F  F42  1  0.481067  0.595831  0.174003  1
  F  F43  1  0.385236  0.578172  0.904169  1
  F  F44  1  0.921828  0.307064  0.325997  1
  F  F45  1  0.018933  0.192936  0.114764  1
  F  F46  1  0.114764  0.018933  0.192936  1
  F  F47  1  0.595831  0.174003  0.481067  1
  F  F48  1  0.385236  0.307064  0.481067  1
  F  F49  1  0.904169  0.385236  0.578172  1
  F  F50  1  0.481067  0.385236  0.307064  1
  F  F51  1  0.307064  0.325997  0.921828  1
  F  F52  1  0.307064  0.481067  0.385236  1
  F  F53  1  0.325997  0.904169  0.018933  1
  F  F54  1  0.921828  0.114764  0.595831  1
  F  F55  1  0.192936  0.578172  0.174003  1
  F  F56  1  0.807064  0.885236  0.981067  1
  F  F57  1  0.885236  0.404169  0.078172  1
  F  F58  1  0.825997  0.807064  0.421828  1
  F  F59  1  0.981067  0.674003  0.095831  1
  Na  Na60  1  0.625000  0.875000  0.750000  1
  Na  Na61  1  0.875000  0.625000  0.250000  1
  Na  Na62  1  0.625000  0.250000  0.875000  1
  Na  Na63  1  0.250000  0.875000  0.625000  1
  Na  Na64  1  0.750000  0.625000  0.875000  1
  Na  Na65  1  0.875000  0.750000  0.625000  1
  Na  Na66  1  0.375000  0.125000  0.250000  1
  Na  Na67  1  0.125000  0.375000  0.750000  1
  Na  Na68  1  0.375000  0.750000  0.125000  1
  Na  Na69  1  0.750000  0.125000  0.375000  1
  Na  Na70  1  0.125000  0.250000  0.375000  1
  Na  Na71  1  0.250000  0.375000  0.125000  1
  Co  Co72  1  0.500000  0.500000  0.500000  1
  Co  Co73  1  0.500000  0.500000  0.000000  1
  Co  Co74  1  0.500000  0.000000  0.500000  1
  Co  Co75  1  0.000000  0.500000  0.500000  1
  Co  Co76  1  0.500000  0.000000  0.000000  1
  Co  Co77  1  0.000000  0.000000  0.500000  1
  Co  Co78  1  0.000000  0.500000  0.000000  1
  Co  Co79  1  0.000000  0.000000  0.000000  1
