# generated using pymatgen
data_TlCoCl3
_symmetry_space_group_name_H-M   'P 1'
_cell_length_a   5.88928138
_cell_length_b   12.20024530
_cell_length_c   14.01640865
_cell_angle_alpha   90.00000000
_cell_angle_beta   90.00000000
_cell_angle_gamma   90.00000000
_symmetry_Int_Tables_number   1
_chemical_formula_structural   TlCoCl3
_chemical_formula_sum   'Tl8 Co8 Cl24'
_cell_volume   1007.08845729
_cell_formula_units_Z   8
loop_
 _symmetry_equiv_pos_site_id
 _symmetry_equiv_pos_as_xyz
  1  'x, y, z'
loop_
 _atom_site_type_symbol
 _atom_site_label
 _atom_site_symmetry_multiplicity
 _atom_site_fract_x
 _atom_site_fract_y
 _atom_site_fract_z
 _atom_site_occupancy
  Tl  Tl0  1  0.750738  0.581535  0.123171  1
  Tl  Tl1  1  0.250738  0.918465  0.123171  1
  Tl  Tl2  1  0.249262  0.418465  0.876829  1
  Tl  Tl3  1  0.749262  0.581535  0.623171  1
  Tl  Tl4  1  0.249262  0.918465  0.623171  1
  Tl  Tl5  1  0.750738  0.081535  0.376829  1
  Tl  Tl6  1  0.749262  0.081535  0.876829  1
  Tl  Tl7  1  0.250738  0.418465  0.376829  1
  Co  Co8  1  0.542819  0.250264  0.125487  1
  Co  Co9  1  0.542819  0.750264  0.374513  1
  Co  Co10  1  0.457181  0.749736  0.874513  1
  Co  Co11  1  0.457181  0.249736  0.625487  1
  Co  Co12  1  0.042819  0.249736  0.125487  1
  Co  Co13  1  0.957181  0.250264  0.625487  1
  Co  Co14  1  0.957181  0.750264  0.874513  1
  Co  Co15  1  0.042819  0.749736  0.374513  1
  Cl  Cl16  1  0.794496  0.591466  0.374674  1
  Cl  Cl17  1  0.704081  0.328867  0.744120  1
  Cl  Cl18  1  0.794696  0.328433  0.005552  1
  Cl  Cl19  1  0.795919  0.328867  0.244120  1
  Cl  Cl20  1  0.205304  0.171567  0.505552  1
  Cl  Cl21  1  0.205505  0.908534  0.874674  1
  Cl  Cl22  1  0.705504  0.591466  0.874674  1
  Cl  Cl23  1  0.705304  0.828433  0.994448  1
  Cl  Cl24  1  0.794696  0.828433  0.494448  1
  Cl  Cl25  1  0.705304  0.328433  0.505552  1
  Cl  Cl26  1  0.294496  0.908534  0.374674  1
  Cl  Cl27  1  0.204081  0.671133  0.755880  1
  Cl  Cl28  1  0.294696  0.171567  0.005552  1
  Cl  Cl29  1  0.205304  0.671567  0.994448  1
  Cl  Cl30  1  0.295919  0.171133  0.244120  1
  Cl  Cl31  1  0.205505  0.408534  0.625326  1
  Cl  Cl32  1  0.795919  0.828867  0.255880  1
  Cl  Cl33  1  0.294496  0.408534  0.125326  1
  Cl  Cl34  1  0.794496  0.091466  0.125326  1
  Cl  Cl35  1  0.705504  0.091466  0.625326  1
  Cl  Cl36  1  0.294696  0.671567  0.494448  1
  Cl  Cl37  1  0.704081  0.828867  0.755880  1
  Cl  Cl38  1  0.204081  0.171133  0.744120  1
  Cl  Cl39  1  0.295919  0.671133  0.255880  1
