# generated using pymatgen
data_TbMn2BiO6
_symmetry_space_group_name_H-M   'P 1'
_cell_length_a   6.01062061
_cell_length_b   6.01061818
_cell_length_c   6.01061424
_cell_angle_alpha   59.99987120
_cell_angle_beta   59.99991778
_cell_angle_gamma   59.99986943
_symmetry_Int_Tables_number   1
_chemical_formula_structural   TbMn2BiO6
_chemical_formula_sum   'Tb1 Mn2 Bi1 O6'
_cell_volume   153.54694965
_cell_formula_units_Z   1
loop_
 _symmetry_equiv_pos_site_id
 _symmetry_equiv_pos_as_xyz
  1  'x, y, z'
loop_
 _atom_site_type_symbol
 _atom_site_label
 _atom_site_symmetry_multiplicity
 _atom_site_fract_x
 _atom_site_fract_y
 _atom_site_fract_z
 _atom_site_occupancy
  Tb  Tb0  1  -0.000001  1.000000  0.000000  1
  Mn  Mn1  1  0.750004  0.750008  0.750004  1
  Mn  Mn2  1  0.250009  0.249995  0.249995  1
  Bi  Bi3  1  0.499999  0.499999  0.500000  1
  O  O4  1  0.743835  0.256162  0.256163  1
  O  O5  1  0.743835  0.256161  0.743839  1
  O  O6  1  0.256159  0.743837  0.743838  1
  O  O7  1  0.256162  0.743836  0.256162  1
  O  O8  1  0.743836  0.743837  0.256162  1
  O  O9  1  0.256161  0.256163  0.743837  1
