# generated using pymatgen
data_CsLu(NbCl3)6
_symmetry_space_group_name_H-M   'P 1'
_cell_length_a   9.40630855
_cell_length_b   9.40630890
_cell_length_c   17.50666368
_cell_angle_alpha   90.00000000
_cell_angle_beta   90.00000000
_cell_angle_gamma   119.99999873
_symmetry_Int_Tables_number   1
_chemical_formula_structural   CsLu(NbCl3)6
_chemical_formula_sum   'Cs2 Lu2 Nb12 Cl36'
_cell_volume   1341.44380228
_cell_formula_units_Z   2
loop_
 _symmetry_equiv_pos_site_id
 _symmetry_equiv_pos_as_xyz
  1  'x, y, z'
loop_
 _atom_site_type_symbol
 _atom_site_label
 _atom_site_symmetry_multiplicity
 _atom_site_fract_x
 _atom_site_fract_y
 _atom_site_fract_z
 _atom_site_occupancy
  Cs  Cs0  1  0.666667  0.333333  0.750000  1
  Cs  Cs1  1  0.333333  0.666667  0.250000  1
  Lu  Lu2  1  0.333333  0.666667  0.750000  1
  Lu  Lu3  1  0.666667  0.333333  0.250000  1
  Nb  Nb4  1  0.155239  0.197244  0.931774  1
  Nb  Nb5  1  0.844761  0.802756  0.068226  1
  Nb  Nb6  1  0.042005  0.197244  0.568226  1
  Nb  Nb7  1  0.197244  0.042005  0.068226  1
  Nb  Nb8  1  0.802756  0.957995  0.931774  1
  Nb  Nb9  1  0.802756  0.844761  0.568226  1
  Nb  Nb10  1  0.957995  0.802756  0.431774  1
  Nb  Nb11  1  0.042005  0.844761  0.931774  1
  Nb  Nb12  1  0.844761  0.042005  0.431774  1
  Nb  Nb13  1  0.155239  0.957995  0.568226  1
  Nb  Nb14  1  0.197244  0.155239  0.431774  1
  Nb  Nb15  1  0.957995  0.155239  0.068226  1
  Cl  Cl16  1  0.451727  0.093889  0.163274  1
  Cl  Cl17  1  0.138262  0.416266  0.001527  1
  Cl  Cl18  1  0.451727  0.357838  0.336726  1
  Cl  Cl19  1  0.583734  0.861738  0.498473  1
  Cl  Cl20  1  0.814880  0.765927  0.839975  1
  Cl  Cl21  1  0.416266  0.138262  0.501527  1
  Cl  Cl22  1  0.234073  0.048953  0.839975  1
  Cl  Cl23  1  0.861738  0.278004  0.501527  1
  Cl  Cl24  1  0.357838  0.906111  0.663274  1
  Cl  Cl25  1  0.416266  0.278004  0.998473  1
  Cl  Cl26  1  0.234073  0.185120  0.660025  1
  Cl  Cl27  1  0.093889  0.642162  0.836726  1
  Cl  Cl28  1  0.906111  0.357838  0.163274  1
  Cl  Cl29  1  0.642162  0.548273  0.163274  1
  Cl  Cl30  1  0.861738  0.583734  0.998473  1
  Cl  Cl31  1  0.548273  0.906111  0.836726  1
  Cl  Cl32  1  0.721996  0.583734  0.501527  1
  Cl  Cl33  1  0.814880  0.048953  0.660025  1
  Cl  Cl34  1  0.906111  0.548273  0.336726  1
  Cl  Cl35  1  0.951048  0.765927  0.660025  1
  Cl  Cl36  1  0.185120  0.234073  0.160025  1
  Cl  Cl37  1  0.951048  0.185120  0.839975  1
  Cl  Cl38  1  0.048953  0.814880  0.160025  1
  Cl  Cl39  1  0.093889  0.451727  0.663274  1
  Cl  Cl40  1  0.548273  0.642162  0.663274  1
  Cl  Cl41  1  0.278004  0.416266  0.498473  1
  Cl  Cl42  1  0.765927  0.951048  0.160025  1
  Cl  Cl43  1  0.765927  0.814880  0.339975  1
  Cl  Cl44  1  0.583734  0.721996  0.001527  1
  Cl  Cl45  1  0.138262  0.721996  0.498473  1
  Cl  Cl46  1  0.721996  0.138262  0.998473  1
  Cl  Cl47  1  0.357838  0.451727  0.836726  1
  Cl  Cl48  1  0.048953  0.234073  0.339975  1
  Cl  Cl49  1  0.278004  0.861738  0.001527  1
  Cl  Cl50  1  0.642162  0.093889  0.336726  1
  Cl  Cl51  1  0.185120  0.951048  0.339975  1
