# generated using pymatgen
data_CdI2
_symmetry_space_group_name_H-M   'P 1'
_cell_length_a   31.13740311
_cell_length_b   31.13740309
_cell_length_c   31.13740282
_cell_angle_alpha   8.01259093
_cell_angle_beta   8.01259108
_cell_angle_gamma   8.01259078
_symmetry_Int_Tables_number   1
_chemical_formula_structural   CdI2
_chemical_formula_sum   'Cd4 I8'
_cell_volume   508.80653051
_cell_formula_units_Z   4
loop_
 _symmetry_equiv_pos_site_id
 _symmetry_equiv_pos_as_xyz
  1  'x, y, z'
loop_
 _atom_site_type_symbol
 _atom_site_label
 _atom_site_symmetry_multiplicity
 _atom_site_fract_x
 _atom_site_fract_y
 _atom_site_fract_z
 _atom_site_occupancy
  Cd  Cd0  1  0.104254  0.104254  0.104254  1
  Cd  Cd1  1  0.520912  0.520912  0.520912  1
  Cd  Cd2  1  0.354045  0.354045  0.354045  1
  Cd  Cd3  1  0.937486  0.937486  0.937486  1
  I  I4  1  0.169234  0.169234  0.169234  1
  I  I5  1  0.872611  0.872611  0.872611  1
  I  I6  1  0.252446  0.252446  0.252446  1
  I  I7  1  0.419213  0.419213  0.419213  1
  I  I8  1  0.622531  0.622531  0.622531  1
  I  I9  1  0.705717  0.705717  0.705717  1
  I  I10  1  0.002350  0.002350  0.002350  1
  I  I11  1  0.789301  0.789301  0.789301  1
