# generated using pymatgen
data_CdI2
_symmetry_space_group_name_H-M   'P 1'
_cell_length_a   4.33283069
_cell_length_b   4.33283096
_cell_length_c   59.28796711
_cell_angle_alpha   90.00000000
_cell_angle_beta   90.00000000
_cell_angle_gamma   119.99999799
_symmetry_Int_Tables_number   1
_chemical_formula_structural   CdI2
_chemical_formula_sum   'Cd8 I16'
_cell_volume   963.91927528
_cell_formula_units_Z   8
loop_
 _symmetry_equiv_pos_site_id
 _symmetry_equiv_pos_as_xyz
  1  'x, y, z'
loop_
 _atom_site_type_symbol
 _atom_site_label
 _atom_site_symmetry_multiplicity
 _atom_site_fract_x
 _atom_site_fract_y
 _atom_site_fract_z
 _atom_site_occupancy
  Cd  Cd0  1  0.333333  0.666667  0.531250  1
  Cd  Cd1  1  0.333333  0.666667  0.781249  1
  Cd  Cd2  1  0.666667  0.333333  0.406255  1
  Cd  Cd3  1  0.333333  0.666667  0.031250  1
  Cd  Cd4  1  0.000000  0.000000  0.656245  1
  Cd  Cd5  1  0.666667  0.333333  0.156258  1
  Cd  Cd6  1  0.000000  0.000000  0.906242  1
  Cd  Cd7  1  0.333333  0.666667  0.281251  1
  I  I8  1  0.333333  0.666667  0.627103  1
  I  I9  1  0.000000  0.000000  0.002130  1
  I  I10  1  0.000000  0.000000  0.377137  1
  I  I11  1  0.333333  0.666667  0.185400  1
  I  I12  1  0.666667  0.333333  0.810365  1
  I  I13  1  0.666667  0.333333  0.560364  1
  I  I14  1  0.666667  0.333333  0.935361  1
  I  I15  1  0.000000  0.000000  0.252135  1
  I  I16  1  0.000000  0.000000  0.127139  1
  I  I17  1  0.666667  0.333333  0.685363  1
  I  I18  1  0.666667  0.333333  0.060370  1
  I  I19  1  0.000000  0.000000  0.752134  1
  I  I20  1  0.333333  0.666667  0.435397  1
  I  I21  1  0.333333  0.666667  0.877100  1
  I  I22  1  0.666667  0.333333  0.310366  1
  I  I23  1  0.000000  0.000000  0.502136  1
