# generated using pymatgen
data_Cs2KVF6
_symmetry_space_group_name_H-M   'P 1'
_cell_length_a   6.51731861
_cell_length_b   6.51927808
_cell_length_c   6.53650446
_cell_angle_alpha   60.06524267
_cell_angle_beta   60.09189718
_cell_angle_gamma   59.96023993
_symmetry_Int_Tables_number   1
_chemical_formula_structural   Cs2KVF6
_chemical_formula_sum   'Cs2 K1 V1 F6'
_cell_volume   196.55438595
_cell_formula_units_Z   1
loop_
 _symmetry_equiv_pos_site_id
 _symmetry_equiv_pos_as_xyz
  1  'x, y, z'
loop_
 _atom_site_type_symbol
 _atom_site_label
 _atom_site_symmetry_multiplicity
 _atom_site_fract_x
 _atom_site_fract_y
 _atom_site_fract_z
 _atom_site_occupancy
  F  F0  1  0.215766  0.784467  0.784104  1
  F  F1  1  0.215673  0.784280  0.215721  1
  F  F2  1  0.784338  0.215719  0.784275  1
  F  F3  1  0.215621  0.215801  0.783779  1
  F  F4  1  0.784228  0.215547  0.215894  1
  F  F5  1  0.784374  0.784195  0.216224  1
  K  K6  1  0.500001  0.500000  0.499999  1
  V  V7  1  -0.000005  -0.000005  0.000014  1
  Cs  Cs8  1  0.749373  0.749281  0.751134  1
  Cs  Cs9  1  0.250631  0.250716  0.248857  1
