# generated using pymatgen
data_Li6CaCeO6
_symmetry_space_group_name_H-M   'P 1'
_cell_length_a   10.15982619
_cell_length_b   10.15982581
_cell_length_c   10.76006426
_cell_angle_alpha   90.00000000
_cell_angle_beta   90.00000000
_cell_angle_gamma   120.00000126
_symmetry_Int_Tables_number   1
_chemical_formula_structural   Li6CaCeO6
_chemical_formula_sum   'Li36 Ca6 Ce6 O36'
_cell_volume   961.87365877
_cell_formula_units_Z   6
loop_
 _symmetry_equiv_pos_site_id
 _symmetry_equiv_pos_as_xyz
  1  'x, y, z'
loop_
 _atom_site_type_symbol
 _atom_site_label
 _atom_site_symmetry_multiplicity
 _atom_site_fract_x
 _atom_site_fract_y
 _atom_site_fract_z
 _atom_site_occupancy
  Li  Li0  1  0.916575  0.773371  0.064889  1
  Li  Li1  1  0.892339  0.475014  0.064350  1
  Li  Li2  1  0.143204  0.226629  0.435111  1
  Li  Li3  1  0.417325  0.892339  0.935650  1
  Li  Li4  1  0.773371  0.916575  0.435111  1
  Li  Li5  1  0.773371  0.856796  0.935111  1
  Li  Li6  1  0.107661  0.524986  0.935650  1
  Li  Li7  1  0.439923  0.190624  0.934798  1
  Li  Li8  1  0.417325  0.524986  0.435650  1
  Li  Li9  1  0.916575  0.143204  0.564889  1
  Li  Li10  1  0.809376  0.560077  0.434798  1
  Li  Li11  1  0.892339  0.417325  0.564350  1
  Li  Li12  1  0.856796  0.773371  0.564889  1
  Li  Li13  1  0.560077  0.750702  0.565202  1
  Li  Li14  1  0.856796  0.083425  0.064889  1
  Li  Li15  1  0.524986  0.417325  0.064350  1
  Li  Li16  1  0.809376  0.249298  0.934798  1
  Li  Li17  1  0.439923  0.249298  0.434798  1
  Li  Li18  1  0.582675  0.107661  0.064350  1
  Li  Li19  1  0.083425  0.856796  0.435111  1
  Li  Li20  1  0.226629  0.143204  0.064889  1
  Li  Li21  1  0.475014  0.582675  0.935650  1
  Li  Li22  1  0.249298  0.439923  0.065202  1
  Li  Li23  1  0.143204  0.916575  0.935111  1
  Li  Li24  1  0.249298  0.809376  0.565202  1
  Li  Li25  1  0.475014  0.892339  0.435650  1
  Li  Li26  1  0.750702  0.190624  0.434798  1
  Li  Li27  1  0.190624  0.439923  0.565202  1
  Li  Li28  1  0.560077  0.809376  0.065202  1
  Li  Li29  1  0.582675  0.475014  0.564350  1
  Li  Li30  1  0.107661  0.582675  0.435650  1
  Li  Li31  1  0.226629  0.083425  0.564889  1
  Li  Li32  1  0.190624  0.750702  0.065202  1
  Li  Li33  1  0.083425  0.226629  0.935111  1
  Li  Li34  1  0.750702  0.560077  0.934798  1
  Li  Li35  1  0.524986  0.107661  0.564350  1
  Ca  Ca36  1  0.333333  0.666667  0.750201  1
  Ca  Ca37  1  0.666667  0.333333  0.249799  1
  Ca  Ca38  1  0.000000  0.000000  0.250000  1
  Ca  Ca39  1  0.333333  0.666667  0.250201  1
  Ca  Ca40  1  0.666667  0.333333  0.749799  1
  Ca  Ca41  1  0.000000  0.000000  0.750000  1
  Ce  Ce42  1  0.666500  0.000000  0.750000  1
  Ce  Ce43  1  0.333500  0.333500  0.750000  1
  Ce  Ce44  1  0.333500  0.000000  0.250000  1
  Ce  Ce45  1  0.000000  0.666500  0.750000  1
  Ce  Ce46  1  1.000000  0.333500  0.250000  1
  Ce  Ce47  1  0.666500  0.666500  0.250000  1
  O  O48  1  0.246406  0.449806  0.880966  1
  O  O49  1  0.883625  0.463143  0.880435  1
  O  O50  1  0.246406  0.796600  0.380966  1
  O  O51  1  0.782970  0.913148  0.619375  1
  O  O52  1  0.086852  0.217030  0.119375  1
  O  O53  1  0.550194  0.796600  0.880966  1
  O  O54  1  0.579518  0.116375  0.880435  1
  O  O55  1  0.420482  0.536857  0.619565  1
  O  O56  1  0.463143  0.883625  0.619565  1
  O  O57  1  0.449806  0.246406  0.619034  1
  O  O58  1  0.782970  0.869822  0.119375  1
  O  O59  1  0.086852  0.869822  0.619375  1
  O  O60  1  0.203400  0.449806  0.380966  1
  O  O61  1  0.883625  0.420482  0.380435  1
  O  O62  1  0.550194  0.753594  0.380966  1
  O  O63  1  0.116375  0.579518  0.619565  1
  O  O64  1  0.130178  0.913148  0.119375  1
  O  O65  1  0.449806  0.203400  0.119034  1
  O  O66  1  0.203400  0.753594  0.880966  1
  O  O67  1  0.869822  0.086852  0.880625  1
  O  O68  1  0.869822  0.782970  0.380625  1
  O  O69  1  0.913148  0.130178  0.380625  1
  O  O70  1  0.536857  0.420482  0.880435  1
  O  O71  1  0.217030  0.130178  0.880625  1
  O  O72  1  0.913148  0.782970  0.880625  1
  O  O73  1  0.796600  0.550194  0.619034  1
  O  O74  1  0.796600  0.246406  0.119034  1
  O  O75  1  0.753594  0.203400  0.619034  1
  O  O76  1  0.130178  0.217030  0.619375  1
  O  O77  1  0.579518  0.463143  0.380435  1
  O  O78  1  0.420482  0.883625  0.119565  1
  O  O79  1  0.536857  0.116375  0.380435  1
  O  O80  1  0.217030  0.086852  0.380625  1
  O  O81  1  0.463143  0.579518  0.119565  1
  O  O82  1  0.753594  0.550194  0.119034  1
  O  O83  1  0.116375  0.536857  0.119565  1
