# generated using pymatgen
data_Ni3B7IO13
_symmetry_space_group_name_H-M   'P 1'
_cell_length_a   8.59676757
_cell_length_b   8.59676811
_cell_length_c   8.59676740
_cell_angle_alpha   59.99999495
_cell_angle_beta   59.99999281
_cell_angle_gamma   59.99999506
_symmetry_Int_Tables_number   1
_chemical_formula_structural   Ni3B7IO13
_chemical_formula_sum   'Ni6 B14 I2 O26'
_cell_volume   449.25251740
_cell_formula_units_Z   2
loop_
 _symmetry_equiv_pos_site_id
 _symmetry_equiv_pos_as_xyz
  1  'x, y, z'
loop_
 _atom_site_type_symbol
 _atom_site_label
 _atom_site_symmetry_multiplicity
 _atom_site_fract_x
 _atom_site_fract_y
 _atom_site_fract_z
 _atom_site_occupancy
  O  O0  1  0.000000  0.000000  0.000000  1
  O  O1  1  0.500000  0.500000  0.500000  1
  I  I2  1  0.250000  0.250000  0.250000  1
  I  I3  1  0.750000  0.750000  0.750000  1
  Ni  Ni4  1  0.000000  0.000000  0.500000  1
  Ni  Ni5  1  0.500000  0.000000  0.000000  1
  Ni  Ni6  1  0.000000  0.500000  0.500000  1
  Ni  Ni7  1  0.500000  0.000000  0.500000  1
  Ni  Ni8  1  0.000000  0.500000  0.000000  1
  Ni  Ni9  1  0.500000  0.500000  0.000000  1
  B  B10  1  0.750000  0.250000  0.250000  1
  B  B11  1  0.750000  0.750000  0.250000  1
  B  B12  1  0.250000  0.250000  0.750000  1
  B  B13  1  0.750000  0.250000  0.750000  1
  B  B14  1  0.250000  0.750000  0.250000  1
  B  B15  1  0.250000  0.750000  0.750000  1
  B  B16  1  0.080270  0.080270  0.080270  1
  B  B17  1  0.580270  0.580270  0.259190  1
  B  B18  1  0.259190  0.580270  0.580270  1
  B  B19  1  0.580270  0.259190  0.580270  1
  B  B20  1  0.759190  0.080270  0.080270  1
  B  B21  1  0.080270  0.759190  0.080270  1
  B  B22  1  0.080270  0.080270  0.759190  1
  B  B23  1  0.580270  0.580270  0.580270  1
  O  O24  1  0.936178  0.258814  0.101495  1
  O  O25  1  0.758814  0.601495  0.203513  1
  O  O26  1  0.203513  0.436178  0.758814  1
  O  O27  1  0.758814  0.203513  0.436178  1
  O  O28  1  0.601495  0.436178  0.203513  1
  O  O29  1  0.601495  0.203513  0.758814  1
  O  O30  1  0.203513  0.601495  0.436178  1
  O  O31  1  0.101495  0.936178  0.258814  1
  O  O32  1  0.258814  0.101495  0.936178  1
  O  O33  1  0.703513  0.936178  0.101495  1
  O  O34  1  0.258814  0.703513  0.101495  1
  O  O35  1  0.703513  0.258814  0.936178  1
  O  O36  1  0.101495  0.258814  0.703513  1
  O  O37  1  0.936178  0.101495  0.703513  1
  O  O38  1  0.936178  0.703513  0.258814  1
  O  O39  1  0.101495  0.703513  0.936178  1
  O  O40  1  0.703513  0.101495  0.258814  1
  O  O41  1  0.258814  0.936178  0.703513  1
  O  O42  1  0.203513  0.758814  0.601495  1
  O  O43  1  0.436178  0.203513  0.601495  1
  O  O44  1  0.436178  0.758814  0.203513  1
  O  O45  1  0.758814  0.436178  0.601495  1
  O  O46  1  0.601495  0.758814  0.436178  1
  O  O47  1  0.436178  0.601495  0.758814  1
