# generated using pymatgen
data_Cs3BiCl6
_symmetry_space_group_name_H-M   'P 1'
_cell_length_a   8.40013632
_cell_length_b   13.43931224
_cell_length_c   14.38436711
_cell_angle_alpha   99.17195950
_cell_angle_beta   106.97703580
_cell_angle_gamma   89.99999929
_symmetry_Int_Tables_number   1
_chemical_formula_structural   Cs3BiCl6
_chemical_formula_sum   'Cs12 Bi4 Cl24'
_cell_volume   1531.39363615
_cell_formula_units_Z   4
loop_
 _symmetry_equiv_pos_site_id
 _symmetry_equiv_pos_as_xyz
  1  'x, y, z'
loop_
 _atom_site_type_symbol
 _atom_site_label
 _atom_site_symmetry_multiplicity
 _atom_site_fract_x
 _atom_site_fract_y
 _atom_site_fract_z
 _atom_site_occupancy
  Cs  Cs0  1  0.652333  0.700853  0.677206  1
  Cs  Cs1  1  0.696051  0.067778  0.900705  1
  Cs  Cs2  1  0.840338  0.145116  0.308253  1
  Cs  Cs3  1  0.347667  0.299147  0.322794  1
  Cs  Cs4  1  0.467915  0.645116  0.308253  1
  Cs  Cs5  1  0.204654  0.567778  0.900705  1
  Cs  Cs6  1  0.024873  0.200853  0.677206  1
  Cs  Cs7  1  0.532085  0.354884  0.691747  1
  Cs  Cs8  1  0.159662  0.854884  0.691747  1
  Cs  Cs9  1  0.795346  0.432222  0.099295  1
  Cs  Cs10  1  0.975127  0.799147  0.322794  1
  Cs  Cs11  1  0.303949  0.932222  0.099295  1
  Bi  Bi12  1  0.216363  0.250000  0.000000  1
  Bi  Bi13  1  0.000000  0.500000  0.500000  1
  Bi  Bi14  1  0.783637  0.750000  0.000000  1
  Bi  Bi15  1  0.500000  0.000000  0.500000  1
  Cl  Cl16  1  0.272398  0.580762  0.653509  1
  Cl  Cl17  1  0.361661  0.814517  0.500827  1
  Cl  Cl18  1  0.139166  0.314517  0.500827  1
  Cl  Cl19  1  0.282643  0.435094  0.115492  1
  Cl  Cl20  1  0.611965  0.680841  0.114290  1
  Cl  Cl21  1  0.502326  0.180841  0.114290  1
  Cl  Cl22  1  0.131858  0.534670  0.354369  1
  Cl  Cl23  1  0.618889  0.919238  0.346491  1
  Cl  Cl24  1  0.381111  0.080762  0.653509  1
  Cl  Cl25  1  0.638339  0.185483  0.499173  1
  Cl  Cl26  1  0.031809  0.193690  0.114733  1
  Cl  Cl27  1  0.968191  0.806310  0.885267  1
  Cl  Cl28  1  0.222511  0.034670  0.354369  1
  Cl  Cl29  1  0.832849  0.935094  0.115492  1
  Cl  Cl30  1  0.082924  0.693690  0.114733  1
  Cl  Cl31  1  0.868142  0.465330  0.645631  1
  Cl  Cl32  1  0.717357  0.564906  0.884508  1
  Cl  Cl33  1  0.860834  0.685483  0.499173  1
  Cl  Cl34  1  0.917076  0.306310  0.885267  1
  Cl  Cl35  1  0.497674  0.819159  0.885710  1
  Cl  Cl36  1  0.727602  0.419238  0.346491  1
  Cl  Cl37  1  0.777489  0.965330  0.645631  1
  Cl  Cl38  1  0.167151  0.064906  0.884508  1
  Cl  Cl39  1  0.388035  0.319159  0.885710  1
