# generated using pymatgen
data_Zn3P2H2O9
_symmetry_space_group_name_H-M   'P 1'
_cell_length_a   4.94081200
_cell_length_b   8.81469362
_cell_length_c   16.99514626
_cell_angle_alpha   95.18503352
_cell_angle_beta   90.00000000
_cell_angle_gamma   90.00000000
_symmetry_Int_Tables_number   1
_chemical_formula_structural   Zn3P2H2O9
_chemical_formula_sum   'Zn12 P8 H8 O36'
_cell_volume   737.13951986
_cell_formula_units_Z   4
loop_
 _symmetry_equiv_pos_site_id
 _symmetry_equiv_pos_as_xyz
  1  'x, y, z'
loop_
 _atom_site_type_symbol
 _atom_site_label
 _atom_site_symmetry_multiplicity
 _atom_site_fract_x
 _atom_site_fract_y
 _atom_site_fract_z
 _atom_site_occupancy
  Zn  Zn0  1  0.990359  0.080065  0.180497  1
  Zn  Zn1  1  0.704307  0.433880  0.153573  1
  Zn  Zn2  1  0.298279  0.670025  0.055390  1
  Zn  Zn3  1  0.490359  0.919935  0.319503  1
  Zn  Zn4  1  0.201721  0.670025  0.555390  1
  Zn  Zn5  1  0.701721  0.329975  0.944610  1
  Zn  Zn6  1  0.295693  0.566120  0.846427  1
  Zn  Zn7  1  0.509641  0.080065  0.680497  1
  Zn  Zn8  1  0.009641  0.919935  0.819503  1
  Zn  Zn9  1  0.204307  0.566120  0.346427  1
  Zn  Zn10  1  0.795693  0.433880  0.653573  1
  Zn  Zn11  1  0.798279  0.329975  0.444610  1
  P  P12  1  0.790770  0.685200  0.944191  1
  P  P13  1  0.008896  0.761788  0.216796  1
  P  P14  1  0.991104  0.238212  0.783204  1
  P  P15  1  0.290770  0.314800  0.555809  1
  P  P16  1  0.209230  0.314800  0.055809  1
  P  P17  1  0.709230  0.685200  0.444190  1
  P  P18  1  0.508896  0.238212  0.283204  1
  P  P19  1  0.491104  0.761788  0.716796  1
  H  H20  1  0.045719  0.932445  0.406988  1
  H  H21  1  0.214747  0.083033  0.434526  1
  H  H22  1  0.285253  0.083033  0.934526  1
  H  H23  1  0.785253  0.916967  0.565474  1
  H  H24  1  0.454281  0.932445  0.906988  1
  H  H25  1  0.954281  0.067555  0.593012  1
  H  H26  1  0.714747  0.916967  0.065474  1
  H  H27  1  0.545719  0.067555  0.093012  1
  O  O28  1  0.730714  0.026761  0.083116  1
  O  O29  1  0.732544  0.258901  0.218156  1
  O  O30  1  0.345027  0.802373  0.640586  1
  O  O31  1  0.232544  0.741099  0.281844  1
  O  O32  1  0.658148  0.615343  0.709363  1
  O  O33  1  0.154973  0.802373  0.140586  1
  O  O34  1  0.744764  0.816961  0.393050  1
  O  O35  1  0.168025  0.095202  0.758454  1
  O  O36  1  0.845027  0.197627  0.859414  1
  O  O37  1  0.903120  0.361278  0.048385  1
  O  O38  1  0.255236  0.183039  0.606950  1
  O  O39  1  0.854704  0.538279  0.403525  1
  O  O40  1  0.769286  0.026761  0.583116  1
  O  O41  1  0.645296  0.538279  0.903525  1
  O  O42  1  0.672187  0.722571  0.027825  1
  O  O43  1  0.841852  0.615343  0.209363  1
  O  O44  1  0.596880  0.361278  0.548385  1
  O  O45  1  0.654973  0.197627  0.359414  1
  O  O46  1  0.244764  0.183039  0.106950  1
  O  O47  1  0.096880  0.638722  0.951615  1
  O  O48  1  0.331975  0.095202  0.258454  1
  O  O49  1  0.755236  0.816961  0.893050  1
  O  O50  1  0.827813  0.722571  0.527825  1
  O  O51  1  0.267456  0.741099  0.781844  1
  O  O52  1  0.767456  0.258901  0.718156  1
  O  O53  1  0.668025  0.904798  0.741546  1
  O  O54  1  0.831975  0.904798  0.241546  1
  O  O55  1  0.269286  0.973239  0.916884  1
  O  O56  1  0.341852  0.384657  0.290637  1
  O  O57  1  0.354704  0.461721  0.096475  1
  O  O58  1  0.158148  0.384657  0.790637  1
  O  O59  1  0.230714  0.973239  0.416884  1
  O  O60  1  0.172187  0.277429  0.472175  1
  O  O61  1  0.145296  0.461721  0.596475  1
  O  O62  1  0.327813  0.277429  0.972175  1
  O  O63  1  0.403120  0.638722  0.451615  1
