# generated using pymatgen
data_Ba7Fe6CuF34
_symmetry_space_group_name_H-M   'P 1'
_cell_length_a   7.81951091
_cell_length_b   10.37828001
_cell_length_c   10.37828001
_cell_angle_alpha   67.96042498
_cell_angle_beta   80.36749860
_cell_angle_gamma   80.36749864
_symmetry_Int_Tables_number   1
_chemical_formula_structural   Ba7Fe6CuF34
_chemical_formula_sum   'Ba7 Fe6 Cu1 F34'
_cell_volume   764.62420509
_cell_formula_units_Z   1
loop_
 _symmetry_equiv_pos_site_id
 _symmetry_equiv_pos_as_xyz
  1  'x, y, z'
loop_
 _atom_site_type_symbol
 _atom_site_label
 _atom_site_symmetry_multiplicity
 _atom_site_fract_x
 _atom_site_fract_y
 _atom_site_fract_z
 _atom_site_occupancy
  F  F0  1  0.674143  0.560512  0.560512  1
  F  F1  1  0.325857  0.439488  0.439488  1
  F  F2  1  0.305816  0.888874  0.888874  1
  F  F3  1  0.694184  0.111126  0.111126  1
  F  F4  1  0.759367  0.746272  0.746272  1
  F  F5  1  0.240633  0.253728  0.253728  1
  F  F6  1  0.544450  0.119997  0.355743  1
  F  F7  1  0.455550  0.644257  0.880003  1
  F  F8  1  0.455550  0.880003  0.644257  1
  F  F9  1  0.544450  0.355743  0.119997  1
  F  F10  1  0.386002  0.985510  0.231185  1
  F  F11  1  0.613998  0.768815  0.014490  1
  F  F12  1  0.613998  0.014490  0.768815  1
  F  F13  1  0.386002  0.231185  0.985510  1
  F  F14  1  0.971489  0.513580  0.246538  1
  F  F15  1  0.028511  0.753462  0.486420  1
  F  F16  1  0.028511  0.486420  0.753462  1
  F  F17  1  0.971489  0.246538  0.513580  1
  F  F18  1  0.007114  0.263628  0.004568  1
  F  F19  1  0.992886  0.995432  0.736372  1
  F  F20  1  0.992886  0.736372  0.995432  1
  F  F21  1  0.007114  0.004568  0.263628  1
  F  F22  1  0.803275  0.515944  0.040894  1
  F  F23  1  0.196725  0.959106  0.484056  1
  F  F24  1  0.196725  0.484056  0.959106  1
  F  F25  1  0.803275  0.040894  0.515944  1
  F  F26  1  0.200946  0.206830  0.793542  1
  F  F27  1  0.799054  0.206458  0.793170  1
  F  F28  1  0.799054  0.793170  0.206458  1
  F  F29  1  0.200946  0.793542  0.206830  1
  F  F30  1  0.614380  0.554272  0.276132  1
  F  F31  1  0.385620  0.723868  0.445728  1
  F  F32  1  0.385620  0.445728  0.723868  1
  F  F33  1  0.614380  0.276132  0.554272  1
  Fe  Fe34  1  0.199524  0.866715  0.352876  1
  Fe  Fe35  1  0.800476  0.647124  0.133285  1
  Fe  Fe36  1  0.800476  0.133285  0.647124  1
  Fe  Fe37  1  0.199524  0.352876  0.866715  1
  Fe  Fe38  1  0.541050  0.826439  0.826439  1
  Fe  Fe39  1  0.458950  0.173561  0.173561  1
  Cu  Cu40  1  0.500000  0.500000  0.500000  1
  Ba  Ba41  1  0.698981  0.841194  0.440431  1
  Ba  Ba42  1  0.301019  0.559569  0.158806  1
  Ba  Ba43  1  0.301019  0.158806  0.559569  1
  Ba  Ba44  1  0.698981  0.440431  0.841194  1
  Ba  Ba45  1  0.125723  0.735638  0.735638  1
  Ba  Ba46  1  0.874277  0.264362  0.264362  1
  Ba  Ba47  1  0.000000  0.000000  0.000000  1
