# generated using pymatgen
data_Gd(PO3)3
_symmetry_space_group_name_H-M   'P 1'
_cell_length_a   10.24414479
_cell_length_b   13.47153662
_cell_length_c   13.47153722
_cell_angle_alpha   61.17136623
_cell_angle_beta   84.18550183
_cell_angle_gamma   84.18550331
_symmetry_Int_Tables_number   1
_chemical_formula_structural   Gd(PO3)3
_chemical_formula_sum   'Gd8 P24 O72'
_cell_volume   1617.40386773
_cell_formula_units_Z   8
loop_
 _symmetry_equiv_pos_site_id
 _symmetry_equiv_pos_as_xyz
  1  'x, y, z'
loop_
 _atom_site_type_symbol
 _atom_site_label
 _atom_site_symmetry_multiplicity
 _atom_site_fract_x
 _atom_site_fract_y
 _atom_site_fract_z
 _atom_site_occupancy
  Gd  Gd0  1  0.230724  0.981093  0.751910  1
  Gd  Gd1  1  0.734180  0.487479  0.745364  1
  Gd  Gd2  1  0.234180  0.245364  0.987479  1
  Gd  Gd3  1  0.765820  0.754636  0.012521  1
  Gd  Gd4  1  0.769276  0.018907  0.248090  1
  Gd  Gd5  1  0.265820  0.512521  0.254636  1
  Gd  Gd6  1  0.730724  0.251910  0.481093  1
  Gd  Gd7  1  0.269276  0.748090  0.518907  1
  P  P8  1  0.935995  0.156269  0.729431  1
  P  P9  1  0.573364  0.841234  0.761778  1
  P  P10  1  0.448215  0.642326  0.778607  1
  P  P11  1  0.073364  0.261778  0.341234  1
  P  P12  1  0.066588  0.354145  0.716219  1
  P  P13  1  0.250000  0.530536  0.969464  1
  P  P14  1  0.710153  0.539721  0.450277  1
  P  P15  1  0.250000  0.048627  0.451373  1
  P  P16  1  0.064005  0.843731  0.270569  1
  P  P17  1  0.566588  0.216219  0.854145  1
  P  P18  1  0.926636  0.738222  0.658766  1
  P  P19  1  0.551785  0.357674  0.221393  1
  P  P20  1  0.435995  0.229431  0.656269  1
  P  P21  1  0.210153  0.950277  0.039721  1
  P  P22  1  0.750000  0.951373  0.548627  1
  P  P23  1  0.948215  0.278607  0.142326  1
  P  P24  1  0.564005  0.770569  0.343731  1
  P  P25  1  0.289847  0.460279  0.549723  1
  P  P26  1  0.051785  0.721393  0.857674  1
  P  P27  1  0.750000  0.469464  0.030536  1
  P  P28  1  0.433412  0.783781  0.145855  1
  P  P29  1  0.426636  0.158766  0.238222  1
  P  P30  1  0.933412  0.645855  0.283781  1
  P  P31  1  0.789847  0.049723  0.960279  1
  O  O32  1  0.141265  0.424754  0.594025  1
  O  O33  1  0.941867  0.710151  0.787447  1
  O  O34  1  0.671032  0.852127  0.288269  1
  O  O35  1  0.455293  0.794658  0.256149  1
  O  O36  1  0.264390  0.046573  0.561933  1
  O  O37  1  0.544707  0.205342  0.743851  1
  O  O38  1  0.880766  0.134512  0.854908  1
  O  O39  1  0.876169  0.870122  0.606765  1
  O  O40  1  0.479336  0.459231  0.223230  1
  O  O41  1  0.437792  0.218414  0.916556  1
  O  O42  1  0.441236  0.897055  0.769644  1
  O  O43  1  0.820542  0.667446  0.662305  1
  O  O44  1  0.871547  0.400592  0.107152  1
  O  O45  1  0.171032  0.788269  0.352127  1
  O  O46  1  0.231495  0.531703  0.080549  1
  O  O47  1  0.376169  0.106765  0.370122  1
  O  O48  1  0.343037  0.690927  0.177370  1
  O  O49  1  0.189848  0.067451  0.026714  1
  O  O50  1  0.558133  0.712553  0.789849  1
  O  O51  1  0.764390  0.061933  0.546573  1
  O  O52  1  0.486877  0.766230  0.446500  1
  O  O53  1  0.123831  0.129878  0.393235  1
  O  O54  1  0.520664  0.540769  0.776770  1
  O  O55  1  0.628453  0.392848  0.099408  1
  O  O56  1  0.689848  0.526714  0.567451  1
  O  O57  1  0.828968  0.211731  0.647873  1
  O  O58  1  0.979336  0.723230  0.959231  1
  O  O59  1  0.328968  0.147873  0.711731  1
  O  O60  1  0.311060  0.560120  0.565732  1
  O  O61  1  0.656963  0.309073  0.822630  1
  O  O62  1  0.044707  0.243851  0.705342  1
  O  O63  1  0.188940  0.934268  0.939880  1
  O  O64  1  0.441867  0.287447  0.210151  1
  O  O65  1  0.141092  0.815416  0.785195  1
  O  O66  1  0.735610  0.953427  0.438067  1
  O  O67  1  0.119234  0.865488  0.145092  1
  O  O68  1  0.937792  0.416556  0.718414  1
  O  O69  1  0.179458  0.332554  0.337695  1
  O  O70  1  0.858908  0.184584  0.214805  1
  O  O71  1  0.013123  0.053500  0.733770  1
  O  O72  1  0.558764  0.102945  0.230356  1
  O  O73  1  0.358735  0.905975  0.075246  1
  O  O74  1  0.679458  0.837695  0.832554  1
  O  O75  1  0.358908  0.714805  0.684584  1
  O  O76  1  0.058764  0.730356  0.602945  1
  O  O77  1  0.731495  0.580549  0.031703  1
  O  O78  1  0.268505  0.419451  0.968297  1
  O  O79  1  0.941236  0.269644  0.397055  1
  O  O80  1  0.562208  0.781586  0.083444  1
  O  O81  1  0.688940  0.439880  0.434268  1
  O  O82  1  0.058133  0.289849  0.212553  1
  O  O83  1  0.768505  0.468297  0.919451  1
  O  O84  1  0.320542  0.162305  0.167446  1
  O  O85  1  0.623831  0.893235  0.629878  1
  O  O86  1  0.811060  0.065732  0.060120  1
  O  O87  1  0.235610  0.938067  0.453427  1
  O  O88  1  0.843037  0.677370  0.190927  1
  O  O89  1  0.955293  0.756149  0.294658  1
  O  O90  1  0.156963  0.322630  0.809073  1
  O  O91  1  0.371547  0.607152  0.900592  1
  O  O92  1  0.619234  0.645092  0.365488  1
  O  O93  1  0.641265  0.094025  0.924754  1
  O  O94  1  0.062208  0.583444  0.281586  1
  O  O95  1  0.858735  0.575246  0.405975  1
  O  O96  1  0.380766  0.354908  0.634512  1
  O  O97  1  0.513123  0.233770  0.553500  1
  O  O98  1  0.128453  0.599408  0.892848  1
  O  O99  1  0.310152  0.473286  0.432549  1
  O  O100  1  0.641092  0.285195  0.315416  1
  O  O101  1  0.810152  0.932549  0.973286  1
  O  O102  1  0.020664  0.276770  0.040769  1
  O  O103  1  0.986877  0.946500  0.266230  1
