# generated using pymatgen
data_K(RuO2)4
_symmetry_space_group_name_H-M   'P 1'
_cell_length_a   3.18430120
_cell_length_b   7.23774860
_cell_length_c   7.23774860
_cell_angle_alpha   87.22633771
_cell_angle_beta   77.29221742
_cell_angle_gamma   77.29221748
_symmetry_Int_Tables_number   1
_chemical_formula_structural   K(RuO2)4
_chemical_formula_sum   'K1 Ru4 O8'
_cell_volume   158.73760986
_cell_formula_units_Z   1
loop_
 _symmetry_equiv_pos_site_id
 _symmetry_equiv_pos_as_xyz
  1  'x, y, z'
loop_
 _atom_site_type_symbol
 _atom_site_label
 _atom_site_symmetry_multiplicity
 _atom_site_fract_x
 _atom_site_fract_y
 _atom_site_fract_z
 _atom_site_occupancy
  O  O0  1  0.453391  0.390478  0.702740  1
  O  O1  1  0.156131  0.297260  0.390478  1
  O  O2  1  0.843869  0.702740  0.609522  1
  O  O3  1  0.546609  0.609522  0.297260  1
  O  O4  1  0.849530  0.950206  0.350734  1
  O  O5  1  0.150470  0.049794  0.649266  1
  O  O6  1  0.799736  0.350734  0.049794  1
  O  O7  1  0.200264  0.649266  0.950206  1
  K  K8  1  0.500000  0.000000  0.000000  1
  Ru  Ru9  1  0.166700  0.481347  0.185254  1
  Ru  Ru10  1  0.833300  0.518653  0.814746  1
  Ru  Ru11  1  0.351954  0.814746  0.481347  1
  Ru  Ru12  1  0.648046  0.185254  0.518653  1
