# generated using pymatgen
data_Ca10Ta3Ti4Al3(SiO5)10
_symmetry_space_group_name_H-M   'P 1'
_cell_length_a   5.47892995
_cell_length_b   27.58557147
_cell_length_c   7.12506082
_cell_angle_alpha   104.46353537
_cell_angle_beta   103.98667316
_cell_angle_gamma   105.53286400
_symmetry_Int_Tables_number   1
_chemical_formula_structural   Ca10Ta3Ti4Al3(SiO5)10
_chemical_formula_sum   'Ca10 Ta3 Ti4 Al3 Si10 O50'
_cell_volume   948.11557302
_cell_formula_units_Z   1
loop_
 _symmetry_equiv_pos_site_id
 _symmetry_equiv_pos_as_xyz
  1  'x, y, z'
loop_
 _atom_site_type_symbol
 _atom_site_label
 _atom_site_symmetry_multiplicity
 _atom_site_fract_x
 _atom_site_fract_y
 _atom_site_fract_z
 _atom_site_occupancy
  Al  Al0  1  0.500630  0.900808  0.001473  1
  Al  Al1  1  0.500000  0.700000  0.000000  1
  Al  Al2  1  0.499370  0.499192  0.998527  1
  Ca  Ca3  1  0.178925  0.967026  0.776933  1
  Ca  Ca4  1  0.182194  0.767985  0.777173  1
  Ca  Ca5  1  0.181981  0.567474  0.778651  1
  Ca  Ca6  1  0.175134  0.366651  0.756649  1
  Ca  Ca7  1  0.818019  0.832526  0.221349  1
  Ca  Ca8  1  0.168055  0.165082  0.747777  1
  Ca  Ca9  1  0.817806  0.632015  0.222827  1
  Ca  Ca10  1  0.821075  0.432974  0.223067  1
  Ca  Ca11  1  0.831945  0.234918  0.252223  1
  Ca  Ca12  1  0.824866  0.033349  0.243351  1
  O  O13  1  0.128129  0.851707  0.915079  1
  O  O14  1  0.187205  0.923265  0.383705  1
  O  O15  1  0.428698  0.913041  0.755180  1
  O  O16  1  0.128515  0.651510  0.916320  1
  O  O17  1  0.242388  0.823387  0.399268  1
  O  O18  1  0.387916  0.961770  0.115405  1
  O  O19  1  0.187225  0.723128  0.383006  1
  O  O20  1  0.610235  0.838544  0.884756  1
  O  O21  1  0.755234  0.976037  0.596715  1
  O  O22  1  0.427266  0.712752  0.754664  1
  O  O23  1  0.128884  0.450934  0.912207  1
  O  O24  1  0.569942  0.886840  0.244309  1
  O  O25  1  0.244326  0.623530  0.398986  1
  O  O26  1  0.389562  0.761748  0.115234  1
  O  O27  1  0.188364  0.523190  0.383889  1
  O  O28  1  0.811636  0.876810  0.616111  1
  O  O29  1  0.610438  0.638252  0.884766  1
  O  O30  1  0.755674  0.776470  0.601014  1
  O  O31  1  0.430058  0.513160  0.755691  1
  O  O32  1  0.119562  0.249641  0.908151  1
  O  O33  1  0.871116  0.949066  0.087793  1
  O  O34  1  0.572734  0.687248  0.245336  1
  O  O35  1  0.244766  0.423963  0.403285  1
  O  O36  1  0.389765  0.561456  0.115244  1
  O  O37  1  0.188183  0.323163  0.385916  1
  O  O38  1  0.812775  0.676872  0.616994  1
  O  O39  1  0.612084  0.438230  0.884595  1
  O  O40  1  0.757612  0.576613  0.600732  1
  O  O41  1  0.431352  0.313906  0.751471  1
  O  O42  1  0.121435  0.050974  0.912535  1
  O  O43  1  0.871485  0.748490  0.083680  1
  O  O44  1  0.571302  0.486959  0.244820  1
  O  O45  1  0.249988  0.224887  0.410566  1
  O  O46  1  0.389705  0.362629  0.116877  1
  O  O47  1  0.186243  0.123039  0.385347  1
  O  O48  1  0.812795  0.476735  0.616295  1
  O  O49  1  0.609303  0.236725  0.880656  1
  O  O50  1  0.753475  0.375821  0.596801  1
  O  O51  1  0.430486  0.113627  0.749778  1
  O  O52  1  0.871871  0.548293  0.084921  1
  O  O53  1  0.569514  0.286373  0.250222  1
  O  O54  1  0.246525  0.024179  0.403199  1
  O  O55  1  0.390697  0.163275  0.119344  1
  O  O56  1  0.813757  0.276961  0.614653  1
  O  O57  1  0.610295  0.037371  0.883123  1
  O  O58  1  0.750012  0.175113  0.589434  1
  O  O59  1  0.878565  0.349026  0.087465  1
  O  O60  1  0.568648  0.086094  0.248529  1
  O  O61  1  0.811817  0.076837  0.614084  1
  O  O62  1  0.880438  0.150359  0.091849  1
  Si  Si63  1  0.174576  0.963598  0.242864  1
  Si  Si64  1  0.172498  0.762314  0.239199  1
  Si  Si65  1  0.173630  0.562293  0.239812  1
  Si  Si66  1  0.826370  0.837707  0.760188  1
  Si  Si67  1  0.178936  0.362745  0.247490  1
  Si  Si68  1  0.827502  0.637686  0.760801  1
  Si  Si69  1  0.182549  0.164505  0.253098  1
  Si  Si70  1  0.825424  0.436402  0.757136  1
  Si  Si71  1  0.817451  0.235495  0.746902  1
  Si  Si72  1  0.821064  0.037255  0.752510  1
  Ta  Ta73  1  0.497012  0.899793  0.498851  1
  Ta  Ta74  1  0.500000  0.700000  0.500000  1
  Ta  Ta75  1  0.502988  0.500207  0.501149  1
  Ti  Ti76  1  0.505142  0.300707  0.501418  1
  Ti  Ti77  1  0.496759  0.298578  0.996278  1
  Ti  Ti78  1  0.494858  0.099293  0.498582  1
  Ti  Ti79  1  0.503241  0.101422  0.003722  1
