# generated using pymatgen
data_BaBe2(BO3)2
_symmetry_space_group_name_H-M   'P 1'
_cell_length_a   6.43615382
_cell_length_b   6.74717204
_cell_length_c   7.27290543
_cell_angle_alpha   77.81674407
_cell_angle_beta   63.73810966
_cell_angle_gamma   61.51348411
_symmetry_Int_Tables_number   1
_chemical_formula_structural   BaBe2(BO3)2
_chemical_formula_sum   'Ba2 Be4 B4 O12'
_cell_volume   248.94103471
_cell_formula_units_Z   2
loop_
 _symmetry_equiv_pos_site_id
 _symmetry_equiv_pos_as_xyz
  1  'x, y, z'
loop_
 _atom_site_type_symbol
 _atom_site_label
 _atom_site_symmetry_multiplicity
 _atom_site_fract_x
 _atom_site_fract_y
 _atom_site_fract_z
 _atom_site_occupancy
  Ba  Ba0  1  0.375000  0.250000  0.250000  1
  Ba  Ba1  1  0.625000  0.750000  0.750000  1
  Be  Be2  1  0.217529  0.750000  0.564941  1
  Be  Be3  1  0.782470  0.250000  0.435059  1
  Be  Be4  1  0.967530  0.250000  0.064941  1
  Be  Be5  1  0.032470  0.750000  0.935059  1
  B  B6  1  0.339079  0.321842  0.750000  1
  B  B7  1  0.089079  0.821842  0.250000  1
  B  B8  1  0.910921  0.178158  0.750000  1
  B  B9  1  0.660921  0.678158  0.250000  1
  O  O10  1  0.027652  0.944697  0.750000  1
  O  O11  1  0.468591  0.794368  0.427648  1
  O  O12  1  0.896239  0.294368  0.572352  1
  O  O13  1  0.190607  0.705632  0.072352  1
  O  O14  1  0.531409  0.205632  0.572352  1
  O  O15  1  0.737041  0.794368  0.072352  1
  O  O16  1  0.222348  0.555303  0.750000  1
  O  O17  1  0.777652  0.444697  0.250000  1
  O  O18  1  0.809393  0.294368  0.927648  1
  O  O19  1  0.262959  0.205632  0.927648  1
  O  O20  1  0.972348  0.055303  0.250000  1
  O  O21  1  0.103761  0.705632  0.427648  1
