# generated using pymatgen
data_Cr3(PO4)2
_symmetry_space_group_name_H-M   'P 1'
_cell_length_a   8.63171148
_cell_length_b   10.54103991
_cell_length_c   14.46616272
_cell_angle_alpha   90.00000000
_cell_angle_beta   90.00000000
_cell_angle_gamma   90.00000000
_symmetry_Int_Tables_number   1
_chemical_formula_structural   Cr3(PO4)2
_chemical_formula_sum   'Cr24 P16 O64'
_cell_volume   1316.23586056
_cell_formula_units_Z   8
loop_
 _symmetry_equiv_pos_site_id
 _symmetry_equiv_pos_as_xyz
  1  'x, y, z'
loop_
 _atom_site_type_symbol
 _atom_site_label
 _atom_site_symmetry_multiplicity
 _atom_site_fract_x
 _atom_site_fract_y
 _atom_site_fract_z
 _atom_site_occupancy
  Cr  Cr0  1  0.967167  0.494933  0.459830  1
  Cr  Cr1  1  0.203569  0.419670  0.089546  1
  Cr  Cr2  1  0.154358  0.733914  0.762356  1
  Cr  Cr3  1  0.845642  0.233914  0.737644  1
  Cr  Cr4  1  0.703569  0.080330  0.910454  1
  Cr  Cr5  1  0.796431  0.919670  0.410454  1
  Cr  Cr6  1  0.654358  0.766086  0.237644  1
  Cr  Cr7  1  0.605428  0.418194  0.611116  1
  Cr  Cr8  1  0.691458  0.166902  0.143903  1
  Cr  Cr9  1  0.843284  0.656566  0.868921  1
  Cr  Cr10  1  0.308542  0.666902  0.356097  1
  Cr  Cr11  1  0.345642  0.266086  0.262356  1
  Cr  Cr12  1  0.343284  0.843434  0.131079  1
  Cr  Cr13  1  0.105428  0.081806  0.388884  1
  Cr  Cr14  1  0.394572  0.918194  0.888884  1
  Cr  Cr15  1  0.191458  0.333098  0.856097  1
  Cr  Cr16  1  0.296431  0.580330  0.589546  1
  Cr  Cr17  1  0.808542  0.833098  0.643903  1
  Cr  Cr18  1  0.894572  0.581806  0.111116  1
  Cr  Cr19  1  0.532833  0.505067  0.959830  1
  Cr  Cr20  1  0.656716  0.343434  0.368921  1
  Cr  Cr21  1  0.032833  0.994933  0.040170  1
  Cr  Cr22  1  0.467167  0.005067  0.540170  1
  Cr  Cr23  1  0.156716  0.156566  0.631079  1
  P  P24  1  0.148653  0.824073  0.535976  1
  P  P25  1  0.531679  0.501224  0.188631  1
  P  P26  1  0.851347  0.324073  0.964024  1
  P  P27  1  0.968321  0.498776  0.688631  1
  P  P28  1  0.799505  0.156692  0.528938  1
  P  P29  1  0.468321  0.001224  0.311369  1
  P  P30  1  0.964077  0.327859  0.260780  1
  P  P31  1  0.351347  0.175927  0.035976  1
  P  P32  1  0.299505  0.343308  0.471062  1
  P  P33  1  0.031679  0.998776  0.811369  1
  P  P34  1  0.700495  0.843308  0.028938  1
  P  P35  1  0.464077  0.172141  0.739220  1
  P  P36  1  0.648653  0.675927  0.464024  1
  P  P37  1  0.200495  0.656692  0.971062  1
  P  P38  1  0.535923  0.672141  0.760780  1
  P  P39  1  0.035923  0.827859  0.239220  1
  O  O40  1  0.549677  0.976529  0.406008  1
  O  O41  1  0.577481  0.809039  0.103782  1
  O  O42  1  0.477838  0.636887  0.453130  1
  O  O43  1  0.807513  0.947971  0.066101  1
  O  O44  1  0.932674  0.909966  0.752211  1
  O  O45  1  0.215659  0.759319  0.626675  1
  O  O46  1  0.743096  0.553749  0.484835  1
  O  O47  1  0.243096  0.946251  0.515165  1
  O  O48  1  0.117225  0.907419  0.159414  1
  O  O49  1  0.256904  0.053749  0.015165  1
  O  O50  1  0.882886  0.101202  0.441622  1
  O  O51  1  0.067326  0.409966  0.747789  1
  O  O52  1  0.994526  0.919547  0.321076  1
  O  O53  1  0.309100  0.063074  0.323830  1
  O  O54  1  0.387003  0.734824  0.798405  1
  O  O55  1  0.054212  0.131319  0.762900  1
  O  O56  1  0.612997  0.234824  0.701595  1
  O  O57  1  0.348589  0.276322  0.763388  1
  O  O58  1  0.211621  0.219511  0.497891  1
  O  O59  1  0.522162  0.136887  0.046870  1
  O  O60  1  0.382775  0.092581  0.659414  1
  O  O61  1  0.005474  0.419547  0.178924  1
  O  O62  1  0.022162  0.363113  0.953130  1
  O  O63  1  0.945788  0.631319  0.737100  1
  O  O64  1  0.809100  0.436926  0.676170  1
  O  O65  1  0.715659  0.740681  0.373325  1
  O  O66  1  0.190900  0.936926  0.823830  1
  O  O67  1  0.432674  0.590034  0.247789  1
  O  O68  1  0.756904  0.446251  0.984835  1
  O  O69  1  0.450323  0.476529  0.093992  1
  O  O70  1  0.692487  0.052029  0.566101  1
  O  O71  1  0.165732  0.720977  0.461302  1
  O  O72  1  0.334268  0.279023  0.961302  1
  O  O73  1  0.049677  0.523471  0.593992  1
  O  O74  1  0.651411  0.776322  0.736612  1
  O  O75  1  0.788379  0.719511  0.002109  1
  O  O76  1  0.711621  0.280489  0.502109  1
  O  O77  1  0.112997  0.265176  0.298405  1
  O  O78  1  0.567326  0.090034  0.252211  1
  O  O79  1  0.284341  0.240681  0.126675  1
  O  O80  1  0.117114  0.601202  0.058378  1
  O  O81  1  0.617225  0.592581  0.840586  1
  O  O82  1  0.505474  0.080453  0.821076  1
  O  O83  1  0.690900  0.563074  0.176170  1
  O  O84  1  0.848589  0.223678  0.236612  1
  O  O85  1  0.834268  0.220977  0.038698  1
  O  O86  1  0.882775  0.407419  0.340586  1
  O  O87  1  0.617114  0.898798  0.941622  1
  O  O88  1  0.192487  0.447971  0.433899  1
  O  O89  1  0.665732  0.779023  0.538698  1
  O  O90  1  0.887003  0.765176  0.201595  1
  O  O91  1  0.977838  0.863113  0.546870  1
  O  O92  1  0.494526  0.580453  0.678924  1
  O  O93  1  0.784341  0.259319  0.873325  1
  O  O94  1  0.382886  0.398798  0.558378  1
  O  O95  1  0.151411  0.723678  0.263388  1
  O  O96  1  0.554212  0.368681  0.237100  1
  O  O97  1  0.445788  0.868681  0.262900  1
  O  O98  1  0.950323  0.023471  0.906008  1
  O  O99  1  0.288379  0.780489  0.997891  1
  O  O100  1  0.422519  0.309039  0.396218  1
  O  O101  1  0.307513  0.552029  0.933899  1
  O  O102  1  0.077481  0.690961  0.896218  1
  O  O103  1  0.922519  0.190961  0.603782  1
