# generated using pymatgen
data_SiO2
_symmetry_space_group_name_H-M   'P 1'
_cell_length_a   4.37480832
_cell_length_b   12.37278828
_cell_length_c   12.37278828
_cell_angle_alpha   90.00000000
_cell_angle_beta   90.00000000
_cell_angle_gamma   90.00000000
_symmetry_Int_Tables_number   1
_chemical_formula_structural   SiO2
_chemical_formula_sum   'Si16 O32'
_cell_volume   669.72142447
_cell_formula_units_Z   16
loop_
 _symmetry_equiv_pos_site_id
 _symmetry_equiv_pos_as_xyz
  1  'x, y, z'
loop_
 _atom_site_type_symbol
 _atom_site_label
 _atom_site_symmetry_multiplicity
 _atom_site_fract_x
 _atom_site_fract_y
 _atom_site_fract_z
 _atom_site_occupancy
  Si  Si0  1  0.739709  0.855128  0.521924  1
  Si  Si1  1  0.260291  0.478076  0.355128  1
  Si  Si2  1  0.260291  0.644872  0.521924  1
  Si  Si3  1  0.260291  0.021924  0.144872  1
  Si  Si4  1  0.260291  0.144872  0.478076  1
  Si  Si5  1  0.739709  0.355128  0.478076  1
  Si  Si6  1  0.260291  0.978076  0.644872  1
  Si  Si7  1  0.739709  0.978076  0.855128  1
  Si  Si8  1  0.739709  0.644872  0.978076  1
  Si  Si9  1  0.739709  0.478076  0.144872  1
  Si  Si10  1  0.739709  0.144872  0.021924  1
  Si  Si11  1  0.260291  0.521924  0.855128  1
  Si  Si12  1  0.260291  0.855128  0.978076  1
  Si  Si13  1  0.260291  0.355128  0.021924  1
  Si  Si14  1  0.739709  0.021924  0.355128  1
  Si  Si15  1  0.739709  0.521924  0.644872  1
  O  O16  1  0.132801  0.903275  0.096725  1
  O  O17  1  0.000000  0.875993  0.875993  1
  O  O18  1  0.500000  0.562394  0.562394  1
  O  O19  1  0.500000  0.062394  0.062394  1
  O  O20  1  0.500000  0.997574  0.750000  1
  O  O21  1  0.500000  0.002426  0.250000  1
  O  O22  1  0.000000  0.624007  0.624007  1
  O  O23  1  0.500000  0.750000  0.502426  1
  O  O24  1  0.500000  0.937606  0.937606  1
  O  O25  1  0.500000  0.250000  0.002426  1
  O  O26  1  0.000000  0.375993  0.124007  1
  O  O27  1  0.500000  0.062394  0.437606  1
  O  O28  1  0.500000  0.562394  0.937606  1
  O  O29  1  0.500000  0.502426  0.750000  1
  O  O30  1  0.500000  0.750000  0.997574  1
  O  O31  1  0.000000  0.375993  0.375993  1
  O  O32  1  0.500000  0.937606  0.562394  1
  O  O33  1  0.132801  0.096725  0.596725  1
  O  O34  1  0.132801  0.403275  0.903275  1
  O  O35  1  0.500000  0.250000  0.497574  1
  O  O36  1  0.000000  0.124007  0.124007  1
  O  O37  1  0.500000  0.497574  0.250000  1
  O  O38  1  0.000000  0.624007  0.875993  1
  O  O39  1  0.867199  0.096725  0.903275  1
  O  O40  1  0.500000  0.437606  0.062394  1
  O  O41  1  0.132801  0.596725  0.403275  1
  O  O42  1  0.867199  0.596725  0.096725  1
  O  O43  1  0.867199  0.903275  0.403275  1
  O  O44  1  0.000000  0.124007  0.375993  1
  O  O45  1  0.500000  0.437606  0.437606  1
  O  O46  1  0.000000  0.875993  0.624007  1
  O  O47  1  0.867199  0.403275  0.596725  1
