# generated using pymatgen
data_Pr2B3Cl
_symmetry_space_group_name_H-M   'P 1'
_cell_length_a   3.58431557
_cell_length_b   3.58431569
_cell_length_c   17.80676609
_cell_angle_alpha   90.00000000
_cell_angle_beta   90.00000000
_cell_angle_gamma   119.99999880
_symmetry_Int_Tables_number   1
_chemical_formula_structural   Pr2B3Cl
_chemical_formula_sum   'Pr4 B6 Cl2'
_cell_volume   198.11993776
_cell_formula_units_Z   2
loop_
 _symmetry_equiv_pos_site_id
 _symmetry_equiv_pos_as_xyz
  1  'x, y, z'
loop_
 _atom_site_type_symbol
 _atom_site_label
 _atom_site_symmetry_multiplicity
 _atom_site_fract_x
 _atom_site_fract_y
 _atom_site_fract_z
 _atom_site_occupancy
  Pr  Pr0  1  0.666667  0.333333  0.370978  1
  Pr  Pr1  1  0.333333  0.666667  0.870978  1
  Pr  Pr2  1  0.666667  0.333333  0.129022  1
  Pr  Pr3  1  0.333333  0.666667  0.629022  1
  B  B4  1  0.833607  0.166393  0.750000  1
  B  B5  1  0.166393  0.332785  0.250000  1
  B  B6  1  0.667215  0.833607  0.250000  1
  B  B7  1  0.332785  0.166393  0.750000  1
  B  B8  1  0.833607  0.667215  0.750000  1
  B  B9  1  0.166393  0.833607  0.250000  1
  Cl  Cl10  1  0.000000  0.000000  0.500000  1
  Cl  Cl11  1  0.000000  0.000000  0.000000  1
