# generated using pymatgen
data_MoP2NCl12
_symmetry_space_group_name_H-M   'P 1'
_cell_length_a   8.44579356
_cell_length_b   10.60266989
_cell_length_c   21.82542515
_cell_angle_alpha   90.00000000
_cell_angle_beta   90.00000000
_cell_angle_gamma   101.31847589
_symmetry_Int_Tables_number   1
_chemical_formula_structural   MoP2NCl12
_chemical_formula_sum   'Mo4 P8 N4 Cl48'
_cell_volume   1916.41158563
_cell_formula_units_Z   4
loop_
 _symmetry_equiv_pos_site_id
 _symmetry_equiv_pos_as_xyz
  1  'x, y, z'
loop_
 _atom_site_type_symbol
 _atom_site_label
 _atom_site_symmetry_multiplicity
 _atom_site_fract_x
 _atom_site_fract_y
 _atom_site_fract_z
 _atom_site_occupancy
  Mo  Mo0  1  0.843733  0.804732  0.891618  1
  Mo  Mo1  1  0.843733  0.304732  0.608382  1
  Mo  Mo2  1  0.156267  0.195268  0.108382  1
  Mo  Mo3  1  0.156267  0.695268  0.391618  1
  P  P4  1  0.688600  0.129184  0.330444  1
  P  P5  1  0.311400  0.870816  0.669556  1
  P  P6  1  0.555568  0.261897  0.897896  1
  P  P7  1  0.444432  0.238103  0.397896  1
  P  P8  1  0.688600  0.629184  0.169556  1
  P  P9  1  0.555568  0.761897  0.602104  1
  P  P10  1  0.311400  0.370816  0.830444  1
  P  P11  1  0.444432  0.738103  0.102104  1
  N  N12  1  0.443722  0.858028  0.620819  1
  N  N13  1  0.556278  0.141972  0.379181  1
  N  N14  1  0.443722  0.358028  0.879181  1
  N  N15  1  0.556278  0.641972  0.120819  1
  Cl  Cl16  1  0.315066  0.283271  0.328285  1
  Cl  Cl17  1  0.401977  0.414324  0.747388  1
  Cl  Cl18  1  0.290004  0.662720  0.038328  1
  Cl  Cl19  1  0.874235  0.914766  0.796844  1
  Cl  Cl20  1  0.124847  0.818601  0.895211  1
  Cl  Cl21  1  0.124847  0.318601  0.604789  1
  Cl  Cl22  1  0.187659  0.890215  0.335559  1
  Cl  Cl23  1  0.433796  0.597631  0.568766  1
  Cl  Cl24  1  0.401977  0.914324  0.752612  1
  Cl  Cl25  1  0.566204  0.402369  0.431234  1
  Cl  Cl26  1  0.438097  0.218637  0.110174  1
  Cl  Cl27  1  0.142748  0.712533  0.680213  1
  Cl  Cl28  1  0.812341  0.609785  0.835559  1
  Cl  Cl29  1  0.684934  0.216729  0.828285  1
  Cl  Cl30  1  0.170201  0.305739  0.014336  1
  Cl  Cl31  1  0.874235  0.414766  0.703156  1
  Cl  Cl32  1  0.863472  0.002444  0.941163  1
  Cl  Cl33  1  0.196597  0.008886  0.646632  1
  Cl  Cl34  1  0.857252  0.787467  0.180213  1
  Cl  Cl35  1  0.829799  0.194261  0.514336  1
  Cl  Cl36  1  0.875153  0.181399  0.104789  1
  Cl  Cl37  1  0.684934  0.716729  0.671715  1
  Cl  Cl38  1  0.561903  0.281363  0.610174  1
  Cl  Cl39  1  0.812341  0.109785  0.664441  1
  Cl  Cl40  1  0.142748  0.212533  0.819787  1
  Cl  Cl41  1  0.803403  0.991114  0.353368  1
  Cl  Cl42  1  0.709996  0.337280  0.961672  1
  Cl  Cl43  1  0.125765  0.085234  0.203156  1
  Cl  Cl44  1  0.863472  0.502444  0.558837  1
  Cl  Cl45  1  0.290004  0.162720  0.461672  1
  Cl  Cl46  1  0.187659  0.390215  0.164441  1
  Cl  Cl47  1  0.875153  0.681399  0.395211  1
  Cl  Cl48  1  0.136528  0.997556  0.058837  1
  Cl  Cl49  1  0.170201  0.805739  0.485664  1
  Cl  Cl50  1  0.125765  0.585234  0.296844  1
  Cl  Cl51  1  0.829799  0.694261  0.985664  1
  Cl  Cl52  1  0.598023  0.585676  0.252612  1
  Cl  Cl53  1  0.433796  0.097631  0.931234  1
  Cl  Cl54  1  0.803403  0.491114  0.146632  1
  Cl  Cl55  1  0.561903  0.781363  0.889826  1
  Cl  Cl56  1  0.857252  0.287467  0.319787  1
  Cl  Cl57  1  0.566204  0.902369  0.068766  1
  Cl  Cl58  1  0.315066  0.783271  0.171715  1
  Cl  Cl59  1  0.136528  0.497556  0.441163  1
  Cl  Cl60  1  0.196597  0.508886  0.853368  1
  Cl  Cl61  1  0.598023  0.085676  0.247388  1
  Cl  Cl62  1  0.709996  0.837280  0.538328  1
  Cl  Cl63  1  0.438097  0.718637  0.389826  1
