# generated using pymatgen
data_CdI2
_symmetry_space_group_name_H-M   'P 1'
_cell_length_a   4.33356270
_cell_length_b   4.33356296
_cell_length_c   59.29938880
_cell_angle_alpha   90.00000000
_cell_angle_beta   90.00000000
_cell_angle_gamma   119.99999800
_symmetry_Int_Tables_number   1
_chemical_formula_structural   CdI2
_chemical_formula_sum   'Cd8 I16'
_cell_volume   964.43075862
_cell_formula_units_Z   8
loop_
 _symmetry_equiv_pos_site_id
 _symmetry_equiv_pos_as_xyz
  1  'x, y, z'
loop_
 _atom_site_type_symbol
 _atom_site_label
 _atom_site_symmetry_multiplicity
 _atom_site_fract_x
 _atom_site_fract_y
 _atom_site_fract_z
 _atom_site_occupancy
  Cd  Cd0  1  0.333333  0.666667  0.656214  1
  Cd  Cd1  1  0.000000  0.000000  0.781236  1
  Cd  Cd2  1  0.333333  0.666667  0.906224  1
  Cd  Cd3  1  0.666667  0.333333  0.031273  1
  Cd  Cd4  1  0.333333  0.666667  0.406228  1
  Cd  Cd5  1  0.333333  0.666667  0.531268  1
  Cd  Cd6  1  0.666667  0.333333  0.281269  1
  Cd  Cd7  1  0.333333  0.666667  0.156224  1
  I  I8  1  0.333333  0.666667  0.752132  1
  I  I9  1  0.000000  0.000000  0.627139  1
  I  I10  1  0.666667  0.333333  0.185324  1
  I  I11  1  0.000000  0.000000  0.252200  1
  I  I12  1  0.666667  0.333333  0.435325  1
  I  I13  1  0.333333  0.666667  0.310369  1
  I  I14  1  0.333333  0.666667  0.060372  1
  I  I15  1  0.000000  0.000000  0.127146  1
  I  I16  1  0.666667  0.333333  0.685316  1
  I  I17  1  0.666667  0.333333  0.810348  1
  I  I18  1  0.000000  0.000000  0.877144  1
  I  I19  1  0.666667  0.333333  0.560367  1
  I  I20  1  0.000000  0.000000  0.377153  1
  I  I21  1  0.666667  0.333333  0.935326  1
  I  I22  1  0.000000  0.000000  0.002203  1
  I  I23  1  0.000000  0.000000  0.502200  1
