# generated using pymatgen
data_P2W3O13
_symmetry_space_group_name_H-M   'P 1'
_cell_length_a   5.41311679
_cell_length_b   12.32293872
_cell_length_c   16.00259637
_cell_angle_alpha   90.00000000
_cell_angle_beta   90.00000000
_cell_angle_gamma   90.00000000
_symmetry_Int_Tables_number   1
_chemical_formula_structural   P2W3O13
_chemical_formula_sum   'P8 W12 O52'
_cell_volume   1067.46129597
_cell_formula_units_Z   4
loop_
 _symmetry_equiv_pos_site_id
 _symmetry_equiv_pos_as_xyz
  1  'x, y, z'
loop_
 _atom_site_type_symbol
 _atom_site_label
 _atom_site_symmetry_multiplicity
 _atom_site_fract_x
 _atom_site_fract_y
 _atom_site_fract_z
 _atom_site_occupancy
  O  O0  1  0.250000  0.451374  0.239420  1
  O  O1  1  0.749999  0.548626  0.760580  1
  O  O2  1  0.250000  0.951374  0.260579  1
  O  O3  1  0.749999  0.048626  0.739420  1
  O  O4  1  0.749999  0.169899  0.226580  1
  O  O5  1  0.250000  0.830101  0.773419  1
  O  O6  1  0.749999  0.669899  0.273420  1
  O  O7  1  0.250000  0.330101  0.726580  1
  O  O8  1  0.498662  0.810692  0.160072  1
  O  O9  1  0.998663  0.189308  0.839928  1
  O  O10  1  0.001337  0.310692  0.339928  1
  O  O11  1  0.501338  0.689308  0.660072  1
  O  O12  1  0.501338  0.189308  0.839928  1
  O  O13  1  0.001337  0.810692  0.160072  1
  O  O14  1  0.998663  0.689308  0.660072  1
  O  O15  1  0.498662  0.310692  0.339928  1
  O  O16  1  0.485073  0.577630  0.143056  1
  O  O17  1  0.514926  0.422370  0.856944  1
  O  O18  1  0.014926  0.077630  0.356944  1
  O  O19  1  0.514926  0.922370  0.643056  1
  O  O20  1  0.250000  0.377871  0.480184  1
  O  O21  1  0.749999  0.622129  0.519816  1
  O  O22  1  0.250000  0.877871  0.019816  1
  O  O23  1  0.749999  0.122129  0.980184  1
  O  O24  1  0.749999  0.205815  0.465941  1
  O  O25  1  0.250000  0.794185  0.534059  1
  O  O26  1  0.749999  0.705815  0.034059  1
  O  O27  1  0.250000  0.294185  0.965941  1
  O  O28  1  0.749999  0.072383  0.580981  1
  O  O29  1  0.250000  0.927617  0.419020  1
  O  O30  1  0.749999  0.572383  0.919020  1
  O  O31  1  0.250000  0.427617  0.080981  1
  O  O32  1  0.513455  0.246077  0.597585  1
  O  O33  1  0.013456  0.753923  0.402415  1
  O  O34  1  0.986543  0.746077  0.902414  1
  O  O35  1  0.486544  0.253923  0.097585  1
  O  O36  1  0.486544  0.753923  0.402415  1
  O  O37  1  0.986543  0.246077  0.597585  1
  O  O38  1  0.013456  0.253923  0.097585  1
  O  O39  1  0.513455  0.746077  0.902414  1
  O  O40  1  0.501228  0.474026  0.618047  1
  O  O41  1  0.001229  0.525974  0.381953  1
  O  O42  1  0.998771  0.974026  0.881953  1
  O  O43  1  0.498772  0.025974  0.118047  1
  O  O44  1  0.498772  0.525974  0.381953  1
  O  O45  1  0.998771  0.474026  0.618047  1
  O  O46  1  0.001229  0.025974  0.118047  1
  O  O47  1  0.501228  0.974026  0.881953  1
  O  O48  1  0.485073  0.077630  0.356944  1
  O  O49  1  0.985074  0.922370  0.643056  1
  O  O50  1  0.014926  0.577630  0.143056  1
  O  O51  1  0.985074  0.422370  0.856944  1
  P  P52  1  0.749999  0.198487  0.560774  1
  P  P53  1  0.250000  0.801513  0.439226  1
  P  P54  1  0.749999  0.698487  0.939226  1
  P  P55  1  0.250000  0.301513  0.060774  1
  P  P56  1  0.250000  0.013241  0.342785  1
  P  P57  1  0.749999  0.986759  0.657214  1
  P  P58  1  0.250000  0.513241  0.157214  1
  P  P59  1  0.749999  0.486759  0.842785  1
  W  W60  1  0.749999  0.132452  0.104838  1
  W  W61  1  0.250000  0.367548  0.604838  1
  W  W62  1  0.749999  0.632452  0.395162  1
  W  W63  1  0.250000  0.867548  0.895163  1
  W  W64  1  0.749999  0.088573  0.866188  1
  W  W65  1  0.250000  0.911427  0.133812  1
  W  W66  1  0.749999  0.588573  0.633812  1
  W  W67  1  0.250000  0.411427  0.366188  1
  W  W68  1  0.250000  0.304295  0.839587  1
  W  W69  1  0.749999  0.695705  0.160412  1
  W  W70  1  0.250000  0.804295  0.660413  1
  W  W71  1  0.749999  0.195705  0.339588  1
