# generated using pymatgen
data_Cr2(PO4)3
_symmetry_space_group_name_H-M   'P 1'
_cell_length_a   8.35921983
_cell_length_b   8.36272059
_cell_length_c   8.68514383
_cell_angle_alpha   118.04619268
_cell_angle_beta   89.95867721
_cell_angle_gamma   60.16493381
_symmetry_Int_Tables_number   1
_chemical_formula_structural   Cr2(PO4)3
_chemical_formula_sum   'Cr4 P6 O24'
_cell_volume   442.45564914
_cell_formula_units_Z   2
loop_
 _symmetry_equiv_pos_site_id
 _symmetry_equiv_pos_as_xyz
  1  'x, y, z'
loop_
 _atom_site_type_symbol
 _atom_site_label
 _atom_site_symmetry_multiplicity
 _atom_site_fract_x
 _atom_site_fract_y
 _atom_site_fract_z
 _atom_site_occupancy
  Cr  Cr0  1  0.352475  0.782130  0.921416  1
  Cr  Cr1  1  0.146785  0.212900  0.565282  1
  Cr  Cr2  1  0.647525  0.217870  0.078584  1
  Cr  Cr3  1  0.853215  0.787100  0.434718  1
  P  P4  1  0.252717  0.280188  0.251411  1
  P  P5  1  0.747283  0.719812  0.748589  1
  P  P6  1  0.030354  0.005497  0.753468  1
  P  P7  1  0.468831  0.282777  0.742632  1
  P  P8  1  0.531169  0.717223  0.257368  1
  P  P9  1  0.969646  0.994503  0.246532  1
  O  O10  1  0.287298  0.230554  0.404485  1
  O  O11  1  0.288400  0.078250  0.073973  1
  O  O12  1  0.010304  0.166034  0.702188  1
  O  O13  1  0.600800  0.669984  0.778544  1
  O  O14  1  0.989054  0.841705  0.613814  1
  O  O15  1  0.046373  0.476554  0.304739  1
  O  O16  1  0.298866  0.253938  0.729274  1
  O  O17  1  0.354661  0.898800  0.430266  1
  O  O18  1  0.010946  0.158295  0.386186  1
  O  O19  1  0.519326  0.294983  0.915663  1
  O  O20  1  0.953627  0.523446  0.695261  1
  O  O21  1  0.886210  0.141899  0.946331  1
  O  O22  1  0.712702  0.769446  0.595515  1
  O  O23  1  0.989696  0.833966  0.297812  1
  O  O24  1  0.645339  0.101200  0.569734  1
  O  O25  1  0.711600  0.921750  0.926027  1
  O  O26  1  0.600027  0.499653  0.241628  1
  O  O27  1  0.237092  0.869893  0.758854  1
  O  O28  1  0.399200  0.330016  0.221456  1
  O  O29  1  0.762908  0.130107  0.241146  1
  O  O30  1  0.480674  0.705017  0.084337  1
  O  O31  1  0.701134  0.746062  0.270726  1
  O  O32  1  0.399973  0.500347  0.758372  1
  O  O33  1  0.113790  0.858101  0.053669  1
