# generated using pymatgen
data_HgI2
_symmetry_space_group_name_H-M   'P 1'
_cell_length_a   13.26140994
_cell_length_b   13.26142353
_cell_length_c   15.97792955
_cell_angle_alpha   114.52230563
_cell_angle_beta   114.52231529
_cell_angle_gamma   90.05524116
_symmetry_Int_Tables_number   1
_chemical_formula_structural   HgI2
_chemical_formula_sum   'Hg16 I32'
_cell_volume   2274.39940775
_cell_formula_units_Z   16
loop_
 _symmetry_equiv_pos_site_id
 _symmetry_equiv_pos_as_xyz
  1  'x, y, z'
loop_
 _atom_site_type_symbol
 _atom_site_label
 _atom_site_symmetry_multiplicity
 _atom_site_fract_x
 _atom_site_fract_y
 _atom_site_fract_z
 _atom_site_occupancy
  Hg  Hg0  1  0.561520  0.568988  0.873290  1
  Hg  Hg1  1  0.068987  0.061520  0.373290  1
  Hg  Hg2  1  0.431023  0.687945  0.626581  1
  Hg  Hg3  1  0.931013  0.938480  0.626710  1
  Hg  Hg4  1  0.438480  0.431012  0.126710  1
  Hg  Hg5  1  0.804593  0.561323  0.373264  1
  Hg  Hg6  1  0.688065  0.195434  0.126679  1
  Hg  Hg7  1  0.568977  0.312055  0.373419  1
  Hg  Hg8  1  0.311935  0.804566  0.873321  1
  Hg  Hg9  1  0.061323  0.304593  0.873264  1
  Hg  Hg10  1  0.304566  0.811935  0.373322  1
  Hg  Hg11  1  0.812055  0.068977  0.873419  1
  Hg  Hg12  1  0.938677  0.695407  0.126736  1
  Hg  Hg13  1  0.695434  0.188065  0.626678  1
  Hg  Hg14  1  0.187945  0.931023  0.126581  1
  Hg  Hg15  1  0.195407  0.438677  0.626736  1
  I  I16  1  1.005071  0.249843  0.499804  1
  I  I17  1  0.250157  0.494929  1.000195  1
  I  I18  1  0.630572  0.121207  0.249228  1
  I  I19  1  0.245915  0.495911  0.492109  1
  I  I20  1  0.505335  0.250110  0.500065  1
  I  I21  1  0.750110  1.005335  0.000065  1
  I  I22  1  0.130965  0.128104  0.249214  1
  I  I23  1  0.381244  0.372105  0.750835  1
  I  I24  1  0.254285  0.004231  0.507605  1
  I  I25  1  0.881508  0.378996  0.750907  1
  I  I26  1  0.378793  0.869428  0.250772  1
  I  I27  1  0.754085  0.504089  0.507891  1
  I  I28  1  -0.005071  0.750157  0.500196  1
  I  I29  1  0.249890  -0.005335  0.999935  1
  I  I30  1  0.618757  0.627895  0.249165  1
  I  I31  1  0.878996  0.381508  0.250907  1
  I  I32  1  0.495769  0.245715  0.992395  1
  I  I33  1  0.369428  0.878793  0.750772  1
  I  I34  1  0.494665  0.749890  0.499935  1
  I  I35  1  0.869035  0.871896  0.750786  1
  I  I36  1  0.872104  0.881244  0.250835  1
  I  I37  1  0.995911  0.745915  0.992109  1
  I  I38  1  0.628104  0.630965  0.749214  1
  I  I39  1  0.504231  0.754285  0.007605  1
  I  I40  1  0.621207  0.130572  0.749228  1
  I  I41  1  0.371896  0.369035  0.250786  1
  I  I42  1  0.745715  0.995769  0.492395  1
  I  I43  1  0.127896  0.118756  0.749165  1
  I  I44  1  0.121004  0.618492  0.749093  1
  I  I45  1  0.749843  0.505071  -0.000195  1
  I  I46  1  0.004089  0.254085  0.007891  1
  I  I47  1  0.118492  0.621004  0.249093  1
