# generated using pymatgen
data_P
_symmetry_space_group_name_H-M   'P 1'
_cell_length_a   9.26050591
_cell_length_b   9.29048433
_cell_length_c   23.60402364
_cell_angle_alpha   98.13418361
_cell_angle_beta   90.00000000
_cell_angle_gamma   90.00000000
_symmetry_Int_Tables_number   1
_chemical_formula_structural   P
_chemical_formula_sum   P84
_cell_volume   2010.33172591
_cell_formula_units_Z   84
loop_
 _symmetry_equiv_pos_site_id
 _symmetry_equiv_pos_as_xyz
  1  'x, y, z'
loop_
 _atom_site_type_symbol
 _atom_site_label
 _atom_site_symmetry_multiplicity
 _atom_site_fract_x
 _atom_site_fract_y
 _atom_site_fract_z
 _atom_site_occupancy
  P  P0  1  0.607565  0.964543  0.919902  1
  P  P1  1  0.593712  0.200605  0.949492  1
  P  P2  1  0.201413  0.619117  0.321487  1
  P  P3  1  0.836804  0.551049  0.553026  1
  P  P4  1  0.357526  0.019546  0.536716  1
  P  P5  1  0.859688  0.710740  0.918910  1
  P  P6  1  0.214897  0.693335  0.617705  1
  P  P7  1  0.677451  0.119561  0.331157  1
  P  P8  1  0.614103  0.529216  0.673614  1
  P  P9  1  0.900061  0.815450  0.674799  1
  P  P10  1  0.364462  0.256095  0.568136  1
  P  P11  1  0.035343  0.946519  0.118809  1
  P  P12  1  0.051713  0.866839  0.821522  1
  P  P13  1  0.201413  0.880883  0.178513  1
  P  P14  1  0.549251  0.394217  0.832123  1
  P  P15  1  0.682636  0.756014  0.703643  1
  P  P16  1  0.859688  0.789260  0.581090  1
  P  P17  1  0.099939  0.184550  0.325201  1
  P  P18  1  0.357526  0.480454  0.963284  1
  P  P19  1  0.642474  0.519546  0.036716  1
  P  P20  1  0.964657  0.053481  0.881191  1
  P  P21  1  0.133171  0.469433  0.929935  1
  P  P22  1  0.035343  0.553481  0.381191  1
  P  P23  1  0.486704  0.917438  0.604244  1
  P  P24  1  0.948287  0.366839  0.321522  1
  P  P25  1  0.280400  0.805035  0.382584  1
  P  P26  1  0.948287  0.133161  0.178478  1
  P  P27  1  0.450749  0.894217  0.332123  1
  P  P28  1  0.392435  0.035457  0.080098  1
  P  P29  1  0.385897  0.029216  0.173614  1
  P  P30  1  0.593712  0.299395  0.550508  1
  P  P31  1  0.866829  0.969433  0.429935  1
  P  P32  1  0.450749  0.605783  0.167877  1
  P  P33  1  0.719600  0.305035  0.882584  1
  P  P34  1  0.964657  0.446519  0.618809  1
  P  P35  1  0.355237  0.247367  0.662581  1
  P  P36  1  0.644763  0.752633  0.337419  1
  P  P37  1  0.133171  0.030567  0.570065  1
  P  P38  1  0.866829  0.530567  0.070065  1
  P  P39  1  0.179296  0.426634  0.836043  1
  P  P40  1  0.392435  0.464543  0.419902  1
  P  P41  1  0.836804  0.948951  0.946974  1
  P  P42  1  0.317364  0.243986  0.296357  1
  P  P43  1  0.820704  0.926634  0.336043  1
  P  P44  1  0.163196  0.051049  0.053026  1
  P  P45  1  0.644763  0.747367  0.162581  1
  P  P46  1  0.364462  0.243905  0.931864  1
  P  P47  1  0.406288  0.700605  0.449492  1
  P  P48  1  0.677451  0.380439  0.168843  1
  P  P49  1  0.406288  0.799395  0.050508  1
  P  P50  1  0.214897  0.806665  0.882295  1
  P  P51  1  0.785103  0.306665  0.382295  1
  P  P52  1  0.798587  0.119117  0.821487  1
  P  P53  1  0.322549  0.880439  0.668843  1
  P  P54  1  0.642474  0.980454  0.463284  1
  P  P55  1  0.682636  0.743986  0.796357  1
  P  P56  1  0.486704  0.582562  0.895756  1
  P  P57  1  0.785103  0.193335  0.117705  1
  P  P58  1  0.355237  0.252633  0.837419  1
  P  P59  1  0.280400  0.694965  0.117416  1
  P  P60  1  0.099939  0.315450  0.174799  1
  P  P61  1  0.719600  0.194965  0.617416  1
  P  P62  1  0.549251  0.105783  0.667877  1
  P  P63  1  0.914883  0.204089  0.448705  1
  P  P64  1  0.635538  0.756095  0.068136  1
  P  P65  1  0.317364  0.256014  0.203643  1
  P  P66  1  0.322549  0.619561  0.831157  1
  P  P67  1  0.614103  0.970784  0.826386  1
  P  P68  1  0.085117  0.704089  0.948705  1
  P  P69  1  0.635538  0.743905  0.431864  1
  P  P70  1  0.900061  0.684550  0.825201  1
  P  P71  1  0.179296  0.073366  0.663957  1
  P  P72  1  0.140312  0.289260  0.081090  1
  P  P73  1  0.513296  0.417438  0.104244  1
  P  P74  1  0.513296  0.082562  0.395756  1
  P  P75  1  0.085117  0.795911  0.551295  1
  P  P76  1  0.140312  0.210740  0.418910  1
  P  P77  1  0.820704  0.573366  0.163957  1
  P  P78  1  0.163196  0.448951  0.446974  1
  P  P79  1  0.914883  0.295911  0.051295  1
  P  P80  1  0.385897  0.470784  0.326386  1
  P  P81  1  0.051713  0.633161  0.678478  1
  P  P82  1  0.798587  0.380883  0.678513  1
  P  P83  1  0.607565  0.535457  0.580098  1
