# generated using pymatgen
data_Pb2SO5
_symmetry_space_group_name_H-M   'P 1'
_cell_length_a   5.81083269
_cell_length_b   7.18367613
_cell_length_c   7.56453698
_cell_angle_alpha   112.86429898
_cell_angle_beta   112.58687523
_cell_angle_gamma   90.00000000
_symmetry_Int_Tables_number   1
_chemical_formula_structural   Pb2SO5
_chemical_formula_sum   'Pb4 S2 O10'
_cell_volume   264.47459752
_cell_formula_units_Z   2
loop_
 _symmetry_equiv_pos_site_id
 _symmetry_equiv_pos_as_xyz
  1  'x, y, z'
loop_
 _atom_site_type_symbol
 _atom_site_label
 _atom_site_symmetry_multiplicity
 _atom_site_fract_x
 _atom_site_fract_y
 _atom_site_fract_z
 _atom_site_occupancy
  O  O0  1  0.747363  0.000000  0.000000  1
  O  O1  1  0.252637  0.000000  0.000000  1
  O  O2  1  0.711343  0.287615  0.422686  1
  O  O3  1  0.288657  0.712385  0.577314  1
  O  O4  1  0.936581  0.747656  0.292861  1
  O  O5  1  0.643720  0.252344  0.707139  1
  O  O6  1  0.889062  0.570707  0.778124  1
  O  O7  1  0.110938  0.429293  0.221876  1
  O  O8  1  0.356280  0.747656  0.292861  1
  O  O9  1  0.063419  0.252344  0.707139  1
  S  S10  1  0.827577  0.342965  0.655153  1
  S  S11  1  0.172423  0.657035  0.344847  1
  Pb  Pb12  1  0.525249  0.268932  0.050499  1
  Pb  Pb13  1  0.474751  0.731068  0.949501  1
  Pb  Pb14  1  0.145605  0.100991  0.291211  1
  Pb  Pb15  1  0.854395  0.899009  0.708789  1
