# generated using pymatgen
data_Ba5B4(O5F)2
_symmetry_space_group_name_H-M   'P 1'
_cell_length_a   7.19900356
_cell_length_b   8.73350880
_cell_length_c   11.11509315
_cell_angle_alpha   94.97871476
_cell_angle_beta   108.89525940
_cell_angle_gamma   90.00000268
_symmetry_Int_Tables_number   1
_chemical_formula_structural   Ba5B4(O5F)2
_chemical_formula_sum   'Ba10 B8 O20 F4'
_cell_volume   658.38819917
_cell_formula_units_Z   2
loop_
 _symmetry_equiv_pos_site_id
 _symmetry_equiv_pos_as_xyz
  1  'x, y, z'
loop_
 _atom_site_type_symbol
 _atom_site_label
 _atom_site_symmetry_multiplicity
 _atom_site_fract_x
 _atom_site_fract_y
 _atom_site_fract_z
 _atom_site_occupancy
  Ba  Ba0  1  0.555019  0.250000  0.000000  1
  Ba  Ba1  1  0.968915  0.608136  0.170700  1
  Ba  Ba2  1  0.444981  0.750000  1.000000  1
  Ba  Ba3  1  0.412678  0.194532  0.599104  1
  Ba  Ba4  1  0.587322  0.805468  0.400896  1
  Ba  Ba5  1  0.798214  0.891864  0.829300  1
  Ba  Ba6  1  0.813574  0.305468  0.400896  1
  Ba  Ba7  1  0.201786  0.108136  0.170700  1
  Ba  Ba8  1  0.031085  0.391864  0.829300  1
  Ba  Ba9  1  0.186426  0.694532  0.599104  1
  B  B10  1  0.680665  0.583387  0.624362  1
  B  B11  1  0.412447  0.494420  0.188124  1
  B  B12  1  0.056304  0.916613  0.375638  1
  B  B13  1  0.319335  0.416614  0.375638  1
  B  B14  1  0.224323  0.005580  0.811876  1
  B  B15  1  0.587553  0.505580  0.811876  1
  B  B16  1  0.943696  0.083387  0.624362  1
  B  B17  1  0.775677  0.994420  0.188124  1
  O  O18  1  0.948003  0.033684  0.299424  1
  O  O19  1  0.351421  0.533684  0.299424  1
  O  O20  1  0.723937  0.580614  0.917077  1
  O  O21  1  0.806859  0.919386  0.082923  1
  O  O22  1  0.048633  0.214619  0.625317  1
  O  O23  1  0.404571  0.457959  0.807445  1
  O  O24  1  0.193141  0.080614  0.917077  1
  O  O25  1  0.188961  0.443411  0.439540  1
  O  O26  1  0.576684  0.714619  0.625317  1
  O  O27  1  0.595429  0.542041  0.192555  1
  O  O28  1  0.402875  0.957959  0.807445  1
  O  O29  1  0.250579  0.943411  0.439540  1
  O  O30  1  0.749421  0.056589  0.560460  1
  O  O31  1  0.811039  0.556589  0.560460  1
  O  O32  1  0.276063  0.419386  0.082923  1
  O  O33  1  0.423316  0.285381  0.374683  1
  O  O34  1  0.051997  0.966316  0.700576  1
  O  O35  1  0.597125  0.042041  0.192555  1
  O  O36  1  0.648579  0.466316  0.700576  1
  O  O37  1  0.951367  0.785381  0.374683  1
  F  F38  1  0.904692  0.305483  0.160103  1
  F  F39  1  0.255411  0.805483  0.160103  1
  F  F40  1  0.095308  0.694517  0.839897  1
  F  F41  1  0.744589  0.194517  0.839897  1
