# generated using pymatgen
data_V2O5
_symmetry_space_group_name_H-M   'P 1'
_cell_length_a   4.72427755
_cell_length_b   5.39244709
_cell_length_c   6.47080012
_cell_angle_alpha   102.62988318
_cell_angle_beta   111.37755935
_cell_angle_gamma   90.16104435
_symmetry_Int_Tables_number   1
_chemical_formula_structural   V2O5
_chemical_formula_sum   'V4 O10'
_cell_volume   149.17146492
_cell_formula_units_Z   2
loop_
 _symmetry_equiv_pos_site_id
 _symmetry_equiv_pos_as_xyz
  1  'x, y, z'
loop_
 _atom_site_type_symbol
 _atom_site_label
 _atom_site_symmetry_multiplicity
 _atom_site_fract_x
 _atom_site_fract_y
 _atom_site_fract_z
 _atom_site_occupancy
  V  V0  1  0.901609  0.748821  0.284752  1
  V  V1  1  0.383256  0.248033  0.283037  1
  V  V2  1  0.097414  0.253540  0.714184  1
  V  V3  1  0.615855  0.754147  0.715587  1
  O  O4  1  0.548784  0.983930  0.218916  1
  O  O5  1  0.329634  0.518240  0.778748  1
  O  O6  1  0.669376  0.484181  0.220256  1
  O  O7  1  0.450231  0.018418  0.779023  1
  O  O8  1  0.725374  0.369900  0.592119  1
  O  O9  1  0.866823  0.870748  0.591996  1
  O  O10  1  0.273450  0.632460  0.406473  1
  O  O11  1  0.132290  0.131840  0.406426  1
  O  O12  1  0.884509  0.751339  0.999563  1
  O  O13  1  0.113950  0.250468  0.998822  1
