# generated using pymatgen
data_Er5BiAu2
_symmetry_space_group_name_H-M   'P 1'
_cell_length_a   7.39582515
_cell_length_b   7.39582509
_cell_length_c   10.12748361
_cell_angle_alpha   111.41597769
_cell_angle_beta   111.41597708
_cell_angle_gamma   89.99999624
_symmetry_Int_Tables_number   1
_chemical_formula_structural   Er5BiAu2
_chemical_formula_sum   'Er10 Bi2 Au4'
_cell_volume   474.38474056
_cell_formula_units_Z   2
loop_
 _symmetry_equiv_pos_site_id
 _symmetry_equiv_pos_as_xyz
  1  'x, y, z'
loop_
 _atom_site_type_symbol
 _atom_site_label
 _atom_site_symmetry_multiplicity
 _atom_site_fract_x
 _atom_site_fract_y
 _atom_site_fract_z
 _atom_site_occupancy
  Er  Er0  1  0.500289  0.328031  0.328320  1
  Er  Er1  1  0.328031  0.828031  0.328320  1
  Er  Er2  1  0.671969  0.171969  0.671680  1
  Er  Er3  1  0.499711  0.671969  0.671680  1
  Er  Er4  1  0.000000  0.000000  0.000000  1
  Er  Er5  1  0.999711  0.499711  0.671680  1
  Er  Er6  1  0.000289  0.500289  0.328320  1
  Er  Er7  1  0.828031  0.000289  0.328320  1
  Er  Er8  1  0.171969  0.999711  0.671680  1
  Er  Er9  1  0.500000  0.500000  0.000000  1
  Bi  Bi10  1  0.250000  0.250000  0.500000  1
  Bi  Bi11  1  0.750000  0.750000  0.500000  1
  Au  Au12  1  0.128447  0.628447  0.000000  1
  Au  Au13  1  0.871553  0.371553  1.000000  1
  Au  Au14  1  0.371553  0.128447  0.000000  1
  Au  Au15  1  0.628447  0.871553  1.000000  1
