# generated using pymatgen
data_Cs2Cu2Si8O19
_symmetry_space_group_name_H-M   'P 1'
_cell_length_a   8.65341618
_cell_length_b   10.13748904
_cell_length_c   11.84531174
_cell_angle_alpha   94.53544932
_cell_angle_beta   90.00023573
_cell_angle_gamma   89.99997275
_symmetry_Int_Tables_number   1
_chemical_formula_structural   Cs2Cu2Si8O19
_chemical_formula_sum   'Cs4 Si16 Cu4 O38'
_cell_volume   1035.86318967
_cell_formula_units_Z   2
loop_
 _symmetry_equiv_pos_site_id
 _symmetry_equiv_pos_as_xyz
  1  'x, y, z'
loop_
 _atom_site_type_symbol
 _atom_site_label
 _atom_site_symmetry_multiplicity
 _atom_site_fract_x
 _atom_site_fract_y
 _atom_site_fract_z
 _atom_site_occupancy
  Cs  Cs0  1  0.249996  0.491395  0.454246  1
  Cs  Cs1  1  0.750004  0.508612  0.545759  1
  Cs  Cs2  1  0.750004  0.899106  0.019216  1
  Cs  Cs3  1  0.249999  0.100889  0.980781  1
  Si  Si4  1  0.569664  0.676853  0.279626  1
  Si  Si5  1  0.934181  0.552263  0.883967  1
  Si  Si6  1  0.065824  0.447735  0.116037  1
  Si  Si7  1  0.430336  0.323153  0.720381  1
  Si  Si8  1  0.435842  0.792262  0.765903  1
  Cu  Cu9  1  0.507910  0.849276  0.514872  1
  Si  Si10  1  0.564164  0.207744  0.234079  1
  Si  Si11  1  0.433449  0.942309  0.263961  1
  Cu  Cu12  1  0.492073  0.150797  0.485104  1
  Si  Si13  1  0.064161  0.792259  0.765913  1
  Si  Si14  1  0.930336  0.676841  0.279614  1
  Si  Si15  1  0.935845  0.207734  0.234095  1
  Cu  Cu16  1  0.992136  0.849196  0.514864  1
  Si  Si17  1  0.066545  0.942305  0.263968  1
  Si  Si18  1  0.566553  0.057695  0.736030  1
  Si  Si19  1  0.565825  0.552264  0.883964  1
  Si  Si20  1  0.069666  0.323149  0.720386  1
  Si  Si21  1  0.434179  0.447746  0.116038  1
  Cu  Cu22  1  0.007831  0.150749  0.485172  1
  Si  Si23  1  0.933452  0.057688  0.736039  1
  O  O24  1  0.531873  0.694851  0.412147  1
  O  O25  1  0.024132  0.977083  0.396973  1
  O  O26  1  0.250010  0.816387  0.779552  1
  O  O27  1  0.015045  0.693218  0.863968  1
  O  O28  1  0.538088  0.444580  0.777596  1
  O  O29  1  0.486256  0.062756  0.186532  1
  O  O30  1  0.029020  0.189447  0.787285  1
  O  O31  1  0.968130  0.694800  0.412135  1
  O  O32  1  0.250007  0.914854  0.238859  1
  O  O33  1  0.970987  0.810543  0.212713  1
  O  O34  1  0.995722  0.257808  0.357944  1
  O  O35  1  0.975851  0.022884  0.603035  1
  O  O36  1  0.986266  0.937248  0.813471  1
  O  O37  1  0.504269  0.257863  0.357912  1
  O  O38  1  0.750000  0.581363  0.899485  1
  O  O39  1  0.038082  0.555400  0.222410  1
  O  O40  1  0.470986  0.189450  0.787281  1
  O  O41  1  0.749996  0.085138  0.761140  1
  O  O42  1  0.250005  0.362311  0.752087  1
  O  O43  1  0.031879  0.305161  0.587868  1
  O  O44  1  0.984966  0.306773  0.136032  1
  O  O45  1  0.013740  0.062744  0.186529  1
  O  O46  1  0.513737  0.937250  0.813457  1
  O  O47  1  0.524155  0.022932  0.603019  1
  O  O48  1  0.468118  0.305182  0.587861  1
  O  O49  1  0.250006  0.418645  0.100518  1
  O  O50  1  0.529024  0.810557  0.212719  1
  O  O51  1  0.004250  0.742145  0.642079  1
  O  O52  1  0.961920  0.444584  0.777598  1
  O  O53  1  0.749992  0.183605  0.220425  1
  O  O54  1  0.495742  0.742174  0.642060  1
  O  O55  1  0.515046  0.306783  0.136027  1
  O  O56  1  0.484959  0.693219  0.863954  1
  O  O57  1  0.500001  0.500013  0.000004  1
  O  O58  1  0.461919  0.555418  0.222413  1
  O  O59  1  0.475849  0.977116  0.396967  1
  O  O60  1  1.000001  0.500008  0.000005  1
  O  O61  1  0.749992  0.637685  0.247925  1
