# generated using pymatgen
data_Na2UBr6
_symmetry_space_group_name_H-M   'P 1'
_cell_length_a   12.71405938
_cell_length_b   12.71405962
_cell_length_c   6.68400450
_cell_angle_alpha   90.00000000
_cell_angle_beta   90.00000000
_cell_angle_gamma   119.99999939
_symmetry_Int_Tables_number   1
_chemical_formula_structural   Na2UBr6
_chemical_formula_sum   'Na6 U3 Br18'
_cell_volume   935.69831391
_cell_formula_units_Z   3
loop_
 _symmetry_equiv_pos_site_id
 _symmetry_equiv_pos_as_xyz
  1  'x, y, z'
loop_
 _atom_site_type_symbol
 _atom_site_label
 _atom_site_symmetry_multiplicity
 _atom_site_fract_x
 _atom_site_fract_y
 _atom_site_fract_z
 _atom_site_occupancy
  Na  Na0  1  0.000000  0.338566  0.000000  1
  Na  Na1  1  0.661434  0.661434  0.000000  1
  Na  Na2  1  0.338566  0.000000  0.000000  1
  Na  Na3  1  1.000000  0.661434  0.000000  1
  Na  Na4  1  0.338566  0.338566  0.000000  1
  Na  Na5  1  0.661434  0.000000  0.000000  1
  U  U6  1  0.333333  0.666667  0.492475  1
  U  U7  1  0.666667  0.333333  0.507525  1
  U  U8  1  0.000000  0.000000  0.000000  1
  Br  Br9  1  0.437314  0.562686  0.249302  1
  Br  Br10  1  0.770971  0.229029  0.270409  1
  Br  Br11  1  0.229029  0.770971  0.729591  1
  Br  Br12  1  0.770971  0.541942  0.270409  1
  Br  Br13  1  0.210282  0.105141  0.765722  1
  Br  Br14  1  0.458058  0.229029  0.270409  1
  Br  Br15  1  0.541942  0.770971  0.729591  1
  Br  Br16  1  0.894859  0.789718  0.765722  1
  Br  Br17  1  0.562686  0.437314  0.750698  1
  Br  Br18  1  0.562686  0.125371  0.750698  1
  Br  Br19  1  0.874629  0.437314  0.750698  1
  Br  Br20  1  0.125371  0.562686  0.249302  1
  Br  Br21  1  0.437314  0.874629  0.249302  1
  Br  Br22  1  0.229029  0.458058  0.729591  1
  Br  Br23  1  0.105141  0.210282  0.234278  1
  Br  Br24  1  0.105141  0.894859  0.234278  1
  Br  Br25  1  0.789718  0.894859  0.234278  1
  Br  Br26  1  0.894859  0.105141  0.765722  1
