# generated using pymatgen
data_Rb3Mn2Cl7
_symmetry_space_group_name_H-M   'P 1'
_cell_length_a   4.84951734
_cell_length_b   4.84951777
_cell_length_c   18.06763718
_cell_angle_alpha   97.71262293
_cell_angle_beta   97.71262508
_cell_angle_gamma   90.00000557
_symmetry_Int_Tables_number   1
_chemical_formula_structural   Rb3Mn2Cl7
_chemical_formula_sum   'Rb3 Mn2 Cl7'
_cell_volume   417.18824040
_cell_formula_units_Z   1
loop_
 _symmetry_equiv_pos_site_id
 _symmetry_equiv_pos_as_xyz
  1  'x, y, z'
loop_
 _atom_site_type_symbol
 _atom_site_label
 _atom_site_symmetry_multiplicity
 _atom_site_fract_x
 _atom_site_fract_y
 _atom_site_fract_z
 _atom_site_occupancy
  Rb  Rb0  1  0.176920  0.176920  0.353841  1
  Rb  Rb1  1  0.823080  0.823080  0.646159  1
  Rb  Rb2  1  0.500000  0.500000  0.000000  1
  Mn  Mn3  1  0.376396  0.376396  0.752792  1
  Mn  Mn4  1  0.623604  0.623604  0.247208  1
  Cl  Cl5  1  0.691951  0.691951  0.383902  1
  Cl  Cl6  1  0.109970  0.609970  0.219939  1
  Cl  Cl7  1  0.390030  0.890030  0.780061  1
  Cl  Cl8  1  0.890030  0.390030  0.780061  1
  Cl  Cl9  1  0.308049  0.308049  0.616098  1
  Cl  Cl10  1  0.000000  0.000000  0.000000  1
  Cl  Cl11  1  0.609970  0.109970  0.219939  1
