# generated using pymatgen
data_Dy5C2I9
_symmetry_space_group_name_H-M   'P 1'
_cell_length_a   10.92481437
_cell_length_b   12.63059321
_cell_length_c   17.45651604
_cell_angle_alpha   90.00000000
_cell_angle_beta   90.00000000
_cell_angle_gamma   105.75376366
_symmetry_Int_Tables_number   1
_chemical_formula_structural   Dy5C2I9
_chemical_formula_sum   'Dy20 C8 I36'
_cell_volume   2318.29062621
_cell_formula_units_Z   4
loop_
 _symmetry_equiv_pos_site_id
 _symmetry_equiv_pos_as_xyz
  1  'x, y, z'
loop_
 _atom_site_type_symbol
 _atom_site_label
 _atom_site_symmetry_multiplicity
 _atom_site_fract_x
 _atom_site_fract_y
 _atom_site_fract_z
 _atom_site_occupancy
  Dy  Dy0  1  0.739633  0.252510  0.553416  1
  Dy  Dy1  1  0.144366  0.446143  0.820969  1
  Dy  Dy2  1  0.699311  0.216205  0.345052  1
  Dy  Dy3  1  0.616514  0.966258  0.460609  1
  Dy  Dy4  1  0.760367  0.247490  0.053416  1
  Dy  Dy5  1  0.855634  0.553857  0.179031  1
  Dy  Dy6  1  0.883486  0.533742  0.960609  1
  Dy  Dy7  1  0.383486  0.033742  0.539391  1
  Dy  Dy8  1  0.036909  0.199451  0.942341  1
  Dy  Dy9  1  0.355634  0.053857  0.320969  1
  Dy  Dy10  1  0.536909  0.699451  0.557659  1
  Dy  Dy11  1  0.199311  0.716205  0.154948  1
  Dy  Dy12  1  0.800689  0.283795  0.845052  1
  Dy  Dy13  1  0.463091  0.300549  0.442341  1
  Dy  Dy14  1  0.963091  0.800549  0.057659  1
  Dy  Dy15  1  0.260367  0.747490  0.446584  1
  Dy  Dy16  1  0.644366  0.946143  0.679031  1
  Dy  Dy17  1  0.300689  0.783795  0.654948  1
  Dy  Dy18  1  0.116514  0.466258  0.039391  1
  Dy  Dy19  1  0.239633  0.752510  0.946584  1
  C  C20  1  0.406986  0.837401  0.530434  1
  C  C21  1  0.006021  0.383352  0.915712  1
  C  C22  1  0.593014  0.162599  0.469566  1
  C  C23  1  0.493979  0.116648  0.415712  1
  C  C24  1  0.906986  0.337401  0.969566  1
  C  C25  1  0.506021  0.883352  0.584288  1
  C  C26  1  0.093014  0.662599  0.030434  1
  C  C27  1  0.993979  0.616648  0.084288  1
  I  I28  1  0.065823  0.654822  0.565204  1
  I  I29  1  0.245755  0.250304  0.819225  1
  I  I30  1  0.141053  0.956873  0.941541  1
  I  I31  1  0.548061  0.142076  0.192871  1
  I  I32  1  0.572392  0.167346  0.696942  1
  I  I33  1  0.048061  0.642076  0.307129  1
  I  I34  1  0.640012  0.439476  0.317045  1
  I  I35  1  0.854754  0.056244  0.566209  1
  I  I36  1  0.359988  0.560523  0.682955  1
  I  I37  1  0.451939  0.857924  0.807129  1
  I  I38  1  0.641053  0.456873  0.558459  1
  I  I39  1  0.072392  0.667346  0.803058  1
  I  I40  1  0.314440  0.533521  0.173383  1
  I  I41  1  0.927608  0.332654  0.196942  1
  I  I42  1  0.814440  0.033521  0.326617  1
  I  I43  1  0.858947  0.043127  0.058459  1
  I  I44  1  0.229452  0.265710  0.062637  1
  I  I45  1  0.434177  0.845178  0.065204  1
  I  I46  1  0.770548  0.734290  0.937363  1
  I  I47  1  0.685560  0.466479  0.826617  1
  I  I48  1  0.729452  0.765710  0.437363  1
  I  I49  1  0.140012  0.939477  0.182955  1
  I  I50  1  0.185560  0.966479  0.673383  1
  I  I51  1  0.951939  0.357924  0.692871  1
  I  I52  1  0.859988  0.060524  0.817045  1
  I  I53  1  0.934177  0.345178  0.434796  1
  I  I54  1  0.745755  0.750304  0.680775  1
  I  I55  1  0.358947  0.543127  0.441541  1
  I  I56  1  0.145246  0.943756  0.433791  1
  I  I57  1  0.645246  0.443756  0.066209  1
  I  I58  1  0.254245  0.249696  0.319225  1
  I  I59  1  0.354754  0.556244  0.933791  1
  I  I60  1  0.565823  0.154822  0.934796  1
  I  I61  1  0.754245  0.749696  0.180775  1
  I  I62  1  0.270548  0.234290  0.562637  1
  I  I63  1  0.427608  0.832654  0.303058  1
