# generated using pymatgen
data_Ba9LiSi10C(ClO4)7
_symmetry_space_group_name_H-M   'P 1'
_cell_length_a   9.56890401
_cell_length_b   11.74482359
_cell_length_c   17.99327056
_cell_angle_alpha   90.00000000
_cell_angle_beta   90.00000000
_cell_angle_gamma   90.00000000
_symmetry_Int_Tables_number   1
_chemical_formula_structural   Ba9LiSi10C(ClO4)7
_chemical_formula_sum   'Ba18 Li2 Si20 C2 Cl14 O56'
_cell_volume   2022.17532313
_cell_formula_units_Z   2
loop_
 _symmetry_equiv_pos_site_id
 _symmetry_equiv_pos_as_xyz
  1  'x, y, z'
loop_
 _atom_site_type_symbol
 _atom_site_label
 _atom_site_symmetry_multiplicity
 _atom_site_fract_x
 _atom_site_fract_y
 _atom_site_fract_z
 _atom_site_occupancy
  Ba  Ba0  1  0.005596  0.959354  0.250000  1
  Ba  Ba1  1  0.600600  0.545327  0.393875  1
  Ba  Ba2  1  0.292619  0.250000  0.390029  1
  Ba  Ba3  1  0.268461  0.750000  0.750000  1
  Ba  Ba4  1  0.600600  0.954673  0.393875  1
  Ba  Ba5  1  0.707381  0.750000  0.890029  1
  Ba  Ba6  1  0.731539  0.250000  0.250000  1
  Ba  Ba7  1  0.707381  0.750000  0.609971  1
  Ba  Ba8  1  0.994404  0.459354  0.750000  1
  Ba  Ba9  1  0.005596  0.540646  0.250000  1
  Ba  Ba10  1  0.399400  0.454673  0.606125  1
  Ba  Ba11  1  0.399400  0.045327  0.893875  1
  Ba  Ba12  1  0.600600  0.954673  0.106125  1
  Ba  Ba13  1  0.292619  0.250000  0.109971  1
  Ba  Ba14  1  0.399400  0.045327  0.606125  1
  Ba  Ba15  1  0.994404  0.040646  0.750000  1
  Ba  Ba16  1  0.399400  0.454673  0.893875  1
  Ba  Ba17  1  0.600600  0.545327  0.106125  1
  Li  Li18  1  0.539641  0.750000  0.250000  1
  Li  Li19  1  0.460359  0.250000  0.750000  1
  Si  Si20  1  0.715726  0.250000  0.837990  1
  Si  Si21  1  0.068707  0.885149  0.591238  1
  Si  Si22  1  0.797683  0.033523  0.565533  1
  Si  Si23  1  0.202317  0.533523  0.065533  1
  Si  Si24  1  0.202317  0.966477  0.065533  1
  Si  Si25  1  0.931293  0.114851  0.408762  1
  Si  Si26  1  0.284274  0.750000  0.162010  1
  Si  Si27  1  0.931293  0.114851  0.091238  1
  Si  Si28  1  0.284274  0.750000  0.337990  1
  Si  Si29  1  0.797683  0.033523  0.934467  1
  Si  Si30  1  0.715726  0.250000  0.662010  1
  Si  Si31  1  0.797683  0.466477  0.934467  1
  Si  Si32  1  0.931293  0.385149  0.408762  1
  Si  Si33  1  0.068707  0.614851  0.591238  1
  Si  Si34  1  0.931293  0.385149  0.091238  1
  Si  Si35  1  0.068707  0.614851  0.908762  1
  Si  Si36  1  0.068707  0.885149  0.908762  1
  Si  Si37  1  0.202317  0.966477  0.434467  1
  Si  Si38  1  0.202317  0.533523  0.434467  1
  Si  Si39  1  0.797683  0.466477  0.565533  1
  C  C40  1  0.779368  0.750000  0.250000  1
  C  C41  1  0.220632  0.250000  0.750000  1
  Cl  Cl42  1  0.546831  0.917186  0.750000  1
  Cl  Cl43  1  0.453169  0.417186  0.250000  1
  Cl  Cl44  1  0.599961  0.250000  0.076790  1
  Cl  Cl45  1  0.211601  0.250000  0.940595  1
  Cl  Cl46  1  0.211601  0.250000  0.559405  1
  Cl  Cl47  1  0.453169  0.082814  0.250000  1
  Cl  Cl48  1  0.546831  0.582814  0.750000  1
  Cl  Cl49  1  0.901084  0.750000  0.750000  1
  Cl  Cl50  1  0.788399  0.750000  0.059405  1
  Cl  Cl51  1  0.400039  0.750000  0.923210  1
  Cl  Cl52  1  0.400039  0.750000  0.576790  1
  Cl  Cl53  1  0.599961  0.250000  0.423210  1
  Cl  Cl54  1  0.098916  0.250000  0.250000  1
  Cl  Cl55  1  0.788399  0.750000  0.440595  1
  O  O56  1  0.132109  0.924523  0.511754  1
  O  O57  1  0.350005  0.027683  0.447211  1
  O  O58  1  0.089067  0.056588  0.104342  1
  O  O59  1  0.205260  0.863012  0.127363  1
  O  O60  1  0.867891  0.075477  0.011754  1
  O  O61  1  0.288983  0.153574  0.750000  1
  O  O62  1  0.450815  0.750000  0.346102  1
  O  O63  1  0.833735  0.076331  0.340733  1
  O  O64  1  0.166265  0.576331  0.840733  1
  O  O65  1  0.910933  0.556588  0.604342  1
  O  O66  1  0.711017  0.846426  0.250000  1
  O  O67  1  0.794740  0.363012  0.627363  1
  O  O68  1  0.969021  0.250000  0.412996  1
  O  O69  1  0.910933  0.556588  0.895658  1
  O  O70  1  0.794740  0.136988  0.872637  1
  O  O71  1  0.649995  0.527683  0.947211  1
  O  O72  1  0.350005  0.472317  0.052789  1
  O  O73  1  0.794740  0.363012  0.872637  1
  O  O74  1  0.649995  0.527683  0.552789  1
  O  O75  1  0.711017  0.653574  0.250000  1
  O  O76  1  0.132109  0.924523  0.988246  1
  O  O77  1  0.205260  0.636988  0.372637  1
  O  O78  1  0.833735  0.423669  0.340733  1
  O  O79  1  0.549185  0.250000  0.846102  1
  O  O80  1  0.089067  0.443412  0.395658  1
  O  O81  1  0.350005  0.472317  0.447211  1
  O  O82  1  0.166265  0.923669  0.840733  1
  O  O83  1  0.030979  0.750000  0.587004  1
  O  O84  1  0.288983  0.346426  0.750000  1
  O  O85  1  0.833735  0.076331  0.159267  1
  O  O86  1  0.450815  0.750000  0.153898  1
  O  O87  1  0.089067  0.056588  0.395658  1
  O  O88  1  0.205260  0.636988  0.127363  1
  O  O89  1  0.867891  0.424523  0.011754  1
  O  O90  1  0.132109  0.575477  0.988246  1
  O  O91  1  0.910933  0.943412  0.604342  1
  O  O92  1  0.649995  0.972317  0.552789  1
  O  O93  1  0.769069  0.250000  0.750000  1
  O  O94  1  0.867891  0.075477  0.488246  1
  O  O95  1  0.649995  0.972317  0.947211  1
  O  O96  1  0.910933  0.943412  0.895658  1
  O  O97  1  0.794740  0.136988  0.627363  1
  O  O98  1  0.969021  0.250000  0.087004  1
  O  O99  1  0.132109  0.575477  0.511754  1
  O  O100  1  0.085572  0.250000  0.750000  1
  O  O101  1  0.833735  0.423669  0.159267  1
  O  O102  1  0.230931  0.750000  0.250000  1
  O  O103  1  0.350005  0.027683  0.052789  1
  O  O104  1  0.205260  0.863012  0.372637  1
  O  O105  1  0.914428  0.750000  0.250000  1
  O  O106  1  0.030979  0.750000  0.912996  1
  O  O107  1  0.166265  0.923669  0.659267  1
  O  O108  1  0.867891  0.424523  0.488246  1
  O  O109  1  0.089067  0.443412  0.104342  1
  O  O110  1  0.549185  0.250000  0.653898  1
  O  O111  1  0.166265  0.576331  0.659267  1
