# generated using pymatgen
data_Na2H16O9
_symmetry_space_group_name_H-M   'P 1'
_cell_length_a   6.52652826
_cell_length_b   11.80044075
_cell_length_c   12.43770851
_cell_angle_alpha   90.00000000
_cell_angle_beta   90.00000000
_cell_angle_gamma   103.67401006
_symmetry_Int_Tables_number   1
_chemical_formula_structural   Na2H16O9
_chemical_formula_sum   'Na8 H64 O36'
_cell_volume   930.75111390
_cell_formula_units_Z   4
loop_
 _symmetry_equiv_pos_site_id
 _symmetry_equiv_pos_as_xyz
  1  'x, y, z'
loop_
 _atom_site_type_symbol
 _atom_site_label
 _atom_site_symmetry_multiplicity
 _atom_site_fract_x
 _atom_site_fract_y
 _atom_site_fract_z
 _atom_site_occupancy
  Na  Na0  1  0.419418  0.899592  0.683351  1
  Na  Na1  1  0.580582  0.600408  0.183351  1
  Na  Na2  1  0.580582  0.100408  0.316649  1
  Na  Na3  1  0.419418  0.399592  0.816649  1
  Na  Na4  1  0.592834  0.667075  0.708668  1
  Na  Na5  1  0.407166  0.832925  0.208668  1
  Na  Na6  1  0.407166  0.332925  0.291332  1
  Na  Na7  1  0.592834  0.167075  0.791332  1
  O  O8  1  0.751822  0.926318  0.968236  1
  O  O9  1  0.248178  0.573682  0.468236  1
  O  O10  1  0.248178  0.073682  0.031764  1
  O  O11  1  0.751822  0.426318  0.531764  1
  O  O12  1  0.917388  0.822370  0.448617  1
  O  O13  1  0.082612  0.677630  0.948617  1
  O  O14  1  0.082612  0.177630  0.551383  1
  O  O15  1  0.917388  0.322370  0.051383  1
  O  O16  1  0.632307  0.081276  0.620118  1
  O  O17  1  0.367693  0.418724  0.120118  1
  O  O18  1  0.367693  0.918724  0.379882  1
  O  O19  1  0.632307  0.581276  0.879882  1
  O  O20  1  0.518267  0.782083  0.524450  1
  O  O21  1  0.481733  0.717917  0.024450  1
  O  O22  1  0.481733  0.217917  0.475550  1
  O  O23  1  0.518267  0.282083  0.975550  1
  O  O24  1  0.756812  0.858561  0.757587  1
  O  O25  1  0.243188  0.641439  0.257587  1
  O  O26  1  0.243188  0.141439  0.242413  1
  O  O27  1  0.756812  0.358561  0.742413  1
  O  O28  1  0.094790  0.945266  0.620055  1
  O  O29  1  0.905210  0.554734  0.120055  1
  O  O30  1  0.905210  0.054734  0.379945  1
  O  O31  1  0.094790  0.445266  0.879945  1
  O  O32  1  0.412234  0.979065  0.863301  1
  O  O33  1  0.587766  0.520935  0.363301  1
  O  O34  1  0.587766  0.020935  0.136699  1
  O  O35  1  0.412234  0.479065  0.636699  1
  O  O36  1  0.255065  0.704783  0.741255  1
  O  O37  1  0.744935  0.795217  0.241255  1
  O  O38  1  0.744935  0.295217  0.258745  1
  O  O39  1  0.255065  0.204783  0.758745  1
  O  O40  1  0.904954  0.639592  0.606394  1
  O  O41  1  0.095046  0.860408  0.106394  1
  O  O42  1  0.095046  0.360408  0.393606  1
  O  O43  1  0.904954  0.139592  0.893606  1
  H  H44  1  0.866529  0.903306  0.006585  1
  H  H45  1  0.133471  0.596694  0.506585  1
  H  H46  1  0.133471  0.096694  0.993415  1
  H  H47  1  0.866529  0.403306  0.493415  1
  H  H48  1  0.985167  0.766586  0.414147  1
  H  H49  1  0.014833  0.733414  0.914147  1
  H  H50  1  0.014833  0.233414  0.585853  1
  H  H51  1  0.985167  0.266586  0.085853  1
  H  H52  1  0.575287  0.125998  0.563826  1
  H  H53  1  0.424713  0.374002  0.063826  1
  H  H54  1  0.424713  0.874002  0.436174  1
  H  H55  1  0.575287  0.625998  0.936174  1
  H  H56  1  0.780613  0.089690  0.599740  1
  H  H57  1  0.219387  0.410310  0.099740  1
  H  H58  1  0.219387  0.910310  0.400260  1
  H  H59  1  0.780613  0.589690  0.900260  1
  H  H60  1  0.428988  0.705239  0.499489  1
  H  H61  1  0.571012  0.794761  -0.000511  1
  H  H62  1  0.571012  0.294761  0.500511  1
  H  H63  1  0.428988  0.205239  1.000511  1
  H  H64  1  0.663569  0.789714  0.493430  1
  H  H65  1  0.336431  0.710286  -0.006570  1
  H  H66  1  0.336431  0.210286  0.506570  1
  H  H67  1  0.663569  0.289714  1.006570  1
  H  H68  1  0.775837  0.884996  0.833976  1
  H  H69  1  0.224163  0.615004  0.333976  1
  H  H70  1  0.224163  0.115004  0.166024  1
  H  H71  1  0.775837  0.384996  0.666024  1
  H  H72  1  0.887137  0.895254  0.717356  1
  H  H73  1  0.112863  0.604746  0.217356  1
  H  H74  1  0.112863  0.104746  0.282644  1
  H  H75  1  0.887137  0.395254  0.782644  1
  H  H76  1  0.034136  0.898182  0.554801  1
  H  H77  1  0.965864  0.601818  0.054801  1
  H  H78  1  0.965864  0.101818  0.445199  1
  H  H79  1  0.034136  0.398182  0.945199  1
  H  H80  1  0.096421  0.027025  0.601485  1
  H  H81  1  0.903579  0.472975  0.101485  1
  H  H82  1  0.903579  0.972975  0.398515  1
  H  H83  1  0.096421  0.527025  0.898515  1
  H  H84  1  0.520091  0.948674  0.901351  1
  H  H85  1  0.479909  0.551326  0.401351  1
  H  H86  1  0.479909  0.051326  0.098649  1
  H  H87  1  0.520091  0.448674  0.598649  1
  H  H88  1  0.336453  0.010166  0.922691  1
  H  H89  1  0.663547  0.489834  0.422691  1
  H  H90  1  0.663547  0.989834  0.077309  1
  H  H91  1  0.336453  0.510166  0.577309  1
  H  H92  1  0.203569  0.693217  0.816629  1
  H  H93  1  0.796431  0.806783  0.316629  1
  H  H94  1  0.796431  0.306783  0.183371  1
  H  H95  1  0.203569  0.193217  0.683371  1
  H  H96  1  0.129331  0.674847  0.695699  1
  H  H97  1  0.870669  0.825153  0.195699  1
  H  H98  1  0.870669  0.325153  0.304301  1
  H  H99  1  0.129331  0.174847  0.804301  1
  H  H100  1  0.896705  0.699803  0.551978  1
  H  H101  1  0.103295  0.800197  0.051978  1
  H  H102  1  0.103295  0.300197  0.448022  1
  H  H103  1  0.896705  0.199803  0.948022  1
  H  H104  1  0.844407  0.559025  0.574110  1
  H  H105  1  0.155593  0.940975  0.074110  1
  H  H106  1  0.155593  0.440975  0.425890  1
  H  H107  1  0.844407  0.059025  0.925890  1
