# generated using pymatgen
data_Ba2CdReO6
_symmetry_space_group_name_H-M   'P 1'
_cell_length_a   5.98012029
_cell_length_b   5.97983940
_cell_length_c   5.98007031
_cell_angle_alpha   60.00184030
_cell_angle_beta   60.00237109
_cell_angle_gamma   60.00099531
_symmetry_Int_Tables_number   1
_chemical_formula_structural   Ba2CdReO6
_chemical_formula_sum   'Ba2 Cd1 Re1 O6'
_cell_volume   151.21950825
_cell_formula_units_Z   1
loop_
 _symmetry_equiv_pos_site_id
 _symmetry_equiv_pos_as_xyz
  1  'x, y, z'
loop_
 _atom_site_type_symbol
 _atom_site_label
 _atom_site_symmetry_multiplicity
 _atom_site_fract_x
 _atom_site_fract_y
 _atom_site_fract_z
 _atom_site_occupancy
  O  O0  1  0.270494  0.729506  0.270494  1
  Ba  Ba1  1  0.749993  0.750007  0.749993  1
  O  O2  1  0.729519  0.729486  0.270480  1
  O  O3  1  0.270480  0.270515  0.729519  1
  Ba  Ba4  1  0.250007  0.249993  0.250007  1
  O  O5  1  0.729507  0.270493  0.729507  1
  O  O6  1  0.270476  0.729496  0.729523  1
  O  O7  1  0.729523  0.270506  0.270476  1
  Re  Re8  1  0.500002  0.499998  0.500002  1
  Cd  Cd9  1  1.000000  0.000000  1.000000  1
