# generated using pymatgen
data_Ta2Hg3S(O2F5)2
_symmetry_space_group_name_H-M   'P 1'
_cell_length_a   9.30622778
_cell_length_b   9.30622754
_cell_length_c   10.48936131
_cell_angle_alpha   103.36178355
_cell_angle_beta   103.36178321
_cell_angle_gamma   118.62279540
_symmetry_Int_Tables_number   1
_chemical_formula_structural   Ta2Hg3S(O2F5)2
_chemical_formula_sum   'Ta4 Hg6 S2 O8 F20'
_cell_volume   710.98906382
_cell_formula_units_Z   2
loop_
 _symmetry_equiv_pos_site_id
 _symmetry_equiv_pos_as_xyz
  1  'x, y, z'
loop_
 _atom_site_type_symbol
 _atom_site_label
 _atom_site_symmetry_multiplicity
 _atom_site_fract_x
 _atom_site_fract_y
 _atom_site_fract_z
 _atom_site_occupancy
  Hg  Hg0  1  0.997781  0.997781  0.000000  1
  Hg  Hg1  1  0.747781  0.247781  0.500000  1
  Hg  Hg2  1  0.020506  0.251489  0.198582  1
  Hg  Hg3  1  0.052907  0.821924  0.801418  1
  Hg  Hg4  1  0.001489  0.270506  0.698582  1
  Hg  Hg5  1  0.571924  0.302907  0.301418  1
  Ta  Ta6  1  0.012781  0.890322  0.386041  1
  Ta  Ta7  1  0.504281  0.626740  0.613959  1
  Ta  Ta8  1  0.640322  0.262781  0.886041  1
  Ta  Ta9  1  0.376740  0.754281  0.113959  1
  S  S10  1  0.146187  0.646187  0.500000  1
  S  S11  1  0.396187  0.396187  0.000000  1
  F  F12  1  0.896134  0.009272  0.364335  1
  F  F13  1  0.644938  0.531800  0.635665  1
  F  F14  1  0.759272  0.146134  0.864335  1
  F  F15  1  0.281800  0.894938  0.135665  1
  F  F16  1  0.228121  0.077123  0.389740  1
  F  F17  1  0.687383  0.838381  0.610260  1
  F  F18  1  0.827123  0.478121  0.889740  1
  F  F19  1  0.588381  0.937383  0.110260  1
  F  F20  1  0.807236  0.680601  0.375403  1
  F  F21  1  0.305199  0.431833  0.624597  1
  F  F22  1  0.430601  0.057236  0.875403  1
  F  F23  1  0.181833  0.555199  0.124597  1
  F  F24  1  0.932826  0.779827  0.183278  1
  F  F25  1  0.596550  0.749548  0.816722  1
  F  F26  1  0.529827  0.182826  0.683278  1
  F  F27  1  0.499548  0.846550  0.316722  1
  F  F28  1  0.087081  0.000478  0.590202  1
  F  F29  1  0.410276  0.496879  0.409798  1
  F  F30  1  0.750478  0.337081  0.090202  1
  F  F31  1  0.246879  0.660276  0.909798  1
  O  O32  1  0.146408  0.769819  0.428774  1
  O  O33  1  0.341045  0.717634  0.571226  1
  O  O34  1  0.519819  0.396408  0.928774  1
  O  O35  1  0.467634  0.591045  0.071226  1
  O  O36  1  0.044445  0.462376  0.392661  1
  O  O37  1  0.069716  0.651785  0.607339  1
  O  O38  1  0.212376  0.294445  0.892661  1
  O  O39  1  0.401785  0.319716  0.107339  1
