# generated using pymatgen
data_BaWO4
_symmetry_space_group_name_H-M   'P 1'
_cell_length_a   4.01726305
_cell_length_b   6.03599977
_cell_length_c   7.74984214
_cell_angle_alpha   90.00000000
_cell_angle_beta   105.02161342
_cell_angle_gamma   90.00000000
_symmetry_Int_Tables_number   1
_chemical_formula_structural   BaWO4
_chemical_formula_sum   'Ba2 W2 O8'
_cell_volume   181.49814395
_cell_formula_units_Z   2
loop_
 _symmetry_equiv_pos_site_id
 _symmetry_equiv_pos_as_xyz
  1  'x, y, z'
loop_
 _atom_site_type_symbol
 _atom_site_label
 _atom_site_symmetry_multiplicity
 _atom_site_fract_x
 _atom_site_fract_y
 _atom_site_fract_z
 _atom_site_occupancy
  Ba  Ba0  1  0.149067  0.490738  0.298133  1
  Ba  Ba1  1  0.850933  0.990738  0.701867  1
  W  W2  1  0.408656  0.489571  0.817311  1
  W  W3  1  0.591344  0.989571  0.182689  1
  O  O4  1  0.500823  0.737072  0.001647  1
  O  O5  1  0.677951  0.208715  0.355901  1
  O  O6  1  0.080500  0.989073  0.161001  1
  O  O7  1  0.919500  0.489073  0.838999  1
  O  O8  1  0.678988  0.772531  0.357977  1
  O  O9  1  0.321012  0.272531  0.642023  1
  O  O10  1  0.322049  0.708715  0.644099  1
  O  O11  1  0.499177  0.237072  0.998353  1
