# generated using pymatgen
data_Pb5(IF4)2
_symmetry_space_group_name_H-M   'P 1'
_cell_length_a   19.62513161
_cell_length_b   19.62513155
_cell_length_c   19.62513157
_cell_angle_alpha   12.69449211
_cell_angle_beta   12.69449294
_cell_angle_gamma   12.69449186
_symmetry_Int_Tables_number   1
_chemical_formula_structural   Pb5(IF4)2
_chemical_formula_sum   'Pb5 I2 F8'
_cell_volume   317.40124042
_cell_formula_units_Z   1
loop_
 _symmetry_equiv_pos_site_id
 _symmetry_equiv_pos_as_xyz
  1  'x, y, z'
loop_
 _atom_site_type_symbol
 _atom_site_label
 _atom_site_symmetry_multiplicity
 _atom_site_fract_x
 _atom_site_fract_y
 _atom_site_fract_z
 _atom_site_occupancy
  Pb  Pb0  1  0.006014  0.006014  0.006014  1
  Pb  Pb1  1  0.388749  0.388749  0.388749  1
  Pb  Pb2  1  0.477262  0.477262  0.477262  1
  Pb  Pb3  1  0.193342  0.193342  0.193342  1
  Pb  Pb4  1  0.919812  0.919812  0.919812  1
  I  I5  1  0.760123  0.760123  0.760123  1
  I  I6  1  0.624169  0.624169  0.624169  1
  F  F7  1  0.146636  0.146636  0.146636  1
  F  F8  1  0.241657  0.241657  0.241657  1
  F  F9  1  0.340049  0.340049  0.340049  1
  F  F10  1  0.518979  0.518979  0.518979  1
  F  F11  1  0.879741  0.879741  0.879741  1
  F  F12  1  0.047491  0.047491  0.047491  1
  F  F13  1  0.692962  0.692962  0.692962  1
  F  F14  1  0.829213  0.829213  0.829213  1
