# generated using pymatgen
data_SbMoOF9
_symmetry_space_group_name_H-M   'P 1'
_cell_length_a   7.68497086
_cell_length_b   9.93930597
_cell_length_c   10.72181093
_cell_angle_alpha   90.00000000
_cell_angle_beta   90.00000000
_cell_angle_gamma   93.08054524
_symmetry_Int_Tables_number   1
_chemical_formula_structural   SbMoOF9
_chemical_formula_sum   'Sb4 Mo4 O4 F36'
_cell_volume   817.78362333
_cell_formula_units_Z   4
loop_
 _symmetry_equiv_pos_site_id
 _symmetry_equiv_pos_as_xyz
  1  'x, y, z'
loop_
 _atom_site_type_symbol
 _atom_site_label
 _atom_site_symmetry_multiplicity
 _atom_site_fract_x
 _atom_site_fract_y
 _atom_site_fract_z
 _atom_site_occupancy
  Sb  Sb0  1  0.786767  0.691375  0.482747  1
  Sb  Sb1  1  0.713233  0.808625  0.982747  1
  Sb  Sb2  1  0.213233  0.308625  0.517253  1
  Sb  Sb3  1  0.286767  0.191375  0.017253  1
  Mo  Mo4  1  0.626536  0.164984  0.312836  1
  Mo  Mo5  1  0.126536  0.664984  0.187164  1
  Mo  Mo6  1  0.873464  0.335016  0.812836  1
  Mo  Mo7  1  0.373464  0.835016  0.687164  1
  O  O8  1  0.208505  0.916654  0.748820  1
  O  O9  1  0.708505  0.416654  0.751180  1
  O  O10  1  0.791495  0.083346  0.251180  1
  O  O11  1  0.291495  0.583346  0.248820  1
  F  F12  1  0.673360  0.339690  0.255320  1
  F  F13  1  0.141311  0.123438  0.521919  1
  F  F14  1  0.873374  0.780756  0.852559  1
  F  F15  1  0.528703  0.842864  0.849122  1
  F  F16  1  0.225453  0.004475  0.019111  1
  F  F17  1  0.641311  0.623438  0.978081  1
  F  F18  1  0.326640  0.660310  0.744680  1
  F  F19  1  0.292631  0.806247  0.526733  1
  F  F20  1  0.725453  0.504475  0.480889  1
  F  F21  1  0.470950  0.022167  0.356315  1
  F  F22  1  0.774547  0.995525  0.980889  1
  F  F23  1  0.040722  0.339357  0.395900  1
  F  F24  1  0.373374  0.280755  0.647441  1
  F  F25  1  0.126626  0.219245  0.147441  1
  F  F26  1  0.612287  0.721537  0.611869  1
  F  F27  1  0.540722  0.839357  0.104100  1
  F  F28  1  0.459278  0.160643  0.895900  1
  F  F29  1  0.112287  0.221537  0.888131  1
  F  F30  1  0.274547  0.495525  0.519111  1
  F  F31  1  0.529050  0.977833  0.643685  1
  F  F32  1  0.826640  0.160310  0.755320  1
  F  F33  1  0.970950  0.522167  0.143685  1
  F  F34  1  0.387713  0.278463  0.388131  1
  F  F35  1  0.028703  0.342864  0.650878  1
  F  F36  1  0.887713  0.778463  0.111869  1
  F  F37  1  0.029050  0.477833  0.856315  1
  F  F38  1  0.173360  0.839690  0.244680  1
  F  F39  1  0.959278  0.660643  0.604100  1
  F  F40  1  0.858689  0.876562  0.478081  1
  F  F41  1  0.207369  0.693753  0.026733  1
  F  F42  1  0.626626  0.719244  0.352559  1
  F  F43  1  0.707369  0.193753  0.473267  1
  F  F44  1  0.471297  0.157136  0.150878  1
  F  F45  1  0.358689  0.376562  0.021919  1
  F  F46  1  0.971297  0.657136  0.349122  1
  F  F47  1  0.792631  0.306247  0.973267  1
