# generated using pymatgen
data_Rb4Mo21S25
_symmetry_space_group_name_H-M   'P 1'
_cell_length_a   28.57187357
_cell_length_b   28.57187369
_cell_length_c   28.57187337
_cell_angle_alpha   19.13176970
_cell_angle_beta   19.13176901
_cell_angle_gamma   19.13176996
_symmetry_Int_Tables_number   1
_chemical_formula_structural   Rb4Mo21S25
_chemical_formula_sum   'Rb8 Mo42 S50'
_cell_volume   2189.90940971
_cell_formula_units_Z   2
loop_
 _symmetry_equiv_pos_site_id
 _symmetry_equiv_pos_as_xyz
  1  'x, y, z'
loop_
 _atom_site_type_symbol
 _atom_site_label
 _atom_site_symmetry_multiplicity
 _atom_site_fract_x
 _atom_site_fract_y
 _atom_site_fract_z
 _atom_site_occupancy
  Rb  Rb0  1  0.100850  0.100850  0.100850  1
  Rb  Rb1  1  0.660134  0.660134  0.660134  1
  Rb  Rb2  1  0.839866  0.839866  0.839866  1
  Rb  Rb3  1  0.899150  0.899150  0.899150  1
  Rb  Rb4  1  0.399150  0.399150  0.399150  1
  Rb  Rb5  1  0.160134  0.160134  0.160134  1
  Rb  Rb6  1  0.339866  0.339866  0.339866  1
  Rb  Rb7  1  0.600850  0.600850  0.600850  1
  Mo  Mo8  1  0.480659  0.610281  0.288317  1
  Mo  Mo9  1  0.389719  0.711683  0.519341  1
  Mo  Mo10  1  0.889719  0.019341  0.211683  1
  Mo  Mo11  1  0.711683  0.519341  0.389719  1
  Mo  Mo12  1  0.331332  0.659281  0.470372  1
  Mo  Mo13  1  0.085460  0.414540  0.250000  1
  Mo  Mo14  1  0.250000  0.085460  0.414540  1
  Mo  Mo15  1  0.980659  0.788317  0.110281  1
  Mo  Mo16  1  0.110281  0.980659  0.788317  1
  Mo  Mo17  1  0.659281  0.470372  0.331332  1
  Mo  Mo18  1  0.054871  0.230801  0.382434  1
  Mo  Mo19  1  0.831332  0.970372  0.159281  1
  Mo  Mo20  1  0.159281  0.831332  0.970372  1
  Mo  Mo21  1  0.519341  0.389719  0.711683  1
  Mo  Mo22  1  0.117566  0.269199  0.445129  1
  Mo  Mo23  1  0.269199  0.445129  0.117566  1
  Mo  Mo24  1  0.288317  0.480659  0.610281  1
  Mo  Mo25  1  0.414540  0.250000  0.085460  1
  Mo  Mo26  1  0.019341  0.211683  0.889719  1
  Mo  Mo27  1  0.470372  0.331332  0.659281  1
  Mo  Mo28  1  0.945129  0.769199  0.617566  1
  Mo  Mo29  1  0.554871  0.882434  0.730801  1
  Mo  Mo30  1  0.750000  0.914540  0.585460  1
  Mo  Mo31  1  0.668668  0.340719  0.529628  1
  Mo  Mo32  1  0.610281  0.288317  0.480659  1
  Mo  Mo33  1  0.617566  0.945129  0.769199  1
  Mo  Mo34  1  0.730801  0.554871  0.882434  1
  Mo  Mo35  1  0.882434  0.730801  0.554871  1
  Mo  Mo36  1  0.585460  0.750000  0.914540  1
  Mo  Mo37  1  0.914540  0.585460  0.750000  1
  Mo  Mo38  1  0.788317  0.110281  0.980659  1
  Mo  Mo39  1  0.970372  0.159281  0.831332  1
  Mo  Mo40  1  0.340719  0.529628  0.668668  1
  Mo  Mo41  1  0.029628  0.840719  0.168668  1
  Mo  Mo42  1  0.382434  0.054871  0.230801  1
  Mo  Mo43  1  0.529628  0.668668  0.340719  1
  Mo  Mo44  1  0.769199  0.617566  0.945129  1
  Mo  Mo45  1  0.168668  0.029628  0.840719  1
  Mo  Mo46  1  0.445129  0.117566  0.269199  1
  Mo  Mo47  1  0.230801  0.382434  0.054871  1
  Mo  Mo48  1  0.211683  0.889719  0.019341  1
  Mo  Mo49  1  0.840719  0.168668  0.029628  1
  S  S50  1  0.828815  0.483464  0.228382  1
  S  S51  1  0.437742  0.437742  0.437742  1
  S  S52  1  0.728382  0.983464  0.328815  1
  S  S53  1  0.209021  0.936713  0.530470  1
  S  S54  1  0.983464  0.328815  0.728382  1
  S  S55  1  0.320218  0.073843  0.719466  1
  S  S56  1  0.969530  0.563287  0.290979  1
  S  S57  1  0.671185  0.271618  0.016536  1
  S  S58  1  0.062258  0.062258  0.062258  1
  S  S59  1  0.299289  0.299289  0.299289  1
  S  S60  1  0.550346  0.949654  0.250000  1
  S  S61  1  0.573843  0.820218  0.219466  1
  S  S62  1  0.530470  0.209021  0.936713  1
  S  S63  1  0.030470  0.436713  0.709021  1
  S  S64  1  0.719466  0.320218  0.073843  1
  S  S65  1  0.949654  0.250000  0.550346  1
  S  S66  1  0.063287  0.469530  0.790979  1
  S  S67  1  0.200711  0.200711  0.200711  1
  S  S68  1  0.469530  0.790979  0.063287  1
  S  S69  1  0.937742  0.937742  0.937742  1
  S  S70  1  0.290979  0.969530  0.563287  1
  S  S71  1  0.426157  0.179782  0.780534  1
  S  S72  1  0.179782  0.780534  0.426157  1
  S  S73  1  0.709021  0.030470  0.436713  1
  S  S74  1  0.449654  0.050346  0.750000  1
  S  S75  1  0.171185  0.516536  0.771618  1
  S  S76  1  0.936713  0.530470  0.209021  1
  S  S77  1  0.820218  0.219466  0.573843  1
  S  S78  1  0.328815  0.728382  0.983464  1
  S  S79  1  0.483464  0.228382  0.828815  1
  S  S80  1  0.790979  0.063287  0.469530  1
  S  S81  1  0.780534  0.426157  0.179782  1
  S  S82  1  0.250000  0.550346  0.949654  1
  S  S83  1  0.516536  0.771618  0.171185  1
  S  S84  1  0.562258  0.562258  0.562258  1
  S  S85  1  0.771618  0.171185  0.516536  1
  S  S86  1  0.926157  0.280534  0.679782  1
  S  S87  1  0.750000  0.449654  0.050346  1
  S  S88  1  0.050346  0.750000  0.449654  1
  S  S89  1  0.219466  0.573843  0.820218  1
  S  S90  1  0.799289  0.799289  0.799289  1
  S  S91  1  0.271618  0.016536  0.671185  1
  S  S92  1  0.073843  0.719466  0.320218  1
  S  S93  1  0.436713  0.709021  0.030470  1
  S  S94  1  0.700711  0.700711  0.700711  1
  S  S95  1  0.563287  0.290979  0.969530  1
  S  S96  1  0.280534  0.679782  0.926157  1
  S  S97  1  0.228382  0.828815  0.483464  1
  S  S98  1  0.016536  0.671185  0.271618  1
  S  S99  1  0.679782  0.926157  0.280534  1
