# generated using pymatgen
data_EuCu2SnS4
_symmetry_space_group_name_H-M   'P 1'
_cell_length_a   6.09128988
_cell_length_b   6.09129053
_cell_length_c   10.50652299
_cell_angle_alpha   90.00000000
_cell_angle_beta   90.00000000
_cell_angle_gamma   116.07324304
_symmetry_Int_Tables_number   1
_chemical_formula_structural   EuCu2SnS4
_chemical_formula_sum   'Eu2 Cu4 Sn2 S8'
_cell_volume   350.16002823
_cell_formula_units_Z   2
loop_
 _symmetry_equiv_pos_site_id
 _symmetry_equiv_pos_as_xyz
  1  'x, y, z'
loop_
 _atom_site_type_symbol
 _atom_site_label
 _atom_site_symmetry_multiplicity
 _atom_site_fract_x
 _atom_site_fract_y
 _atom_site_fract_z
 _atom_site_occupancy
  Eu  Eu0  1  0.477917  0.477917  0.500000  1
  Eu  Eu1  1  0.477917  0.477917  0.000000  1
  Cu  Cu2  1  0.281162  0.852786  0.873957  1
  Cu  Cu3  1  0.852786  0.281162  0.373957  1
  Cu  Cu4  1  0.852786  0.281162  0.126043  1
  Cu  Cu5  1  0.281162  0.852786  0.626043  1
  Sn  Sn6  1  0.208787  0.905140  0.250000  1
  Sn  Sn7  1  0.905140  0.208787  0.750000  1
  S  S8  1  0.966336  0.484164  0.932055  1
  S  S9  1  0.484164  0.966336  0.067945  1
  S  S10  1  0.586336  0.787019  0.750000  1
  S  S11  1  0.484164  0.966336  0.432055  1
  S  S12  1  0.294286  0.176841  0.750000  1
  S  S13  1  0.966336  0.484164  0.567945  1
  S  S14  1  0.787019  0.586336  0.250000  1
  S  S15  1  0.176841  0.294286  0.250000  1
