# generated using pymatgen
data_NiP3H12NO7
_symmetry_space_group_name_H-M   'P 1'
_cell_length_a   7.42930084
_cell_length_b   9.27404330
_cell_length_c   15.03085617
_cell_angle_alpha   90.00000000
_cell_angle_beta   90.00000000
_cell_angle_gamma   108.90394920
_symmetry_Int_Tables_number   1
_chemical_formula_structural   NiP3H12NO7
_chemical_formula_sum   'Ni4 P12 H48 N4 O28'
_cell_volume   979.76259414
_cell_formula_units_Z   4
loop_
 _symmetry_equiv_pos_site_id
 _symmetry_equiv_pos_as_xyz
  1  'x, y, z'
loop_
 _atom_site_type_symbol
 _atom_site_label
 _atom_site_symmetry_multiplicity
 _atom_site_fract_x
 _atom_site_fract_y
 _atom_site_fract_z
 _atom_site_occupancy
  Ni  Ni0  1  0.102402  0.097458  0.827947  1
  Ni  Ni1  1  0.397598  0.402542  0.327947  1
  Ni  Ni2  1  0.897598  0.902542  0.172053  1
  Ni  Ni3  1  0.602402  0.597458  0.672053  1
  P  P4  1  0.144045  0.046561  0.347425  1
  P  P5  1  0.644045  0.546561  0.152575  1
  P  P6  1  0.425111  0.197768  0.669156  1
  P  P7  1  0.193280  0.771579  0.074239  1
  P  P8  1  0.074889  0.302232  0.169156  1
  P  P9  1  0.355955  0.453439  0.847425  1
  P  P10  1  0.574889  0.802232  0.330844  1
  P  P11  1  0.925111  0.697768  0.830844  1
  P  P12  1  0.806720  0.228421  0.925761  1
  P  P13  1  0.306720  0.728421  0.574239  1
  P  P14  1  0.693280  0.271579  0.425761  1
  P  P15  1  0.855955  0.953439  0.652575  1
  H  H16  1  0.127533  0.448804  0.647000  1
  H  H17  1  0.078377  0.636099  0.406941  1
  H  H18  1  0.076887  0.540155  0.308884  1
  H  H19  1  0.391610  0.152054  0.952873  1
  H  H20  1  0.269820  0.180805  0.610364  1
  H  H21  1  0.669384  0.485821  0.068479  1
  H  H22  1  0.923113  0.459845  0.691116  1
  H  H23  1  0.769820  0.680805  0.889636  1
  H  H24  1  0.802320  0.953945  0.004884  1
  H  H25  1  0.786500  0.296006  0.843424  1
  H  H26  1  0.730180  0.819195  0.389636  1
  H  H27  1  0.608390  0.847946  0.047127  1
  H  H28  1  0.372467  0.051196  0.147000  1
  H  H29  1  0.997017  0.884251  0.636635  1
  H  H30  1  0.421623  0.863901  0.906941  1
  H  H31  1  0.872467  0.551196  0.353000  1
  H  H32  1  0.713500  0.203994  0.343424  1
  H  H33  1  0.032132  0.615572  0.873727  1
  H  H34  1  0.576887  0.040155  0.191116  1
  H  H35  1  0.532132  0.115572  0.626273  1
  H  H36  1  0.697680  0.546055  0.504884  1
  H  H37  1  0.423113  0.959845  0.808884  1
  H  H38  1  0.302320  0.453945  0.495116  1
  H  H39  1  0.502983  0.615749  0.136635  1
  H  H40  1  0.968441  0.289114  0.689549  1
  H  H41  1  0.627533  0.948804  0.853000  1
  H  H42  1  0.830616  0.014179  0.568479  1
  H  H43  1  0.108390  0.347946  0.452873  1
  H  H44  1  0.037286  0.661085  0.032857  1
  H  H45  1  0.921623  0.363901  0.593059  1
  H  H46  1  0.002983  0.115749  0.363365  1
  H  H47  1  0.967868  0.384428  0.126273  1
  H  H48  1  0.891610  0.652054  0.547127  1
  H  H49  1  0.230180  0.319195  0.110364  1
  H  H50  1  0.462714  0.838915  0.532857  1
  H  H51  1  0.169384  0.985821  0.431521  1
  H  H52  1  0.031559  0.710886  0.310451  1
  H  H53  1  0.537286  0.161085  0.467143  1
  H  H54  1  0.468441  0.789114  0.810451  1
  H  H55  1  0.467868  0.884428  0.373727  1
  H  H56  1  0.497017  0.384251  0.863365  1
  H  H57  1  0.197680  0.046055  0.995116  1
  H  H58  1  0.531559  0.210886  0.189549  1
  H  H59  1  0.962714  0.338915  0.967143  1
  H  H60  1  0.578377  0.136099  0.093059  1
  H  H61  1  0.213500  0.703994  0.156576  1
  H  H62  1  0.286500  0.796006  0.656576  1
  H  H63  1  0.330616  0.514179  0.931521  1
  N  N64  1  0.516102  0.109426  0.155839  1
  N  N65  1  0.983898  0.390574  0.655839  1
  N  N66  1  0.483898  0.890574  0.844161  1
  N  N67  1  0.016102  0.609426  0.344161  1
  O  O68  1  0.170247  0.333521  0.819794  1
  O  O69  1  0.871633  0.294704  0.481174  1
  O  O70  1  0.128367  0.705296  0.518826  1
  O  O71  1  0.436953  0.589834  0.785152  1
  O  O72  1  0.649603  0.888118  0.244510  1
  O  O73  1  0.350397  0.111882  0.755490  1
  O  O74  1  0.359728  0.583644  0.592369  1
  O  O75  1  0.850397  0.611882  0.744510  1
  O  O76  1  0.329753  0.166479  0.319794  1
  O  O77  1  0.249591  0.376233  0.448602  1
  O  O78  1  0.063047  0.910166  0.285152  1
  O  O79  1  0.140272  0.916356  0.092369  1
  O  O80  1  0.750409  0.623767  0.551398  1
  O  O81  1  0.670247  0.833521  0.680206  1
  O  O82  1  0.936953  0.089834  0.714848  1
  O  O83  1  0.250409  0.123767  0.948602  1
  O  O84  1  0.371633  0.794704  0.018826  1
  O  O85  1  0.547198  0.363555  0.672958  1
  O  O86  1  0.749591  0.876233  0.051398  1
  O  O87  1  0.563047  0.410166  0.214848  1
  O  O88  1  0.859728  0.083644  0.907631  1
  O  O89  1  0.628367  0.205296  0.981174  1
  O  O90  1  0.047198  0.863555  0.827042  1
  O  O91  1  0.952802  0.136445  0.172958  1
  O  O92  1  0.829753  0.666479  0.180206  1
  O  O93  1  0.149603  0.388118  0.255490  1
  O  O94  1  0.452802  0.636445  0.327042  1
  O  O95  1  0.640272  0.416356  0.407631  1
