# generated using pymatgen
data_BaB2F8
_symmetry_space_group_name_H-M   'P 1'
_cell_length_a   4.85647037
_cell_length_b   5.11025555
_cell_length_c   6.87383699
_cell_angle_alpha   111.81965617
_cell_angle_beta   110.37254602
_cell_angle_gamma   89.99978505
_symmetry_Int_Tables_number   1
_chemical_formula_structural   BaB2F8
_chemical_formula_sum   'Ba1 B2 F8'
_cell_volume   146.81561057
_cell_formula_units_Z   1
loop_
 _symmetry_equiv_pos_site_id
 _symmetry_equiv_pos_as_xyz
  1  'x, y, z'
loop_
 _atom_site_type_symbol
 _atom_site_label
 _atom_site_symmetry_multiplicity
 _atom_site_fract_x
 _atom_site_fract_y
 _atom_site_fract_z
 _atom_site_occupancy
  Ba  Ba0  1  0.000000  0.000000  0.000000  1
  B  B1  1  0.291356  0.347686  0.695323  1
  B  B2  1  0.708644  0.652314  0.304677  1
  F  F3  1  0.467445  0.612230  0.768767  1
  F  F4  1  0.850898  0.770391  0.540928  1
  F  F5  1  0.467478  0.156578  0.768708  1
  F  F6  1  0.073779  0.399123  0.798366  1
  F  F7  1  0.532522  0.843422  0.231292  1
  F  F8  1  0.532555  0.387770  0.231233  1
  F  F9  1  0.149102  0.229609  0.459072  1
  F  F10  1  0.926221  0.600877  0.201634  1
