# generated using pymatgen
data_Mn11Si19
_symmetry_space_group_name_H-M   'P 1'
_cell_length_a   5.49093527
_cell_length_b   5.49093527
_cell_length_c   47.72219037
_cell_angle_alpha   90.00000000
_cell_angle_beta   90.00000000
_cell_angle_gamma   90.00000000
_symmetry_Int_Tables_number   1
_chemical_formula_structural   Mn11Si19
_chemical_formula_sum   'Mn44 Si76'
_cell_volume   1438.84170352
_cell_formula_units_Z   4
loop_
 _symmetry_equiv_pos_site_id
 _symmetry_equiv_pos_as_xyz
  1  'x, y, z'
loop_
 _atom_site_type_symbol
 _atom_site_label
 _atom_site_symmetry_multiplicity
 _atom_site_fract_x
 _atom_site_fract_y
 _atom_site_fract_z
 _atom_site_occupancy
  Mn  Mn0  1  0.000000  0.500000  0.523626  1
  Mn  Mn1  1  0.000000  0.500000  0.430231  1
  Mn  Mn2  1  0.500000  0.000000  0.111519  1
  Mn  Mn3  1  0.500000  0.500000  0.952560  1
  Mn  Mn4  1  0.500000  0.000000  0.569769  1
  Mn  Mn5  1  0.500000  0.500000  0.770797  1
  Mn  Mn6  1  0.500000  0.000000  0.476374  1
  Mn  Mn7  1  0.000000  0.500000  0.706275  1
  Mn  Mn8  1  0.500000  0.000000  0.930231  1
  Mn  Mn9  1  0.000000  0.500000  0.611519  1
  Mn  Mn10  1  0.500000  0.000000  0.293725  1
  Mn  Mn11  1  0.500000  0.000000  0.841120  1
  Mn  Mn12  1  0.000000  0.000000  0.910036  1
  Mn  Mn13  1  0.000000  0.000000  0.452560  1
  Mn  Mn14  1  0.000000  0.500000  0.793725  1
  Mn  Mn15  1  0.000000  0.000000  0.270797  1
  Mn  Mn16  1  0.500000  0.500000  0.589964  1
  Mn  Mn17  1  0.500000  0.500000  0.047440  1
  Mn  Mn18  1  0.000000  0.000000  0.000000  1
  Mn  Mn19  1  0.000000  0.000000  0.729203  1
  Mn  Mn20  1  0.500000  0.500000  0.135125  1
  Mn  Mn21  1  0.500000  0.000000  0.388481  1
  Mn  Mn22  1  0.500000  0.500000  0.864875  1
  Mn  Mn23  1  0.500000  0.500000  0.229203  1
  Mn  Mn24  1  0.000000  0.500000  0.341120  1
  Mn  Mn25  1  0.000000  0.500000  0.069769  1
  Mn  Mn26  1  0.500000  0.000000  0.023626  1
  Mn  Mn27  1  0.000000  0.500000  0.158880  1
  Mn  Mn28  1  0.500000  0.500000  0.410036  1
  Mn  Mn29  1  0.500000  0.000000  0.658880  1
  Mn  Mn30  1  0.000000  0.000000  0.089964  1
  Mn  Mn31  1  0.500000  0.000000  0.750000  1
  Mn  Mn32  1  0.500000  0.500000  0.500000  1
  Mn  Mn33  1  0.000000  0.000000  0.635125  1
  Mn  Mn34  1  0.000000  0.000000  0.817604  1
  Mn  Mn35  1  0.000000  0.500000  0.976374  1
  Mn  Mn36  1  0.500000  0.500000  0.682396  1
  Mn  Mn37  1  0.500000  0.000000  0.206275  1
  Mn  Mn38  1  0.000000  0.500000  0.250000  1
  Mn  Mn39  1  0.000000  0.000000  0.547440  1
  Mn  Mn40  1  0.500000  0.500000  0.317604  1
  Mn  Mn41  1  0.000000  0.000000  0.364875  1
  Mn  Mn42  1  0.000000  0.500000  0.888481  1
  Mn  Mn43  1  0.000000  0.000000  0.182396  1
  Si  Si44  1  0.319831  0.342203  0.274892  1
  Si  Si45  1  0.346951  0.258774  0.171680  1
  Si  Si46  1  0.347058  0.717724  0.356789  1
  Si  Si47  1  0.153649  0.704281  0.300559  1
  Si  Si48  1  0.665531  0.165531  0.250000  1
  Si  Si49  1  0.659867  0.825862  0.433276  1
  Si  Si50  1  0.174138  0.659867  0.566724  1
  Si  Si51  1  0.653064  0.229416  0.985746  1
  Si  Si52  1  0.195474  0.154092  0.958517  1
  Si  Si53  1  0.282276  0.347058  0.643211  1
  Si  Si54  1  0.652942  0.282276  0.356789  1
  Si  Si55  1  0.782276  0.152942  0.143211  1
  Si  Si56  1  0.270584  0.846936  0.514254  1
  Si  Si57  1  0.840133  0.325862  0.933276  1
  Si  Si58  1  0.258774  0.653049  0.828320  1
  Si  Si59  1  0.344380  0.811883  0.616730  1
  Si  Si60  1  0.152942  0.217724  0.856789  1
  Si  Si61  1  0.325862  0.159867  0.066724  1
  Si  Si62  1  0.345908  0.304526  0.541483  1
  Si  Si63  1  0.846351  0.295719  0.300559  1
  Si  Si64  1  0.758774  0.846951  0.328320  1
  Si  Si65  1  0.845908  0.195474  0.041483  1
  Si  Si66  1  0.311883  0.844380  0.883270  1
  Si  Si67  1  0.741226  0.346951  0.828320  1
  Si  Si68  1  0.337828  0.330322  0.908301  1
  Si  Si69  1  0.165531  0.334469  0.750000  1
  Si  Si70  1  0.654092  0.695474  0.541483  1
  Si  Si71  1  0.295719  0.153649  0.699441  1
  Si  Si72  1  0.704281  0.846351  0.699441  1
  Si  Si73  1  0.229416  0.346936  0.014254  1
  Si  Si74  1  0.795719  0.346351  0.199441  1
  Si  Si75  1  0.847058  0.782276  0.856789  1
  Si  Si76  1  0.217724  0.847058  0.143211  1
  Si  Si77  1  0.830322  0.837828  0.591699  1
  Si  Si78  1  0.330322  0.662172  0.091699  1
  Si  Si79  1  0.804526  0.845908  0.958517  1
  Si  Si80  1  0.717724  0.652942  0.643211  1
  Si  Si81  1  0.770584  0.653064  0.014254  1
  Si  Si82  1  0.162172  0.830322  0.408301  1
  Si  Si83  1  0.837828  0.169678  0.408301  1
  Si  Si84  1  0.653649  0.795719  0.800559  1
  Si  Si85  1  0.169678  0.162172  0.591699  1
  Si  Si86  1  0.674138  0.840133  0.066724  1
  Si  Si87  1  0.729416  0.153064  0.514254  1
  Si  Si88  1  0.346351  0.204281  0.800559  1
  Si  Si89  1  0.844380  0.688117  0.116730  1
  Si  Si90  1  0.655620  0.188117  0.616730  1
  Si  Si91  1  0.688117  0.155620  0.883270  1
  Si  Si92  1  0.304526  0.654092  0.458517  1
  Si  Si93  1  0.188117  0.344380  0.383270  1
  Si  Si94  1  0.153049  0.758774  0.671680  1
  Si  Si95  1  0.346936  0.770584  0.985746  1
  Si  Si96  1  0.180169  0.842203  0.774892  1
  Si  Si97  1  0.842203  0.819831  0.225108  1
  Si  Si98  1  0.819831  0.157797  0.774892  1
  Si  Si99  1  0.846936  0.729416  0.485746  1
  Si  Si100  1  0.811883  0.655620  0.383270  1
  Si  Si101  1  0.825862  0.340133  0.566724  1
  Si  Si102  1  0.680169  0.657797  0.274892  1
  Si  Si103  1  0.204281  0.653649  0.199441  1
  Si  Si104  1  0.241226  0.153049  0.328320  1
  Si  Si105  1  0.695474  0.345908  0.458517  1
  Si  Si106  1  0.669678  0.337828  0.091699  1
  Si  Si107  1  0.340133  0.174138  0.433276  1
  Si  Si108  1  0.155620  0.311883  0.116730  1
  Si  Si109  1  0.846951  0.241226  0.671680  1
  Si  Si110  1  0.834469  0.665531  0.750000  1
  Si  Si111  1  0.653049  0.741226  0.171680  1
  Si  Si112  1  0.157797  0.180169  0.225108  1
  Si  Si113  1  0.334469  0.834469  0.250000  1
  Si  Si114  1  0.662172  0.669678  0.908301  1
  Si  Si115  1  0.342203  0.680169  0.725108  1
  Si  Si116  1  0.159867  0.674138  0.933276  1
  Si  Si117  1  0.153064  0.270584  0.485746  1
  Si  Si118  1  0.657797  0.319831  0.725108  1
  Si  Si119  1  0.154092  0.804526  0.041483  1
