# generated using pymatgen
data_RbCrClO3
_symmetry_space_group_name_H-M   'P 1'
_cell_length_a   7.77724726
_cell_length_b   8.27796867
_cell_length_c   8.25966194
_cell_angle_alpha   90.68209676
_cell_angle_beta   90.00000000
_cell_angle_gamma   90.00000000
_symmetry_Int_Tables_number   1
_chemical_formula_structural   RbCrClO3
_chemical_formula_sum   'Rb4 Cr4 Cl4 O12'
_cell_volume   531.71777838
_cell_formula_units_Z   4
loop_
 _symmetry_equiv_pos_site_id
 _symmetry_equiv_pos_as_xyz
  1  'x, y, z'
loop_
 _atom_site_type_symbol
 _atom_site_label
 _atom_site_symmetry_multiplicity
 _atom_site_fract_x
 _atom_site_fract_y
 _atom_site_fract_z
 _atom_site_occupancy
  Rb  Rb0  1  0.143135  0.814074  0.366119  1
  Rb  Rb1  1  0.356865  0.814074  0.866119  1
  Rb  Rb2  1  0.856865  0.185926  0.633881  1
  Rb  Rb3  1  0.643135  0.185926  0.133881  1
  Cr  Cr4  1  0.874061  0.778058  0.874136  1
  Cr  Cr5  1  0.125939  0.221942  0.125864  1
  Cr  Cr6  1  0.625939  0.778058  0.374136  1
  Cr  Cr7  1  0.374061  0.221942  0.625864  1
  Cl  Cl8  1  0.776390  0.554384  0.361528  1
  Cl  Cl9  1  0.223610  0.445616  0.638472  1
  Cl  Cl10  1  0.723610  0.554384  0.861528  1
  Cl  Cl11  1  0.276390  0.445616  0.138472  1
  O  O12  1  0.500599  0.773815  0.531234  1
  O  O13  1  0.739534  0.928766  0.887250  1
  O  O14  1  0.000599  0.226185  0.968766  1
  O  O15  1  0.990207  0.793529  0.711214  1
  O  O16  1  0.239534  0.071234  0.612750  1
  O  O17  1  0.490207  0.206471  0.788786  1
  O  O18  1  0.999401  0.773815  0.031234  1
  O  O19  1  0.499401  0.226185  0.468766  1
  O  O20  1  0.009793  0.206471  0.288786  1
  O  O21  1  0.509793  0.793529  0.211214  1
  O  O22  1  0.260466  0.071234  0.112750  1
  O  O23  1  0.760466  0.928766  0.387250  1
