# generated using pymatgen
data_V2Se3O11
_symmetry_space_group_name_H-M   'P 1'
_cell_length_a   6.42882493
_cell_length_b   9.49829399
_cell_length_c   15.40187825
_cell_angle_alpha   93.24489113
_cell_angle_beta   90.00000000
_cell_angle_gamma   90.00000000
_symmetry_Int_Tables_number   1
_chemical_formula_structural   V2Se3O11
_chemical_formula_sum   'V8 Se12 O44'
_cell_volume   938.97502140
_cell_formula_units_Z   4
loop_
 _symmetry_equiv_pos_site_id
 _symmetry_equiv_pos_as_xyz
  1  'x, y, z'
loop_
 _atom_site_type_symbol
 _atom_site_label
 _atom_site_symmetry_multiplicity
 _atom_site_fract_x
 _atom_site_fract_y
 _atom_site_fract_z
 _atom_site_occupancy
  O  O0  1  0.224879  0.801453  0.723609  1
  O  O1  1  0.724879  0.698547  0.276391  1
  O  O2  1  0.775121  0.198547  0.276391  1
  O  O3  1  0.275121  0.301453  0.723609  1
  O  O4  1  0.523917  0.036264  0.803443  1
  O  O5  1  0.023917  0.463736  0.196557  1
  O  O6  1  0.476083  0.963736  0.196557  1
  O  O7  1  0.976083  0.536264  0.803443  1
  O  O8  1  0.675392  0.218276  0.687413  1
  O  O9  1  0.175392  0.281724  0.312587  1
  O  O10  1  0.324608  0.781724  0.312587  1
  O  O11  1  0.824608  0.718276  0.687413  1
  O  O12  1  0.890941  0.995694  0.723626  1
  O  O13  1  0.390941  0.504306  0.276374  1
  O  O14  1  0.109059  0.004306  0.276374  1
  O  O15  1  0.229317  0.995654  0.613552  1
  O  O16  1  0.609059  0.495694  0.723626  1
  O  O17  1  0.333203  0.567568  0.448004  1
  O  O18  1  0.166797  0.067568  0.448004  1
  O  O19  1  0.666797  0.432432  0.551996  1
  O  O20  1  0.988744  0.641033  0.037477  1
  O  O21  1  0.488744  0.858967  0.962523  1
  O  O22  1  0.011256  0.358967  0.962523  1
  O  O23  1  0.511256  0.141033  0.037477  1
  O  O24  1  0.183611  0.889853  0.077677  1
  O  O25  1  0.683611  0.610147  0.922323  1
  O  O26  1  0.816389  0.110147  0.922323  1
  O  O27  1  0.316389  0.389853  0.077677  1
  O  O28  1  0.782262  0.886544  0.085580  1
  O  O29  1  0.282262  0.613456  0.914420  1
  O  O30  1  0.217738  0.113456  0.914420  1
  O  O31  1  0.717738  0.386544  0.085580  1
  O  O32  1  0.973470  0.805183  0.889534  1
  O  O33  1  0.473470  0.694817  0.110466  1
  O  O34  1  0.026530  0.194817  0.110466  1
  O  O35  1  0.526530  0.305183  0.889534  1
  O  O36  1  0.384297  0.226380  0.559194  1
  O  O37  1  0.884297  0.273620  0.440806  1
  O  O38  1  0.615703  0.773620  0.440806  1
  O  O39  1  0.115703  0.726380  0.559194  1
  O  O40  1  0.270683  0.495654  0.613552  1
  O  O41  1  0.770683  0.004346  0.386448  1
  O  O42  1  0.729317  0.504346  0.386448  1
  O  O43  1  0.833203  0.932432  0.551996  1
  V  V44  1  0.518346  0.143203  0.911961  1
  V  V45  1  0.018346  0.356797  0.088039  1
  V  V46  1  0.481654  0.856797  0.088039  1
  V  V47  1  0.981654  0.643203  0.911961  1
  V  V48  1  0.049341  0.852546  0.656611  1
  V  V49  1  0.549341  0.647454  0.343389  1
  V  V50  1  0.950659  0.147454  0.343389  1
  V  V51  1  0.450659  0.352546  0.656611  1
  Se  Se52  1  0.633629  0.039707  0.699574  1
  Se  Se53  1  0.133629  0.460293  0.300426  1
  Se  Se54  1  0.366371  0.960293  0.300426  1
  Se  Se55  1  0.866371  0.539707  0.699574  1
  Se  Se56  1  0.356751  0.635189  0.552387  1
  Se  Se57  1  0.856751  0.864811  0.447613  1
  Se  Se58  1  0.643249  0.364811  0.447613  1
  Se  Se59  1  0.143249  0.135189  0.552387  1
  Se  Se60  1  0.511493  0.284002  0.115951  1
  Se  Se61  1  0.011493  0.215998  0.884049  1
  Se  Se62  1  0.488507  0.715998  0.884049  1
  Se  Se63  1  0.988507  0.784002  0.115951  1
