# generated using pymatgen
data_Sr2B2O5
_symmetry_space_group_name_H-M   'P 1'
_cell_length_a   5.39232876
_cell_length_b   7.83006084
_cell_length_c   12.05489206
_cell_angle_alpha   92.02492360
_cell_angle_beta   90.00000000
_cell_angle_gamma   90.00000000
_symmetry_Int_Tables_number   1
_chemical_formula_structural   Sr2B2O5
_chemical_formula_sum   'Sr8 B8 O20'
_cell_volume   508.66697930
_cell_formula_units_Z   4
loop_
 _symmetry_equiv_pos_site_id
 _symmetry_equiv_pos_as_xyz
  1  'x, y, z'
loop_
 _atom_site_type_symbol
 _atom_site_label
 _atom_site_symmetry_multiplicity
 _atom_site_fract_x
 _atom_site_fract_y
 _atom_site_fract_z
 _atom_site_occupancy
  B  B0  1  0.450489  0.163011  0.084335  1
  B  B1  1  0.950489  0.836989  0.415665  1
  B  B2  1  0.549511  0.836989  0.915665  1
  B  B3  1  0.049511  0.163011  0.584335  1
  B  B4  1  0.571597  0.339795  0.904301  1
  B  B5  1  0.071597  0.660205  0.595699  1
  B  B6  1  0.428403  0.660205  0.095699  1
  B  B7  1  0.928403  0.339795  0.404301  1
  O  O8  1  0.850667  0.644578  0.649063  1
  O  O9  1  0.350667  0.355422  0.850937  1
  O  O10  1  0.149333  0.355422  0.350937  1
  O  O11  1  0.649333  0.644578  0.149063  1
  O  O12  1  0.790492  0.389669  0.857612  1
  O  O13  1  0.290492  0.610331  0.642388  1
  O  O14  1  0.209508  0.610331  0.142388  1
  O  O15  1  0.709508  0.389669  0.357612  1
  O  O16  1  0.909241  0.101321  0.668959  1
  O  O17  1  0.409241  0.898679  0.831041  1
  O  O18  1  0.090759  0.898679  0.331041  1
  O  O19  1  0.590759  0.101321  0.168959  1
  O  O20  1  0.300486  0.146630  0.571379  1
  O  O21  1  0.800486  0.853370  0.928621  1
  O  O22  1  0.699514  0.853370  0.428621  1
  O  O23  1  0.199514  0.146630  0.071379  1
  O  O24  1  0.900013  0.257990  0.507743  1
  O  O25  1  0.400013  0.742010  0.992257  1
  O  O26  1  0.099987  0.742010  0.492257  1
  O  O27  1  0.599987  0.257990  0.007743  1
  Sr  Sr28  1  0.946695  0.882792  0.133031  1
  Sr  Sr29  1  0.446695  0.117208  0.366969  1
  Sr  Sr30  1  0.053305  0.117208  0.866969  1
  Sr  Sr31  1  0.553305  0.882792  0.633031  1
  Sr  Sr32  1  0.909034  0.377453  0.160634  1
  Sr  Sr33  1  0.409034  0.622547  0.339366  1
  Sr  Sr34  1  0.090966  0.622547  0.839366  1
  Sr  Sr35  1  0.590966  0.377453  0.660634  1
