# generated using pymatgen
data_Sr2CuOsO6
_symmetry_space_group_name_H-M   'P 1'
_cell_length_a   5.43651728
_cell_length_b   5.43536393
_cell_length_c   5.78635385
_cell_angle_alpha   117.99105033
_cell_angle_beta   117.99432849
_cell_angle_gamma   90.04692941
_symmetry_Int_Tables_number   1
_chemical_formula_structural   Sr2CuOsO6
_chemical_formula_sum   'Sr2 Cu1 Os1 O6'
_cell_volume   127.84300047
_cell_formula_units_Z   1
loop_
 _symmetry_equiv_pos_site_id
 _symmetry_equiv_pos_as_xyz
  1  'x, y, z'
loop_
 _atom_site_type_symbol
 _atom_site_label
 _atom_site_symmetry_multiplicity
 _atom_site_fract_x
 _atom_site_fract_y
 _atom_site_fract_z
 _atom_site_occupancy
  O  O0  1  0.726381  0.726395  0.452654  1
  O  O1  1  0.199917  0.687779  0.000037  1
  Sr  Sr2  1  0.750075  0.250057  0.500138  1
  O  O3  1  0.273618  0.273604  0.547345  1
  O  O4  1  0.800082  0.312220  0.999962  1
  Sr  Sr5  1  0.249924  0.749941  0.499861  1
  O  O6  1  0.312264  0.199992  0.000080  1
  O  O7  1  0.687734  0.800006  0.999919  1
  Os  Os8  1  0.499999  0.499999  -0.000001  1
  Cu  Cu9  1  1.000008  0.000005  0.000005  1
