# generated using pymatgen
data_EuZr3F15
_symmetry_space_group_name_H-M   'P 1'
_cell_length_a   8.28444404
_cell_length_b   8.28138520
_cell_length_c   16.57330707
_cell_angle_alpha   100.19426803
_cell_angle_beta   100.17774255
_cell_angle_gamma   100.13519881
_symmetry_Int_Tables_number   1
_chemical_formula_structural   EuZr3F15
_chemical_formula_sum   'Eu4 Zr12 F60'
_cell_volume   1075.97792155
_cell_formula_units_Z   4
loop_
 _symmetry_equiv_pos_site_id
 _symmetry_equiv_pos_as_xyz
  1  'x, y, z'
loop_
 _atom_site_type_symbol
 _atom_site_label
 _atom_site_symmetry_multiplicity
 _atom_site_fract_x
 _atom_site_fract_y
 _atom_site_fract_z
 _atom_site_occupancy
  Eu  Eu0  1  0.323959  0.178417  0.874850  1
  Eu  Eu1  1  0.250928  0.678499  0.411584  1
  Eu  Eu2  1  0.749072  0.321501  0.588416  1
  Eu  Eu3  1  0.676041  0.821583  0.125150  1
  F  F4  1  0.034990  0.464975  0.880685  1
  F  F5  1  0.034634  0.151830  0.840076  1
  F  F6  1  0.997326  0.215290  0.610001  1
  F  F7  1  0.189484  0.652090  0.779563  1
  F  F8  1  0.243436  0.950760  0.761972  1
  F  F9  1  0.023090  0.452570  0.365666  1
  F  F10  1  0.309620  0.931254  0.924243  1
  F  F11  1  0.148265  0.686911  0.535042  1
  F  F12  1  0.054086  0.154740  0.343336  1
  F  F13  1  0.996370  0.229344  0.114099  1
  F  F14  1  0.344922  0.465076  0.907706  1
  F  F15  1  0.273319  0.280547  0.748863  1
  F  F16  1  0.276273  0.506660  0.639677  1
  F  F17  1  0.176453  0.654828  0.265201  1
  F  F18  1  0.252215  0.967604  0.267808  1
  F  F19  1  0.317573  0.965363  0.422844  1
  F  F20  1  0.222892  0.226785  0.495682  1
  F  F21  1  0.224485  0.993081  0.612302  1
  F  F22  1  0.150571  0.687439  0.026434  1
  F  F23  1  0.447026  0.811044  0.674317  1
  F  F24  1  0.495740  0.725479  0.860507  1
  F  F25  1  0.348975  0.432412  0.405457  1
  F  F26  1  0.274957  0.274616  0.253509  1
  F  F27  1  0.549590  0.254389  0.987813  1
  F  F28  1  0.275501  0.504958  0.136063  1
  F  F29  1  0.474622  0.753975  0.524917  1
  F  F30  1  0.217213  0.223175  0.000542  1
  F  F31  1  0.223402  0.995698  0.111905  1
  F  F32  1  0.501484  0.273962  0.640812  1
  F  F33  1  0.569180  0.184276  0.824639  1
  F  F34  1  0.430820  0.815724  0.175361  1
  F  F35  1  0.498516  0.726038  0.359188  1
  F  F36  1  0.776598  0.004302  0.888095  1
  F  F37  1  0.782787  0.776825  0.999458  1
  F  F38  1  0.525378  0.246025  0.475083  1
  F  F39  1  0.724499  0.495042  0.863937  1
  F  F40  1  0.450410  0.745611  0.012187  1
  F  F41  1  0.725043  0.725384  0.746491  1
  F  F42  1  0.651025  0.567588  0.594543  1
  F  F43  1  0.504260  0.274521  0.139493  1
  F  F44  1  0.552974  0.188956  0.325683  1
  F  F45  1  0.849429  0.312561  0.973566  1
  F  F46  1  0.775515  0.006919  0.387698  1
  F  F47  1  0.777108  0.773215  0.504318  1
  F  F48  1  0.682427  0.034637  0.577156  1
  F  F49  1  0.747785  0.032396  0.732192  1
  F  F50  1  0.823547  0.345172  0.734799  1
  F  F51  1  0.723727  0.493340  0.360323  1
  F  F52  1  0.726681  0.719453  0.251137  1
  F  F53  1  0.655078  0.534924  0.092294  1
  F  F54  1  0.003630  0.770656  0.885901  1
  F  F55  1  0.945914  0.845260  0.656664  1
  F  F56  1  0.851735  0.313089  0.464958  1
  F  F57  1  0.690380  0.068746  0.075757  1
  F  F58  1  0.976910  0.547430  0.634334  1
  F  F59  1  0.756564  0.049240  0.238028  1
  F  F60  1  0.810516  0.347910  0.220437  1
  F  F61  1  0.002674  0.784709  0.389999  1
  F  F62  1  0.965366  0.848171  0.159924  1
  F  F63  1  0.965010  0.535025  0.119315  1
  Zr  Zr64  1  0.243436  0.675691  0.911696  1
  Zr  Zr65  1  0.178457  0.747840  0.662844  1
  Zr  Zr66  1  0.248897  0.248114  0.622871  1
  Zr  Zr67  1  0.175531  0.750493  0.160085  1
  Zr  Zr68  1  0.320874  0.175808  0.372286  1
  Zr  Zr69  1  0.252602  0.251177  0.126045  1
  Zr  Zr70  1  0.747398  0.748823  0.873955  1
  Zr  Zr71  1  0.679126  0.824192  0.627714  1
  Zr  Zr72  1  0.824469  0.249507  0.839915  1
  Zr  Zr73  1  0.751103  0.751886  0.377129  1
  Zr  Zr74  1  0.821543  0.252160  0.337156  1
  Zr  Zr75  1  0.756564  0.324309  0.088304  1
