# generated using pymatgen
data_NaCrO2
_symmetry_space_group_name_H-M   'P 1'
_cell_length_a   5.64784580
_cell_length_b   5.64784532
_cell_length_c   5.64784586
_cell_angle_alpha   31.30280871
_cell_angle_beta   31.30281574
_cell_angle_gamma   31.30281577
_symmetry_Int_Tables_number   1
_chemical_formula_structural   NaCrO2
_chemical_formula_sum   'Na1 Cr1 O2'
_cell_volume   43.16226755
_cell_formula_units_Z   1
loop_
 _symmetry_equiv_pos_site_id
 _symmetry_equiv_pos_as_xyz
  1  'x, y, z'
loop_
 _atom_site_type_symbol
 _atom_site_label
 _atom_site_symmetry_multiplicity
 _atom_site_fract_x
 _atom_site_fract_y
 _atom_site_fract_z
 _atom_site_occupancy
  Na  Na0  1  0.500000  0.500000  0.500000  1
  Cr  Cr1  1  0.000000  0.000000  0.000000  1
  O  O2  1  0.267441  0.267441  0.267441  1
  O  O3  1  0.732559  0.732559  0.732559  1
