# generated using pymatgen
data_Pr10S19
_symmetry_space_group_name_H-M   'P 1'
_cell_length_a   9.03400144
_cell_length_b   9.03400144
_cell_length_c   16.33693988
_cell_angle_alpha   90.00000000
_cell_angle_beta   90.00000000
_cell_angle_gamma   90.00000000
_symmetry_Int_Tables_number   1
_chemical_formula_structural   Pr10S19
_chemical_formula_sum   'Pr20 S38'
_cell_volume   1333.30964804
_cell_formula_units_Z   2
loop_
 _symmetry_equiv_pos_site_id
 _symmetry_equiv_pos_as_xyz
  1  'x, y, z'
loop_
 _atom_site_type_symbol
 _atom_site_label
 _atom_site_symmetry_multiplicity
 _atom_site_fract_x
 _atom_site_fract_y
 _atom_site_fract_z
 _atom_site_occupancy
  Pr  Pr0  1  0.750000  0.250000  0.885751  1
  Pr  Pr1  1  0.354193  0.444439  0.897516  1
  Pr  Pr2  1  0.854193  0.944439  0.102484  1
  Pr  Pr3  1  0.348307  0.459211  0.377550  1
  Pr  Pr4  1  0.848307  0.959211  0.622450  1
  Pr  Pr5  1  0.444439  0.145807  0.602484  1
  Pr  Pr6  1  0.750000  0.250000  0.385751  1
  Pr  Pr7  1  0.250000  0.750000  0.114249  1
  Pr  Pr8  1  0.055561  0.354193  0.602484  1
  Pr  Pr9  1  0.540789  0.848307  0.877550  1
  Pr  Pr10  1  0.645807  0.555561  0.102484  1
  Pr  Pr11  1  0.651693  0.540789  0.622450  1
  Pr  Pr12  1  0.151693  0.040789  0.377550  1
  Pr  Pr13  1  0.145807  0.055561  0.897516  1
  Pr  Pr14  1  0.944439  0.645807  0.397516  1
  Pr  Pr15  1  0.459211  0.151693  0.122450  1
  Pr  Pr16  1  0.959211  0.651693  0.877550  1
  Pr  Pr17  1  0.250000  0.750000  0.614249  1
  Pr  Pr18  1  0.555561  0.854193  0.397516  1
  Pr  Pr19  1  0.040789  0.348307  0.122450  1
  S  S20  1  0.250000  0.750000  0.934037  1
  S  S21  1  0.969755  0.196500  0.750992  1
  S  S22  1  0.889606  0.421429  0.749957  1
  S  S23  1  0.848215  0.950773  0.925945  1
  S  S24  1  0.803500  0.469755  0.250992  1
  S  S25  1  0.950773  0.651785  0.574055  1
  S  S26  1  0.303500  0.969755  0.749008  1
  S  S27  1  0.151785  0.049227  0.074055  1
  S  S28  1  0.921429  0.110394  0.249957  1
  S  S29  1  0.030245  0.803500  0.249008  1
  S  S30  1  0.389606  0.921429  0.250043  1
  S  S31  1  0.250000  0.250000  0.250000  1
  S  S32  1  0.148174  0.053023  0.562006  1
  S  S33  1  0.450773  0.151785  0.425945  1
  S  S34  1  0.553023  0.851826  0.062006  1
  S  S35  1  0.469755  0.696500  0.249008  1
  S  S36  1  0.351826  0.446977  0.562006  1
  S  S37  1  0.549227  0.848215  0.574055  1
  S  S38  1  0.530245  0.303500  0.750992  1
  S  S39  1  0.110394  0.578571  0.250043  1
  S  S40  1  0.196500  0.530245  0.749008  1
  S  S41  1  0.348215  0.450773  0.074055  1
  S  S42  1  0.578571  0.389606  0.249957  1
  S  S43  1  0.750000  0.250000  0.565963  1
  S  S44  1  0.421429  0.610394  0.750043  1
  S  S45  1  0.250000  0.750000  0.434037  1
  S  S46  1  0.078571  0.889606  0.750043  1
  S  S47  1  0.648174  0.553023  0.437994  1
  S  S48  1  0.610394  0.078571  0.749957  1
  S  S49  1  0.851826  0.946977  0.437994  1
  S  S50  1  0.696500  0.030245  0.250992  1
  S  S51  1  0.049227  0.348215  0.425945  1
  S  S52  1  0.446977  0.148174  0.937994  1
  S  S53  1  0.946977  0.648174  0.062006  1
  S  S54  1  0.651785  0.549227  0.925945  1
  S  S55  1  0.750000  0.250000  0.065963  1
  S  S56  1  0.750000  0.750000  0.750000  1
  S  S57  1  0.053023  0.351826  0.937994  1
