# generated using pymatgen
data_LuSBr
_symmetry_space_group_name_H-M   'P 1'
_cell_length_a   3.97652302
_cell_length_b   5.63539233
_cell_length_c   8.34777298
_cell_angle_alpha   90.00000000
_cell_angle_beta   90.00000000
_cell_angle_gamma   90.00000000
_symmetry_Int_Tables_number   1
_chemical_formula_structural   LuSBr
_chemical_formula_sum   'Lu2 S2 Br2'
_cell_volume   187.06747629
_cell_formula_units_Z   2
loop_
 _symmetry_equiv_pos_site_id
 _symmetry_equiv_pos_as_xyz
  1  'x, y, z'
loop_
 _atom_site_type_symbol
 _atom_site_label
 _atom_site_symmetry_multiplicity
 _atom_site_fract_x
 _atom_site_fract_y
 _atom_site_fract_z
 _atom_site_occupancy
  Lu  Lu0  1  0.750000  0.750000  0.809427  1
  Lu  Lu1  1  0.250000  0.250000  0.190573  1
  S  S2  1  0.750000  0.250000  0.361868  1
  S  S3  1  0.250000  0.750000  0.638132  1
  Br  Br4  1  0.250000  0.750000  0.094619  1
  Br  Br5  1  0.750000  0.250000  0.905381  1
