# generated using pymatgen
data_Tb11S16
_symmetry_space_group_name_H-M   'P 1'
_cell_length_a   28.96294186
_cell_length_b   8.31163826
_cell_length_c   8.36931145
_cell_angle_alpha   90.00000000
_cell_angle_beta   54.69474932
_cell_angle_gamma   54.97388027
_symmetry_Int_Tables_number   1
_chemical_formula_structural   Tb11S16
_chemical_formula_sum   'Tb22 S32'
_cell_volume   1168.85446997
_cell_formula_units_Z   2
loop_
 _symmetry_equiv_pos_site_id
 _symmetry_equiv_pos_as_xyz
  1  'x, y, z'
loop_
 _atom_site_type_symbol
 _atom_site_label
 _atom_site_symmetry_multiplicity
 _atom_site_fract_x
 _atom_site_fract_y
 _atom_site_fract_z
 _atom_site_occupancy
  Tb  Tb0  1  0.129579  0.234252  0.129797  1
  Tb  Tb1  1  0.068967  0.111920  0.861764  1
  Tb  Tb2  1  0.127803  0.761533  0.370276  1
  Tb  Tb3  1  0.188524  0.353667  0.616832  1
  Tb  Tb4  1  0.372197  0.272745  0.129724  1
  Tb  Tb5  1  0.250000  0.621030  0.750000  1
  Tb  Tb6  1  0.311476  0.107762  0.883168  1
  Tb  Tb7  1  0.370421  0.752568  0.370203  1
  Tb  Tb8  1  0.431033  0.387788  0.638236  1
  Tb  Tb9  1  0.627803  0.227255  0.118512  1
  Tb  Tb10  1  0.500013  0.870594  0.254123  1
  Tb  Tb11  1  0.499987  0.629406  0.754176  1
  Tb  Tb12  1  0.568967  0.112212  0.862367  1
  Tb  Tb13  1  0.629579  0.747432  0.351888  1
  Tb  Tb14  1  0.688524  0.392238  0.629073  1
  Tb  Tb15  1  0.870421  0.265748  0.148112  1
  Tb  Tb16  1  0.750000  0.878970  0.250000  1
  Tb  Tb17  1  0.811476  0.146333  0.870927  1
  Tb  Tb18  1  0.872197  0.738467  0.381488  1
  Tb  Tb19  1  0.931033  0.388080  0.637633  1
  Tb  Tb20  1  -0.000013  0.870648  0.245877  1
  Tb  Tb21  1  0.000013  0.629352  0.745824  1
  S  S22  1  0.033195  0.503597  0.999817  1
  S  S23  1  0.080900  0.168018  0.514891  1
  S  S24  1  0.159987  0.492764  0.991971  1
  S  S25  1  0.091602  0.991012  0.140730  1
  S  S26  1  0.157523  0.378396  0.358092  1
  S  S27  1  0.033026  0.865746  0.857485  1
  S  S28  1  0.287680  0.478675  0.990662  1
  S  S29  1  0.212320  0.629396  0.509338  1
  S  S30  1  0.340013  0.132711  0.508029  1
  S  S31  1  0.210605  0.995623  0.657788  1
  S  S32  1  0.419100  0.491619  0.985109  1
  S  S33  1  0.342477  0.008487  0.141908  1
  S  S34  1  0.408398  0.357419  0.359270  1
  S  S35  1  0.289395  0.838044  0.842212  1
  S  S36  1  0.533026  0.502149  0.010409  1
  S  S37  1  0.466805  0.636378  0.500183  1
  S  S38  1  0.591602  0.142581  0.492863  1
  S  S39  1  0.466974  0.997851  0.642515  1
  S  S40  1  0.657523  0.491513  0.011817  1
  S  S41  1  0.580900  0.008381  0.161508  1
  S  S42  1  0.659987  0.367289  0.368082  1
  S  S43  1  0.533195  0.863622  0.867403  1
  S  S44  1  0.789395  0.504377  0.000210  1
  S  S45  1  0.710605  0.661956  0.499790  1
  S  S46  1  0.842477  0.121604  0.488183  1
  S  S47  1  0.712320  0.021325  0.641383  1
  S  S48  1  0.908398  0.508988  0.007137  1
  S  S49  1  0.840013  0.007236  0.131918  1
  S  S50  1  0.919100  0.331982  0.338492  1
  S  S51  1  0.787680  0.870604  0.858617  1
  S  S52  1  0.966974  0.634254  0.489591  1
  S  S53  1  0.966805  0.996403  0.632597  1
