# generated using pymatgen
data_Na2Ca(AsO3)4
_symmetry_space_group_name_H-M   'P 1'
_cell_length_a   5.23961140
_cell_length_b   10.13124762
_cell_length_c   10.13124762
_cell_angle_alpha   90.00000000
_cell_angle_beta   90.00000000
_cell_angle_gamma   90.00000000
_symmetry_Int_Tables_number   1
_chemical_formula_structural   Na2Ca(AsO3)4
_chemical_formula_sum   'Na4 Ca2 As8 O24'
_cell_volume   537.80512774
_cell_formula_units_Z   2
loop_
 _symmetry_equiv_pos_site_id
 _symmetry_equiv_pos_as_xyz
  1  'x, y, z'
loop_
 _atom_site_type_symbol
 _atom_site_label
 _atom_site_symmetry_multiplicity
 _atom_site_fract_x
 _atom_site_fract_y
 _atom_site_fract_z
 _atom_site_occupancy
  Na  Na0  1  0.000000  0.500000  0.000000  1
  Na  Na1  1  0.000000  0.500000  0.500000  1
  Na  Na2  1  0.000000  0.000000  0.500000  1
  Na  Na3  1  0.000000  0.000000  0.000000  1
  Ca  Ca4  1  0.000000  0.250000  0.250000  1
  Ca  Ca5  1  0.000000  0.750000  0.750000  1
  As  As6  1  0.500000  0.977080  0.250000  1
  As  As7  1  0.500000  0.750000  0.022920  1
  As  As8  1  0.500000  0.022920  0.750000  1
  As  As9  1  0.500000  0.250000  0.977080  1
  As  As10  1  0.500000  0.477080  0.750000  1
  As  As11  1  0.500000  0.522920  0.250000  1
  As  As12  1  0.500000  0.250000  0.522920  1
  As  As13  1  0.500000  0.750000  0.477080  1
  O  O14  1  0.348138  0.865863  0.134137  1
  O  O15  1  0.743931  0.178417  0.444438  1
  O  O16  1  0.651862  0.134137  0.865863  1
  O  O17  1  0.743931  0.821583  0.944438  1
  O  O18  1  0.743931  0.678417  0.555562  1
  O  O19  1  0.743931  0.055562  0.178417  1
  O  O20  1  0.348138  0.365863  0.865863  1
  O  O21  1  0.256069  0.821583  0.555562  1
  O  O22  1  0.743931  0.555562  0.821583  1
  O  O23  1  0.256069  0.055562  0.321583  1
  O  O24  1  0.256069  0.944438  0.821583  1
  O  O25  1  0.651862  0.634137  0.134137  1
  O  O26  1  0.256069  0.444438  0.178417  1
  O  O27  1  0.651862  0.365863  0.634137  1
  O  O28  1  0.743931  0.444438  0.321583  1
  O  O29  1  0.256069  0.555562  0.678417  1
  O  O30  1  0.743931  0.944438  0.678417  1
  O  O31  1  0.743931  0.321583  0.055562  1
  O  O32  1  0.651862  0.865863  0.365863  1
  O  O33  1  0.256069  0.178417  0.055562  1
  O  O34  1  0.256069  0.321583  0.444438  1
  O  O35  1  0.348138  0.634137  0.365863  1
  O  O36  1  0.256069  0.678417  0.944438  1
  O  O37  1  0.348138  0.134137  0.634137  1
