# generated using pymatgen
data_Nb2O5
_symmetry_space_group_name_H-M   'P 1'
_cell_length_a   3.85703265
_cell_length_b   14.81483730
_cell_length_c   14.81483694
_cell_angle_alpha   89.02905167
_cell_angle_beta   82.52031782
_cell_angle_gamma   82.52031499
_symmetry_Int_Tables_number   1
_chemical_formula_structural   Nb2O5
_chemical_formula_sum   'Nb16 O40'
_cell_volume   832.19423267
_cell_formula_units_Z   8
loop_
 _symmetry_equiv_pos_site_id
 _symmetry_equiv_pos_as_xyz
  1  'x, y, z'
loop_
 _atom_site_type_symbol
 _atom_site_label
 _atom_site_symmetry_multiplicity
 _atom_site_fract_x
 _atom_site_fract_y
 _atom_site_fract_z
 _atom_site_occupancy
  Nb  Nb0  1  0.266119  0.598747  0.869015  1
  Nb  Nb1  1  1.000000  0.868751  0.131249  1
  Nb  Nb2  1  0.000000  0.400257  0.599743  1
  Nb  Nb3  1  0.400257  0.599743  0.599743  1
  Nb  Nb4  1  0.864866  0.869015  0.401253  1
  Nb  Nb5  1  0.599743  0.400257  0.400257  1
  Nb  Nb6  1  0.135134  0.130985  0.598747  1
  Nb  Nb7  1  0.131249  0.868751  0.868751  1
  Nb  Nb8  1  0.000000  0.131249  0.868751  1
  Nb  Nb9  1  0.868751  0.131249  0.131249  1
  Nb  Nb10  1  0.864866  0.401253  0.869015  1
  Nb  Nb11  1  1.000000  0.599743  0.400257  1
  Nb  Nb12  1  0.733881  0.130985  0.401253  1
  Nb  Nb13  1  0.733881  0.401253  0.130985  1
  Nb  Nb14  1  0.266119  0.869015  0.598747  1
  Nb  Nb15  1  0.135134  0.598747  0.130985  1
  O  O16  1  0.069785  0.721223  0.139208  1
  O  O17  1  0.206310  0.000000  0.587380  1
  O  O18  1  0.930215  0.278777  0.860792  1
  O  O19  1  0.351594  0.437982  0.858830  1
  O  O20  1  0.793690  0.000000  0.412620  1
  O  O21  1  0.791007  0.278777  0.139208  1
  O  O22  1  0.208993  0.721223  0.860792  1
  O  O23  1  0.789576  0.562018  0.858830  1
  O  O24  1  0.210424  0.141170  0.437982  1
  O  O25  1  0.930664  0.138673  0.000000  1
  O  O26  1  0.500000  0.144709  0.855291  1
  O  O27  1  0.069336  0.000000  0.861327  1
  O  O28  1  0.931653  0.415132  0.721562  1
  O  O29  1  0.500000  0.566714  0.433286  1
  O  O30  1  0.206310  0.587380  0.000000  1
  O  O31  1  0.930664  0.000000  0.138673  1
  O  O32  1  0.500000  0.855291  0.144709  1
  O  O33  1  0.931653  0.721562  0.415132  1
  O  O34  1  0.648406  0.141170  0.562018  1
  O  O35  1  0.789576  0.858830  0.562018  1
  O  O36  1  0.644709  0.855291  0.855291  1
  O  O37  1  0.346785  0.584868  0.721562  1
  O  O38  1  0.068347  0.584868  0.278438  1
  O  O39  1  0.653215  0.415132  0.278438  1
  O  O40  1  0.933286  0.566714  0.566714  1
  O  O41  1  0.068347  0.278438  0.584868  1
  O  O42  1  0.069336  0.861327  0.000000  1
  O  O43  1  0.930215  0.860792  0.278777  1
  O  O44  1  0.351594  0.858830  0.437982  1
  O  O45  1  0.791007  0.139208  0.278777  1
  O  O46  1  0.500000  0.433286  0.566714  1
  O  O47  1  0.069785  0.139208  0.721223  1
  O  O48  1  0.653215  0.278438  0.415132  1
  O  O49  1  0.793690  0.412620  0.000000  1
  O  O50  1  0.210424  0.437982  0.141170  1
  O  O51  1  0.066714  0.433286  0.433286  1
  O  O52  1  0.208993  0.860792  0.721223  1
  O  O53  1  0.346785  0.721562  0.584868  1
  O  O54  1  0.648406  0.562018  0.141170  1
  O  O55  1  0.355291  0.144709  0.144709  1
