# generated using pymatgen
data_Tb2Mo4O15
_symmetry_space_group_name_H-M   'P 1'
_cell_length_a   6.97534641
_cell_length_b   9.74603522
_cell_length_c   10.82100853
_cell_angle_alpha   90.00000000
_cell_angle_beta   104.94966290
_cell_angle_gamma   90.00000000
_symmetry_Int_Tables_number   1
_chemical_formula_structural   Tb2Mo4O15
_chemical_formula_sum   'Tb4 Mo8 O30'
_cell_volume   710.73439070
_cell_formula_units_Z   2
loop_
 _symmetry_equiv_pos_site_id
 _symmetry_equiv_pos_as_xyz
  1  'x, y, z'
loop_
 _atom_site_type_symbol
 _atom_site_label
 _atom_site_symmetry_multiplicity
 _atom_site_fract_x
 _atom_site_fract_y
 _atom_site_fract_z
 _atom_site_occupancy
  O  O0  1  0.114231  0.833466  0.100649  1
  O  O1  1  0.885768  0.333466  0.399350  1
  O  O2  1  0.885769  0.166534  0.899351  1
  O  O3  1  0.114231  0.666534  0.600650  1
  O  O4  1  0.544650  0.027022  0.288693  1
  O  O5  1  0.455351  0.527021  0.211307  1
  O  O6  1  0.455351  0.972979  0.711307  1
  O  O7  1  0.544649  0.472978  0.788693  1
  O  O8  1  0.027419  0.627673  0.898568  1
  O  O9  1  0.972582  0.127672  0.601432  1
  O  O10  1  0.972582  0.372327  0.101432  1
  O  O11  1  0.027419  0.872327  0.398568  1
  O  O12  1  0.500000  0.500000  0.500000  1
  O  O13  1  0.500000  0.000000  0.000000  1
  O  O14  1  0.760407  0.636357  0.383450  1
  O  O15  1  0.239594  0.136357  0.116550  1
  O  O16  1  0.239594  0.363643  0.616550  1
  O  O17  1  0.760406  0.863643  0.883450  1
  O  O18  1  0.614407  0.224327  0.649680  1
  O  O19  1  0.385594  0.724327  0.850320  1
  O  O20  1  0.385594  0.775673  0.350320  1
  O  O21  1  0.874050  0.051863  0.184898  1
  O  O22  1  0.781687  0.850535  0.580619  1
  O  O23  1  0.218314  0.350535  0.919381  1
  O  O24  1  0.218314  0.149464  0.419381  1
  O  O25  1  0.781687  0.649465  0.080619  1
  O  O26  1  0.874050  0.448138  0.684898  1
  O  O27  1  0.125950  0.948137  0.815102  1
  O  O28  1  0.125949  0.551863  0.315102  1
  O  O29  1  0.614407  0.275673  0.149680  1
  Mo  Mo30  1  0.920092  0.742587  0.989930  1
  Mo  Mo31  1  0.079908  0.242586  0.510070  1
  Mo  Mo32  1  0.079908  0.257413  0.010070  1
  Mo  Mo33  1  0.920093  0.757413  0.489930  1
  Mo  Mo34  1  0.618992  0.093840  0.155436  1
  Mo  Mo35  1  0.381009  0.593839  0.344564  1
  Mo  Mo36  1  0.618992  0.406161  0.655436  1
  Mo  Mo37  1  0.381009  0.906161  0.844564  1
  Tb  Tb38  1  0.791943  0.476455  0.225010  1
  Tb  Tb39  1  0.208056  0.976455  0.274990  1
  Tb  Tb40  1  0.208057  0.523546  0.774990  1
  Tb  Tb41  1  0.791943  0.023545  0.725010  1
