# generated using pymatgen
data_NaSbF4
_symmetry_space_group_name_H-M   'P 1'
_cell_length_a   5.71403134
_cell_length_b   8.14541364
_cell_length_c   8.60571205
_cell_angle_alpha   90.61983969
_cell_angle_beta   90.00000000
_cell_angle_gamma   90.00000000
_symmetry_Int_Tables_number   1
_chemical_formula_structural   NaSbF4
_chemical_formula_sum   'Na4 Sb4 F16'
_cell_volume   400.51349834
_cell_formula_units_Z   4
loop_
 _symmetry_equiv_pos_site_id
 _symmetry_equiv_pos_as_xyz
  1  'x, y, z'
loop_
 _atom_site_type_symbol
 _atom_site_label
 _atom_site_symmetry_multiplicity
 _atom_site_fract_x
 _atom_site_fract_y
 _atom_site_fract_z
 _atom_site_occupancy
  F  F0  1  0.500334  0.901086  0.706646  1
  F  F1  1  0.000334  0.098914  0.793354  1
  F  F2  1  0.499666  0.098914  0.293354  1
  F  F3  1  0.999666  0.901086  0.206646  1
  F  F4  1  0.573586  0.680982  0.412951  1
  F  F5  1  0.073586  0.319018  0.087049  1
  F  F6  1  0.426414  0.319018  0.587049  1
  F  F7  1  0.926414  0.680982  0.912951  1
  F  F8  1  0.875013  0.386418  0.673316  1
  F  F9  1  0.375013  0.613582  0.826684  1
  F  F10  1  0.124987  0.613582  0.326684  1
  F  F11  1  0.624987  0.386418  0.173316  1
  F  F12  1  0.935948  0.212871  0.357228  1
  F  F13  1  0.435948  0.787129  0.142772  1
  F  F14  1  0.064052  0.787129  0.642772  1
  F  F15  1  0.564052  0.212871  0.857228  1
  Na  Na16  1  0.792675  0.643133  0.165497  1
  Na  Na17  1  0.292675  0.356867  0.334503  1
  Na  Na18  1  0.207325  0.356867  0.834503  1
  Na  Na19  1  0.707325  0.643133  0.665497  1
  Sb  Sb20  1  0.292549  0.830442  0.351634  1
  Sb  Sb21  1  0.792549  0.169558  0.148366  1
  Sb  Sb22  1  0.707451  0.169558  0.648366  1
  Sb  Sb23  1  0.207451  0.830442  0.851634  1
