# generated using pymatgen
data_K2MoH2(CO4)2
_symmetry_space_group_name_H-M   'P 1'
_cell_length_a   7.65818752
_cell_length_b   8.84464091
_cell_length_c   12.95037352
_cell_angle_alpha   90.00000000
_cell_angle_beta   90.00000000
_cell_angle_gamma   93.94819834
_symmetry_Int_Tables_number   1
_chemical_formula_structural   K2MoH2(CO4)2
_chemical_formula_sum   'K8 Mo4 H8 C8 O32'
_cell_volume   875.09774435
_cell_formula_units_Z   4
loop_
 _symmetry_equiv_pos_site_id
 _symmetry_equiv_pos_as_xyz
  1  'x, y, z'
loop_
 _atom_site_type_symbol
 _atom_site_label
 _atom_site_symmetry_multiplicity
 _atom_site_fract_x
 _atom_site_fract_y
 _atom_site_fract_z
 _atom_site_occupancy
  K  K0  1  0.313504  0.895267  0.111459  1
  K  K1  1  0.686496  0.104733  0.888541  1
  K  K2  1  0.224983  0.360802  0.985545  1
  K  K3  1  0.724983  0.360802  0.514455  1
  K  K4  1  0.775017  0.639198  0.014455  1
  K  K5  1  0.813504  0.895267  0.388541  1
  K  K6  1  0.275017  0.639198  0.485545  1
  K  K7  1  0.186496  0.104733  0.611459  1
  Mo  Mo8  1  0.061160  0.555326  0.235066  1
  Mo  Mo9  1  0.561160  0.555326  0.264934  1
  Mo  Mo10  1  0.438840  0.444674  0.735066  1
  Mo  Mo11  1  0.938840  0.444674  0.764934  1
  H  H12  1  0.761750  0.045916  0.620098  1
  H  H13  1  0.738250  0.954084  0.120098  1
  H  H14  1  0.565657  0.994969  0.614822  1
  H  H15  1  0.065657  0.994969  0.885178  1
  H  H16  1  0.934343  0.005031  0.114822  1
  H  H17  1  0.261750  0.045916  0.879902  1
  H  H18  1  0.238250  0.954084  0.379902  1
  H  H19  1  0.434343  0.005031  0.385178  1
  C  C20  1  0.428158  0.792160  0.752184  1
  C  C21  1  0.071842  0.207840  0.252184  1
  C  C22  1  0.967360  0.737462  0.636203  1
  C  C23  1  0.467360  0.737462  0.863797  1
  C  C24  1  0.928158  0.792160  0.747816  1
  C  C25  1  0.032640  0.262538  0.363797  1
  C  C26  1  0.532640  0.262538  0.136203  1
  C  C27  1  0.571842  0.207840  0.247816  1
  O  O28  1  0.621166  0.611866  0.392028  1
  O  O29  1  0.177304  0.477170  0.779303  1
  O  O30  1  0.470136  0.592666  0.874314  1
  O  O31  1  0.378834  0.388134  0.607972  1
  O  O32  1  0.501274  0.168205  0.065933  1
  O  O33  1  0.001274  0.168205  0.434067  1
  O  O34  1  0.911391  0.686041  0.815414  1
  O  O35  1  0.498726  0.831795  0.934067  1
  O  O36  1  0.076643  0.723068  0.308833  1
  O  O37  1  0.029864  0.407334  0.374314  1
  O  O38  1  0.837944  0.958863  0.072688  1
  O  O39  1  0.919273  0.930771  0.765332  1
  O  O40  1  0.121166  0.611866  0.107972  1
  O  O41  1  0.576643  0.723068  0.191167  1
  O  O42  1  0.677304  0.477170  0.720697  1
  O  O43  1  0.580727  0.069229  0.265332  1
  O  O44  1  0.337944  0.958863  0.427312  1
  O  O45  1  0.423357  0.276932  0.808833  1
  O  O46  1  0.923357  0.276932  0.691167  1
  O  O47  1  0.419273  0.930771  0.734668  1
  O  O48  1  0.088609  0.313959  0.184586  1
  O  O49  1  0.529864  0.407334  0.125686  1
  O  O50  1  0.411391  0.686041  0.684586  1
  O  O51  1  0.970136  0.592666  0.625686  1
  O  O52  1  0.878834  0.388134  0.892028  1
  O  O53  1  0.998726  0.831795  0.565933  1
  O  O54  1  0.322696  0.522830  0.279303  1
  O  O55  1  0.588609  0.313959  0.315414  1
  O  O56  1  0.080727  0.069229  0.234668  1
  O  O57  1  0.822696  0.522830  0.220697  1
  O  O58  1  0.662056  0.041137  0.572688  1
  O  O59  1  0.162056  0.041137  0.927312  1
