# generated using pymatgen
data_KUN3O11
_symmetry_space_group_name_H-M   'P 1'
_cell_length_a   8.15060376
_cell_length_b   8.46433998
_cell_length_c   8.46434000
_cell_angle_alpha   70.62718326
_cell_angle_beta   68.80142540
_cell_angle_gamma   68.80142810
_symmetry_Int_Tables_number   1
_chemical_formula_structural   KUN3O11
_chemical_formula_sum   'K2 U2 N6 O22'
_cell_volume   493.84456298
_cell_formula_units_Z   2
loop_
 _symmetry_equiv_pos_site_id
 _symmetry_equiv_pos_as_xyz
  1  'x, y, z'
loop_
 _atom_site_type_symbol
 _atom_site_label
 _atom_site_symmetry_multiplicity
 _atom_site_fract_x
 _atom_site_fract_y
 _atom_site_fract_z
 _atom_site_occupancy
  K  K0  1  0.500000  0.500000  0.000000  1
  K  K1  1  0.000000  0.000000  0.500000  1
  U  U2  1  0.250000  0.238568  0.761432  1
  U  U3  1  0.750000  0.761432  0.238568  1
  N  N4  1  0.564927  0.925304  0.755346  1
  N  N5  1  0.935073  0.244654  0.074696  1
  N  N6  1  0.064927  0.755346  0.925304  1
  N  N7  1  0.435073  0.074696  0.244654  1
  N  N8  1  0.750000  0.461726  0.538274  1
  N  N9  1  0.250000  0.538274  0.461726  1
  O  O10  1  0.193662  0.749048  0.793176  1
  O  O11  1  0.693662  0.793176  0.749048  1
  O  O12  1  0.750000  0.336323  0.663677  1
  O  O13  1  0.914315  0.879018  0.931070  1
  O  O14  1  0.117198  0.538020  0.603071  1
  O  O15  1  0.344524  0.334737  0.856352  1
  O  O16  1  0.882802  0.461980  0.396929  1
  O  O17  1  0.414315  0.931070  0.879018  1
  O  O18  1  0.306338  0.206824  0.250952  1
  O  O19  1  0.655476  0.665263  0.143648  1
  O  O20  1  0.844524  0.856352  0.334737  1
  O  O21  1  0.429681  0.930961  0.361525  1
  O  O22  1  0.617198  0.603071  0.538020  1
  O  O23  1  0.382802  0.396929  0.461980  1
  O  O24  1  0.155476  0.143648  0.665263  1
  O  O25  1  0.585685  0.068930  0.120982  1
  O  O26  1  0.085685  0.120982  0.068930  1
  O  O27  1  0.806338  0.250952  0.206824  1
  O  O28  1  0.070319  0.638475  0.069039  1
  O  O29  1  0.929681  0.361525  0.930961  1
  O  O30  1  0.570319  0.069039  0.638475  1
  O  O31  1  0.250000  0.663677  0.336323  1
