# generated using pymatgen
data_Ba2Eu3Mn2(CuO6)2
_symmetry_space_group_name_H-M   'P 1'
_cell_length_a   3.90506561
_cell_length_b   3.90506667
_cell_length_c   18.28695174
_cell_angle_alpha   96.12926168
_cell_angle_beta   96.12926331
_cell_angle_gamma   89.99999552
_symmetry_Int_Tables_number   1
_chemical_formula_structural   Ba2Eu3Mn2(CuO6)2
_chemical_formula_sum   'Ba2 Eu3 Mn2 Cu2 O12'
_cell_volume   275.67014299
_cell_formula_units_Z   1
loop_
 _symmetry_equiv_pos_site_id
 _symmetry_equiv_pos_as_xyz
  1  'x, y, z'
loop_
 _atom_site_type_symbol
 _atom_site_label
 _atom_site_symmetry_multiplicity
 _atom_site_fract_x
 _atom_site_fract_y
 _atom_site_fract_z
 _atom_site_occupancy
  Eu  Eu0  1  0.500000  0.500000  0.000000  1
  Eu  Eu1  1  0.713095  0.713095  0.426190  1
  Eu  Eu2  1  0.286905  0.286905  0.573810  1
  Ba  Ba3  1  0.604797  0.604797  0.209596  1
  Ba  Ba4  1  0.395203  0.395203  0.790404  1
  Mn  Mn5  1  0.165488  0.165488  0.330976  1
  Mn  Mn6  1  0.834512  0.834512  0.669024  1
  Cu  Cu7  1  0.951661  0.951661  0.903322  1
  Cu  Cu8  1  0.048339  0.048339  0.096678  1
  O  O9  1  0.829641  0.329641  0.659282  1
  O  O10  1  0.223009  0.223009  0.446020  1
  O  O11  1  0.042194  0.542194  0.084389  1
  O  O12  1  0.886357  0.886357  0.772713  1
  O  O13  1  0.670359  0.170359  0.340718  1
  O  O14  1  0.329641  0.829641  0.659282  1
  O  O15  1  0.457806  0.957806  0.915611  1
  O  O16  1  0.542194  0.042194  0.084389  1
  O  O17  1  0.776991  0.776991  0.553980  1
  O  O18  1  0.957806  0.457806  0.915611  1
  O  O19  1  0.113643  0.113643  0.227287  1
  O  O20  1  0.170359  0.670359  0.340718  1
