# generated using pymatgen
data_CaP4O11
_symmetry_space_group_name_H-M   'P 1'
_cell_length_a   8.88596884
_cell_length_b   8.88596964
_cell_length_c   12.91923328
_cell_angle_alpha   90.00000000
_cell_angle_beta   90.00000000
_cell_angle_gamma   92.47583192
_symmetry_Int_Tables_number   1
_chemical_formula_structural   CaP4O11
_chemical_formula_sum   'Ca4 P16 O44'
_cell_volume   1019.15622657
_cell_formula_units_Z   4
loop_
 _symmetry_equiv_pos_site_id
 _symmetry_equiv_pos_as_xyz
  1  'x, y, z'
loop_
 _atom_site_type_symbol
 _atom_site_label
 _atom_site_symmetry_multiplicity
 _atom_site_fract_x
 _atom_site_fract_y
 _atom_site_fract_z
 _atom_site_occupancy
  Ca  Ca0  1  0.751428  0.714578  0.970651  1
  Ca  Ca1  1  0.785422  0.748572  0.470651  1
  Ca  Ca2  1  0.251428  0.214578  0.529349  1
  Ca  Ca3  1  0.285422  0.248572  0.029349  1
  P  P4  1  0.422712  0.386095  0.288158  1
  P  P5  1  0.339782  0.660218  0.000000  1
  P  P6  1  0.631150  0.246700  0.662530  1
  P  P7  1  0.131150  0.746700  0.837470  1
  P  P8  1  0.753300  0.368850  0.337470  1
  P  P9  1  0.407116  0.717681  0.338495  1
  P  P10  1  0.697710  0.302290  0.000000  1
  P  P11  1  0.282319  0.592884  0.661505  1
  P  P12  1  0.613905  0.577288  0.711842  1
  P  P13  1  0.782319  0.092884  0.838495  1
  P  P14  1  0.253300  0.868850  0.162530  1
  P  P15  1  0.839782  0.160218  0.500000  1
  P  P16  1  0.907116  0.217681  0.161505  1
  P  P17  1  0.922712  0.886095  0.211842  1
  P  P18  1  0.197710  0.802290  0.500000  1
  P  P19  1  0.113905  0.077288  0.788158  1
  O  O20  1  0.039095  0.751246  0.520117  1
  O  O21  1  0.248754  0.960905  0.479883  1
  O  O22  1  0.494273  0.205891  0.603713  1
  O  O23  1  0.605090  0.369741  0.271004  1
  O  O24  1  0.280916  0.765642  0.903466  1
  O  O25  1  0.541902  0.762314  0.398431  1
  O  O26  1  0.380075  0.343573  0.395647  1
  O  O27  1  0.876592  0.339660  0.249848  1
  O  O28  1  0.994273  0.705891  0.896287  1
  O  O29  1  0.498348  0.711385  0.020026  1
  O  O30  1  0.780916  0.265642  0.596534  1
  O  O31  1  0.156427  0.119925  0.895647  1
  O  O32  1  0.880075  0.843573  0.104353  1
  O  O33  1  0.539095  0.251246  0.979883  1
  O  O34  1  0.748754  0.460905  0.020117  1
  O  O35  1  0.851155  0.817803  0.304638  1
  O  O36  1  0.160340  0.623408  0.749848  1
  O  O37  1  0.656427  0.619925  0.604353  1
  O  O38  1  0.430475  0.586989  0.727558  1
  O  O39  1  0.413011  0.569525  0.272442  1
  O  O40  1  0.130260  0.894910  0.771003  1
  O  O41  1  0.351155  0.317803  0.195362  1
  O  O42  1  0.737686  0.958098  0.898431  1
  O  O43  1  0.182197  0.148845  0.695362  1
  O  O44  1  0.256532  0.696456  0.403500  1
  O  O45  1  0.041902  0.262314  0.101569  1
  O  O46  1  0.303544  0.743468  0.596500  1
  O  O47  1  0.234358  0.719084  0.096534  1
  O  O48  1  0.682197  0.648845  0.804638  1
  O  O49  1  0.788615  0.001652  0.520026  1
  O  O50  1  0.756532  0.196456  0.096500  1
  O  O51  1  0.660340  0.123408  0.750152  1
  O  O52  1  0.930475  0.086989  0.772442  1
  O  O53  1  0.794109  0.505727  0.396287  1
  O  O54  1  0.998348  0.211385  0.479974  1
  O  O55  1  0.803544  0.243468  0.903500  1
  O  O56  1  0.376592  0.839660  0.250152  1
  O  O57  1  0.288615  0.501652  0.979974  1
  O  O58  1  0.237686  0.458098  0.601569  1
  O  O59  1  0.734358  0.219084  0.403466  1
  O  O60  1  0.294109  0.005727  0.103713  1
  O  O61  1  0.630259  0.394910  0.728997  1
  O  O62  1  0.913011  0.069525  0.227558  1
  O  O63  1  0.105090  0.869741  0.228996  1
