# generated using pymatgen
data_CaLaGaO4
_symmetry_space_group_name_H-M   'P 1'
_cell_length_a   5.39248531
_cell_length_b   6.89319257
_cell_length_c   11.90555242
_cell_angle_alpha   90.00000000
_cell_angle_beta   90.00000000
_cell_angle_gamma   90.00000000
_symmetry_Int_Tables_number   1
_chemical_formula_structural   CaLaGaO4
_chemical_formula_sum   'Ca4 La4 Ga4 O16'
_cell_volume   442.54652355
_cell_formula_units_Z   4
loop_
 _symmetry_equiv_pos_site_id
 _symmetry_equiv_pos_as_xyz
  1  'x, y, z'
loop_
 _atom_site_type_symbol
 _atom_site_label
 _atom_site_symmetry_multiplicity
 _atom_site_fract_x
 _atom_site_fract_y
 _atom_site_fract_z
 _atom_site_occupancy
  Ca  Ca0  1  0.000825  0.488577  0.999232  1
  Ca  Ca1  1  0.499175  0.488577  0.499232  1
  Ca  Ca2  1  0.999175  0.988577  0.000768  1
  Ca  Ca3  1  0.500825  0.988577  0.500768  1
  La  La4  1  0.507935  0.236820  0.219813  1
  La  La5  1  0.992065  0.236820  0.719813  1
  La  La6  1  0.007935  0.736820  0.280187  1
  La  La7  1  0.492065  0.736820  0.780187  1
  Ga  Ga8  1  0.433957  0.236400  0.909225  1
  Ga  Ga9  1  0.566043  0.736400  0.090775  1
  Ga  Ga10  1  0.933957  0.736400  0.590775  1
  Ga  Ga11  1  0.066043  0.236400  0.409225  1
  O  O12  1  0.271477  0.447740  0.836610  1
  O  O13  1  0.270364  0.023732  0.838772  1
  O  O14  1  0.724070  0.738617  0.948672  1
  O  O15  1  0.726207  0.238114  0.407242  1
  O  O16  1  0.229636  0.023732  0.338772  1
  O  O17  1  0.224070  0.238617  0.551328  1
  O  O18  1  0.770364  0.523732  0.661228  1
  O  O19  1  0.273793  0.738114  0.592758  1
  O  O20  1  0.228523  0.447740  0.336610  1
  O  O21  1  0.773793  0.238114  0.907242  1
  O  O22  1  0.226207  0.738114  0.092758  1
  O  O23  1  0.729636  0.523732  0.161228  1
  O  O24  1  0.771477  0.947740  0.663390  1
  O  O25  1  0.728523  0.947740  0.163390  1
  O  O26  1  0.275930  0.238617  0.051328  1
  O  O27  1  0.775930  0.738617  0.448672  1
