# generated using pymatgen
data_Mn3BO5
_symmetry_space_group_name_H-M   'P 1'
_cell_length_a   3.17531625
_cell_length_b   9.57503552
_cell_length_c   12.85941744
_cell_angle_alpha   90.00000000
_cell_angle_beta   90.00000000
_cell_angle_gamma   90.00000000
_symmetry_Int_Tables_number   1
_chemical_formula_structural   Mn3BO5
_chemical_formula_sum   'Mn12 B4 O20'
_cell_volume   390.97471721
_cell_formula_units_Z   4
loop_
 _symmetry_equiv_pos_site_id
 _symmetry_equiv_pos_as_xyz
  1  'x, y, z'
loop_
 _atom_site_type_symbol
 _atom_site_label
 _atom_site_symmetry_multiplicity
 _atom_site_fract_x
 _atom_site_fract_y
 _atom_site_fract_z
 _atom_site_occupancy
  Mn  Mn0  1  0.500000  0.005821  0.278424  1
  Mn  Mn1  1  0.500000  0.994179  0.721576  1
  Mn  Mn2  1  0.500000  0.505821  0.221576  1
  Mn  Mn3  1  0.500000  0.494179  0.778424  1
  Mn  Mn4  1  0.500000  0.000000  0.000000  1
  Mn  Mn5  1  0.500000  0.500000  0.500000  1
  Mn  Mn6  1  0.000000  0.500000  0.000000  1
  Mn  Mn7  1  0.000000  0.000000  0.500000  1
  Mn  Mn8  1  0.000000  0.240546  0.117432  1
  Mn  Mn9  1  0.000000  0.759454  0.882568  1
  Mn  Mn10  1  0.000000  0.740546  0.382568  1
  Mn  Mn11  1  0.000000  0.259454  0.617432  1
  B  B12  1  0.000000  0.279865  0.359545  1
  B  B13  1  0.000000  0.720135  0.640455  1
  B  B14  1  0.000000  0.779865  0.140455  1
  B  B15  1  0.000000  0.220135  0.859545  1
  O  O16  1  0.000000  0.149080  0.954268  1
  O  O17  1  0.000000  0.850920  0.045732  1
  O  O18  1  0.000000  0.649080  0.545732  1
  O  O19  1  0.000000  0.350920  0.454268  1
  O  O20  1  0.500000  0.104095  0.138417  1
  O  O21  1  0.500000  0.895905  0.861583  1
  O  O22  1  0.500000  0.604095  0.361583  1
  O  O23  1  0.500000  0.395905  0.638417  1
  O  O24  1  0.000000  0.134196  0.355997  1
  O  O25  1  0.000000  0.865804  0.644003  1
  O  O26  1  0.000000  0.634196  0.144003  1
  O  O27  1  0.000000  0.365804  0.855997  1
  O  O28  1  0.500000  0.389159  0.080655  1
  O  O29  1  0.500000  0.610841  0.919345  1
  O  O30  1  0.500000  0.889159  0.419345  1
  O  O31  1  0.500000  0.110841  0.580655  1
  O  O32  1  0.000000  0.354481  0.266638  1
  O  O33  1  0.000000  0.645519  0.733362  1
  O  O34  1  0.000000  0.854481  0.233362  1
  O  O35  1  0.000000  0.145519  0.766638  1
