# generated using pymatgen
data_VPPbO6
_symmetry_space_group_name_H-M   'P 1'
_cell_length_a   5.70066799
_cell_length_b   8.57597528
_cell_length_c   9.96355112
_cell_angle_alpha   90.00000000
_cell_angle_beta   90.00000000
_cell_angle_gamma   91.22322600
_symmetry_Int_Tables_number   1
_chemical_formula_structural   VPPbO6
_chemical_formula_sum   'V4 P4 Pb4 O24'
_cell_volume   486.99493016
_cell_formula_units_Z   4
loop_
 _symmetry_equiv_pos_site_id
 _symmetry_equiv_pos_as_xyz
  1  'x, y, z'
loop_
 _atom_site_type_symbol
 _atom_site_label
 _atom_site_symmetry_multiplicity
 _atom_site_fract_x
 _atom_site_fract_y
 _atom_site_fract_z
 _atom_site_occupancy
  Pb  Pb0  1  0.123652  0.926352  0.314800  1
  Pb  Pb1  1  0.876348  0.573648  0.814800  1
  Pb  Pb2  1  0.876348  0.073648  0.685200  1
  Pb  Pb3  1  0.123652  0.426352  0.185200  1
  V  V4  1  0.653137  0.588811  0.410961  1
  V  V5  1  0.346863  0.911189  0.910961  1
  V  V6  1  0.346863  0.411189  0.589039  1
  V  V7  1  0.653137  0.088811  0.089039  1
  P  P8  1  0.338478  0.786462  0.609032  1
  P  P9  1  0.661522  0.713538  0.109032  1
  P  P10  1  0.661522  0.213538  0.390968  1
  P  P11  1  0.338478  0.286462  0.890968  1
  O  O12  1  0.746086  0.379953  0.341437  1
  O  O13  1  0.253914  0.120047  0.841437  1
  O  O14  1  0.253914  0.620047  0.658563  1
  O  O15  1  0.746086  0.879953  0.158563  1
  O  O16  1  0.479298  0.772830  0.474157  1
  O  O17  1  0.520702  0.727170  0.974157  1
  O  O18  1  0.520702  0.227170  0.525843  1
  O  O19  1  0.479298  0.272830  0.025843  1
  O  O20  1  0.503263  0.639103  0.219965  1
  O  O21  1  0.496736  0.860897  0.719965  1
  O  O22  1  0.496736  0.360897  0.780035  1
  O  O23  1  0.503263  0.139103  0.280035  1
  O  O24  1  0.909921  0.672819  0.367414  1
  O  O25  1  0.090079  0.827181  0.867414  1
  O  O26  1  0.090079  0.327181  0.632586  1
  O  O27  1  0.909921  0.172819  0.132586  1
  O  O28  1  0.321410  0.472304  0.424284  1
  O  O29  1  0.678590  0.027696  0.924284  1
  O  O30  1  0.678590  0.527696  0.575716  1
  O  O31  1  0.321410  0.972304  0.075716  1
  O  O32  1  0.127161  0.888220  0.574597  1
  O  O33  1  0.872839  0.611780  0.074597  1
  O  O34  1  0.872839  0.111780  0.425403  1
  O  O35  1  0.127161  0.388220  0.925403  1
