# generated using pymatgen
data_Fe3BO5
_symmetry_space_group_name_H-M   'P 1'
_cell_length_a   3.10429196
_cell_length_b   5.58781894
_cell_length_c   10.79728445
_cell_angle_alpha   93.35196634
_cell_angle_beta   90.00000000
_cell_angle_gamma   90.00000000
_symmetry_Int_Tables_number   1
_chemical_formula_structural   Fe3BO5
_chemical_formula_sum   'Fe6 B2 O10'
_cell_volume   186.97166663
_cell_formula_units_Z   2
loop_
 _symmetry_equiv_pos_site_id
 _symmetry_equiv_pos_as_xyz
  1  'x, y, z'
loop_
 _atom_site_type_symbol
 _atom_site_label
 _atom_site_symmetry_multiplicity
 _atom_site_fract_x
 _atom_site_fract_y
 _atom_site_fract_z
 _atom_site_occupancy
  B  B0  1  0.000000  0.714506  0.242340  1
  B  B1  1  0.000000  0.285493  0.757659  1
  O  O2  1  0.000000  0.295194  0.887071  1
  O  O3  1  0.499999  0.178535  0.087672  1
  O  O4  1  0.000000  0.704806  0.112929  1
  O  O5  1  0.499999  0.821466  0.912328  1
  O  O6  1  0.000000  0.503507  0.303448  1
  O  O7  1  0.000000  0.496494  0.696552  1
  O  O8  1  0.499999  0.232864  0.468432  1
  O  O9  1  0.000000  0.936296  0.307953  1
  O  O10  1  0.000000  0.063703  0.692047  1
  O  O11  1  0.499999  0.767137  0.531568  1
  Fe  Fe12  1  0.499999  0.780077  0.727350  1
  Fe  Fe13  1  0.499999  0.219922  0.272649  1
  Fe  Fe14  1  0.000000  0.500001  0.500000  1
  Fe  Fe15  1  0.000000  0.000000  0.500000  1
  Fe  Fe16  1  0.499999  0.500000  0.000000  1
  Fe  Fe17  1  0.000000  0.000000  0.000000  1
