# generated using pymatgen
data_SiSe2
_symmetry_space_group_name_H-M   'P 1'
_cell_length_a   5.93148989
_cell_length_b   6.60920838
_cell_length_c   7.03264345
_cell_angle_alpha   118.02748091
_cell_angle_beta   114.94266902
_cell_angle_gamma   90.00000134
_symmetry_Int_Tables_number   1
_chemical_formula_structural   SiSe2
_chemical_formula_sum   'Si2 Se4'
_cell_volume   213.79547761
_cell_formula_units_Z   2
loop_
 _symmetry_equiv_pos_site_id
 _symmetry_equiv_pos_as_xyz
  1  'x, y, z'
loop_
 _atom_site_type_symbol
 _atom_site_label
 _atom_site_symmetry_multiplicity
 _atom_site_fract_x
 _atom_site_fract_y
 _atom_site_fract_z
 _atom_site_occupancy
  Si  Si0  1  0.750000  0.000000  0.000000  1
  Si  Si1  1  0.250000  0.000000  0.000000  1
  Se  Se2  1  0.111765  0.304428  0.223529  1
  Se  Se3  1  0.888235  0.695572  0.776471  1
  Se  Se4  1  0.388235  0.080899  0.776471  1
  Se  Se5  1  0.611765  0.919101  0.223529  1
