# generated using pymatgen
data_MoF5
_symmetry_space_group_name_H-M   'P 1'
_cell_length_a   5.46742276
_cell_length_b   8.85098486
_cell_length_c   8.85098397
_cell_angle_alpha   111.30932368
_cell_angle_beta   91.34804552
_cell_angle_gamma   91.34804418
_symmetry_Int_Tables_number   1
_chemical_formula_structural   MoF5
_chemical_formula_sum   'Mo4 F20'
_cell_volume   398.68725341
_cell_formula_units_Z   4
loop_
 _symmetry_equiv_pos_site_id
 _symmetry_equiv_pos_as_xyz
  1  'x, y, z'
loop_
 _atom_site_type_symbol
 _atom_site_label
 _atom_site_symmetry_multiplicity
 _atom_site_fract_x
 _atom_site_fract_y
 _atom_site_fract_z
 _atom_site_occupancy
  Mo  Mo0  1  0.000000  0.798322  0.201678  1
  Mo  Mo1  1  1.000000  0.201678  0.798322  1
  Mo  Mo2  1  0.262749  0.744048  0.744048  1
  Mo  Mo3  1  0.737251  0.255952  0.255952  1
  F  F4  1  0.533142  0.862970  0.862970  1
  F  F5  1  0.466858  0.137030  0.137030  1
  F  F6  1  0.947041  0.667765  0.667765  1
  F  F7  1  0.052959  0.332235  0.332235  1
  F  F8  1  0.380556  0.541567  0.727655  1
  F  F9  1  0.619444  0.272345  0.458433  1
  F  F10  1  0.619444  0.458433  0.272345  1
  F  F11  1  0.380556  0.727655  0.541567  1
  F  F12  1  0.127620  0.773266  0.972612  1
  F  F13  1  0.872380  0.027388  0.226734  1
  F  F14  1  0.872380  0.226734  0.027388  1
  F  F15  1  0.127620  0.972612  0.773266  1
  F  F16  1  0.295514  0.910876  0.278525  1
  F  F17  1  0.704486  0.721475  0.089124  1
  F  F18  1  0.704486  0.089124  0.721475  1
  F  F19  1  0.295514  0.278525  0.910876  1
  F  F20  1  0.117915  0.592722  0.174046  1
  F  F21  1  0.882085  0.825954  0.407278  1
  F  F22  1  0.882085  0.407278  0.825954  1
  F  F23  1  0.117915  0.174046  0.592722  1
