# generated using pymatgen
data_KCS2N(O2F)2
_symmetry_space_group_name_H-M   'P 1'
_cell_length_a   10.76850109
_cell_length_b   11.14245037
_cell_length_c   11.52956724
_cell_angle_alpha   90.00000000
_cell_angle_beta   90.00000000
_cell_angle_gamma   90.00000000
_symmetry_Int_Tables_number   1
_chemical_formula_structural   KCS2N(O2F)2
_chemical_formula_sum   'K8 C8 S16 N8 O32 F16'
_cell_volume   1383.40382186
_cell_formula_units_Z   8
loop_
 _symmetry_equiv_pos_site_id
 _symmetry_equiv_pos_as_xyz
  1  'x, y, z'
loop_
 _atom_site_type_symbol
 _atom_site_label
 _atom_site_symmetry_multiplicity
 _atom_site_fract_x
 _atom_site_fract_y
 _atom_site_fract_z
 _atom_site_occupancy
  K  K0  1  0.762945  0.957379  0.715211  1
  K  K1  1  0.262945  0.042621  0.284789  1
  K  K2  1  0.263760  0.013345  0.712674  1
  K  K3  1  0.262945  0.457379  0.784789  1
  K  K4  1  0.263760  0.486655  0.212674  1
  K  K5  1  0.763760  0.513345  0.787326  1
  K  K6  1  0.763760  0.986655  0.287326  1
  K  K7  1  0.762945  0.542621  0.215211  1
  C  C8  1  0.537746  0.286766  0.513153  1
  C  C9  1  0.948500  0.198406  0.994004  1
  C  C10  1  0.448500  0.801594  0.005996  1
  C  C11  1  0.037746  0.713234  0.486847  1
  C  C12  1  0.948500  0.301594  0.494004  1
  C  C13  1  0.037746  0.786766  0.986847  1
  C  C14  1  0.537746  0.213234  0.013153  1
  C  C15  1  0.448500  0.698406  0.505996  1
  S  S16  1  0.500143  0.711641  0.661945  1
  S  S17  1  0.566925  0.292222  0.351086  1
  S  S18  1  0.000143  0.288359  0.338055  1
  S  S19  1  0.066925  0.707778  0.648914  1
  S  S20  1  0.121077  0.189777  0.022707  1
  S  S21  1  0.521973  0.119975  0.485010  1
  S  S22  1  0.066925  0.792222  0.148914  1
  S  S23  1  0.021973  0.880025  0.514990  1
  S  S24  1  0.621077  0.689777  0.477293  1
  S  S25  1  0.000143  0.211641  0.838055  1
  S  S26  1  0.121077  0.310223  0.522707  1
  S  S27  1  0.621077  0.810223  0.977293  1
  S  S28  1  0.521973  0.380025  0.985010  1
  S  S29  1  0.021973  0.619975  0.014990  1
  S  S30  1  0.566925  0.207778  0.851086  1
  S  S31  1  0.500143  0.788359  0.161945  1
  N  N32  1  0.141881  0.221179  0.886525  1
  N  N33  1  0.641881  0.778821  0.113475  1
  N  N34  1  0.141881  0.278821  0.386525  1
  N  N35  1  0.641881  0.721179  0.613475  1
  N  N36  1  0.036102  0.649733  0.151712  1
  N  N37  1  0.536102  0.149733  0.348288  1
  N  N38  1  0.036102  0.850267  0.651712  1
  N  N39  1  0.536102  0.350267  0.848288  1
  O  O40  1  0.459829  0.822528  0.716681  1
  O  O41  1  0.399324  0.073569  0.512239  1
  O  O42  1  0.627693  0.055606  0.532527  1
  O  O43  1  0.154597  0.067430  0.054158  1
  O  O44  1  0.696037  0.318783  0.325353  1
  O  O45  1  0.654597  0.567430  0.445842  1
  O  O46  1  0.475392  0.899915  0.223190  1
  O  O47  1  0.975392  0.399915  0.276810  1
  O  O48  1  0.667008  0.782757  0.400345  1
  O  O49  1  0.399324  0.426431  0.012239  1
  O  O50  1  0.959829  0.177472  0.283319  1
  O  O51  1  0.899324  0.926431  0.487761  1
  O  O52  1  0.167008  0.217243  0.599655  1
  O  O53  1  0.167008  0.282757  0.099655  1
  O  O54  1  0.196037  0.681217  0.674647  1
  O  O55  1  0.899324  0.573569  0.987761  1
  O  O56  1  0.654597  0.932570  0.945842  1
  O  O57  1  0.974534  0.862809  0.210227  1
  O  O58  1  0.959829  0.322528  0.783319  1
  O  O59  1  0.127693  0.944394  0.467473  1
  O  O60  1  0.127693  0.555606  0.967473  1
  O  O61  1  0.974534  0.637191  0.710227  1
  O  O62  1  0.459829  0.677472  0.216681  1
  O  O63  1  0.696037  0.181217  0.825353  1
  O  O64  1  0.475392  0.600085  0.723190  1
  O  O65  1  0.667008  0.717243  0.900345  1
  O  O66  1  0.975392  0.100085  0.776810  1
  O  O67  1  0.196037  0.818783  0.174647  1
  O  O68  1  0.627693  0.444394  0.032527  1
  O  O69  1  0.474534  0.362809  0.289773  1
  O  O70  1  0.154597  0.432570  0.554158  1
  O  O71  1  0.474534  0.137191  0.789773  1
  F  F72  1  0.433031  0.342143  0.547957  1
  F  F73  1  0.933031  0.657857  0.452043  1
  F  F74  1  0.933031  0.842143  0.952043  1
  F  F75  1  0.132456  0.680926  0.417579  1
  F  F76  1  0.391187  0.796839  0.464859  1
  F  F77  1  0.882860  0.099791  0.021931  1
  F  F78  1  0.632456  0.319074  0.582421  1
  F  F79  1  0.391187  0.703161  0.964859  1
  F  F80  1  0.882860  0.400209  0.521931  1
  F  F81  1  0.382860  0.900209  0.978069  1
  F  F82  1  0.891187  0.296839  0.035141  1
  F  F83  1  0.632456  0.180926  0.082421  1
  F  F84  1  0.433031  0.157858  0.047957  1
  F  F85  1  0.891187  0.203161  0.535141  1
  F  F86  1  0.382860  0.599791  0.478069  1
  F  F87  1  0.132456  0.819074  0.917579  1
