# generated using pymatgen
data_Ta2Hg2F11
_symmetry_space_group_name_H-M   'P 1'
_cell_length_a   7.73237400
_cell_length_b   12.55220793
_cell_length_c   12.98371248
_cell_angle_alpha   72.11469896
_cell_angle_beta   72.68599065
_cell_angle_gamma   72.06115579
_symmetry_Int_Tables_number   1
_chemical_formula_structural   Ta2Hg2F11
_chemical_formula_sum   'Ta8 Hg8 F44'
_cell_volume   1111.92290631
_cell_formula_units_Z   4
loop_
 _symmetry_equiv_pos_site_id
 _symmetry_equiv_pos_as_xyz
  1  'x, y, z'
loop_
 _atom_site_type_symbol
 _atom_site_label
 _atom_site_symmetry_multiplicity
 _atom_site_fract_x
 _atom_site_fract_y
 _atom_site_fract_z
 _atom_site_occupancy
  Ta  Ta0  1  0.077051  0.281605  0.016815  1
  Ta  Ta1  1  0.298402  0.917078  0.871321  1
  Ta  Ta2  1  0.375394  0.218431  0.483189  1
  Ta  Ta3  1  0.086881  0.582964  0.628757  1
  Ta  Ta4  1  0.913119  0.417036  0.371243  1
  Ta  Ta5  1  0.922949  0.718395  0.983185  1
  Ta  Ta6  1  0.624606  0.781569  0.516811  1
  Ta  Ta7  1  0.701598  0.082922  0.128679  1
  Hg  Hg8  1  0.468266  0.462803  0.126102  1
  Hg  Hg9  1  0.942782  0.962808  0.626093  1
  Hg  Hg10  1  0.199155  0.847985  0.285028  1
  Hg  Hg11  1  0.667941  0.347970  0.785039  1
  Hg  Hg12  1  0.800845  0.152015  0.714972  1
  Hg  Hg13  1  0.531734  0.537197  0.873898  1
  Hg  Hg14  1  0.057218  0.037192  0.373907  1
  Hg  Hg15  1  0.332059  0.652030  0.214961  1
  F  F16  1  0.549675  0.238539  0.095615  1
  F  F17  1  0.598933  0.107685  0.499962  1
  F  F18  1  0.206504  0.392421  1.000026  1
  F  F19  1  0.277407  0.199466  0.922842  1
  F  F20  1  0.962465  0.360542  0.893372  1
  F  F21  1  0.883789  0.261410  0.404308  1
  F  F22  1  0.155911  0.176912  0.145337  1
  F  F23  1  0.401067  0.892315  0.500038  1
  F  F24  1  0.301238  0.930182  0.013018  1
  F  F25  1  0.399778  0.300501  0.577192  1
  F  F26  1  0.273699  0.509089  0.708653  1
  F  F27  1  0.522145  0.676847  0.645370  1
  F  F28  1  0.004178  0.449348  0.646890  1
  F  F29  1  0.262648  0.880837  0.747615  1
  F  F30  1  0.995822  0.550652  0.353110  1
  F  F31  1  0.037535  0.639458  0.106628  1
  F  F32  1  0.737352  0.119163  0.252385  1
  F  F33  1  0.783610  0.860512  0.393370  1
  F  F34  1  0.216390  0.139488  0.606630  1
  F  F35  1  0.698762  0.069818  0.986982  1
  F  F36  1  0.899843  0.949332  0.146861  1
  F  F37  1  0.100157  0.050668  0.853139  1
  F  F38  1  0.491298  0.990878  0.791430  1
  F  F39  1  0.922182  0.163624  0.038038  1
  F  F40  1  0.450325  0.761461  0.904385  1
  F  F41  1  0.876280  0.663671  0.538050  1
  F  F42  1  0.722593  0.800534  0.077158  1
  F  F43  1  0.726301  0.490911  0.291347  1
  F  F44  1  0.755626  0.430105  0.512970  1
  F  F45  1  0.844089  0.823088  0.854663  1
  F  F46  1  0.244374  0.569895  0.487030  1
  F  F47  1  0.116211  0.738590  0.595692  1
  F  F48  1  0.678197  0.854414  0.610405  1
  F  F49  1  0.508702  0.009122  0.208570  1
  F  F50  1  0.123720  0.336329  0.461950  1
  F  F51  1  0.891219  0.619165  0.752471  1
  F  F52  1  0.856973  0.354378  0.110396  1
  F  F53  1  0.477855  0.323153  0.354630  1
  F  F54  1  0.077818  0.836376  0.961962  1
  F  F55  1  0.108781  0.380835  0.247529  1
  F  F56  1  0.600222  0.699499  0.422808  1
  F  F57  1  0.793496  0.607579  -0.000026  1
  F  F58  1  0.143027  0.645622  0.889604  1
  F  F59  1  0.321803  0.145586  0.389595  1
