# generated using pymatgen
data_Sr5Nb4O15
_symmetry_space_group_name_H-M   'P 1'
_cell_length_a   5.73599197
_cell_length_b   9.95780366
_cell_length_c   11.67169651
_cell_angle_alpha   89.24656616
_cell_angle_beta   90.00000000
_cell_angle_gamma   90.00000000
_symmetry_Int_Tables_number   1
_chemical_formula_structural   Sr5Nb4O15
_chemical_formula_sum   'Sr10 Nb8 O30'
_cell_volume   666.60494301
_cell_formula_units_Z   2
loop_
 _symmetry_equiv_pos_site_id
 _symmetry_equiv_pos_as_xyz
  1  'x, y, z'
loop_
 _atom_site_type_symbol
 _atom_site_label
 _atom_site_symmetry_multiplicity
 _atom_site_fract_x
 _atom_site_fract_y
 _atom_site_fract_z
 _atom_site_occupancy
  Sr  Sr0  1  0.500000  0.832796  0.220323  1
  Sr  Sr1  1  0.000000  0.333351  0.219057  1
  Sr  Sr2  1  0.500000  0.167204  0.779677  1
  Sr  Sr3  1  0.500000  0.831138  0.562143  1
  Sr  Sr4  1  0.500000  0.168862  0.437857  1
  Sr  Sr5  1  0.000000  0.000000  0.000000  1
  Sr  Sr6  1  0.000000  0.670909  0.439792  1
  Sr  Sr7  1  0.000000  0.666649  0.780943  1
  Sr  Sr8  1  0.000000  0.329091  0.560208  1
  Sr  Sr9  1  0.500000  0.500000  0.000000  1
  Nb  Nb10  1  0.500000  0.502382  0.679603  1
  Nb  Nb11  1  0.500000  0.497618  0.320397  1
  Nb  Nb12  1  0.500000  0.835442  0.894747  1
  Nb  Nb13  1  0.500000  0.164558  0.105253  1
  Nb  Nb14  1  0.000000  0.997578  0.320429  1
  Nb  Nb15  1  0.000000  0.002422  0.679571  1
  Nb  Nb16  1  0.000000  0.664801  0.106199  1
  Nb  Nb17  1  0.000000  0.335199  0.893801  1
  O  O18  1  0.253239  0.911510  0.393269  1
  O  O19  1  0.746955  0.423199  0.807444  1
  O  O20  1  0.752727  0.410210  0.392299  1
  O  O21  1  0.752727  0.589790  0.607701  1
  O  O22  1  0.000000  0.166294  0.390036  1
  O  O23  1  0.752647  0.923126  0.807604  1
  O  O24  1  0.746761  0.088490  0.606731  1
  O  O25  1  0.750286  0.751050  0.000997  1
  O  O26  1  0.253045  0.423199  0.807444  1
  O  O27  1  0.000000  0.833706  0.609964  1
  O  O28  1  0.000000  0.827603  0.198112  1
  O  O29  1  0.249714  0.751050  0.000997  1
  O  O30  1  0.247273  0.589790  0.607701  1
  O  O31  1  0.746955  0.576801  0.192556  1
  O  O32  1  0.500000  0.671051  0.804944  1
  O  O33  1  0.000000  0.172397  0.801888  1
  O  O34  1  0.253045  0.576801  0.192556  1
  O  O35  1  0.500000  0.328949  0.195056  1
  O  O36  1  0.750286  0.248950  0.999003  1
  O  O37  1  0.253239  0.088490  0.606731  1
  O  O38  1  0.247353  0.076874  0.192396  1
  O  O39  1  0.500000  0.334079  0.609124  1
  O  O40  1  0.247353  0.923126  0.807604  1
  O  O41  1  0.746761  0.911510  0.393269  1
  O  O42  1  0.752647  0.076874  0.192396  1
  O  O43  1  0.249714  0.248950  0.999003  1
  O  O44  1  0.500000  0.665921  0.390876  1
  O  O45  1  0.247273  0.410210  0.392299  1
  O  O46  1  0.500000  0.000000  0.000000  1
  O  O47  1  0.000000  0.500000  0.000000  1
