# generated using pymatgen
data_Li2UBr6
_symmetry_space_group_name_H-M   'P 1'
_cell_length_a   6.96711062
_cell_length_b   6.96711029
_cell_length_c   41.24561583
_cell_angle_alpha   90.00000000
_cell_angle_beta   90.00000000
_cell_angle_gamma   120.00000155
_symmetry_Int_Tables_number   1
_chemical_formula_structural   Li2UBr6
_chemical_formula_sum   'Li12 U6 Br36'
_cell_volume   1733.85912739
_cell_formula_units_Z   6
loop_
 _symmetry_equiv_pos_site_id
 _symmetry_equiv_pos_as_xyz
  1  'x, y, z'
loop_
 _atom_site_type_symbol
 _atom_site_label
 _atom_site_symmetry_multiplicity
 _atom_site_fract_x
 _atom_site_fract_y
 _atom_site_fract_z
 _atom_site_occupancy
  Br  Br0  1  1.000086  0.667281  0.287781  1
  Br  Br1  1  0.999161  0.665950  0.621144  1
  Br  Br2  1  -0.000440  0.665994  0.954455  1
  Br  Br3  1  0.332719  -0.000086  0.212219  1
  Br  Br4  1  0.334006  1.000440  0.545545  1
  Br  Br5  1  0.334050  0.000839  0.878856  1
  Br  Br6  1  1.000086  0.332805  0.212219  1
  Br  Br7  1  -0.000440  0.333566  0.545545  1
  Br  Br8  1  0.999161  0.333210  0.878856  1
  Br  Br9  1  0.332719  0.332805  0.287781  1
  Br  Br10  1  0.334050  0.333210  0.621144  1
  Br  Br11  1  0.334006  0.333566  0.954455  1
  Br  Br12  1  0.333210  0.334050  0.121144  1
  Br  Br13  1  0.333566  0.334006  0.454455  1
  Br  Br14  1  0.332805  0.332719  0.787781  1
  Br  Br15  1  0.667195  -0.000086  0.287781  1
  Br  Br16  1  0.666434  1.000440  0.954455  1
  Br  Br17  1  0.666790  0.000839  0.621144  1
  Br  Br18  1  0.333566  -0.000440  0.045545  1
  Br  Br19  1  0.333210  0.999161  0.378856  1
  Br  Br20  1  0.332805  1.000086  0.712219  1
  Br  Br21  1  0.666434  0.665994  0.545545  1
  Br  Br22  1  0.667195  0.667281  0.212219  1
  Br  Br23  1  0.666790  0.665950  0.878856  1
  Br  Br24  1  0.665994  0.666434  0.045545  1
  Br  Br25  1  0.665950  0.666790  0.378856  1
  Br  Br26  1  0.667281  0.667195  0.712219  1
  Br  Br27  1  0.000839  0.666790  0.121144  1
  Br  Br28  1  1.000440  0.666434  0.454455  1
  Br  Br29  1  -0.000086  0.667195  0.787781  1
  Br  Br30  1  0.665950  0.999161  0.121144  1
  Br  Br31  1  0.665994  -0.000440  0.454455  1
  Br  Br32  1  0.667281  1.000086  0.787781  1
  Br  Br33  1  1.000440  0.334006  0.045545  1
  Br  Br34  1  0.000839  0.334050  0.378856  1
  Br  Br35  1  -0.000086  0.332719  0.712219  1
  Li  Li36  1  0.333333  0.666667  0.750000  1
  Li  Li37  1  0.333333  0.666667  0.915953  1
  Li  Li38  1  0.333333  0.666667  0.584047  1
  Li  Li39  1  0.333333  0.666667  0.250000  1
  Li  Li40  1  0.666667  0.333333  0.250000  1
  Li  Li41  1  0.666667  0.333333  0.084047  1
  Li  Li42  1  0.666667  0.333333  0.415953  1
  Li  Li43  1  0.666667  0.333333  0.750000  1
  Li  Li44  1  0.000000  0.000000  0.082707  1
  Li  Li45  1  0.000000  0.000000  0.417293  1
  Li  Li46  1  0.000000  0.000000  0.582707  1
  Li  Li47  1  0.000000  0.000000  0.917293  1
  U  U48  1  0.000000  0.000000  0.250000  1
  U  U49  1  0.333333  0.666667  0.083317  1
  U  U50  1  0.333333  0.666667  0.416683  1
  U  U51  1  0.666667  0.333333  0.583317  1
  U  U52  1  0.666667  0.333333  0.916683  1
  U  U53  1  0.000000  0.000000  0.750000  1
