# generated using pymatgen
data_H2O
_symmetry_space_group_name_H-M   'P 1'
_cell_length_a   3.97078367
_cell_length_b   8.19844026
_cell_length_c   8.26686516
_cell_angle_alpha   89.99124527
_cell_angle_beta   89.98901963
_cell_angle_gamma   89.95352896
_symmetry_Int_Tables_number   1
_chemical_formula_structural   H2O
_chemical_formula_sum   'H24 O12'
_cell_volume   269.12135535
_cell_formula_units_Z   12
loop_
 _symmetry_equiv_pos_site_id
 _symmetry_equiv_pos_as_xyz
  1  'x, y, z'
loop_
 _atom_site_type_symbol
 _atom_site_label
 _atom_site_symmetry_multiplicity
 _atom_site_fract_x
 _atom_site_fract_y
 _atom_site_fract_z
 _atom_site_occupancy
  H  H0  1  0.481367  0.919155  0.649207  1
  H  H1  1  0.857490  0.087941  0.946190  1
  H  H2  1  0.014863  0.156482  0.575075  1
  H  H3  1  0.685151  0.280012  0.228289  1
  H  H4  1  0.065218  0.720259  0.727604  1
  H  H5  1  0.233788  0.656196  0.424889  1
  H  H6  1  0.394140  0.588299  0.054045  1
  H  H7  1  0.767908  0.419008  0.351016  1
  H  H8  1  0.184544  0.220645  0.272131  1
  H  H9  1  0.140893  0.957726  0.901476  1
  H  H10  1  0.446116  0.225746  0.780098  1
  H  H11  1  0.607750  0.042787  0.401114  1
  H  H12  1  0.804616  0.725420  0.220037  1
  H  H13  1  0.304105  0.773581  0.279585  1
  H  H14  1  0.890848  0.912300  0.445627  1
  H  H15  1  0.110718  0.458230  0.098750  1
  H  H16  1  0.640986  0.542073  0.599098  1
  H  H17  1  0.358273  0.411646  0.554392  1
  H  H18  1  0.267445  0.081026  0.149925  1
  H  H19  1  0.983129  0.581136  0.850334  1
  H  H20  1  0.945838  0.273911  0.720441  1
  H  H21  1  0.735358  0.843200  0.074882  1
  H  H22  1  0.564766  0.779670  0.771465  1
  H  H23  1  0.516017  0.343729  0.925016  1
  O  O24  1  0.998698  0.998740  0.991874  1
  O  O25  1  0.499262  0.500878  0.508687  1
  O  O26  1  0.749687  0.001510  0.491453  1
  O  O27  1  0.627321  0.754517  0.139313  1
  O  O28  1  0.365004  0.139972  0.244286  1
  O  O29  1  0.126254  0.744771  0.360033  1
  O  O30  1  0.865473  0.360451  0.256289  1
  O  O31  1  0.623653  0.254796  0.860534  1
  O  O32  1  0.384075  0.860187  0.743626  1
  O  O33  1  0.252636  0.499110  0.008378  1
  O  O34  1  0.123231  0.244833  0.639824  1
  O  O35  1  0.885181  0.639654  0.755717  1
