# generated using pymatgen
data_KRe2O4F7
_symmetry_space_group_name_H-M   'P 1'
_cell_length_a   5.31460289
_cell_length_b   5.68977420
_cell_length_c   15.28655579
_cell_angle_alpha   95.21067726
_cell_angle_beta   90.00000000
_cell_angle_gamma   90.00000000
_symmetry_Int_Tables_number   1
_chemical_formula_structural   KRe2O4F7
_chemical_formula_sum   'K2 Re4 O8 F14'
_cell_volume   460.33823951
_cell_formula_units_Z   2
loop_
 _symmetry_equiv_pos_site_id
 _symmetry_equiv_pos_as_xyz
  1  'x, y, z'
loop_
 _atom_site_type_symbol
 _atom_site_label
 _atom_site_symmetry_multiplicity
 _atom_site_fract_x
 _atom_site_fract_y
 _atom_site_fract_z
 _atom_site_occupancy
  K  K0  1  0.693141  0.250000  0.750000  1
  K  K1  1  0.306859  0.750000  0.250000  1
  Re  Re2  1  0.247134  0.761450  0.886676  1
  Re  Re3  1  0.247134  0.738550  0.613324  1
  Re  Re4  1  0.752866  0.261450  0.386676  1
  Re  Re5  1  0.752866  0.238550  0.113324  1
  O  O6  1  0.591524  0.974632  0.103795  1
  O  O7  1  0.865676  0.256209  0.009677  1
  O  O8  1  0.408476  0.025368  0.896205  1
  O  O9  1  0.134324  0.756209  0.509677  1
  O  O10  1  0.591524  0.525368  0.396205  1
  O  O11  1  0.134324  0.743791  0.990323  1
  O  O12  1  0.408476  0.474632  0.603795  1
  O  O13  1  0.865676  0.243791  0.490323  1
  F  F14  1  0.539742  0.574867  0.895977  1
  F  F15  1  0.378142  0.750000  0.750000  1
  F  F16  1  0.953995  0.612451  0.661393  1
  F  F17  1  0.621858  0.250000  0.250000  1
  F  F18  1  0.112837  0.462230  0.832454  1
  F  F19  1  0.460258  0.074867  0.395977  1
  F  F20  1  0.887163  0.537770  0.167546  1
  F  F21  1  0.953995  0.887549  0.838607  1
  F  F22  1  0.887163  0.962230  0.332454  1
  F  F23  1  0.460258  0.425133  0.104023  1
  F  F24  1  0.046005  0.387549  0.338607  1
  F  F25  1  0.112837  0.037770  0.667546  1
  F  F26  1  0.046005  0.112451  0.161393  1
  F  F27  1  0.539742  0.925133  0.604023  1
