# generated using pymatgen
data_CIF3
_symmetry_space_group_name_H-M   'P 1'
_cell_length_a   4.94901189
_cell_length_b   4.94901116
_cell_length_c   19.87659420
_cell_angle_alpha   90.00000000
_cell_angle_beta   90.00000000
_cell_angle_gamma   105.99878080
_symmetry_Int_Tables_number   1
_chemical_formula_structural   CIF3
_chemical_formula_sum   'C4 I4 F12'
_cell_volume   467.97557689
_cell_formula_units_Z   4
loop_
 _symmetry_equiv_pos_site_id
 _symmetry_equiv_pos_as_xyz
  1  'x, y, z'
loop_
 _atom_site_type_symbol
 _atom_site_label
 _atom_site_symmetry_multiplicity
 _atom_site_fract_x
 _atom_site_fract_y
 _atom_site_fract_z
 _atom_site_occupancy
  C  C0  1  0.812344  0.812344  0.407328  1
  C  C1  1  0.187656  0.187656  0.592672  1
  C  C2  1  0.312344  0.312344  0.092672  1
  C  C3  1  0.687656  0.687656  0.907328  1
  I  I4  1  0.107616  0.107616  0.183273  1
  I  I5  1  0.392385  0.392385  0.683273  1
  I  I6  1  0.607615  0.607615  0.316727  1
  I  I7  1  0.892385  0.892385  0.816727  1
  F  F8  1  0.369482  0.092496  0.555159  1
  F  F9  1  0.592496  0.869482  0.944841  1
  F  F10  1  0.466681  0.466681  0.891482  1
  F  F11  1  0.033319  0.033319  0.391482  1
  F  F12  1  0.869482  0.592496  0.944841  1
  F  F13  1  0.907504  0.630518  0.444841  1
  F  F14  1  0.966681  0.966681  0.608518  1
  F  F15  1  0.533319  0.533319  0.108518  1
  F  F16  1  0.130518  0.407504  0.055159  1
  F  F17  1  0.407504  0.130518  0.055159  1
  F  F18  1  0.092496  0.369482  0.555159  1
  F  F19  1  0.630518  0.907504  0.444841  1
