# generated using pymatgen
data_GdMg(BO2)5
_symmetry_space_group_name_H-M   'P 1'
_cell_length_a   7.65121559
_cell_length_b   8.72523539
_cell_length_c   9.43689516
_cell_angle_alpha   92.91790542
_cell_angle_beta   90.00000000
_cell_angle_gamma   90.00000000
_symmetry_Int_Tables_number   1
_chemical_formula_structural   GdMg(BO2)5
_chemical_formula_sum   'Gd4 Mg4 B20 O40'
_cell_volume   629.17765838
_cell_formula_units_Z   4
loop_
 _symmetry_equiv_pos_site_id
 _symmetry_equiv_pos_as_xyz
  1  'x, y, z'
loop_
 _atom_site_type_symbol
 _atom_site_label
 _atom_site_symmetry_multiplicity
 _atom_site_fract_x
 _atom_site_fract_y
 _atom_site_fract_z
 _atom_site_occupancy
  Gd  Gd0  1  0.310511  0.812657  0.761844  1
  Gd  Gd1  1  0.689489  0.187343  0.238156  1
  Gd  Gd2  1  0.189489  0.312657  0.261844  1
  Gd  Gd3  1  0.810511  0.687343  0.738156  1
  Mg  Mg4  1  0.910217  0.604435  0.126304  1
  Mg  Mg5  1  0.589783  0.104435  0.626304  1
  Mg  Mg6  1  0.089783  0.395565  0.873696  1
  Mg  Mg7  1  0.410217  0.895565  0.373696  1
  B  B8  1  0.902085  0.154800  0.000979  1
  B  B9  1  0.578458  0.585058  0.238361  1
  B  B10  1  0.312038  0.567385  0.087401  1
  B  B11  1  0.827976  0.484814  0.393436  1
  B  B12  1  0.468967  0.221108  0.946338  1
  B  B13  1  0.031033  0.721108  0.446338  1
  B  B14  1  0.921542  0.085058  0.738361  1
  B  B15  1  0.597915  0.654800  0.500979  1
  B  B16  1  0.812038  0.932615  0.412599  1
  B  B17  1  0.172024  0.515186  0.606564  1
  B  B18  1  0.687962  0.432615  0.912599  1
  B  B19  1  0.187962  0.067385  0.587401  1
  B  B20  1  0.327976  0.015186  0.106564  1
  B  B21  1  0.968967  0.278892  0.553662  1
  B  B22  1  0.421542  0.414942  0.761639  1
  B  B23  1  0.531033  0.778892  0.053662  1
  B  B24  1  0.078458  0.914942  0.261639  1
  B  B25  1  0.097915  0.845200  0.999021  1
  B  B26  1  0.402085  0.345200  0.499021  1
  B  B27  1  0.672024  0.984814  0.893436  1
  O  O28  1  0.585801  0.490232  0.806975  1
  O  O29  1  0.151255  0.816870  0.369298  1
  O  O30  1  0.534386  0.683551  0.368658  1
  O  O31  1  0.085801  0.009768  0.693025  1
  O  O32  1  0.965614  0.183551  0.868658  1
  O  O33  1  0.895195  0.327993  0.415728  1
  O  O34  1  0.455399  0.264201  0.380334  1
  O  O35  1  0.034386  0.816449  0.131342  1
  O  O36  1  0.226669  0.956391  0.982851  1
  O  O37  1  0.972325  0.587940  0.352558  1
  O  O38  1  0.627833  0.315225  0.991212  1
  O  O39  1  0.773331  0.043609  0.017149  1
  O  O40  1  0.527675  0.087940  0.852558  1
  O  O41  1  0.544601  0.735799  0.619666  1
  O  O42  1  0.848745  0.183130  0.630702  1
  O  O43  1  0.465614  0.316449  0.631342  1
  O  O44  1  0.955399  0.235799  0.119666  1
  O  O45  1  0.348745  0.316870  0.869298  1
  O  O46  1  0.214219  0.031542  0.234696  1
  O  O47  1  0.604805  0.827993  0.915728  1
  O  O48  1  0.027675  0.412060  0.647442  1
  O  O49  1  0.372167  0.684775  0.008788  1
  O  O50  1  0.849232  0.501633  0.927598  1
  O  O51  1  0.349233  0.998367  0.572402  1
  O  O52  1  0.914199  0.990232  0.306975  1
  O  O53  1  0.872167  0.815225  0.491212  1
  O  O54  1  0.651255  0.683130  0.130702  1
  O  O55  1  0.104805  0.672007  0.584272  1
  O  O56  1  0.044601  0.764201  0.880334  1
  O  O57  1  0.150767  0.498367  0.072402  1
  O  O58  1  0.726669  0.543609  0.517149  1
  O  O59  1  0.414199  0.509768  0.193025  1
  O  O60  1  0.714219  0.468458  0.265304  1
  O  O61  1  0.127833  0.184775  0.508788  1
  O  O62  1  0.273331  0.456391  0.482851  1
  O  O63  1  0.785781  0.968458  0.765304  1
  O  O64  1  0.395195  0.172007  0.084272  1
  O  O65  1  0.472325  0.912060  0.147442  1
  O  O66  1  0.285781  0.531542  0.734696  1
  O  O67  1  0.650768  0.001633  0.427598  1
