# generated using pymatgen
data_NaSbCO2F3
_symmetry_space_group_name_H-M   'P 1'
_cell_length_a   6.42899090
_cell_length_b   8.52205224
_cell_length_c   9.33602677
_cell_angle_alpha   96.33295958
_cell_angle_beta   110.13973647
_cell_angle_gamma   89.99999902
_symmetry_Int_Tables_number   1
_chemical_formula_structural   NaSbCO2F3
_chemical_formula_sum   'Na4 Sb4 C4 O8 F12'
_cell_volume   476.90247639
_cell_formula_units_Z   4
loop_
 _symmetry_equiv_pos_site_id
 _symmetry_equiv_pos_as_xyz
  1  'x, y, z'
loop_
 _atom_site_type_symbol
 _atom_site_label
 _atom_site_symmetry_multiplicity
 _atom_site_fract_x
 _atom_site_fract_y
 _atom_site_fract_z
 _atom_site_occupancy
  Na  Na0  1  0.490728  0.431374  0.211963  1
  Na  Na1  1  0.303361  0.782113  0.370166  1
  Na  Na2  1  0.721235  0.931374  0.211963  1
  Na  Na3  1  0.066805  0.282113  0.370166  1
  Sb  Sb4  1  0.877534  0.503693  0.002205  1
  Sb  Sb5  1  0.917652  0.710183  0.578524  1
  Sb  Sb6  1  0.660872  0.210183  0.578524  1
  Sb  Sb7  1  0.124671  1.003693  0.002205  1
  C  C8  1  0.354771  0.575741  0.852338  1
  C  C9  1  0.288369  0.130100  0.725794  1
  C  C10  1  0.497567  0.075741  0.852338  1
  C  C11  1  0.437424  0.630100  0.725794  1
  O  O12  1  0.684022  0.103718  0.841887  1
  O  O13  1  0.301651  0.703445  0.622714  1
  O  O14  1  0.321063  0.203445  0.622714  1
  O  O15  1  0.157866  0.603718  0.841887  1
  O  O16  1  0.101327  0.098597  0.733670  1
  O  O17  1  0.632342  0.598597  0.733670  1
  O  O18  1  0.492562  0.506324  0.957837  1
  O  O19  1  0.465275  1.006324  0.957837  1
  F  F20  1  0.431232  0.304952  0.404692  1
  F  F21  1  0.833951  0.729420  0.056143  1
  F  F22  1  0.825164  0.416402  0.180389  1
  F  F23  1  0.782408  0.155657  0.402742  1
  F  F24  1  0.973460  0.804952  0.404692  1
  F  F25  1  0.355225  0.916402  0.180389  1
  F  F26  1  0.176262  0.564397  0.174369  1
  F  F27  1  0.956050  0.485383  0.518768  1
  F  F28  1  0.620334  0.655657  0.402742  1
  F  F29  1  0.562718  0.985383  0.518768  1
  F  F30  1  -0.001893  0.064397  0.174369  1
  F  F31  1  0.222191  0.229420  0.056143  1
