# generated using pymatgen
data_NaI3O8
_symmetry_space_group_name_H-M   'P 1'
_cell_length_a   5.93214267
_cell_length_b   8.21111472
_cell_length_c   8.21111472
_cell_angle_alpha   90.00000000
_cell_angle_beta   90.00000000
_cell_angle_gamma   90.00000000
_symmetry_Int_Tables_number   1
_chemical_formula_structural   NaI3O8
_chemical_formula_sum   'Na2 I6 O16'
_cell_volume   399.95932529
_cell_formula_units_Z   2
loop_
 _symmetry_equiv_pos_site_id
 _symmetry_equiv_pos_as_xyz
  1  'x, y, z'
loop_
 _atom_site_type_symbol
 _atom_site_label
 _atom_site_symmetry_multiplicity
 _atom_site_fract_x
 _atom_site_fract_y
 _atom_site_fract_z
 _atom_site_occupancy
  Na  Na0  1  0.500000  0.500000  0.500000  1
  Na  Na1  1  0.500000  0.000000  0.000000  1
  I  I2  1  0.613442  0.500000  0.000000  1
  I  I3  1  0.114519  0.727289  0.249930  1
  I  I4  1  0.386558  0.000000  0.500000  1
  I  I5  1  0.885481  0.249930  0.272711  1
  I  I6  1  0.114519  0.272711  0.750070  1
  I  I7  1  0.885481  0.750070  0.727289  1
  O  O8  1  0.158381  0.490068  0.726719  1
  O  O9  1  0.284481  0.233899  0.930244  1
  O  O10  1  0.804064  0.669293  0.054115  1
  O  O11  1  0.715519  0.069756  0.233899  1
  O  O12  1  0.195936  0.054115  0.330707  1
  O  O13  1  0.841619  0.273281  0.490068  1
  O  O14  1  0.642539  0.409489  0.234701  1
  O  O15  1  0.841619  0.726719  0.509932  1
  O  O16  1  0.357461  0.765299  0.409489  1
  O  O17  1  0.357461  0.234701  0.590511  1
  O  O18  1  0.284481  0.766101  0.069756  1
  O  O19  1  0.195936  0.945885  0.669293  1
  O  O20  1  0.642539  0.590511  0.765299  1
  O  O21  1  0.804064  0.330707  0.945885  1
  O  O22  1  0.715519  0.930244  0.766101  1
  O  O23  1  0.158381  0.509932  0.273281  1
