# generated using pymatgen
data_OsCl4O
_symmetry_space_group_name_H-M   'P 1'
_cell_length_a   6.00873181
_cell_length_b   10.20948170
_cell_length_c   12.73120739
_cell_angle_alpha   110.51700528
_cell_angle_beta   90.00000000
_cell_angle_gamma   90.00000000
_symmetry_Int_Tables_number   1
_chemical_formula_structural   OsCl4O
_chemical_formula_sum   'Os4 Cl16 O4'
_cell_volume   731.46831611
_cell_formula_units_Z   4
loop_
 _symmetry_equiv_pos_site_id
 _symmetry_equiv_pos_as_xyz
  1  'x, y, z'
loop_
 _atom_site_type_symbol
 _atom_site_label
 _atom_site_symmetry_multiplicity
 _atom_site_fract_x
 _atom_site_fract_y
 _atom_site_fract_z
 _atom_site_occupancy
  Os  Os0  1  0.610720  0.770741  0.029775  1
  Os  Os1  1  0.389280  0.229259  0.970225  1
  Os  Os2  1  0.110720  0.229259  0.470225  1
  Os  Os3  1  0.889280  0.770741  0.529775  1
  Cl  Cl4  1  0.336502  0.730620  0.899310  1
  Cl  Cl5  1  0.261682  0.293441  0.827560  1
  Cl  Cl6  1  0.738318  0.706559  0.172440  1
  Cl  Cl7  1  0.836502  0.269380  0.600690  1
  Cl  Cl8  1  0.241576  0.441419  0.581672  1
  Cl  Cl9  1  0.340334  0.884754  0.153270  1
  Cl  Cl10  1  0.159666  0.884754  0.653270  1
  Cl  Cl11  1  0.238318  0.293441  0.327560  1
  Cl  Cl12  1  0.163498  0.730620  0.399310  1
  Cl  Cl13  1  0.761682  0.706559  0.672440  1
  Cl  Cl14  1  0.741576  0.558581  0.918328  1
  Cl  Cl15  1  0.258424  0.441419  0.081672  1
  Cl  Cl16  1  0.663498  0.269380  0.100690  1
  Cl  Cl17  1  0.840334  0.115246  0.346730  1
  Cl  Cl18  1  0.758424  0.558581  0.418328  1
  Cl  Cl19  1  0.659666  0.115246  0.846730  1
  O  O20  1  0.283209  0.107620  0.485055  1
  O  O21  1  0.216791  0.107620  0.985055  1
  O  O22  1  0.783209  0.892380  0.014945  1
  O  O23  1  0.716791  0.892380  0.514945  1
