# generated using pymatgen
data_LaH4C4NO8
_symmetry_space_group_name_H-M   'P 1'
_cell_length_a   5.88515371
_cell_length_b   8.89035232
_cell_length_c   15.95645564
_cell_angle_alpha   90.00000000
_cell_angle_beta   90.00000000
_cell_angle_gamma   92.09279397
_symmetry_Int_Tables_number   1
_chemical_formula_structural   LaH4C4NO8
_chemical_formula_sum   'La4 H16 C16 N4 O32'
_cell_volume   834.30229589
_cell_formula_units_Z   4
loop_
 _symmetry_equiv_pos_site_id
 _symmetry_equiv_pos_as_xyz
  1  'x, y, z'
loop_
 _atom_site_type_symbol
 _atom_site_label
 _atom_site_symmetry_multiplicity
 _atom_site_fract_x
 _atom_site_fract_y
 _atom_site_fract_z
 _atom_site_occupancy
  La  La0  1  0.075692  0.821364  0.599621  1
  La  La1  1  0.075692  0.321364  0.900379  1
  La  La2  1  0.924308  0.178636  0.400379  1
  La  La3  1  0.924308  0.678636  0.099621  1
  H  H4  1  0.317061  0.173744  0.091028  1
  H  H5  1  0.449490  0.924078  0.888866  1
  H  H6  1  0.546558  0.761196  0.363222  1
  H  H7  1  0.550510  0.075922  0.111134  1
  H  H8  1  0.620687  0.365302  0.691115  1
  H  H9  1  0.682939  0.326256  0.591028  1
  H  H10  1  0.682939  0.826256  0.908972  1
  H  H11  1  0.620687  0.865302  0.808885  1
  H  H12  1  0.317061  0.673744  0.408972  1
  H  H13  1  0.546558  0.261196  0.136778  1
  H  H14  1  0.453442  0.238804  0.636778  1
  H  H15  1  0.550510  0.575922  0.388866  1
  H  H16  1  0.453442  0.738804  0.863222  1
  H  H17  1  0.379313  0.634698  0.308885  1
  H  H18  1  0.449490  0.424078  0.611134  1
  H  H19  1  0.379313  0.134698  0.191115  1
  C  C20  1  0.904797  0.538662  0.474916  1
  C  C21  1  0.163129  0.122136  0.727068  1
  C  C22  1  0.163129  0.622136  0.772932  1
  C  C23  1  0.095203  0.961338  0.974916  1
  C  C24  1  0.836871  0.877864  0.272932  1
  C  C25  1  0.580720  0.455471  0.971704  1
  C  C26  1  0.419280  0.044529  0.471704  1
  C  C27  1  0.059361  0.952772  0.237325  1
  C  C28  1  0.940639  0.547228  0.737325  1
  C  C29  1  0.419280  0.544529  0.028296  1
  C  C30  1  0.095203  0.461338  0.525084  1
  C  C31  1  0.836871  0.377864  0.227068  1
  C  C32  1  0.059361  0.452772  0.262675  1
  C  C33  1  0.904797  0.038662  0.025084  1
  C  C34  1  0.940639  0.047228  0.762675  1
  C  C35  1  0.580720  0.955471  0.528296  1
  N  N36  1  0.447822  0.661871  0.367268  1
  N  N37  1  0.552178  0.838129  0.867268  1
  N  N38  1  0.552178  0.338129  0.632732  1
  N  N39  1  0.447822  0.161871  0.132732  1
  O  O40  1  0.242424  0.069729  0.659422  1
  O  O41  1  0.499580  0.157251  0.432671  1
  O  O42  1  0.089052  0.818617  0.974284  1
  O  O43  1  0.757576  0.930271  0.340578  1
  O  O44  1  0.855753  0.933453  0.724191  1
  O  O45  1  0.242424  0.569729  0.840578  1
  O  O46  1  0.861019  0.104921  0.828449  1
  O  O47  1  0.787474  0.504291  0.969701  1
  O  O48  1  0.240958  0.547210  0.561559  1
  O  O49  1  0.749120  0.268702  0.267915  1
  O  O50  1  0.144247  0.066547  0.275809  1
  O  O51  1  0.500420  0.342749  0.932671  1
  O  O52  1  0.240958  0.047210  0.938441  1
  O  O53  1  0.910948  0.681383  0.474284  1
  O  O54  1  0.757576  0.430271  0.159422  1
  O  O55  1  0.212526  0.495709  0.030299  1
  O  O56  1  0.499580  0.657251  0.067329  1
  O  O57  1  0.089052  0.318617  0.525716  1
  O  O58  1  0.855753  0.433453  0.775809  1
  O  O59  1  0.138981  0.395079  0.328449  1
  O  O60  1  0.250880  0.731298  0.732085  1
  O  O61  1  0.910948  0.181383  0.025716  1
  O  O62  1  0.759042  0.952790  0.061559  1
  O  O63  1  0.212526  0.995709  0.469701  1
  O  O64  1  0.759042  0.452790  0.438441  1
  O  O65  1  0.144247  0.566547  0.224191  1
  O  O66  1  0.861019  0.604921  0.671551  1
  O  O67  1  0.500420  0.842749  0.567329  1
  O  O68  1  0.787474  0.004291  0.530299  1
  O  O69  1  0.749120  0.768702  0.232085  1
  O  O70  1  0.250880  0.231298  0.767915  1
  O  O71  1  0.138981  0.895079  0.171551  1
