# generated using pymatgen
data_PdSeO3
_symmetry_space_group_name_H-M   'P 1'
_cell_length_a   5.07788656
_cell_length_b   5.07754739
_cell_length_c   7.26816612
_cell_angle_alpha   110.32606936
_cell_angle_beta   110.32851928
_cell_angle_gamma   89.12111984
_symmetry_Int_Tables_number   1
_chemical_formula_structural   PdSeO3
_chemical_formula_sum   'Pd2 Se2 O6'
_cell_volume   163.59605824
_cell_formula_units_Z   2
loop_
 _symmetry_equiv_pos_site_id
 _symmetry_equiv_pos_as_xyz
  1  'x, y, z'
loop_
 _atom_site_type_symbol
 _atom_site_label
 _atom_site_symmetry_multiplicity
 _atom_site_fract_x
 _atom_site_fract_y
 _atom_site_fract_z
 _atom_site_occupancy
  Se  Se0  1  0.333472  0.333420  0.655602  1
  O  O1  1  0.955989  0.565389  0.279964  1
  O  O2  1  0.565408  0.955983  0.279979  1
  O  O3  1  0.389218  0.389220  0.134714  1
  O  O4  1  0.043992  0.434602  0.720023  1
  Pd  Pd5  1  0.500047  1.000037  1.000025  1
  O  O6  1  0.610782  0.610779  0.865281  1
  Se  Se7  1  0.666527  0.666583  0.344397  1
  Pd  Pd8  1  -0.000038  0.499951  -0.000017  1
  O  O9  1  0.434602  0.044035  0.720031  1
