# generated using pymatgen
data_ZnGaNO
_symmetry_space_group_name_H-M   'P 1'
_cell_length_a   6.53757131
_cell_length_b   6.53757142
_cell_length_c   10.55413889
_cell_angle_alpha   90.00000000
_cell_angle_beta   90.00000000
_cell_angle_gamma   119.99999948
_symmetry_Int_Tables_number   1
_chemical_formula_structural   ZnGaNO
_chemical_formula_sum   'Zn8 Ga8 N8 O8'
_cell_volume   390.64864712
_cell_formula_units_Z   8
loop_
 _symmetry_equiv_pos_site_id
 _symmetry_equiv_pos_as_xyz
  1  'x, y, z'
loop_
 _atom_site_type_symbol
 _atom_site_label
 _atom_site_symmetry_multiplicity
 _atom_site_fract_x
 _atom_site_fract_y
 _atom_site_fract_z
 _atom_site_occupancy
  Zn  Zn0  1  0.666667  0.333333  0.996511  1
  Zn  Zn1  1  0.827364  0.654730  0.737637  1
  Zn  Zn2  1  0.827364  0.172636  0.737637  1
  Zn  Zn3  1  0.674907  0.837453  0.490176  1
  Zn  Zn4  1  0.345270  0.172636  0.737637  1
  Zn  Zn5  1  0.162547  0.325093  0.490176  1
  Zn  Zn6  1  0.333333  0.666667  0.255131  1
  Zn  Zn7  1  0.162547  0.837453  0.490176  1
  Ga  Ga8  1  0.333333  0.666667  0.749213  1
  Ga  Ga9  1  0.169116  0.338231  0.007338  1
  Ga  Ga10  1  0.661769  0.830884  0.007338  1
  Ga  Ga11  1  0.839416  0.678833  0.256185  1
  Ga  Ga12  1  0.666667  0.333333  0.495791  1
  Ga  Ga13  1  0.321167  0.160584  0.256185  1
  Ga  Ga14  1  0.839416  0.160584  0.256185  1
  Ga  Ga15  1  0.169116  0.830884  0.007338  1
  N  N16  1  0.666667  0.333333  0.681994  1
  N  N17  1  0.828010  0.171990  0.435167  1
  N  N18  1  0.828010  0.656020  0.435167  1
  N  N19  1  0.162961  0.837039  0.186460  1
  N  N20  1  0.343980  0.171990  0.435167  1
  N  N21  1  0.333333  0.666667  0.937475  1
  N  N22  1  0.674079  0.837039  0.186460  1
  N  N23  1  0.162961  0.325921  0.186460  1
  O  O24  1  0.173397  0.826603  0.698222  1
  O  O25  1  0.840884  0.159116  0.943893  1
  O  O26  1  0.333333  0.666667  0.446379  1
  O  O27  1  0.666667  0.333333  0.188254  1
  O  O28  1  0.173397  0.346793  0.698222  1
  O  O29  1  0.318231  0.159116  0.943893  1
  O  O30  1  0.840884  0.681769  0.943893  1
  O  O31  1  0.653207  0.826603  0.698222  1
