# generated using pymatgen
data_K2OsCBr5O
_symmetry_space_group_name_H-M   'P 1'
_cell_length_a   7.49103206
_cell_length_b   10.83778644
_cell_length_c   14.76858128
_cell_angle_alpha   90.00000000
_cell_angle_beta   90.00000000
_cell_angle_gamma   90.00000000
_symmetry_Int_Tables_number   1
_chemical_formula_structural   K2OsCBr5O
_chemical_formula_sum   'K8 Os4 C4 Br20 O4'
_cell_volume   1199.00507742
_cell_formula_units_Z   4
loop_
 _symmetry_equiv_pos_site_id
 _symmetry_equiv_pos_as_xyz
  1  'x, y, z'
loop_
 _atom_site_type_symbol
 _atom_site_label
 _atom_site_symmetry_multiplicity
 _atom_site_fract_x
 _atom_site_fract_y
 _atom_site_fract_z
 _atom_site_occupancy
  K  K0  1  0.671516  0.887207  0.146920  1
  K  K1  1  0.327217  0.887863  0.854899  1
  K  K2  1  0.172783  0.887863  0.354899  1
  K  K3  1  0.171516  0.387207  0.353080  1
  K  K4  1  0.827217  0.387863  0.645101  1
  K  K5  1  0.672783  0.387863  0.145101  1
  K  K6  1  0.328484  0.387207  0.853080  1
  K  K7  1  0.828484  0.887207  0.646920  1
  Os  Os8  1  0.809616  0.637308  0.886290  1
  Os  Os9  1  0.190384  0.137308  0.113710  1
  Os  Os10  1  0.309616  0.137308  0.613710  1
  Os  Os11  1  0.690384  0.637308  0.386290  1
  C  C12  1  0.974858  0.636567  0.977574  1
  C  C13  1  0.525142  0.636567  0.477574  1
  C  C14  1  0.025142  0.136567  0.022426  1
  C  C15  1  0.474858  0.136567  0.522426  1
  Br  Br16  1  0.585155  0.640531  0.749086  1
  Br  Br17  1  0.296911  0.904797  0.616643  1
  Br  Br18  1  0.955086  0.638074  0.494135  1
  Br  Br19  1  0.455086  0.138074  0.005865  1
  Br  Br20  1  0.703089  0.404797  0.383357  1
  Br  Br21  1  0.938922  0.135660  0.228476  1
  Br  Br22  1  0.194921  0.369872  0.114637  1
  Br  Br23  1  0.085155  0.140531  0.750914  1
  Br  Br24  1  0.805079  0.869872  0.885363  1
  Br  Br25  1  0.694921  0.869872  0.385363  1
  Br  Br26  1  0.203089  0.904797  0.116643  1
  Br  Br27  1  0.438922  0.635660  0.271524  1
  Br  Br28  1  0.796911  0.404797  0.883357  1
  Br  Br29  1  0.414845  0.140531  0.250914  1
  Br  Br30  1  0.044914  0.138074  0.505865  1
  Br  Br31  1  0.914845  0.640531  0.249086  1
  Br  Br32  1  0.305079  0.369872  0.614637  1
  Br  Br33  1  0.061078  0.635660  0.771524  1
  Br  Br34  1  0.544914  0.638074  0.994135  1
  Br  Br35  1  0.561078  0.135660  0.728476  1
  O  O36  1  0.913514  0.137122  0.966813  1
  O  O37  1  0.413514  0.637122  0.533187  1
  O  O38  1  0.586486  0.137122  0.466813  1
  O  O39  1  0.086486  0.637122  0.033187  1
