# generated using pymatgen
data_Pr4B10O21
_symmetry_space_group_name_H-M   'P 1'
_cell_length_a   7.22232148
_cell_length_b   9.61511111
_cell_length_c   19.68642468
_cell_angle_alpha   90.00000000
_cell_angle_beta   90.00000000
_cell_angle_gamma   93.38952717
_symmetry_Int_Tables_number   1
_chemical_formula_structural   Pr4B10O21
_chemical_formula_sum   'Pr16 B40 O84'
_cell_volume   1364.70120469
_cell_formula_units_Z   4
loop_
 _symmetry_equiv_pos_site_id
 _symmetry_equiv_pos_as_xyz
  1  'x, y, z'
loop_
 _atom_site_type_symbol
 _atom_site_label
 _atom_site_symmetry_multiplicity
 _atom_site_fract_x
 _atom_site_fract_y
 _atom_site_fract_z
 _atom_site_occupancy
  Pr  Pr0  1  0.863778  0.333584  0.082827  1
  Pr  Pr1  1  0.897622  0.823244  0.293442  1
  Pr  Pr2  1  0.845061  0.840349  0.080649  1
  Pr  Pr3  1  0.873240  0.338646  0.299844  1
  Pr  Pr4  1  0.345061  0.340349  0.419351  1
  Pr  Pr5  1  0.373240  0.838646  0.200156  1
  Pr  Pr6  1  0.626760  0.161354  0.799844  1
  Pr  Pr7  1  0.126760  0.661354  0.700156  1
  Pr  Pr8  1  0.654939  0.659651  0.580649  1
  Pr  Pr9  1  0.636222  0.166416  0.582827  1
  Pr  Pr10  1  0.136222  0.666416  0.917173  1
  Pr  Pr11  1  0.397622  0.323244  0.206558  1
  Pr  Pr12  1  0.363778  0.833584  0.417173  1
  Pr  Pr13  1  0.154939  0.159651  0.919351  1
  Pr  Pr14  1  0.102378  0.176756  0.706558  1
  Pr  Pr15  1  0.602378  0.676756  0.793442  1
  B  B16  1  0.954256  0.954614  0.812679  1
  B  B17  1  0.434508  0.954757  0.677177  1
  B  B18  1  0.202490  0.139255  0.076882  1
  B  B19  1  0.045744  0.045386  0.187321  1
  B  B20  1  0.025310  0.556408  0.405097  1
  B  B21  1  0.306464  0.397646  0.021091  1
  B  B22  1  0.806464  0.897646  0.478909  1
  B  B23  1  0.321639  0.380167  0.796945  1
  B  B24  1  0.702490  0.639255  0.423118  1
  B  B25  1  0.702974  0.100419  0.976321  1
  B  B26  1  0.474690  0.943592  0.905097  1
  B  B27  1  0.695677  0.133873  0.428793  1
  B  B28  1  0.454256  0.454614  0.687321  1
  B  B29  1  0.709144  0.121375  0.206825  1
  B  B30  1  0.790856  0.378625  0.706825  1
  B  B31  1  0.934508  0.454757  0.822823  1
  B  B32  1  0.797510  0.860745  0.923118  1
  B  B33  1  0.565492  0.045243  0.322823  1
  B  B34  1  0.985626  0.944850  0.593949  1
  B  B35  1  0.209144  0.621375  0.293175  1
  B  B36  1  0.804323  0.366127  0.928793  1
  B  B37  1  0.514374  0.555150  0.093949  1
  B  B38  1  0.178361  0.119833  0.296945  1
  B  B39  1  0.525310  0.056408  0.094903  1
  B  B40  1  0.014374  0.055150  0.406051  1
  B  B41  1  0.821639  0.880167  0.703055  1
  B  B42  1  0.678361  0.619833  0.203055  1
  B  B43  1  0.290856  0.878625  0.793175  1
  B  B44  1  0.202974  0.600419  0.523679  1
  B  B45  1  0.297026  0.899581  0.023679  1
  B  B46  1  0.304323  0.866127  0.571207  1
  B  B47  1  0.485626  0.444850  0.906051  1
  B  B48  1  0.797026  0.399581  0.476321  1
  B  B49  1  0.195677  0.633873  0.071207  1
  B  B50  1  0.545744  0.545386  0.312679  1
  B  B51  1  0.065492  0.545243  0.177177  1
  B  B52  1  0.974690  0.443592  0.594903  1
  B  B53  1  0.693536  0.602354  0.978909  1
  B  B54  1  0.297510  0.360745  0.576882  1
  B  B55  1  0.193536  0.102354  0.521091  1
  O  O56  1  0.409914  0.861445  0.729755  1
  O  O57  1  0.458409  0.373893  0.624767  1
  O  O58  1  0.049310  0.896978  0.177547  1
  O  O59  1  0.482687  0.902250  0.613116  1
  O  O60  1  0.109837  0.920378  0.766419  1
  O  O61  1  0.546588  0.583894  0.928650  1
  O  O62  1  0.805794  0.742843  0.687806  1
  O  O63  1  0.796064  0.471212  0.982256  1
  O  O64  1  0.716882  0.264022  0.183908  1
  O  O65  1  0.170974  0.275463  0.039491  1
  O  O66  1  0.311302  0.473224  0.525639  1
  O  O67  1  0.664310  0.273655  0.458488  1
  O  O68  1  0.305794  0.242843  0.812194  1
  O  O69  1  0.517313  0.097750  0.386884  1
  O  O70  1  0.194206  0.257157  0.312194  1
  O  O71  1  0.283118  0.735978  0.816092  1
  O  O72  1  0.952178  0.415820  0.427843  1
  O  O73  1  0.372902  0.980944  0.841178  1
  O  O74  1  0.365186  0.361822  0.951746  1
  O  O75  1  0.203936  0.528788  0.017744  1
  O  O76  1  0.865186  0.861822  0.548254  1
  O  O77  1  0.609837  0.420378  0.733581  1
  O  O78  1  0.688698  0.526776  0.474361  1
  O  O79  1  0.157426  0.627104  0.452099  1
  O  O80  1  0.216882  0.764022  0.316092  1
  O  O81  1  0.724239  0.581813  0.269396  1
  O  O82  1  0.950690  0.103022  0.822453  1
  O  O83  1  0.353770  0.634722  0.117596  1
  O  O84  1  0.164310  0.773655  0.041512  1
  O  O85  1  0.571408  0.905670  0.312643  1
  O  O86  1  0.657426  0.127104  0.047901  1
  O  O87  1  0.627098  0.019056  0.158822  1
  O  O88  1  0.909914  0.361445  0.770245  1
  O  O89  1  0.623116  0.518962  0.157039  1
  O  O90  1  0.890163  0.079622  0.233581  1
  O  O91  1  0.775761  0.918187  0.769396  1
  O  O92  1  0.982687  0.402250  0.886884  1
  O  O93  1  0.875261  0.644358  0.386512  1
  O  O94  1  0.541591  0.626107  0.375233  1
  O  O95  1  0.876884  0.981038  0.657039  1
  O  O96  1  0.928592  0.594330  0.812643  1
  O  O97  1  0.811302  0.973224  0.974361  1
  O  O98  1  0.041591  0.126107  0.124767  1
  O  O99  1  0.450690  0.603022  0.677547  1
  O  O100  1  0.428592  0.094330  0.687357  1
  O  O101  1  0.146230  0.865278  0.617596  1
  O  O102  1  0.670974  0.775463  0.460509  1
  O  O103  1  0.853770  0.134722  0.382404  1
  O  O104  1  0.335690  0.726345  0.541512  1
  O  O105  1  0.703936  0.028788  0.482256  1
  O  O106  1  0.375261  0.144359  0.113488  1
  O  O107  1  0.829026  0.724537  0.960509  1
  O  O108  1  0.224239  0.081813  0.230604  1
  O  O109  1  0.296064  0.971212  0.517744  1
  O  O110  1  0.953412  0.916106  0.428650  1
  O  O111  1  0.124739  0.355641  0.613488  1
  O  O112  1  0.046588  0.083894  0.571350  1
  O  O113  1  0.123117  0.018962  0.342961  1
  O  O114  1  0.624739  0.855642  0.886512  1
  O  O115  1  0.835690  0.226345  0.958488  1
  O  O116  1  0.958409  0.873893  0.875233  1
  O  O117  1  0.134814  0.138178  0.451746  1
  O  O118  1  0.071408  0.405670  0.187357  1
  O  O119  1  0.188698  0.026776  0.025639  1
  O  O120  1  0.452178  0.915820  0.072157  1
  O  O121  1  0.376883  0.481038  0.842961  1
  O  O122  1  0.390163  0.579622  0.266419  1
  O  O123  1  0.634814  0.638178  0.048254  1
  O  O124  1  0.646230  0.365278  0.882404  1
  O  O125  1  0.590086  0.138555  0.270245  1
  O  O126  1  0.047822  0.584180  0.572157  1
  O  O127  1  0.275761  0.418187  0.730604  1
  O  O128  1  0.127098  0.519056  0.341178  1
  O  O129  1  0.342574  0.872896  0.952099  1
  O  O130  1  0.872902  0.480944  0.658822  1
  O  O131  1  0.017313  0.597750  0.113116  1
  O  O132  1  0.329026  0.224537  0.539491  1
  O  O133  1  0.783118  0.235978  0.683908  1
  O  O134  1  0.453412  0.416106  0.071350  1
  O  O135  1  0.547822  0.084180  0.927843  1
  O  O136  1  0.694206  0.757157  0.187806  1
  O  O137  1  0.842574  0.372896  0.547901  1
  O  O138  1  0.090086  0.638555  0.229755  1
  O  O139  1  0.549310  0.396978  0.322453  1
