# generated using pymatgen
data_K4NpS2ClO10
_symmetry_space_group_name_H-M   'P 1'
_cell_length_a   4.58222923
_cell_length_b   10.23804134
_cell_length_c   14.53522017
_cell_angle_alpha   103.34220793
_cell_angle_beta   90.00000000
_cell_angle_gamma   90.00000000
_symmetry_Int_Tables_number   1
_chemical_formula_structural   K4NpS2ClO10
_chemical_formula_sum   'K8 Np2 S4 Cl2 O20'
_cell_volume   663.48670377
_cell_formula_units_Z   2
loop_
 _symmetry_equiv_pos_site_id
 _symmetry_equiv_pos_as_xyz
  1  'x, y, z'
loop_
 _atom_site_type_symbol
 _atom_site_label
 _atom_site_symmetry_multiplicity
 _atom_site_fract_x
 _atom_site_fract_y
 _atom_site_fract_z
 _atom_site_occupancy
  K  K0  1  0.764214  0.561055  0.393465  1
  K  K1  1  0.228184  0.564899  0.130076  1
  K  K2  1  0.235786  0.061055  0.893465  1
  K  K3  1  0.235786  0.438945  0.606535  1
  K  K4  1  0.771816  0.435101  0.869924  1
  K  K5  1  0.228184  0.935101  0.369924  1
  K  K6  1  0.764214  0.938945  0.106535  1
  K  K7  1  0.771816  0.064899  0.630076  1
  Np  Np8  1  0.261799  0.250000  0.250000  1
  Np  Np9  1  0.738201  0.750000  0.750000  1
  S  S10  1  0.656650  0.226888  0.431111  1
  S  S11  1  0.343350  0.773112  0.568889  1
  S  S12  1  0.343350  0.726888  0.931111  1
  S  S13  1  0.656650  0.273112  0.068889  1
  Cl  Cl14  1  0.733034  0.750000  0.250000  1
  Cl  Cl15  1  0.266966  0.250000  0.750000  1
  O  O16  1  0.745120  0.162345  0.989500  1
  O  O17  1  0.669306  0.729285  0.918715  1
  O  O18  1  0.738827  0.935726  0.784912  1
  O  O19  1  0.669306  0.770715  0.581285  1
  O  O20  1  0.228700  0.751904  0.838061  1
  O  O21  1  0.254880  0.662345  0.489500  1
  O  O22  1  0.330694  0.229285  0.418715  1
  O  O23  1  0.254880  0.837655  0.010500  1
  O  O24  1  0.771300  0.248096  0.161939  1
  O  O25  1  0.250647  0.594519  0.944101  1
  O  O26  1  0.749353  0.405481  0.055899  1
  O  O27  1  0.250647  0.905481  0.555899  1
  O  O28  1  0.228700  0.748096  0.661939  1
  O  O29  1  0.771300  0.251904  0.338061  1
  O  O30  1  0.745120  0.337655  0.510500  1
  O  O31  1  0.261173  0.435726  0.284912  1
  O  O32  1  0.749353  0.094519  0.444101  1
  O  O33  1  0.261173  0.064274  0.215088  1
  O  O34  1  0.738827  0.564274  0.715088  1
  O  O35  1  0.330694  0.270715  0.081285  1
