# generated using pymatgen
data_SmGePt
_symmetry_space_group_name_H-M   'P 1'
_cell_length_a   4.45630410
_cell_length_b   7.66142828
_cell_length_c   14.44398205
_cell_angle_alpha   90.00000000
_cell_angle_beta   90.00000000
_cell_angle_gamma   90.00000000
_symmetry_Int_Tables_number   1
_chemical_formula_structural   SmGePt
_chemical_formula_sum   'Sm8 Ge8 Pt8'
_cell_volume   493.14144123
_cell_formula_units_Z   8
loop_
 _symmetry_equiv_pos_site_id
 _symmetry_equiv_pos_as_xyz
  1  'x, y, z'
loop_
 _atom_site_type_symbol
 _atom_site_label
 _atom_site_symmetry_multiplicity
 _atom_site_fract_x
 _atom_site_fract_y
 _atom_site_fract_z
 _atom_site_occupancy
  Sm  Sm0  1  0.750000  0.209185  0.997895  1
  Sm  Sm1  1  0.250000  0.790815  0.002105  1
  Sm  Sm2  1  0.750000  0.209185  0.502105  1
  Sm  Sm3  1  0.250000  0.790815  0.497895  1
  Sm  Sm4  1  0.750000  0.292197  0.250000  1
  Sm  Sm5  1  0.250000  0.707803  0.750000  1
  Sm  Sm6  1  0.750000  0.295113  0.750000  1
  Sm  Sm7  1  0.250000  0.704887  0.250000  1
  Pt  Pt8  1  0.750000  0.920457  0.858597  1
  Pt  Pt9  1  0.250000  0.079543  0.141403  1
  Pt  Pt10  1  0.750000  0.920457  0.641403  1
  Pt  Pt11  1  0.250000  0.079543  0.358597  1
  Pt  Pt12  1  0.750000  0.582818  0.401775  1
  Pt  Pt13  1  0.250000  0.417182  0.598225  1
  Pt  Pt14  1  0.750000  0.582818  0.098225  1
  Pt  Pt15  1  0.250000  0.417182  0.901775  1
  Ge  Ge16  1  0.750000  0.589384  0.899112  1
  Ge  Ge17  1  0.250000  0.410616  0.100888  1
  Ge  Ge18  1  0.750000  0.589384  0.600888  1
  Ge  Ge19  1  0.250000  0.410616  0.399112  1
  Ge  Ge20  1  0.750000  0.911200  0.345332  1
  Ge  Ge21  1  0.250000  0.088800  0.654668  1
  Ge  Ge22  1  0.750000  0.911200  0.154668  1
  Ge  Ge23  1  0.250000  0.088800  0.845332  1
