# generated using pymatgen
data_Rb2LiC3S3(OF)9
_symmetry_space_group_name_H-M   'P 1'
_cell_length_a   5.42613314
_cell_length_b   16.59466226
_cell_length_c   20.04586791
_cell_angle_alpha   90.00000356
_cell_angle_beta   89.65729739
_cell_angle_gamma   90.00001363
_symmetry_Int_Tables_number   1
_chemical_formula_structural   Rb2LiC3S3(OF)9
_chemical_formula_sum   'Rb8 Li4 C12 S12 O36 F36'
_cell_volume   1804.99481886
_cell_formula_units_Z   4
loop_
 _symmetry_equiv_pos_site_id
 _symmetry_equiv_pos_as_xyz
  1  'x, y, z'
loop_
 _atom_site_type_symbol
 _atom_site_label
 _atom_site_symmetry_multiplicity
 _atom_site_fract_x
 _atom_site_fract_y
 _atom_site_fract_z
 _atom_site_occupancy
  Rb  Rb0  1  0.976097  0.124463  0.987649  1
  Rb  Rb1  1  0.602436  0.658231  0.723439  1
  Rb  Rb2  1  0.523903  0.624463  0.512351  1
  Rb  Rb3  1  0.023903  0.875537  0.012351  1
  Rb  Rb4  1  0.102436  0.841769  0.223439  1
  Rb  Rb5  1  0.897564  0.158231  0.776561  1
  Rb  Rb6  1  0.397564  0.341769  0.276561  1
  Rb  Rb7  1  0.476097  0.375537  0.487649  1
  Li  Li8  1  0.969179  0.267720  0.574989  1
  Li  Li9  1  0.469179  0.232281  0.074989  1
  Li  Li10  1  0.530821  0.767719  0.925011  1
  Li  Li11  1  0.030821  0.732280  0.425011  1
  C  C12  1  0.951892  0.410386  0.097180  1
  C  C13  1  0.451892  0.089614  0.597180  1
  C  C14  1  0.083076  0.858624  0.610221  1
  C  C15  1  0.548108  0.910386  0.402820  1
  C  C16  1  0.583076  0.641376  0.110221  1
  C  C17  1  0.395232  0.948099  0.806126  1
  C  C18  1  0.104769  0.448099  0.693874  1
  C  C19  1  0.895231  0.551901  0.306126  1
  C  C20  1  0.916924  0.141376  0.389779  1
  C  C21  1  0.416924  0.358624  0.889779  1
  C  C22  1  0.048108  0.589614  0.902820  1
  C  C23  1  0.604768  0.051901  0.193874  1
  S  S24  1  0.044942  0.749479  0.589570  1
  S  S25  1  0.989528  0.467024  0.607469  1
  S  S26  1  0.455058  0.249479  0.910430  1
  S  S27  1  0.955058  0.250521  0.410430  1
  S  S28  1  0.531706  0.807029  0.365843  1
  S  S29  1  0.489527  0.032977  0.107469  1
  S  S30  1  0.544942  0.750521  0.089570  1
  S  S31  1  0.010472  0.532976  0.392531  1
  S  S32  1  0.510473  0.967023  0.892531  1
  S  S33  1  0.468294  0.192971  0.634157  1
  S  S34  1  0.968294  0.307029  0.134157  1
  S  S35  1  0.031706  0.692971  0.865843  1
  O  O36  1  0.868590  0.316888  0.201182  1
  O  O37  1  0.615440  0.754860  0.018703  1
  O  O38  1  0.214805  0.707337  0.633375  1
  O  O39  1  0.296466  0.998477  0.928402  1
  O  O40  1  0.086040  0.613639  0.414918  1
  O  O41  1  0.368590  0.183112  0.701182  1
  O  O42  1  0.884560  0.254860  0.481297  1
  O  O43  1  0.286223  0.976744  0.116998  1
  O  O44  1  0.714805  0.792663  0.133375  1
  O  O45  1  0.115440  0.745140  0.518703  1
  O  O46  1  0.203534  0.498477  0.571598  1
  O  O47  1  0.321215  0.242886  0.589031  1
  O  O48  1  0.215893  0.266141  0.397845  1
  O  O49  1  0.784107  0.733859  0.602155  1
  O  O50  1  0.284107  0.766141  0.102155  1
  O  O51  1  0.913960  0.386361  0.585082  1
  O  O52  1  0.586039  0.886360  0.914918  1
  O  O53  1  0.285195  0.207337  0.866625  1
  O  O54  1  0.413961  0.113640  0.085082  1
  O  O55  1  0.785195  0.292663  0.366625  1
  O  O56  1  0.384560  0.245140  0.981297  1
  O  O57  1  0.631410  0.816888  0.298818  1
  O  O58  1  0.732669  0.211789  0.632808  1
  O  O59  1  0.131410  0.683112  0.798818  1
  O  O60  1  0.703534  0.001523  0.071598  1
  O  O61  1  0.786224  0.523256  0.616998  1
  O  O62  1  0.713777  0.023256  0.883002  1
  O  O63  1  0.267331  0.788211  0.367192  1
  O  O64  1  0.232669  0.288211  0.132808  1
  O  O65  1  0.678785  0.757114  0.410969  1
  O  O66  1  0.796466  0.501523  0.428402  1
  O  O67  1  0.715893  0.233859  0.897845  1
  O  O68  1  0.213776  0.476744  0.383002  1
  O  O69  1  0.178785  0.742886  0.910969  1
  O  O70  1  0.821215  0.257114  0.089031  1
  O  O71  1  0.767331  0.711789  0.867192  1
  F  F72  1  0.089914  0.461661  0.134176  1
  F  F73  1  0.176191  0.379545  0.892261  1
  F  F74  1  0.323809  0.879545  0.607739  1
  F  F75  1  0.996773  0.873316  0.672779  1
  F  F76  1  0.785014  0.936273  0.402100  1
  F  F77  1  0.214986  0.063727  0.597900  1
  F  F78  1  0.536345  0.088923  0.533871  1
  F  F79  1  0.676191  0.120455  0.392261  1
  F  F80  1  0.463655  0.911077  0.466129  1
  F  F81  1  0.910086  0.538339  0.865824  1
  F  F82  1  0.823809  0.620455  0.107739  1
  F  F83  1  0.285015  0.563727  0.902100  1
  F  F84  1  0.503228  0.373316  0.827221  1
  F  F85  1  0.496772  0.626684  0.172779  1
  F  F86  1  0.456236  0.595129  0.066821  1
  F  F87  1  0.956236  0.904871  0.566821  1
  F  F88  1  0.589914  0.038339  0.634176  1
  F  F89  1  0.003227  0.126684  0.327221  1
  F  F90  1  0.176886  0.518747  0.722655  1
  F  F91  1  0.700218  0.602503  0.307278  1
  F  F92  1  0.410086  0.961661  0.365824  1
  F  F93  1  0.200218  0.897497  0.807278  1
  F  F94  1  0.963655  0.588923  0.966129  1
  F  F95  1  0.823114  0.481253  0.277345  1
  F  F96  1  0.714985  0.436273  0.097900  1
  F  F97  1  0.074558  0.584555  0.267426  1
  F  F98  1  0.676886  0.981253  0.222655  1
  F  F99  1  0.799782  0.102503  0.192722  1
  F  F100  1  0.425442  0.084555  0.232574  1
  F  F101  1  0.543764  0.404871  0.933179  1
  F  F102  1  0.299782  0.397497  0.692722  1
  F  F103  1  0.043764  0.095129  0.433179  1
  F  F104  1  0.574558  0.915445  0.767426  1
  F  F105  1  0.323114  0.018747  0.777345  1
  F  F106  1  0.036345  0.411077  0.033871  1
  F  F107  1  0.925442  0.415445  0.732574  1
