# generated using pymatgen
data_Rb(WCl3)3
_symmetry_space_group_name_H-M   'P 1'
_cell_length_a   9.61724832
_cell_length_b   9.61724817
_cell_length_c   8.63294326
_cell_angle_alpha   90.00000000
_cell_angle_beta   90.00000000
_cell_angle_gamma   120.00000053
_symmetry_Int_Tables_number   1
_chemical_formula_structural   Rb(WCl3)3
_chemical_formula_sum   'Rb2 W6 Cl18'
_cell_volume   691.49838269
_cell_formula_units_Z   2
loop_
 _symmetry_equiv_pos_site_id
 _symmetry_equiv_pos_as_xyz
  1  'x, y, z'
loop_
 _atom_site_type_symbol
 _atom_site_label
 _atom_site_symmetry_multiplicity
 _atom_site_fract_x
 _atom_site_fract_y
 _atom_site_fract_z
 _atom_site_occupancy
  Rb  Rb0  1  0.666667  0.333333  0.442853  1
  Rb  Rb1  1  0.333333  0.666667  0.557147  1
  W  W2  1  0.831516  0.813105  0.873283  1
  W  W3  1  0.813105  0.981589  0.126717  1
  W  W4  1  0.018411  0.831516  0.126717  1
  W  W5  1  0.981589  0.168484  0.873283  1
  W  W6  1  0.168484  0.186895  0.126717  1
  W  W7  1  0.186895  0.018411  0.873283  1
  Cl  Cl8  1  0.036913  0.633320  0.300638  1
  Cl  Cl9  1  0.758923  0.171896  0.997925  1
  Cl  Cl10  1  0.828104  0.587027  0.997925  1
  Cl  Cl11  1  0.189256  0.209932  0.689273  1
  Cl  Cl12  1  0.209932  0.020676  0.310727  1
  Cl  Cl13  1  0.979324  0.189256  0.310727  1
  Cl  Cl14  1  0.963087  0.366680  0.699362  1
  Cl  Cl15  1  0.020676  0.810744  0.689273  1
  Cl  Cl16  1  0.810744  0.790068  0.310727  1
  Cl  Cl17  1  0.587027  0.758923  0.002075  1
  Cl  Cl18  1  0.633320  0.596406  0.699362  1
  Cl  Cl19  1  0.412973  0.241077  0.997925  1
  Cl  Cl20  1  0.790068  0.979324  0.689273  1
  Cl  Cl21  1  0.171896  0.412973  0.002075  1
  Cl  Cl22  1  0.596406  0.963087  0.300638  1
  Cl  Cl23  1  0.403594  0.036913  0.699362  1
  Cl  Cl24  1  0.366680  0.403594  0.300638  1
  Cl  Cl25  1  0.241077  0.828104  0.002075  1
