# generated using pymatgen
data_Zr7(NO2)4
_symmetry_space_group_name_H-M   'P 1'
_cell_length_a   8.97187399
_cell_length_b   9.68205432
_cell_length_c   9.63292552
_cell_angle_alpha   120.55903529
_cell_angle_beta   89.49091634
_cell_angle_gamma   90.54589570
_symmetry_Int_Tables_number   1
_chemical_formula_structural   Zr7(NO2)4
_chemical_formula_sum   'Zr21 N12 O24'
_cell_volume   720.51143874
_cell_formula_units_Z   3
loop_
 _symmetry_equiv_pos_site_id
 _symmetry_equiv_pos_as_xyz
  1  'x, y, z'
loop_
 _atom_site_type_symbol
 _atom_site_label
 _atom_site_symmetry_multiplicity
 _atom_site_fract_x
 _atom_site_fract_y
 _atom_site_fract_z
 _atom_site_occupancy
  Zr  Zr0  1  0.656903  0.043151  0.256618  1
  Zr  Zr1  1  0.005912  0.003183  0.010494  1
  Zr  Zr2  1  0.350579  0.249245  0.216506  1
  Zr  Zr3  1  0.676980  0.450156  0.365487  1
  Zr  Zr4  1  0.672611  0.336511  0.677144  1
  Zr  Zr5  1  0.984934  0.882224  0.280215  1
  Zr  Zr6  1  0.314231  0.067638  0.456764  1
  Zr  Zr7  1  0.323578  0.376463  0.923277  1
  Zr  Zr8  1  0.651606  0.215549  0.946886  1
  Zr  Zr9  1  0.339270  0.669851  0.343804  1
  Zr  Zr10  1  0.010274  0.116806  0.698817  1
  Zr  Zr11  1  0.016954  0.274747  0.401334  1
  Zr  Zr12  1  0.683601  0.608071  0.067993  1
  Zr  Zr13  1  0.318291  0.548892  0.613554  1
  Zr  Zr14  1  0.350241  0.941397  0.734664  1
  Zr  Zr15  1  0.683882  0.915910  0.549834  1
  Zr  Zr16  1  0.017255  0.582578  0.883178  1
  Zr  Zr17  1  0.647594  0.734297  0.790094  1
  Zr  Zr18  1  0.343635  0.783483  0.032160  1
  Zr  Zr19  1  0.990261  0.709850  0.589973  1
  Zr  Zr20  1  0.980890  0.400977  0.123435  1
  N  N21  1  0.397787  0.780200  0.817510  1
  N  N22  1  0.221560  0.709298  0.550635  1
  N  N23  1  0.773855  0.149098  0.699908  1
  N  N24  1  0.554876  0.375965  0.883976  1
  N  N25  1  0.731141  0.446870  0.150838  1
  N  N26  1  0.107202  0.815776  0.033241  1
  N  N27  1  0.440551  0.482439  0.366564  1
  N  N28  1  0.064459  0.113539  0.484177  1
  N  N29  1  0.888206  0.042645  0.217317  1
  N  N30  1  0.115602  0.222455  0.177568  1
  N  N31  1  0.782269  0.555798  0.844234  1
  N  N32  1  0.448906  0.889150  0.510918  1
  O  O33  1  0.606097  0.962479  0.788577  1
  O  O34  1  0.612599  0.826529  0.038096  1
  O  O35  1  0.718992  0.692461  0.546798  1
  O  O36  1  0.883154  0.174844  0.973564  1
  O  O37  1  0.945977  0.493204  0.371442  1
  O  O38  1  0.729277  0.851595  0.304549  1
  O  O39  1  0.604817  0.202791  0.178206  1
  O  O40  1  0.395914  0.184901  0.971213  1
  O  O41  1  0.062648  0.518265  0.637901  1
  O  O42  1  0.216513  0.841526  0.306884  1
  O  O43  1  0.114194  0.982340  0.791253  1
  O  O44  1  0.882140  0.808665  0.812567  1
  O  O45  1  0.052228  0.359123  0.880142  1
  O  O46  1  0.271461  0.536115  0.844902  1
  O  O47  1  0.939417  0.629158  0.121918  1
  O  O48  1  0.938107  0.869462  0.511547  1
  O  O49  1  0.385636  0.025796  0.213474  1
  O  O50  1  0.549842  0.508189  0.640230  1
  O  O51  1  0.272765  0.295818  0.455236  1
  O  O52  1  0.780882  0.315736  0.457953  1
  O  O53  1  0.215487  0.475344  0.145882  1
  O  O54  1  0.279228  0.159859  0.704772  1
  O  O55  1  0.447601  0.649090  0.124650  1
  O  O56  1  0.548829  0.141995  0.479229  1
