# generated using pymatgen
data_TiMn2O4
_symmetry_space_group_name_H-M   'P 1'
_cell_length_a   6.23669146
_cell_length_b   6.23669146
_cell_length_c   8.73172617
_cell_angle_alpha   90.00000000
_cell_angle_beta   90.00000000
_cell_angle_gamma   90.00000000
_symmetry_Int_Tables_number   1
_chemical_formula_structural   TiMn2O4
_chemical_formula_sum   'Ti4 Mn8 O16'
_cell_volume   339.63201847
_cell_formula_units_Z   4
loop_
 _symmetry_equiv_pos_site_id
 _symmetry_equiv_pos_as_xyz
  1  'x, y, z'
loop_
 _atom_site_type_symbol
 _atom_site_label
 _atom_site_symmetry_multiplicity
 _atom_site_fract_x
 _atom_site_fract_y
 _atom_site_fract_z
 _atom_site_occupancy
  O  O0  1  0.272088  0.036623  0.996699  1
  O  O1  1  0.963377  0.272088  0.746699  1
  O  O2  1  0.036623  0.727912  0.246699  1
  O  O3  1  0.272088  0.963377  0.503301  1
  O  O4  1  0.727912  0.036623  0.003301  1
  O  O5  1  0.727912  0.963377  0.496699  1
  O  O6  1  0.036623  0.272088  0.253301  1
  O  O7  1  0.963377  0.727912  0.753301  1
  O  O8  1  0.270596  0.485942  0.022751  1
  O  O9  1  0.514058  0.270596  0.772751  1
  O  O10  1  0.485942  0.729404  0.272751  1
  O  O11  1  0.270596  0.514058  0.477249  1
  O  O12  1  0.729404  0.485942  0.977249  1
  O  O13  1  0.729404  0.514058  0.522751  1
  O  O14  1  0.485942  0.270596  0.227249  1
  O  O15  1  0.514058  0.729404  0.727249  1
  Ti  Ti16  1  0.500000  0.244664  0.000000  1
  Ti  Ti17  1  0.755336  0.500000  0.750000  1
  Ti  Ti18  1  0.244664  0.500000  0.250000  1
  Ti  Ti19  1  0.500000  0.755336  0.500000  1
  Mn  Mn20  1  0.000000  0.254961  0.000000  1
  Mn  Mn21  1  0.745039  0.000000  0.750000  1
  Mn  Mn22  1  0.254961  0.000000  0.250000  1
  Mn  Mn23  1  0.000000  0.745039  0.500000  1
  Mn  Mn24  1  0.252170  0.252170  0.625000  1
  Mn  Mn25  1  0.747830  0.252170  0.375000  1
  Mn  Mn26  1  0.252170  0.747830  0.875000  1
  Mn  Mn27  1  0.747830  0.747830  0.125000  1
