# generated using pymatgen
data_CsMnF3
_symmetry_space_group_name_H-M   'P 1'
_cell_length_a   6.33056029
_cell_length_b   6.33056027
_cell_length_c   15.38299142
_cell_angle_alpha   90.00001333
_cell_angle_beta   90.00002636
_cell_angle_gamma   120.00037046
_symmetry_Int_Tables_number   1
_chemical_formula_structural   CsMnF3
_chemical_formula_sum   'Cs6 Mn6 F18'
_cell_volume   533.89285091
_cell_formula_units_Z   6
loop_
 _symmetry_equiv_pos_site_id
 _symmetry_equiv_pos_as_xyz
  1  'x, y, z'
loop_
 _atom_site_type_symbol
 _atom_site_label
 _atom_site_symmetry_multiplicity
 _atom_site_fract_x
 _atom_site_fract_y
 _atom_site_fract_z
 _atom_site_occupancy
  F  F0  1  0.330841  0.165422  0.079260  1
  F  F1  1  0.834579  0.165419  0.420739  1
  F  F2  1  0.834578  0.669160  0.420739  1
  F  F3  1  0.330841  0.165422  0.420739  1
  F  F4  1  0.669160  0.834580  0.920739  1
  F  F5  1  0.165420  0.330843  0.579258  1
  F  F6  1  0.522467  0.044936  0.250000  1
  F  F7  1  0.477532  0.522469  0.750000  1
  F  F8  1  0.044934  0.522467  0.750000  1
  F  F9  1  0.955064  0.477533  0.250000  1
  F  F10  1  0.522469  0.477531  0.250000  1
  F  F11  1  0.477534  0.955064  0.750000  1
  F  F12  1  0.834579  0.669157  0.079261  1
  F  F13  1  0.165420  0.834579  0.579260  1
  F  F14  1  0.669158  0.834578  0.579258  1
  F  F15  1  0.165421  0.330839  0.920739  1
  F  F16  1  0.834580  0.165422  0.079261  1
  F  F17  1  0.165419  0.834579  0.920739  1
  Mn  Mn18  1  1.000001  0.999995  0.000002  1
  Mn  Mn19  1  0.333334  0.666666  0.651818  1
  Mn  Mn20  1  0.666668  0.333337  0.151816  1
  Mn  Mn21  1  0.666663  0.333338  0.348188  1
  Mn  Mn22  1  0.333337  0.666663  0.848186  1
  Mn  Mn23  1  0.000001  0.000001  0.500003  1
  Cs  Cs24  1  1.000000  1.000000  0.250000  1
  Cs  Cs25  1  1.000000  1.000000  0.750000  1
  Cs  Cs26  1  0.333333  0.666667  0.097619  1
  Cs  Cs27  1  0.666667  0.333334  0.597619  1
  Cs  Cs28  1  0.666667  0.333333  0.902379  1
  Cs  Cs29  1  0.333333  0.666667  0.402379  1
