# generated using pymatgen
data_Tb3P4Pd7
_symmetry_space_group_name_H-M   'P 1'
_cell_length_a   4.02176028
_cell_length_b   8.23416391
_cell_length_c   7.97233840
_cell_angle_alpha   71.09456574
_cell_angle_beta   75.39208447
_cell_angle_gamma   75.86326994
_symmetry_Int_Tables_number   1
_chemical_formula_structural   Tb3P4Pd7
_chemical_formula_sum   'Tb3 P4 Pd7'
_cell_volume   237.85545596
_cell_formula_units_Z   1
loop_
 _symmetry_equiv_pos_site_id
 _symmetry_equiv_pos_as_xyz
  1  'x, y, z'
loop_
 _atom_site_type_symbol
 _atom_site_label
 _atom_site_symmetry_multiplicity
 _atom_site_fract_x
 _atom_site_fract_y
 _atom_site_fract_z
 _atom_site_occupancy
  Tb  Tb0  1  0.319419  0.677667  0.683517  1
  Tb  Tb1  1  0.680581  0.322333  0.316483  1
  Tb  Tb2  1  0.000000  0.000000  0.000000  1
  P  P3  1  0.659434  0.745818  0.935334  1
  P  P4  1  0.340566  0.254182  0.064666  1
  P  P5  1  0.106002  0.180040  0.608007  1
  P  P6  1  0.893998  0.819960  0.391993  1
  Pd  Pd7  1  0.694773  0.970454  0.640084  1
  Pd  Pd8  1  0.305227  0.029546  0.359916  1
  Pd  Pd9  1  0.490238  0.283209  0.736360  1
  Pd  Pd10  1  0.167646  0.579304  0.085416  1
  Pd  Pd11  1  0.509762  0.716791  0.263640  1
  Pd  Pd12  1  0.832354  0.420696  0.914584  1
  Pd  Pd13  1  0.000000  0.500000  0.500000  1
