# generated using pymatgen
data_V2Hg2O7
_symmetry_space_group_name_H-M   'P 1'
_cell_length_a   3.67468472
_cell_length_b   7.33646936
_cell_length_c   21.92866674
_cell_angle_alpha   90.00000000
_cell_angle_beta   90.00000000
_cell_angle_gamma   90.00000000
_symmetry_Int_Tables_number   1
_chemical_formula_structural   V2Hg2O7
_chemical_formula_sum   'V8 Hg8 O28'
_cell_volume   591.17957236
_cell_formula_units_Z   4
loop_
 _symmetry_equiv_pos_site_id
 _symmetry_equiv_pos_as_xyz
  1  'x, y, z'
loop_
 _atom_site_type_symbol
 _atom_site_label
 _atom_site_symmetry_multiplicity
 _atom_site_fract_x
 _atom_site_fract_y
 _atom_site_fract_z
 _atom_site_occupancy
  V  V0  1  0.250000  0.697902  0.480484  1
  V  V1  1  0.750000  0.024154  0.119470  1
  V  V2  1  0.250000  0.475846  0.619470  1
  V  V3  1  0.250000  0.975846  0.880530  1
  V  V4  1  0.750000  0.802098  0.980483  1
  V  V5  1  0.750000  0.524154  0.380530  1
  V  V6  1  0.750000  0.302098  0.519517  1
  V  V7  1  0.250000  0.197902  0.019516  1
  Hg  Hg8  1  0.250000  0.465373  0.872045  1
  Hg  Hg9  1  0.750000  0.534627  0.127955  1
  Hg  Hg10  1  0.250000  0.965373  0.627955  1
  Hg  Hg11  1  0.750000  0.034627  0.372045  1
  Hg  Hg12  1  0.250000  0.272293  0.246576  1
  Hg  Hg13  1  0.250000  0.772293  0.253424  1
  Hg  Hg14  1  0.750000  0.227707  0.746576  1
  Hg  Hg15  1  0.750000  0.727707  0.753424  1
  O  O16  1  0.250000  0.529355  0.199766  1
  O  O17  1  0.750000  0.470532  0.595809  1
  O  O18  1  0.250000  0.635265  0.675393  1
  O  O19  1  0.250000  0.738091  0.558566  1
  O  O20  1  0.250000  0.274413  0.660101  1
  O  O21  1  0.250000  0.378707  0.528496  1
  O  O22  1  0.750000  0.864735  0.175393  1
  O  O23  1  0.250000  0.029468  0.095809  1
  O  O24  1  0.750000  0.225587  0.160101  1
  O  O25  1  0.750000  0.121293  0.028496  1
  O  O26  1  0.750000  0.261909  0.441434  1
  O  O27  1  0.250000  0.529468  0.404191  1
  O  O28  1  0.250000  0.238091  0.941434  1
  O  O29  1  0.250000  0.029355  0.300234  1
  O  O30  1  0.750000  0.470645  0.800234  1
  O  O31  1  0.750000  0.600536  0.946441  1
  O  O32  1  0.750000  0.100536  0.553559  1
  O  O33  1  0.750000  0.761909  0.058566  1
  O  O34  1  0.750000  0.364735  0.324607  1
  O  O35  1  0.250000  0.135265  0.824607  1
  O  O36  1  0.750000  0.621293  0.471504  1
  O  O37  1  0.250000  0.878707  0.971504  1
  O  O38  1  0.250000  0.899464  0.446441  1
  O  O39  1  0.750000  0.970645  0.699766  1
  O  O40  1  0.250000  0.774413  0.839899  1
  O  O41  1  0.250000  0.399464  0.053559  1
  O  O42  1  0.750000  0.725587  0.339899  1
  O  O43  1  0.750000  0.970532  0.904191  1
