# generated using pymatgen
data_Cs2MnSe2
_symmetry_space_group_name_H-M   'P 1'
_cell_length_a   6.84138554
_cell_length_b   7.63911400
_cell_length_c   8.86497274
_cell_angle_alpha   115.51513676
_cell_angle_beta   112.66384029
_cell_angle_gamma   89.99256520
_symmetry_Int_Tables_number   1
_chemical_formula_structural   Cs2MnSe2
_chemical_formula_sum   'Cs4 Mn2 Se4'
_cell_volume   378.10223114
_cell_formula_units_Z   2
loop_
 _symmetry_equiv_pos_site_id
 _symmetry_equiv_pos_as_xyz
  1  'x, y, z'
loop_
 _atom_site_type_symbol
 _atom_site_label
 _atom_site_symmetry_multiplicity
 _atom_site_fract_x
 _atom_site_fract_y
 _atom_site_fract_z
 _atom_site_occupancy
  Cs  Cs0  1  0.852652  0.516352  0.705205  1
  Cs  Cs1  1  0.147348  0.483648  0.294795  1
  Cs  Cs2  1  0.647383  0.811119  0.294839  1
  Cs  Cs3  1  0.352617  0.188881  0.705161  1
  Mn  Mn4  1  0.250017  0.999962  1.000000  1
  Mn  Mn5  1  0.749983  0.000038  0.000000  1
  Se  Se6  1  0.904119  0.080744  0.807707  1
  Se  Se7  1  0.404184  0.726992  0.807810  1
  Se  Se8  1  0.095881  0.919256  0.192293  1
  Se  Se9  1  0.595816  0.273008  0.192190  1
