# generated using pymatgen
data_KGdPdO3
_symmetry_space_group_name_H-M   'P 1'
_cell_length_a   3.93953958
_cell_length_b   6.87325775
_cell_length_c   7.55011140
_cell_angle_alpha   103.73946824
_cell_angle_beta   90.00000000
_cell_angle_gamma   106.65359076
_symmetry_Int_Tables_number   1
_chemical_formula_structural   KGdPdO3
_chemical_formula_sum   'K2 Gd2 Pd2 O6'
_cell_volume   189.74873919
_cell_formula_units_Z   2
loop_
 _symmetry_equiv_pos_site_id
 _symmetry_equiv_pos_as_xyz
  1  'x, y, z'
loop_
 _atom_site_type_symbol
 _atom_site_label
 _atom_site_symmetry_multiplicity
 _atom_site_fract_x
 _atom_site_fract_y
 _atom_site_fract_z
 _atom_site_occupancy
  K  K0  1  0.355418  0.710836  0.435270  1
  K  K1  1  0.644582  0.289164  0.564730  1
  Gd  Gd2  1  0.349808  0.699616  0.923832  1
  Gd  Gd3  1  0.650192  0.300384  0.076168  1
  Pd  Pd4  1  0.007756  0.015512  0.777242  1
  Pd  Pd5  1  0.992244  0.984488  0.222758  1
  O  O6  1  0.171670  0.343339  0.870559  1
  O  O7  1  0.152868  0.305736  0.268828  1
  O  O8  1  0.507006  0.014013  0.819058  1
  O  O9  1  0.828330  0.656661  0.129441  1
  O  O10  1  0.492994  0.985987  0.180942  1
  O  O11  1  0.847132  0.694264  0.731172  1
