# generated using pymatgen
data_Rb3Mo4(P2O11)2
_symmetry_space_group_name_H-M   'P 1'
_cell_length_a   10.27448638
_cell_length_b   10.27448639
_cell_length_c   19.60316258
_cell_angle_alpha   90.00000000
_cell_angle_beta   90.00000000
_cell_angle_gamma   90.27597212
_symmetry_Int_Tables_number   1
_chemical_formula_structural   Rb3Mo4(P2O11)2
_chemical_formula_sum   'Rb12 Mo16 P16 O88'
_cell_volume   2069.38523415
_cell_formula_units_Z   4
loop_
 _symmetry_equiv_pos_site_id
 _symmetry_equiv_pos_as_xyz
  1  'x, y, z'
loop_
 _atom_site_type_symbol
 _atom_site_label
 _atom_site_symmetry_multiplicity
 _atom_site_fract_x
 _atom_site_fract_y
 _atom_site_fract_z
 _atom_site_occupancy
  Rb  Rb0  1  0.791938  0.791938  0.000000  1
  Rb  Rb1  1  0.013261  0.112887  0.875373  1
  Rb  Rb2  1  0.387987  0.513361  0.629486  1
  Rb  Rb3  1  0.112887  0.013261  0.124627  1
  Rb  Rb4  1  0.612013  0.486639  0.129486  1
  Rb  Rb5  1  0.887113  0.986739  0.624627  1
  Rb  Rb6  1  0.710785  0.289215  0.750000  1
  Rb  Rb7  1  0.486639  0.612013  0.870514  1
  Rb  Rb8  1  0.986739  0.887113  0.375373  1
  Rb  Rb9  1  0.289215  0.710785  0.250000  1
  Rb  Rb10  1  0.208062  0.208062  0.500000  1
  Rb  Rb11  1  0.513361  0.387987  0.370514  1
  Mo  Mo12  1  0.017373  0.633474  0.560704  1
  Mo  Mo13  1  0.982627  0.366526  0.060704  1
  Mo  Mo14  1  0.391665  0.755770  0.434684  1
  Mo  Mo15  1  0.896196  0.744823  0.814306  1
  Mo  Mo16  1  0.255177  0.103804  0.685694  1
  Mo  Mo17  1  0.516513  0.862170  0.689535  1
  Mo  Mo18  1  0.755770  0.391665  0.565316  1
  Mo  Mo19  1  0.744823  0.896196  0.185694  1
  Mo  Mo20  1  0.137830  0.483487  0.810465  1
  Mo  Mo21  1  0.608335  0.244230  0.934684  1
  Mo  Mo22  1  0.633474  0.017373  0.439296  1
  Mo  Mo23  1  0.103804  0.255177  0.314306  1
  Mo  Mo24  1  0.483487  0.137830  0.189535  1
  Mo  Mo25  1  0.366526  0.982627  0.939296  1
  Mo  Mo26  1  0.244230  0.608335  0.065317  1
  Mo  Mo27  1  0.862170  0.516513  0.310465  1
  P  P28  1  0.738582  0.156329  0.080097  1
  P  P29  1  0.453326  0.857827  0.090443  1
  P  P30  1  0.644323  0.952712  0.840871  1
  P  P31  1  0.764069  0.656492  0.669151  1
  P  P32  1  0.355677  0.047288  0.340871  1
  P  P33  1  0.843671  0.261418  0.419903  1
  P  P34  1  0.857827  0.453326  0.909557  1
  P  P35  1  0.343508  0.235931  0.830849  1
  P  P36  1  0.261418  0.843671  0.580097  1
  P  P37  1  0.142173  0.546674  0.409557  1
  P  P38  1  0.546674  0.142173  0.590443  1
  P  P39  1  0.656492  0.764069  0.330849  1
  P  P40  1  0.235931  0.343508  0.169151  1
  P  P41  1  0.156329  0.738582  0.919903  1
  P  P42  1  0.047288  0.355677  0.659129  1
  P  P43  1  0.952712  0.644323  0.159129  1
  O  O44  1  0.814282  0.399163  0.393406  1
  O  O45  1  0.766583  0.677715  0.358192  1
  O  O46  1  0.977069  0.207260  0.396114  1
  O  O47  1  0.885826  0.523096  0.535931  1
  O  O48  1  0.637667  0.950063  0.761702  1
  O  O49  1  0.230675  0.021838  0.986967  1
  O  O50  1  0.683304  0.905037  0.358473  1
  O  O51  1  0.480924  0.721540  0.734561  1
  O  O52  1  0.730351  0.170622  0.395014  1
  O  O53  1  0.476904  0.114174  0.964069  1
  O  O54  1  0.135938  0.554575  0.490225  1
  O  O55  1  0.677715  0.766583  0.641808  1
  O  O56  1  0.738047  0.155878  0.000662  1
  O  O57  1  0.021838  0.230675  0.013033  1
  O  O58  1  0.355082  0.749655  0.114023  1
  O  O59  1  0.318052  0.907465  0.364030  1
  O  O60  1  0.286619  0.480381  0.145826  1
  O  O61  1  0.170622  0.730351  0.604986  1
  O  O62  1  0.269649  0.829379  0.895014  1
  O  O63  1  0.656155  0.764962  0.251865  1
  O  O64  1  0.407094  0.181202  0.609782  1
  O  O65  1  0.094963  0.316696  0.141527  1
  O  O66  1  0.519619  0.713381  0.354174  1
  O  O67  1  0.864062  0.445425  0.990225  1
  O  O68  1  0.905037  0.683304  0.641527  1
  O  O69  1  0.485451  0.091744  0.374076  1
  O  O70  1  0.480381  0.286619  0.854174  1
  O  O71  1  0.792740  0.022932  0.103886  1
  O  O72  1  0.362333  0.049937  0.261702  1
  O  O73  1  0.022932  0.792740  0.896114  1
  O  O74  1  0.181202  0.407094  0.390218  1
  O  O75  1  0.399163  0.814282  0.606594  1
  O  O76  1  0.681948  0.092535  0.864030  1
  O  O77  1  0.343845  0.235038  0.751865  1
  O  O78  1  0.322285  0.233417  0.141808  1
  O  O79  1  0.930938  0.878992  0.764816  1
  O  O80  1  0.749392  0.854015  0.865220  1
  O  O81  1  0.445425  0.864062  0.009775  1
  O  O82  1  0.145985  0.250608  0.634780  1
  O  O83  1  0.612918  0.013665  0.215821  1
  O  O84  1  0.566588  0.372252  0.986394  1
  O  O85  1  0.978162  0.769325  0.513033  1
  O  O86  1  0.372252  0.566588  0.013606  1
  O  O87  1  0.278460  0.519076  0.765439  1
  O  O88  1  0.986335  0.387082  0.284179  1
  O  O89  1  0.114174  0.476904  0.035931  1
  O  O90  1  0.627748  0.433412  0.513606  1
  O  O91  1  0.985959  0.407450  0.878168  1
  O  O92  1  0.049937  0.362333  0.738298  1
  O  O93  1  0.721540  0.480924  0.265439  1
  O  O94  1  0.749655  0.355082  0.885977  1
  O  O95  1  0.908256  0.514549  0.125924  1
  O  O96  1  0.907465  0.318052  0.635970  1
  O  O97  1  0.644918  0.250345  0.614023  1
  O  O98  1  0.091744  0.485451  0.625924  1
  O  O99  1  0.013665  0.612918  0.784179  1
  O  O100  1  0.844122  0.261953  0.499338  1
  O  O101  1  0.950063  0.637667  0.238298  1
  O  O102  1  0.185718  0.600837  0.893406  1
  O  O103  1  0.554575  0.135938  0.509775  1
  O  O104  1  0.592906  0.818798  0.109782  1
  O  O105  1  0.713381  0.519619  0.645826  1
  O  O106  1  0.407450  0.985959  0.121832  1
  O  O107  1  0.433412  0.627748  0.486394  1
  O  O108  1  0.854015  0.749392  0.134780  1
  O  O109  1  0.818798  0.592906  0.890218  1
  O  O110  1  0.592550  0.014041  0.621832  1
  O  O111  1  0.519076  0.278460  0.234561  1
  O  O112  1  0.829379  0.269649  0.104986  1
  O  O113  1  0.387082  0.986335  0.715821  1
  O  O114  1  0.769325  0.978162  0.486967  1
  O  O115  1  0.261953  0.844122  0.500662  1
  O  O116  1  0.514549  0.908256  0.874076  1
  O  O117  1  0.233417  0.322285  0.858192  1
  O  O118  1  0.316696  0.094963  0.858473  1
  O  O119  1  0.207260  0.977069  0.603886  1
  O  O120  1  0.092535  0.681948  0.135970  1
  O  O121  1  0.121008  0.069062  0.735184  1
  O  O122  1  0.250345  0.644918  0.385977  1
  O  O123  1  0.250608  0.145985  0.365220  1
  O  O124  1  0.235038  0.343845  0.248135  1
  O  O125  1  0.014041  0.592550  0.378168  1
  O  O126  1  0.600837  0.185718  0.106594  1
  O  O127  1  0.069062  0.121008  0.264816  1
  O  O128  1  0.878992  0.930938  0.235184  1
  O  O129  1  0.523096  0.885826  0.464069  1
  O  O130  1  0.764962  0.656155  0.748135  1
  O  O131  1  0.155878  0.738047  0.999338  1
