# generated using pymatgen
data_CrAg3ClO4
_symmetry_space_group_name_H-M   'P 1'
_cell_length_a   5.37069704
_cell_length_b   7.47500311
_cell_length_c   7.47626473
_cell_angle_alpha   90.00005242
_cell_angle_beta   89.99997073
_cell_angle_gamma   89.99999132
_symmetry_Int_Tables_number   1
_chemical_formula_structural   CrAg3ClO4
_chemical_formula_sum   'Cr2 Ag6 Cl2 O8'
_cell_volume   300.14195247
_cell_formula_units_Z   2
loop_
 _symmetry_equiv_pos_site_id
 _symmetry_equiv_pos_as_xyz
  1  'x, y, z'
loop_
 _atom_site_type_symbol
 _atom_site_label
 _atom_site_symmetry_multiplicity
 _atom_site_fract_x
 _atom_site_fract_y
 _atom_site_fract_z
 _atom_site_occupancy
  Cr  Cr0  1  0.999991  0.750008  0.249985  1
  Cr  Cr1  1  0.000002  0.249973  0.749962  1
  Ag  Ag2  1  0.103891  0.250002  0.250004  1
  Ag  Ag3  1  0.500000  0.500001  0.500003  1
  Ag  Ag4  1  0.500000  0.000002  0.500003  1
  Ag  Ag5  1  0.896111  0.750002  0.750003  1
  Ag  Ag6  1  0.500002  0.000001  0.000003  1
  Ag  Ag7  1  0.500001  0.500002  0.000004  1
  Cl  Cl8  1  0.372392  0.750001  0.750003  1
  Cl  Cl9  1  0.627612  0.250002  0.250002  1
  O  O10  1  0.186251  0.568766  0.250001  1
  O  O11  1  0.186251  0.250000  0.931234  1
  O  O12  1  0.186250  0.931235  0.250002  1
  O  O13  1  0.186245  0.250000  0.568778  1
  O  O14  1  0.813756  0.750002  0.431227  1
  O  O15  1  0.813743  0.431242  0.750002  1
  O  O16  1  0.813744  0.068761  0.750002  1
  O  O17  1  0.813759  0.750000  0.068780  1
