# generated using pymatgen
data_UTe4Br5
_symmetry_space_group_name_H-M   'P 1'
_cell_length_a   9.10406692
_cell_length_b   12.54275269
_cell_length_c   14.09616155
_cell_angle_alpha   80.68789937
_cell_angle_beta   77.01045783
_cell_angle_gamma   78.94943519
_symmetry_Int_Tables_number   1
_chemical_formula_structural   UTe4Br5
_chemical_formula_sum   'U4 Te16 Br20'
_cell_volume   1527.46184300
_cell_formula_units_Z   4
loop_
 _symmetry_equiv_pos_site_id
 _symmetry_equiv_pos_as_xyz
  1  'x, y, z'
loop_
 _atom_site_type_symbol
 _atom_site_label
 _atom_site_symmetry_multiplicity
 _atom_site_fract_x
 _atom_site_fract_y
 _atom_site_fract_z
 _atom_site_occupancy
  U  U0  1  0.415088  0.718892  0.237730  1
  U  U1  1  0.584912  0.281108  0.762270  1
  U  U2  1  0.868478  0.804517  0.304941  1
  U  U3  1  0.131522  0.195483  0.695059  1
  Te  Te4  1  0.262656  0.326488  0.118635  1
  Te  Te5  1  0.737344  0.673512  0.881365  1
  Te  Te6  1  0.119530  0.391994  0.303807  1
  Te  Te7  1  0.880470  0.608006  0.696193  1
  Te  Te8  1  0.959973  0.223433  0.375675  1
  Te  Te9  1  0.040027  0.776567  0.624325  1
  Te  Te10  1  0.724371  0.356688  0.295463  1
  Te  Te11  1  0.275629  0.643312  0.704537  1
  Te  Te12  1  0.828168  0.326072  0.093423  1
  Te  Te13  1  0.171832  0.673928  0.906577  1
  Te  Te14  1  0.075612  0.173502  0.113754  1
  Te  Te15  1  0.924388  0.826498  0.886246  1
  Te  Te16  1  0.496612  0.208075  0.358055  1
  Te  Te17  1  0.503388  0.791925  0.641945  1
  Te  Te18  1  0.499669  0.153899  0.183946  1
  Te  Te19  1  0.500331  0.846101  0.816054  1
  Br  Br20  1  0.497486  0.519095  0.143166  1
  Br  Br21  1  0.502514  0.480905  0.856834  1
  Br  Br22  1  0.372827  0.583001  0.407595  1
  Br  Br23  1  0.627173  0.416999  0.592405  1
  Br  Br24  1  0.448825  0.864094  0.070345  1
  Br  Br25  1  0.551175  0.135906  0.929655  1
  Br  Br26  1  0.852742  0.975455  0.153786  1
  Br  Br27  1  0.147258  0.024545  0.846214  1
  Br  Br28  1  0.877602  0.621358  0.436159  1
  Br  Br29  1  0.122398  0.378642  0.563841  1
  Br  Br30  1  0.791679  0.926101  0.466584  1
  Br  Br31  1  0.208321  0.073899  0.533416  1
  Br  Br32  1  0.530713  0.853157  0.347727  1
  Br  Br33  1  0.469287  0.146843  0.652273  1
  Br  Br34  1  0.154898  0.876002  0.318806  1
  Br  Br35  1  0.845102  0.123998  0.681194  1
  Br  Br36  1  0.752331  0.675049  0.189142  1
  Br  Br37  1  0.247669  0.324951  0.810858  1
  Br  Br38  1  0.134319  0.680200  0.180171  1
  Br  Br39  1  0.865681  0.319800  0.819829  1
