# generated using pymatgen
data_CdHgC4(SN)4
_symmetry_space_group_name_H-M   'P 1'
_cell_length_a   4.52936977
_cell_length_b   8.59142131
_cell_length_c   8.59142160
_cell_angle_alpha   86.01564481
_cell_angle_beta   74.71632127
_cell_angle_gamma   74.71631404
_symmetry_Int_Tables_number   1
_chemical_formula_structural   CdHgC4(SN)4
_chemical_formula_sum   'Cd1 Hg1 C4 S4 N4'
_cell_volume   311.09399757
_cell_formula_units_Z   1
loop_
 _symmetry_equiv_pos_site_id
 _symmetry_equiv_pos_as_xyz
  1  'x, y, z'
loop_
 _atom_site_type_symbol
 _atom_site_label
 _atom_site_symmetry_multiplicity
 _atom_site_fract_x
 _atom_site_fract_y
 _atom_site_fract_z
 _atom_site_occupancy
  Cd  Cd0  1  0.750000  0.500000  0.500000  1
  Hg  Hg1  1  0.000000  0.000000  0.000000  1
  C  C2  1  0.136589  0.655378  0.813749  1
  C  C3  1  0.208032  0.186251  0.655378  1
  C  C4  1  0.605716  0.344622  0.186251  1
  C  C5  1  0.049662  0.813749  0.344622  1
  S  S6  1  0.177251  0.971936  0.270536  1
  S  S7  1  0.419723  0.028064  0.729464  1
  S  S8  1  0.850814  0.729464  0.971936  1
  S  S9  1  0.552213  0.270536  0.028064  1
  N  N10  1  -0.037505  0.699923  0.401744  1
  N  N11  1  0.337582  0.598256  0.699923  1
  N  N12  1  0.064162  0.300077  0.598256  1
  N  N13  1  0.635762  0.401744  0.300077  1
