# generated using pymatgen
data_NaSrFeF6
_symmetry_space_group_name_H-M   'P 1'
_cell_length_a   5.47246005
_cell_length_b   9.47588426
_cell_length_c   10.52103344
_cell_angle_alpha   90.00000000
_cell_angle_beta   90.00000000
_cell_angle_gamma   90.00000000
_symmetry_Int_Tables_number   1
_chemical_formula_structural   NaSrFeF6
_chemical_formula_sum   'Na4 Sr4 Fe4 F24'
_cell_volume   545.58289798
_cell_formula_units_Z   4
loop_
 _symmetry_equiv_pos_site_id
 _symmetry_equiv_pos_as_xyz
  1  'x, y, z'
loop_
 _atom_site_type_symbol
 _atom_site_label
 _atom_site_symmetry_multiplicity
 _atom_site_fract_x
 _atom_site_fract_y
 _atom_site_fract_z
 _atom_site_occupancy
  Na  Na0  1  0.042693  0.647478  0.084344  1
  Na  Na1  1  0.542693  0.852522  0.915656  1
  Na  Na2  1  0.457307  0.352522  0.584344  1
  Na  Na3  1  0.957307  0.147478  0.415656  1
  Sr  Sr4  1  0.492914  0.815215  0.323422  1
  Sr  Sr5  1  0.507086  0.315215  0.176578  1
  Sr  Sr6  1  0.007086  0.184785  0.823422  1
  Sr  Sr7  1  0.992914  0.684785  0.676578  1
  Fe  Fe8  1  0.036898  0.000783  0.126284  1
  Fe  Fe9  1  0.536898  0.499217  0.873716  1
  Fe  Fe10  1  0.963102  0.500783  0.373716  1
  Fe  Fe11  1  0.463102  0.999217  0.626284  1
  F  F12  1  0.209906  0.622727  0.295908  1
  F  F13  1  0.140279  0.496106  0.534449  1
  F  F14  1  0.788280  0.643218  0.913110  1
  F  F15  1  0.711720  0.356782  0.413110  1
  F  F16  1  0.859721  0.996106  0.965551  1
  F  F17  1  0.780936  0.659372  0.451502  1
  F  F18  1  0.341050  0.661334  0.817491  1
  F  F19  1  0.158950  0.338666  0.317491  1
  F  F20  1  0.640279  0.003894  0.465551  1
  F  F21  1  0.359721  0.503894  0.034449  1
  F  F22  1  0.219154  0.020889  0.285663  1
  F  F23  1  0.280936  0.840628  0.548498  1
  F  F24  1  0.219064  0.159372  0.048498  1
  F  F25  1  0.780846  0.520889  0.214337  1
  F  F26  1  0.719064  0.340628  0.951502  1
  F  F27  1  0.280846  0.979111  0.785663  1
  F  F28  1  0.719154  0.479111  0.714337  1
  F  F29  1  0.790094  0.122727  0.204092  1
  F  F30  1  0.211720  0.143218  0.586890  1
  F  F31  1  0.290094  0.377273  0.795908  1
  F  F32  1  0.288280  0.856782  0.086890  1
  F  F33  1  0.709906  0.877273  0.704092  1
  F  F34  1  0.658950  0.161334  0.682509  1
  F  F35  1  0.841050  0.838666  0.182509  1
