# generated using pymatgen
data_Nb2PbO6
_symmetry_space_group_name_H-M   'P 1'
_cell_length_a   7.34220959
_cell_length_b   7.34220971
_cell_length_c   7.34221009
_cell_angle_alpha   93.90151145
_cell_angle_beta   93.90151152
_cell_angle_gamma   93.90150664
_symmetry_Int_Tables_number   1
_chemical_formula_structural   Nb2PbO6
_chemical_formula_sum   'Nb6 Pb3 O18'
_cell_volume   392.92032994
_cell_formula_units_Z   3
loop_
 _symmetry_equiv_pos_site_id
 _symmetry_equiv_pos_as_xyz
  1  'x, y, z'
loop_
 _atom_site_type_symbol
 _atom_site_label
 _atom_site_symmetry_multiplicity
 _atom_site_fract_x
 _atom_site_fract_y
 _atom_site_fract_z
 _atom_site_occupancy
  Nb  Nb0  1  0.512580  0.156757  0.814686  1
  Nb  Nb1  1  0.512580  0.814686  0.156757  1
  Nb  Nb2  1  0.156757  0.512580  0.814686  1
  Nb  Nb3  1  0.814686  0.512580  0.156757  1
  Nb  Nb4  1  0.156757  0.814686  0.512580  1
  Nb  Nb5  1  0.814686  0.156757  0.512580  1
  Pb  Pb6  1  0.678624  0.678624  0.678624  1
  Pb  Pb7  1  0.360440  0.360440  0.360440  1
  Pb  Pb8  1  0.987461  0.987461  0.987461  1
  O  O9  1  0.303068  0.303068  0.845289  1
  O  O10  1  0.387327  0.957988  0.681692  1
  O  O11  1  0.054342  0.054342  0.516172  1
  O  O12  1  0.764914  0.047339  0.764914  1
  O  O13  1  0.582898  0.582898  0.292571  1
  O  O14  1  0.303068  0.845289  0.303068  1
  O  O15  1  0.845289  0.303068  0.303068  1
  O  O16  1  0.957988  0.681692  0.387327  1
  O  O17  1  0.047339  0.764914  0.764914  1
  O  O18  1  0.292571  0.582898  0.582898  1
  O  O19  1  0.681692  0.957988  0.387327  1
  O  O20  1  0.054342  0.516172  0.054342  1
  O  O21  1  0.387327  0.681692  0.957988  1
  O  O22  1  0.681692  0.387327  0.957988  1
  O  O23  1  0.957988  0.387327  0.681692  1
  O  O24  1  0.582898  0.292571  0.582898  1
  O  O25  1  0.516172  0.054342  0.054342  1
  O  O26  1  0.764914  0.764914  0.047339  1
