# generated using pymatgen
data_LiMo2AsO9
_symmetry_space_group_name_H-M   'P 1'
_cell_length_a   5.54373841
_cell_length_b   7.72934078
_cell_length_c   9.10571862
_cell_angle_alpha   90.00000000
_cell_angle_beta   90.00000000
_cell_angle_gamma   90.00000000
_symmetry_Int_Tables_number   1
_chemical_formula_structural   LiMo2AsO9
_chemical_formula_sum   'Li2 Mo4 As2 O18'
_cell_volume   390.17497432
_cell_formula_units_Z   2
loop_
 _symmetry_equiv_pos_site_id
 _symmetry_equiv_pos_as_xyz
  1  'x, y, z'
loop_
 _atom_site_type_symbol
 _atom_site_label
 _atom_site_symmetry_multiplicity
 _atom_site_fract_x
 _atom_site_fract_y
 _atom_site_fract_z
 _atom_site_occupancy
  Li  Li0  1  0.250000  0.750000  0.393803  1
  Li  Li1  1  0.750000  0.250000  0.606197  1
  Mo  Mo2  1  0.750000  0.459717  0.259225  1
  Mo  Mo3  1  0.750000  0.040283  0.259225  1
  Mo  Mo4  1  0.250000  0.959717  0.740775  1
  Mo  Mo5  1  0.250000  0.540283  0.740775  1
  As  As6  1  0.250000  0.250000  0.042502  1
  As  As7  1  0.750000  0.750000  0.957498  1
  O  O8  1  0.250000  0.061418  0.941389  1
  O  O9  1  0.505645  0.567839  0.333443  1
  O  O10  1  0.005645  0.432161  0.666557  1
  O  O11  1  0.494355  0.067839  0.666557  1
  O  O12  1  0.250000  0.438582  0.941389  1
  O  O13  1  0.005645  0.067839  0.666557  1
  O  O14  1  0.994355  0.932161  0.333443  1
  O  O15  1  0.494355  0.432161  0.666557  1
  O  O16  1  0.492020  0.750000  0.854924  1
  O  O17  1  0.507980  0.250000  0.145076  1
  O  O18  1  0.750000  0.250000  0.380652  1
  O  O19  1  0.994355  0.567839  0.333443  1
  O  O20  1  0.750000  0.938582  0.058611  1
  O  O21  1  0.750000  0.561418  0.058611  1
  O  O22  1  0.007980  0.750000  0.854924  1
  O  O23  1  0.250000  0.750000  0.619348  1
  O  O24  1  0.505645  0.932161  0.333443  1
  O  O25  1  0.992020  0.250000  0.145076  1
