# generated using pymatgen
data_NpV4O12
_symmetry_space_group_name_H-M   'P 1'
_cell_length_a   8.66627118
_cell_length_b   8.66627143
_cell_length_c   15.83664340
_cell_angle_alpha   105.87946554
_cell_angle_beta   105.87946600
_cell_angle_gamma   89.99999854
_symmetry_Int_Tables_number   1
_chemical_formula_structural   NpV4O12
_chemical_formula_sum   'Np4 V16 O48'
_cell_volume   1096.74629446
_cell_formula_units_Z   4
loop_
 _symmetry_equiv_pos_site_id
 _symmetry_equiv_pos_as_xyz
  1  'x, y, z'
loop_
 _atom_site_type_symbol
 _atom_site_label
 _atom_site_symmetry_multiplicity
 _atom_site_fract_x
 _atom_site_fract_y
 _atom_site_fract_z
 _atom_site_occupancy
  Np  Np0  1  0.875046  0.625046  0.250092  1
  Np  Np1  1  0.124954  0.374954  0.749908  1
  Np  Np2  1  0.625046  0.875046  0.750092  1
  Np  Np3  1  0.374954  0.124954  0.249908  1
  V  V4  1  0.054950  0.803153  0.896891  1
  V  V5  1  0.906263  0.945050  0.603109  1
  V  V6  1  0.554636  0.593521  0.896763  1
  V  V7  1  0.842127  0.303242  0.896763  1
  V  V8  1  0.093737  0.054950  0.396891  1
  V  V9  1  0.658059  0.906263  0.103109  1
  V  V10  1  0.945050  0.196847  0.103109  1
  V  V11  1  0.445364  0.406479  0.103237  1
  V  V12  1  0.593521  0.842127  0.396763  1
  V  V13  1  0.341941  0.093737  0.896891  1
  V  V14  1  0.303242  0.554636  0.396763  1
  V  V15  1  0.696758  0.445364  0.603237  1
  V  V16  1  0.157873  0.696758  0.103237  1
  V  V17  1  0.406479  0.157873  0.603237  1
  V  V18  1  0.196847  0.658059  0.603109  1
  V  V19  1  0.803153  0.341941  0.396891  1
  O  O20  1  0.250506  0.560632  0.500075  1
  O  O21  1  0.789610  0.039610  0.079221  1
  O  O22  1  0.090881  0.641084  0.820227  1
  O  O23  1  0.679516  0.729962  0.320260  1
  O  O24  1  0.861381  0.483564  0.353022  1
  O  O25  1  0.770654  0.820857  0.179773  1
  O  O26  1  0.960390  0.210390  0.420779  1
  O  O27  1  0.138619  0.516436  0.646978  1
  O  O28  1  0.210390  0.960390  0.920779  1
  O  O29  1  0.991641  0.869458  0.353022  1
  O  O30  1  0.859256  0.409701  0.679740  1
  O  O31  1  0.409701  0.320484  0.179740  1
  O  O32  1  0.516436  0.008359  0.146978  1
  O  O33  1  0.270038  0.859256  0.179740  1
  O  O34  1  0.983613  0.361586  0.852838  1
  O  O35  1  0.590299  0.679516  0.820260  1
  O  O36  1  0.289884  0.539884  0.079768  1
  O  O37  1  0.140744  0.590299  0.320260  1
  O  O38  1  0.358916  0.770654  0.679773  1
  O  O39  1  0.749494  0.439368  0.499925  1
  O  O40  1  0.641084  0.229346  0.320227  1
  O  O41  1  0.179143  0.090881  0.320227  1
  O  O42  1  0.008359  0.130542  0.646978  1
  O  O43  1  0.638414  0.630775  0.647162  1
  O  O44  1  0.710116  0.460116  0.920232  1
  O  O45  1  0.361586  0.369225  0.352838  1
  O  O46  1  0.560632  0.749569  0.000075  1
  O  O47  1  0.483564  0.991641  0.853022  1
  O  O48  1  0.869458  0.861381  0.853022  1
  O  O49  1  0.016387  0.638414  0.147162  1
  O  O50  1  0.749569  0.939443  0.500075  1
  O  O51  1  0.539884  0.289884  0.579768  1
  O  O52  1  0.460116  0.710116  0.420232  1
  O  O53  1  0.320484  0.270038  0.679740  1
  O  O54  1  0.229346  0.179143  0.820227  1
  O  O55  1  0.369225  0.491252  0.852838  1
  O  O56  1  0.439368  0.250431  0.999925  1
  O  O57  1  0.820857  0.909119  0.679773  1
  O  O58  1  0.250431  0.060557  0.499925  1
  O  O59  1  0.130542  0.138619  0.146978  1
  O  O60  1  0.630775  0.508748  0.147162  1
  O  O61  1  0.729962  0.140744  0.820260  1
  O  O62  1  0.508748  0.016387  0.647162  1
  O  O63  1  0.491252  0.983613  0.352838  1
  O  O64  1  0.060557  0.749494  0.999925  1
  O  O65  1  0.909119  0.358916  0.179773  1
  O  O66  1  0.939443  0.250506  0.000075  1
  O  O67  1  0.039610  0.789610  0.579221  1
