# generated using pymatgen
data_Pr2Mo4O15
_symmetry_space_group_name_H-M   'P 1'
_cell_length_a   7.52526766
_cell_length_b   7.67425582
_cell_length_c   12.00701467
_cell_angle_alpha   88.67754737
_cell_angle_beta   83.88891868
_cell_angle_gamma   84.44141881
_symmetry_Int_Tables_number   1
_chemical_formula_structural   Pr2Mo4O15
_chemical_formula_sum   'Pr4 Mo8 O30'
_cell_volume   686.17539565
_cell_formula_units_Z   2
loop_
 _symmetry_equiv_pos_site_id
 _symmetry_equiv_pos_as_xyz
  1  'x, y, z'
loop_
 _atom_site_type_symbol
 _atom_site_label
 _atom_site_symmetry_multiplicity
 _atom_site_fract_x
 _atom_site_fract_y
 _atom_site_fract_z
 _atom_site_occupancy
  Pr  Pr0  1  0.243291  0.409986  0.222376  1
  Pr  Pr1  1  0.756709  0.590014  0.777624  1
  Pr  Pr2  1  0.319992  0.910467  0.777147  1
  Pr  Pr3  1  0.680008  0.089533  0.222853  1
  Mo  Mo4  1  0.563302  0.749776  0.474489  1
  Mo  Mo5  1  0.095726  0.668124  0.532317  1
  Mo  Mo6  1  0.772394  0.075088  0.870917  1
  Mo  Mo7  1  0.904274  0.331876  0.467683  1
  Mo  Mo8  1  0.227606  0.924912  0.129083  1
  Mo  Mo9  1  0.726152  0.571907  0.127806  1
  Mo  Mo10  1  0.436698  0.250224  0.525511  1
  Mo  Mo11  1  0.273848  0.428093  0.872194  1
  O  O12  1  0.722985  0.596841  0.980430  1
  O  O13  1  0.377858  0.052062  0.595072  1
  O  O14  1  0.996184  0.001954  0.152993  1
  O  O15  1  0.034389  0.171149  0.531176  1
  O  O16  1  0.332258  0.712763  0.447365  1
  O  O17  1  0.946469  0.491900  0.157261  1
  O  O18  1  0.003816  0.998046  0.847007  1
  O  O19  1  0.707586  0.099506  0.016947  1
  O  O20  1  0.353378  0.091443  0.184993  1
  O  O21  1  0.646622  0.908557  0.815007  1
  O  O22  1  0.416151  0.260581  0.377582  1
  O  O23  1  0.132550  0.765727  0.661052  1
  O  O24  1  0.735025  0.285284  0.804671  1
  O  O25  1  0.297012  0.428053  0.587265  1
  O  O26  1  0.667742  0.287237  0.552635  1
  O  O27  1  0.622142  0.947938  0.404928  1
  O  O28  1  0.053531  0.508100  0.842739  1
  O  O29  1  0.264975  0.714716  0.195329  1
  O  O30  1  0.573077  0.407371  0.179726  1
  O  O31  1  0.277015  0.403159  0.019570  1
  O  O32  1  0.662523  0.783293  0.186637  1
  O  O33  1  0.292414  0.900494  0.983053  1
  O  O34  1  0.702988  0.571947  0.412735  1
  O  O35  1  0.867450  0.234273  0.338948  1
  O  O36  1  0.337477  0.216707  0.813363  1
  O  O37  1  0.917098  0.520779  0.596617  1
  O  O38  1  0.583849  0.739419  0.622418  1
  O  O39  1  0.426923  0.592629  0.820274  1
  O  O40  1  0.082902  0.479221  0.403383  1
  O  O41  1  0.965611  0.828851  0.468824  1
