# generated using pymatgen
data_K3Nb3Si2O13
_symmetry_space_group_name_H-M   'P 1'
_cell_length_a   9.24658263
_cell_length_b   9.24658269
_cell_length_c   7.96645565
_cell_angle_alpha   90.00000000
_cell_angle_beta   90.00000000
_cell_angle_gamma   119.99999983
_symmetry_Int_Tables_number   1
_chemical_formula_structural   K3Nb3Si2O13
_chemical_formula_sum   'K6 Nb6 Si4 O26'
_cell_volume   589.87268766
_cell_formula_units_Z   2
loop_
 _symmetry_equiv_pos_site_id
 _symmetry_equiv_pos_as_xyz
  1  'x, y, z'
loop_
 _atom_site_type_symbol
 _atom_site_label
 _atom_site_symmetry_multiplicity
 _atom_site_fract_x
 _atom_site_fract_y
 _atom_site_fract_z
 _atom_site_occupancy
  K  K0  1  0.383830  0.967715  0.250000  1
  K  K1  1  0.616170  0.583885  0.750000  1
  K  K2  1  0.032285  0.416115  0.250000  1
  K  K3  1  0.583885  0.616170  0.250000  1
  K  K4  1  0.416115  0.032285  0.750000  1
  K  K5  1  0.967715  0.383830  0.750000  1
  Nb  Nb6  1  0.761799  0.000000  0.500000  1
  Nb  Nb7  1  0.761799  0.000000  0.000000  1
  Nb  Nb8  1  0.238201  0.238201  0.000000  1
  Nb  Nb9  1  0.238201  0.238201  0.500000  1
  Nb  Nb10  1  0.000000  0.761799  0.500000  1
  Nb  Nb11  1  0.000000  0.761799  0.000000  1
  Si  Si12  1  0.333333  0.666667  0.955315  1
  Si  Si13  1  0.666667  0.333333  0.044685  1
  Si  Si14  1  0.666667  0.333333  0.455315  1
  Si  Si15  1  0.333333  0.666667  0.544685  1
  O  O16  1  0.488353  0.307436  0.980284  1
  O  O17  1  0.988797  0.743079  0.250000  1
  O  O18  1  0.011203  0.754281  0.750000  1
  O  O19  1  0.743079  0.988797  0.750000  1
  O  O20  1  0.754281  0.011203  0.250000  1
  O  O21  1  0.511647  0.819083  0.480284  1
  O  O22  1  0.180917  0.692564  0.019716  1
  O  O23  1  0.245719  0.256921  0.750000  1
  O  O24  1  0.819083  0.511647  0.980284  1
  O  O25  1  0.692564  0.180917  0.519716  1
  O  O26  1  0.824760  0.824760  0.500000  1
  O  O27  1  0.824760  0.824760  0.000000  1
  O  O28  1  0.692564  0.180917  0.980284  1
  O  O29  1  0.256921  0.245719  0.250000  1
  O  O30  1  0.819083  0.511647  0.519716  1
  O  O31  1  0.307436  0.488353  0.019716  1
  O  O32  1  0.511647  0.819083  0.019716  1
  O  O33  1  0.307436  0.488353  0.480284  1
  O  O34  1  0.175240  0.000000  0.500000  1
  O  O35  1  0.180917  0.692564  0.480284  1
  O  O36  1  0.666667  0.333333  0.250000  1
  O  O37  1  0.000000  0.175240  0.500000  1
  O  O38  1  0.488353  0.307436  0.519716  1
  O  O39  1  0.000000  0.175240  0.000000  1
  O  O40  1  0.175240  0.000000  0.000000  1
  O  O41  1  0.333333  0.666667  0.750000  1
