# generated using pymatgen
data_Er4InIr
_symmetry_space_group_name_H-M   'P 1'
_cell_length_a   9.58663739
_cell_length_b   9.58663744
_cell_length_c   9.58663712
_cell_angle_alpha   60.00000112
_cell_angle_beta   60.00000095
_cell_angle_gamma   59.99999875
_symmetry_Int_Tables_number   1
_chemical_formula_structural   Er4InIr
_chemical_formula_sum   'Er16 In4 Ir4'
_cell_volume   622.99404790
_cell_formula_units_Z   4
loop_
 _symmetry_equiv_pos_site_id
 _symmetry_equiv_pos_as_xyz
  1  'x, y, z'
loop_
 _atom_site_type_symbol
 _atom_site_label
 _atom_site_symmetry_multiplicity
 _atom_site_fract_x
 _atom_site_fract_y
 _atom_site_fract_z
 _atom_site_occupancy
  Er  Er0  1  0.939568  0.560432  0.560432  1
  Er  Er1  1  0.349330  0.349330  0.349330  1
  Er  Er2  1  0.808830  0.191170  0.808830  1
  Er  Er3  1  0.560432  0.939568  0.560432  1
  Er  Er4  1  0.808830  0.191170  0.191170  1
  Er  Er5  1  0.349330  0.952009  0.349330  1
  Er  Er6  1  0.952009  0.349330  0.349330  1
  Er  Er7  1  0.560432  0.560432  0.939568  1
  Er  Er8  1  0.349330  0.349330  0.952009  1
  Er  Er9  1  0.808830  0.808830  0.191170  1
  Er  Er10  1  0.191170  0.808830  0.191170  1
  Er  Er11  1  0.191170  0.191170  0.808830  1
  Er  Er12  1  0.191170  0.808830  0.808830  1
  Er  Er13  1  0.939568  0.939568  0.560432  1
  Er  Er14  1  0.560432  0.939568  0.939568  1
  Er  Er15  1  0.939568  0.560432  0.939568  1
  In  In16  1  0.250778  0.583074  0.583074  1
  In  In17  1  0.583074  0.583074  0.250778  1
  In  In18  1  0.583074  0.583074  0.583074  1
  In  In19  1  0.583074  0.250778  0.583074  1
  Ir  Ir20  1  0.141381  0.575856  0.141381  1
  Ir  Ir21  1  0.575856  0.141381  0.141381  1
  Ir  Ir22  1  0.141381  0.141381  0.575856  1
  Ir  Ir23  1  0.141381  0.141381  0.141381  1
