# generated using pymatgen
data_BaBi12Mo4WO34
_symmetry_space_group_name_H-M   'P 1'
_cell_length_a   5.92513997
_cell_length_b   11.96983088
_cell_length_c   25.57144991
_cell_angle_alpha   102.85772972
_cell_angle_beta   90.00000000
_cell_angle_gamma   90.00000000
_symmetry_Int_Tables_number   1
_chemical_formula_structural   BaBi12Mo4WO34
_chemical_formula_sum   'Ba2 Bi24 Mo8 W2 O68'
_cell_volume   1768.12706049
_cell_formula_units_Z   2
loop_
 _symmetry_equiv_pos_site_id
 _symmetry_equiv_pos_as_xyz
  1  'x, y, z'
loop_
 _atom_site_type_symbol
 _atom_site_label
 _atom_site_symmetry_multiplicity
 _atom_site_fract_x
 _atom_site_fract_y
 _atom_site_fract_z
 _atom_site_occupancy
  Ba  Ba0  1  0.500000  0.500000  0.500000  1
  Ba  Ba1  1  0.500000  0.500000  0.000000  1
  Bi  Bi2  1  0.473471  0.361485  0.321484  1
  Bi  Bi3  1  0.525874  0.736573  0.841344  1
  Bi  Bi4  1  0.028113  0.921345  0.906874  1
  Bi  Bi5  1  0.965785  0.754966  0.102454  1
  Bi  Bi6  1  0.525874  0.263427  0.658656  1
  Bi  Bi7  1  0.071141  0.155947  0.245091  1
  Bi  Bi8  1  0.028113  0.078655  0.593126  1
  Bi  Bi9  1  0.034215  0.245034  0.897546  1
  Bi  Bi10  1  0.569919  0.957652  0.174960  1
  Bi  Bi11  1  0.430081  0.957652  0.674960  1
  Bi  Bi12  1  0.965785  0.245034  0.397546  1
  Bi  Bi13  1  0.526529  0.638515  0.678516  1
  Bi  Bi14  1  0.473471  0.638515  0.178516  1
  Bi  Bi15  1  0.474126  0.263427  0.158656  1
  Bi  Bi16  1  0.971887  0.921345  0.406874  1
  Bi  Bi17  1  0.430081  0.042348  0.825040  1
  Bi  Bi18  1  0.971887  0.078655  0.093126  1
  Bi  Bi19  1  0.474126  0.736573  0.341344  1
  Bi  Bi20  1  0.928859  0.844053  0.754909  1
  Bi  Bi21  1  0.071141  0.844053  0.254909  1
  Bi  Bi22  1  0.034215  0.754966  0.602454  1
  Bi  Bi23  1  0.928859  0.155947  0.745091  1
  Bi  Bi24  1  0.569919  0.042348  0.325040  1
  Bi  Bi25  1  0.526529  0.361485  0.821484  1
  Mo  Mo26  1  0.523556  0.154713  0.986348  1
  Mo  Mo27  1  0.991652  0.576754  0.420037  1
  Mo  Mo28  1  0.991652  0.423246  0.079963  1
  Mo  Mo29  1  0.008348  0.576754  0.920037  1
  Mo  Mo30  1  0.476444  0.845287  0.013652  1
  Mo  Mo31  1  0.476444  0.154713  0.486348  1
  Mo  Mo32  1  0.008348  0.423246  0.579963  1
  Mo  Mo33  1  0.523556  0.845287  0.513652  1
  W  W34  1  0.022149  0.500000  0.750000  1
  W  W35  1  0.977851  0.500000  0.250000  1
  O  O36  1  0.746005  0.502049  0.585266  1
  O  O37  1  0.746005  0.497951  0.914734  1
  O  O38  1  0.413279  0.730055  0.541617  1
  O  O39  1  0.216020  0.235684  0.333733  1
  O  O40  1  0.755901  0.000000  0.250000  1
  O  O41  1  0.623760  0.734726  0.758313  1
  O  O42  1  0.724085  0.866270  0.340898  1
  O  O43  1  0.790065  0.886477  0.547244  1
  O  O44  1  0.764879  0.876840  0.844919  1
  O  O45  1  0.910416  0.064685  0.367482  1
  O  O46  1  0.376240  0.734726  0.258313  1
  O  O47  1  0.235121  0.876840  0.344919  1
  O  O48  1  0.545496  0.795080  0.441942  1
  O  O49  1  0.158066  0.493018  0.192149  1
  O  O50  1  0.322378  0.041104  0.969549  1
  O  O51  1  0.841934  0.506982  0.807851  1
  O  O52  1  0.376240  0.265274  0.241687  1
  O  O53  1  0.253995  0.502049  0.085266  1
  O  O54  1  0.158066  0.506982  0.307851  1
  O  O55  1  0.910416  0.935315  0.132518  1
  O  O56  1  0.253995  0.497951  0.414734  1
  O  O57  1  0.413279  0.269945  0.958383  1
  O  O58  1  0.677622  0.041104  0.469549  1
  O  O59  1  0.076716  0.621302  0.989496  1
  O  O60  1  0.841934  0.493018  0.692149  1
  O  O61  1  0.764879  0.123160  0.655081  1
  O  O62  1  0.586721  0.730055  0.041617  1
  O  O63  1  0.233269  0.523013  0.605864  1
  O  O64  1  0.545496  0.204920  0.058058  1
  O  O65  1  0.923284  0.621302  0.489496  1
  O  O66  1  0.286124  0.771578  0.667946  1
  O  O67  1  0.089584  0.935315  0.632518  1
  O  O68  1  0.790065  0.113523  0.952756  1
  O  O69  1  0.076716  0.378698  0.510504  1
  O  O70  1  0.268059  0.000000  0.250000  1
  O  O71  1  0.010681  0.297309  0.107745  1
  O  O72  1  0.233269  0.476987  0.894136  1
  O  O73  1  0.203474  0.626348  0.758923  1
  O  O74  1  0.923284  0.378698  0.010504  1
  O  O75  1  0.677622  0.958896  0.030451  1
  O  O76  1  0.713876  0.228422  0.332054  1
  O  O77  1  0.766731  0.476987  0.394136  1
  O  O78  1  0.244099  0.000000  0.750000  1
  O  O79  1  0.089584  0.064685  0.867482  1
  O  O80  1  0.209935  0.886477  0.047244  1
  O  O81  1  0.731941  0.000000  0.750000  1
  O  O82  1  0.783980  0.235684  0.833733  1
  O  O83  1  0.724085  0.133730  0.159102  1
  O  O84  1  0.010681  0.702691  0.392255  1
  O  O85  1  0.275915  0.133730  0.659102  1
  O  O86  1  0.454504  0.795080  0.941942  1
  O  O87  1  0.275915  0.866270  0.840898  1
  O  O88  1  0.286124  0.228422  0.832054  1
  O  O89  1  0.216020  0.764316  0.166267  1
  O  O90  1  0.586721  0.269945  0.458383  1
  O  O91  1  0.796526  0.373652  0.241077  1
  O  O92  1  0.454504  0.204920  0.558058  1
  O  O93  1  0.322378  0.958896  0.530451  1
  O  O94  1  0.989319  0.297309  0.607745  1
  O  O95  1  0.783980  0.764316  0.666267  1
  O  O96  1  0.623760  0.265274  0.741687  1
  O  O97  1  0.209935  0.113523  0.452756  1
  O  O98  1  0.203474  0.373652  0.741077  1
  O  O99  1  0.235121  0.123160  0.155081  1
  O  O100  1  0.796526  0.626348  0.258923  1
  O  O101  1  0.989319  0.702691  0.892255  1
  O  O102  1  0.766731  0.523013  0.105864  1
  O  O103  1  0.713876  0.771578  0.167946  1
