# generated using pymatgen
data_P4S9
_symmetry_space_group_name_H-M   'P 1'
_cell_length_a   9.22527731
_cell_length_b   13.27340069
_cell_length_c   13.65792586
_cell_angle_alpha   90.00000000
_cell_angle_beta   90.00000000
_cell_angle_gamma   105.24267081
_symmetry_Int_Tables_number   1
_chemical_formula_structural   P4S9
_chemical_formula_sum   'P16 S36'
_cell_volume   1613.58971278
_cell_formula_units_Z   4
loop_
 _symmetry_equiv_pos_site_id
 _symmetry_equiv_pos_as_xyz
  1  'x, y, z'
loop_
 _atom_site_type_symbol
 _atom_site_label
 _atom_site_symmetry_multiplicity
 _atom_site_fract_x
 _atom_site_fract_y
 _atom_site_fract_z
 _atom_site_occupancy
  P  P0  1  0.386075  0.472584  0.801728  1
  P  P1  1  0.113925  0.027416  0.301728  1
  P  P2  1  0.613925  0.527416  0.198272  1
  P  P3  1  0.886075  0.972584  0.698272  1
  P  P4  1  0.029240  0.508421  0.761577  1
  P  P5  1  0.470760  0.991579  0.261577  1
  P  P6  1  0.970760  0.491579  0.238423  1
  P  P7  1  0.529240  0.008421  0.738423  1
  P  P8  1  0.317456  0.611946  0.597013  1
  P  P9  1  0.182544  0.888054  0.097013  1
  P  P10  1  0.682544  0.388054  0.402987  1
  P  P11  1  0.817456  0.111946  0.902987  1
  P  P12  1  0.163132  0.343945  0.608829  1
  P  P13  1  0.336868  0.156055  0.108829  1
  P  P14  1  0.836868  0.656055  0.391171  1
  P  P15  1  0.663132  0.843945  0.891171  1
  S  S16  1  0.123734  0.635580  0.667188  1
  S  S17  1  0.376266  0.864420  0.167188  1
  S  S18  1  0.876266  0.364420  0.332812  1
  S  S19  1  0.623734  0.135580  0.832812  1
  S  S20  1  0.321874  0.333435  0.716423  1
  S  S21  1  0.178126  0.166565  0.216423  1
  S  S22  1  0.678126  0.666565  0.283577  1
  S  S23  1  0.821874  0.833435  0.783577  1
  S  S24  1  0.103643  0.218027  0.531970  1
  S  S25  1  0.396357  0.281973  0.031970  1
  S  S26  1  0.896357  0.781973  0.468030  1
  S  S27  1  0.603643  0.718027  0.968030  1
  S  S28  1  0.475444  0.598653  0.703913  1
  S  S29  1  0.024556  0.901347  0.203913  1
  S  S30  1  0.524556  0.401347  0.296087  1
  S  S31  1  0.975444  0.098653  0.796087  1
  S  S32  1  0.256328  0.471469  0.514816  1
  S  S33  1  0.243672  0.028531  0.014816  1
  S  S34  1  0.743672  0.528531  0.485184  1
  S  S35  1  0.756328  0.971469  0.985184  1
  S  S36  1  0.398038  0.726761  0.510188  1
  S  S37  1  0.101962  0.773239  0.010188  1
  S  S38  1  0.601962  0.273239  0.489812  1
  S  S39  1  0.898038  0.226761  0.989812  1
  S  S40  1  0.969839  0.369064  0.678173  1
  S  S41  1  0.530161  0.130936  0.178173  1
  S  S42  1  0.030161  0.630936  0.321827  1
  S  S43  1  0.469839  0.869064  0.821827  1
  S  S44  1  0.189141  0.497338  0.867892  1
  S  S45  1  0.310859  0.002662  0.367892  1
  S  S46  1  0.810859  0.502662  0.132108  1
  S  S47  1  0.689141  0.997338  0.632108  1
  S  S48  1  0.850757  0.530075  0.821331  1
  S  S49  1  0.649243  0.969925  0.321331  1
  S  S50  1  0.149243  0.469925  0.178669  1
  S  S51  1  0.350757  0.030075  0.678669  1
