# generated using pymatgen
data_RbScAs2O7
_symmetry_space_group_name_H-M   'P 1'
_cell_length_a   7.97333435
_cell_length_b   8.93610896
_cell_length_c   10.79834299
_cell_angle_alpha   90.00000000
_cell_angle_beta   90.00000000
_cell_angle_gamma   106.51740888
_symmetry_Int_Tables_number   1
_chemical_formula_structural   RbScAs2O7
_chemical_formula_sum   'Rb4 Sc4 As8 O28'
_cell_volume   737.63820865
_cell_formula_units_Z   4
loop_
 _symmetry_equiv_pos_site_id
 _symmetry_equiv_pos_as_xyz
  1  'x, y, z'
loop_
 _atom_site_type_symbol
 _atom_site_label
 _atom_site_symmetry_multiplicity
 _atom_site_fract_x
 _atom_site_fract_y
 _atom_site_fract_z
 _atom_site_occupancy
  Rb  Rb0  1  0.172349  0.550040  0.180239  1
  Rb  Rb1  1  0.172349  0.050040  0.319761  1
  Rb  Rb2  1  0.827651  0.449960  0.819761  1
  Rb  Rb3  1  0.827651  0.949960  0.680239  1
  Sc  Sc4  1  0.764352  0.235710  0.400329  1
  Sc  Sc5  1  0.235648  0.764290  0.599671  1
  Sc  Sc6  1  0.764352  0.735710  0.099671  1
  Sc  Sc7  1  0.235648  0.264290  0.900329  1
  As  As8  1  0.861818  0.165315  0.092080  1
  As  As9  1  0.442660  0.690597  0.861883  1
  As  As10  1  0.138182  0.834685  0.907920  1
  As  As11  1  0.138182  0.334685  0.592080  1
  As  As12  1  0.557340  0.809403  0.361883  1
  As  As13  1  0.442660  0.190597  0.638117  1
  As  As14  1  0.557340  0.309403  0.138117  1
  As  As15  1  0.861818  0.665315  0.407920  1
  O  O16  1  0.547683  0.248174  0.288187  1
  O  O17  1  0.351143  0.820167  0.950537  1
  O  O18  1  0.309086  0.509672  0.891545  1
  O  O19  1  0.452317  0.751826  0.711813  1
  O  O20  1  0.913929  0.245370  0.235256  1
  O  O21  1  0.086071  0.754630  0.764744  1
  O  O22  1  0.000296  0.778292  0.513130  1
  O  O23  1  0.999704  0.721708  0.013130  1
  O  O24  1  0.351143  0.320167  0.549463  1
  O  O25  1  0.851459  0.975046  0.087313  1
  O  O26  1  0.690914  0.490328  0.108455  1
  O  O27  1  0.086071  0.254630  0.735256  1
  O  O28  1  0.351894  0.277977  0.080797  1
  O  O29  1  0.648106  0.222023  0.580797  1
  O  O30  1  0.148541  0.024954  0.912687  1
  O  O31  1  0.000296  0.278292  0.986870  1
  O  O32  1  0.452317  0.251826  0.788187  1
  O  O33  1  0.547683  0.748174  0.211813  1
  O  O34  1  0.690914  0.990328  0.391545  1
  O  O35  1  0.309086  0.009672  0.608455  1
  O  O36  1  0.351894  0.777977  0.419203  1
  O  O37  1  0.648106  0.722023  0.919203  1
  O  O38  1  0.913929  0.745370  0.264744  1
  O  O39  1  0.851459  0.475046  0.412687  1
  O  O40  1  0.999704  0.221708  0.486870  1
  O  O41  1  0.648857  0.679833  0.450537  1
  O  O42  1  0.648857  0.179833  0.049463  1
  O  O43  1  0.148541  0.524954  0.587313  1
