# generated using pymatgen
data_FeH4C3O5
_symmetry_space_group_name_H-M   'P 1'
_cell_length_a   6.28927750
_cell_length_b   9.81336099
_cell_length_c   9.68011859
_cell_angle_alpha   102.84996744
_cell_angle_beta   90.00000000
_cell_angle_gamma   90.00000000
_symmetry_Int_Tables_number   1
_chemical_formula_structural   FeH4C3O5
_chemical_formula_sum   'Fe4 H16 C12 O20'
_cell_volume   582.48416681
_cell_formula_units_Z   4
loop_
 _symmetry_equiv_pos_site_id
 _symmetry_equiv_pos_as_xyz
  1  'x, y, z'
loop_
 _atom_site_type_symbol
 _atom_site_label
 _atom_site_symmetry_multiplicity
 _atom_site_fract_x
 _atom_site_fract_y
 _atom_site_fract_z
 _atom_site_occupancy
  Fe  Fe0  1  0.222907  0.363832  0.662043  1
  Fe  Fe1  1  0.276559  0.634019  0.223188  1
  Fe  Fe2  1  0.723441  0.634019  0.723188  1
  Fe  Fe3  1  0.777093  0.363832  0.162043  1
  H  H4  1  0.682589  0.066482  0.523526  1
  H  H5  1  0.109037  0.921909  0.845505  1
  H  H6  1  0.106268  0.715727  0.618065  1
  H  H7  1  0.880641  0.942394  0.166386  1
  H  H8  1  0.599379  0.286043  0.518549  1
  H  H9  1  0.893732  0.715727  0.118065  1
  H  H10  1  0.591259  0.054578  0.967473  1
  H  H11  1  0.408741  0.054578  0.467473  1
  H  H12  1  0.473650  0.066160  0.649539  1
  H  H13  1  0.526350  0.066160  0.149539  1
  H  H14  1  0.131558  0.946753  0.255263  1
  H  H15  1  0.317411  0.066482  0.023526  1
  H  H16  1  0.868442  0.946753  0.755263  1
  H  H17  1  0.890963  0.921909  0.345505  1
  H  H18  1  0.119359  0.942394  0.666386  1
  H  H19  1  0.400621  0.286043  0.018549  1
  C  C20  1  0.399471  0.575938  0.925832  1
  C  C21  1  0.472478  0.708026  0.498454  1
  C  C22  1  0.600529  0.575938  0.425832  1
  C  C23  1  0.027193  0.899480  0.742775  1
  C  C24  1  0.519331  0.099946  0.553266  1
  C  C25  1  0.480669  0.099946  0.053266  1
  C  C26  1  0.026289  0.288836  0.903020  1
  C  C27  1  0.899352  0.421505  0.890542  1
  C  C28  1  0.973711  0.288836  0.403020  1
  C  C29  1  0.972807  0.899480  0.242775  1
  C  C30  1  0.100648  0.421505  0.390542  1
  C  C31  1  0.527522  0.708026  0.998454  1
  O  O32  1  0.509147  0.251224  0.585286  1
  O  O33  1  0.490853  0.251224  0.085286  1
  O  O34  1  0.976594  0.235757  0.006062  1
  O  O35  1  0.219674  0.473215  0.494181  1
  O  O36  1  0.280937  0.523765  0.006058  1
  O  O37  1  0.998049  0.749983  0.192206  1
  O  O38  1  0.719063  0.523765  0.506058  1
  O  O39  1  0.673018  0.752194  0.928656  1
  O  O40  1  0.479843  0.760257  0.126011  1
  O  O41  1  0.924181  0.469325  0.779173  1
  O  O42  1  0.001951  0.749983  0.692206  1
  O  O43  1  0.023406  0.235757  0.506062  1
  O  O44  1  0.520157  0.760257  0.626011  1
  O  O45  1  0.423427  0.528815  0.792729  1
  O  O46  1  0.576573  0.528815  0.292729  1
  O  O47  1  0.075819  0.469325  0.279173  1
  O  O48  1  0.780326  0.473215  0.994181  1
  O  O49  1  0.827772  0.245008  0.313523  1
  O  O50  1  0.172228  0.245008  0.813523  1
  O  O51  1  0.326982  0.752194  0.428656  1
