# generated using pymatgen
data_AsCS2N2OF5
_symmetry_space_group_name_H-M   'P 1'
_cell_length_a   8.23183592
_cell_length_b   9.43302509
_cell_length_c   10.81344909
_cell_angle_alpha   90.00000000
_cell_angle_beta   90.00000000
_cell_angle_gamma   111.52241717
_symmetry_Int_Tables_number   1
_chemical_formula_structural   AsCS2N2OF5
_chemical_formula_sum   'As4 C4 S8 N8 O4 F20'
_cell_volume   781.12918614
_cell_formula_units_Z   4
loop_
 _symmetry_equiv_pos_site_id
 _symmetry_equiv_pos_as_xyz
  1  'x, y, z'
loop_
 _atom_site_type_symbol
 _atom_site_label
 _atom_site_symmetry_multiplicity
 _atom_site_fract_x
 _atom_site_fract_y
 _atom_site_fract_z
 _atom_site_occupancy
  As  As0  1  0.794399  0.117459  0.876213  1
  As  As1  1  0.294399  0.617459  0.623787  1
  As  As2  1  0.705601  0.382541  0.376213  1
  As  As3  1  0.205601  0.882541  0.123787  1
  C  C4  1  0.680819  0.675395  0.325067  1
  C  C5  1  0.319181  0.324605  0.674933  1
  C  C6  1  0.819181  0.824605  0.825067  1
  C  C7  1  0.180819  0.175395  0.174933  1
  S  S8  1  0.152886  0.224316  0.565911  1
  S  S9  1  0.180848  0.435744  0.178726  1
  S  S10  1  0.680848  0.935744  0.321274  1
  S  S11  1  0.347114  0.275684  0.065911  1
  S  S12  1  0.652886  0.724316  0.934089  1
  S  S13  1  0.319152  0.064256  0.678726  1
  S  S14  1  0.847114  0.775684  0.434089  1
  S  S15  1  0.819152  0.564256  0.821274  1
  N  N16  1  0.174430  0.062081  0.580142  1
  N  N17  1  0.674430  0.562081  0.919858  1
  N  N18  1  0.106705  0.264108  0.227910  1
  N  N19  1  0.325570  0.437919  0.080142  1
  N  N20  1  0.606705  0.764108  0.272090  1
  N  N21  1  0.825570  0.937919  0.419858  1
  N  N22  1  0.393295  0.235892  0.727910  1
  N  N23  1  0.893295  0.735892  0.772090  1
  O  O24  1  0.367590  0.466776  0.703940  1
  O  O25  1  0.632410  0.533224  0.296060  1
  O  O26  1  0.132410  0.033224  0.203940  1
  O  O27  1  0.867590  0.966776  0.796060  1
  F  F28  1  0.075492  0.487016  0.630656  1
  F  F29  1  0.764781  0.240542  0.445542  1
  F  F30  1  0.724192  0.317984  0.226674  1
  F  F31  1  0.775808  0.182016  0.726674  1
  F  F32  1  0.018522  0.233908  0.879579  1
  F  F33  1  0.518522  0.733908  0.620421  1
  F  F34  1  0.481478  0.266092  0.379579  1
  F  F35  1  0.264781  0.740542  0.054458  1
  F  F36  1  0.275808  0.682016  0.773326  1
  F  F37  1  0.317330  0.539715  0.478237  1
  F  F38  1  0.224192  0.817984  0.273326  1
  F  F39  1  0.424508  0.012984  0.130656  1
  F  F40  1  0.235219  0.759458  0.554458  1
  F  F41  1  0.682670  0.460285  0.521763  1
  F  F42  1  0.817330  0.039715  0.021763  1
  F  F43  1  0.575492  0.987016  0.869344  1
  F  F44  1  0.735219  0.259458  0.945542  1
  F  F45  1  0.981478  0.766092  0.120421  1
  F  F46  1  0.182670  0.960285  0.978237  1
  F  F47  1  0.924508  0.512984  0.369344  1
