# generated using pymatgen
data_KBCF6
_symmetry_space_group_name_H-M   'P 1'
_cell_length_a   4.91412905
_cell_length_b   6.43816762
_cell_length_c   16.58957909
_cell_angle_alpha   90.00000000
_cell_angle_beta   90.00000000
_cell_angle_gamma   101.98740599
_symmetry_Int_Tables_number   1
_chemical_formula_structural   KBCF6
_chemical_formula_sum   'K4 B4 C4 F24'
_cell_volume   513.41538475
_cell_formula_units_Z   4
loop_
 _symmetry_equiv_pos_site_id
 _symmetry_equiv_pos_as_xyz
  1  'x, y, z'
loop_
 _atom_site_type_symbol
 _atom_site_label
 _atom_site_symmetry_multiplicity
 _atom_site_fract_x
 _atom_site_fract_y
 _atom_site_fract_z
 _atom_site_occupancy
  K  K0  1  0.819500  0.279920  0.655163  1
  K  K1  1  0.180500  0.220080  0.155163  1
  K  K2  1  0.180500  0.720080  0.344837  1
  K  K3  1  0.819500  0.779920  0.844837  1
  B  B4  1  0.714369  0.152467  0.338916  1
  B  B5  1  0.285631  0.847533  0.661084  1
  B  B6  1  0.714369  0.652467  0.161084  1
  B  B7  1  0.285631  0.347533  0.838916  1
  C  C8  1  0.385932  0.726551  0.582273  1
  C  C9  1  0.614068  0.273449  0.417727  1
  C  C10  1  0.385932  0.226551  0.917727  1
  C  C11  1  0.614068  0.773449  0.082273  1
  F  F12  1  0.586209  0.480149  0.400102  1
  F  F13  1  0.413791  0.519851  0.599898  1
  F  F14  1  0.493953  0.109682  0.281692  1
  F  F15  1  0.586209  0.980149  0.099898  1
  F  F16  1  0.800969  0.296955  0.481222  1
  F  F17  1  0.636759  0.826896  0.551014  1
  F  F18  1  0.636759  0.326896  0.948986  1
  F  F19  1  0.506047  0.890318  0.718308  1
  F  F20  1  0.952247  0.785270  0.196107  1
  F  F21  1  0.775771  0.956289  0.363552  1
  F  F22  1  0.224229  0.543711  0.863552  1
  F  F23  1  0.363241  0.173104  0.448986  1
  F  F24  1  0.047753  0.214730  0.803893  1
  F  F25  1  0.800969  0.796955  0.018778  1
  F  F26  1  0.224229  0.043711  0.636448  1
  F  F27  1  0.413791  0.019851  0.900102  1
  F  F28  1  0.775771  0.456289  0.136448  1
  F  F29  1  0.506047  0.390318  0.781692  1
  F  F30  1  0.047753  0.714730  0.696107  1
  F  F31  1  0.952247  0.285270  0.303893  1
  F  F32  1  0.199031  0.703045  0.518778  1
  F  F33  1  0.363241  0.673104  0.051014  1
  F  F34  1  0.493953  0.609682  0.218308  1
  F  F35  1  0.199031  0.203045  0.981222  1
