# generated using pymatgen
data_Ca3Fe2Cl2O5
_symmetry_space_group_name_H-M   'P 1'
_cell_length_a   3.91603553
_cell_length_b   3.91603421
_cell_length_c   12.14261014
_cell_angle_alpha   99.27956372
_cell_angle_beta   99.27956067
_cell_angle_gamma   90.00000519
_symmetry_Int_Tables_number   1
_chemical_formula_structural   Ca3Fe2Cl2O5
_chemical_formula_sum   'Ca3 Fe2 Cl2 O5'
_cell_volume   181.30439790
_cell_formula_units_Z   1
loop_
 _symmetry_equiv_pos_site_id
 _symmetry_equiv_pos_as_xyz
  1  'x, y, z'
loop_
 _atom_site_type_symbol
 _atom_site_label
 _atom_site_symmetry_multiplicity
 _atom_site_fract_x
 _atom_site_fract_y
 _atom_site_fract_z
 _atom_site_occupancy
  Ca  Ca0  1  0.347557  0.347557  0.695114  1
  Ca  Ca1  1  0.652443  0.652443  0.304886  1
  Ca  Ca2  1  0.500000  0.500000  0.000000  1
  Fe  Fe3  1  0.081375  0.081375  0.162749  1
  Fe  Fe4  1  0.918625  0.918625  0.837251  1
  Cl  Cl5  1  0.202363  0.202363  0.404726  1
  Cl  Cl6  1  0.797637  0.797637  0.595274  1
  O  O7  1  0.407597  0.907597  0.815194  1
  O  O8  1  0.907597  0.407597  0.815194  1
  O  O9  1  0.592403  0.092403  0.184806  1
  O  O10  1  0.092403  0.592403  0.184806  1
  O  O11  1  0.000000  0.000000  0.000000  1
