# generated using pymatgen
data_U6Co
_symmetry_space_group_name_H-M   'P 1'
_cell_length_a   5.15966891
_cell_length_b   7.67461562
_cell_length_c   7.66486921
_cell_angle_alpha   83.49491148
_cell_angle_beta   70.30428384
_cell_angle_gamma   70.35741759
_symmetry_Int_Tables_number   1
_chemical_formula_structural   U6Co
_chemical_formula_sum   'U12 Co2'
_cell_volume   269.13110822
_cell_formula_units_Z   2
loop_
 _symmetry_equiv_pos_site_id
 _symmetry_equiv_pos_as_xyz
  1  'x, y, z'
loop_
 _atom_site_type_symbol
 _atom_site_label
 _atom_site_symmetry_multiplicity
 _atom_site_fract_x
 _atom_site_fract_y
 _atom_site_fract_z
 _atom_site_occupancy
  U  U0  1  0.104717  0.678474  0.111973  1
  U  U1  1  0.594139  0.500000  0.311927  1
  U  U2  1  0.906112  0.687775  0.500000  1
  U  U3  1  0.895283  0.321526  0.888027  1
  U  U4  1  0.405861  0.500000  0.688073  1
  U  U5  1  0.783305  0.111908  0.321287  1
  U  U6  1  0.216695  0.888092  0.678713  1
  U  U7  1  0.395213  0.888092  0.321287  1
  U  U8  1  0.283191  0.321526  0.111973  1
  U  U9  1  0.604787  0.111908  0.678713  1
  U  U10  1  0.093888  0.312225  0.500000  1
  U  U11  1  0.716809  0.678474  0.888027  1
  Co  Co12  1  0.249985  0.000030  0.000000  1
  Co  Co13  1  0.750015  0.999970  0.000000  1
