# generated using pymatgen
data_Yb5(AlSb3)2
_symmetry_space_group_name_H-M   'P 1'
_cell_length_a   4.44039385
_cell_length_b   7.37470171
_cell_length_c   23.10434672
_cell_angle_alpha   90.00000000
_cell_angle_beta   90.00000000
_cell_angle_gamma   90.00000000
_symmetry_Int_Tables_number   1
_chemical_formula_structural   Yb5(AlSb3)2
_chemical_formula_sum   'Yb10 Al4 Sb12'
_cell_volume   756.58834096
_cell_formula_units_Z   2
loop_
 _symmetry_equiv_pos_site_id
 _symmetry_equiv_pos_as_xyz
  1  'x, y, z'
loop_
 _atom_site_type_symbol
 _atom_site_label
 _atom_site_symmetry_multiplicity
 _atom_site_fract_x
 _atom_site_fract_y
 _atom_site_fract_z
 _atom_site_occupancy
  Yb  Yb0  1  0.000000  0.451687  0.909858  1
  Yb  Yb1  1  0.000000  0.267085  0.746872  1
  Yb  Yb2  1  0.000000  0.767085  0.753128  1
  Yb  Yb3  1  0.000000  0.548313  0.090142  1
  Yb  Yb4  1  0.000000  0.951687  0.590142  1
  Yb  Yb5  1  0.000000  0.000000  0.000000  1
  Yb  Yb6  1  0.000000  0.732915  0.253128  1
  Yb  Yb7  1  0.000000  0.048313  0.409858  1
  Yb  Yb8  1  0.000000  0.500000  0.500000  1
  Yb  Yb9  1  0.000000  0.232915  0.246872  1
  Al  Al10  1  0.500000  0.813845  0.878214  1
  Al  Al11  1  0.500000  0.186155  0.121786  1
  Al  Al12  1  0.500000  0.686155  0.378214  1
  Al  Al13  1  0.500000  0.313845  0.621786  1
  Sb  Sb14  1  0.500000  0.803707  0.494738  1
  Sb  Sb15  1  0.000000  0.473772  0.364455  1
  Sb  Sb16  1  0.000000  0.973772  0.135545  1
  Sb  Sb17  1  0.500000  0.512128  0.811739  1
  Sb  Sb18  1  0.500000  0.487872  0.188261  1
  Sb  Sb19  1  0.000000  0.026228  0.864455  1
  Sb  Sb20  1  0.000000  0.526228  0.635545  1
  Sb  Sb21  1  0.500000  0.987872  0.311739  1
  Sb  Sb22  1  0.500000  0.196293  0.505262  1
  Sb  Sb23  1  0.500000  0.012128  0.688261  1
  Sb  Sb24  1  0.500000  0.303707  0.005262  1
  Sb  Sb25  1  0.500000  0.696293  0.994738  1
