# generated using pymatgen
data_BaYFe4O7
_symmetry_space_group_name_H-M   'P 1'
_cell_length_a   6.43259731
_cell_length_b   6.43712586
_cell_length_c   6.42970626
_cell_angle_alpha   59.96679016
_cell_angle_beta   60.03262229
_cell_angle_gamma   59.93176499
_symmetry_Int_Tables_number   1
_chemical_formula_structural   BaYFe4O7
_chemical_formula_sum   'Ba1 Y1 Fe4 O7'
_cell_volume   188.16022614
_cell_formula_units_Z   1
loop_
 _symmetry_equiv_pos_site_id
 _symmetry_equiv_pos_as_xyz
  1  'x, y, z'
loop_
 _atom_site_type_symbol
 _atom_site_label
 _atom_site_symmetry_multiplicity
 _atom_site_fract_x
 _atom_site_fract_y
 _atom_site_fract_z
 _atom_site_occupancy
  Ba  Ba0  1  0.750046  0.749997  0.750076  1
  Y  Y1  1  0.000032  0.999967  0.000086  1
  Fe  Fe2  1  0.378911  0.378616  0.864055  1
  Fe  Fe3  1  0.378670  0.378819  0.378322  1
  Fe  Fe4  1  0.864144  0.378412  0.378785  1
  Fe  Fe5  1  0.378287  0.864238  0.378537  1
  O  O6  1  0.248617  0.248383  0.751463  1
  O  O7  1  0.751473  0.751495  0.248553  1
  O  O8  1  0.751368  0.248658  0.751354  1
  O  O9  1  0.248662  0.751296  0.248754  1
  O  O10  1  0.248523  0.751536  0.751472  1
  O  O11  1  0.751339  0.248533  0.248648  1
  O  O12  1  0.249927  0.250050  0.249894  1
