# generated using pymatgen
data_Ge4PbO9
_symmetry_space_group_name_H-M   'P 1'
_cell_length_a   4.71793802
_cell_length_b   6.91453079
_cell_length_c   6.91453090
_cell_angle_alpha   114.48911460
_cell_angle_beta   103.29416344
_cell_angle_gamma   103.29415955
_symmetry_Int_Tables_number   1
_chemical_formula_structural   Ge4PbO9
_chemical_formula_sum   'Ge4 Pb1 O9'
_cell_volume   185.81402777
_cell_formula_units_Z   1
loop_
 _symmetry_equiv_pos_site_id
 _symmetry_equiv_pos_as_xyz
  1  'x, y, z'
loop_
 _atom_site_type_symbol
 _atom_site_label
 _atom_site_symmetry_multiplicity
 _atom_site_fract_x
 _atom_site_fract_y
 _atom_site_fract_z
 _atom_site_occupancy
  Ge  Ge0  1  0.500000  0.487112  0.512888  1
  Ge  Ge1  1  0.683057  0.487159  0.070898  1
  Ge  Ge2  1  1.000000  0.308161  0.691839  1
  Ge  Ge3  1  0.316943  0.929102  0.512841  1
  Pb  Pb4  1  0.000000  0.000060  0.999940  1
  O  O5  1  0.602650  0.094388  0.462393  1
  O  O6  1  0.397350  0.537607  0.905612  1
  O  O7  1  0.845498  0.288975  0.926466  1
  O  O8  1  0.866395  0.554286  0.711628  1
  O  O9  1  0.154502  0.073534  0.711025  1
  O  O10  1  0.133605  0.288372  0.445714  1
  O  O11  1  0.514402  0.378676  0.229815  1
  O  O12  1  0.000000  0.755782  0.244218  1
  O  O13  1  0.485598  0.770185  0.621324  1
