# generated using pymatgen
data_Mn3Si(O2F)2
_symmetry_space_group_name_H-M   'P 1'
_cell_length_a   4.92629426
_cell_length_b   9.32330271
_cell_length_c   10.96064086
_cell_angle_alpha   90.00000000
_cell_angle_beta   90.00000000
_cell_angle_gamma   90.00000000
_symmetry_Int_Tables_number   1
_chemical_formula_structural   Mn3Si(O2F)2
_chemical_formula_sum   'Mn12 Si4 O16 F8'
_cell_volume   503.41491984
_cell_formula_units_Z   4
loop_
 _symmetry_equiv_pos_site_id
 _symmetry_equiv_pos_as_xyz
  1  'x, y, z'
loop_
 _atom_site_type_symbol
 _atom_site_label
 _atom_site_symmetry_multiplicity
 _atom_site_fract_x
 _atom_site_fract_y
 _atom_site_fract_z
 _atom_site_occupancy
  Mn  Mn0  1  0.993489  0.750000  0.088123  1
  Mn  Mn1  1  0.985505  0.429942  0.637534  1
  Mn  Mn2  1  0.485505  0.929942  0.862466  1
  Mn  Mn3  1  0.985505  0.070058  0.637534  1
  Mn  Mn4  1  0.014495  0.929942  0.362466  1
  Mn  Mn5  1  0.006511  0.250000  0.911877  1
  Mn  Mn6  1  0.514495  0.429942  0.137534  1
  Mn  Mn7  1  0.485505  0.570058  0.862466  1
  Mn  Mn8  1  0.014495  0.570058  0.362466  1
  Mn  Mn9  1  0.506511  0.750000  0.588123  1
  Mn  Mn10  1  0.514495  0.070058  0.137534  1
  Mn  Mn11  1  0.493489  0.250000  0.411877  1
  Si  Si12  1  0.421416  0.250000  0.721196  1
  Si  Si13  1  0.578584  0.750000  0.278804  1
  Si  Si14  1  0.078584  0.250000  0.221196  1
  Si  Si15  1  0.921416  0.750000  0.778804  1
  O  O16  1  0.246601  0.750000  0.277008  1
  O  O17  1  0.753399  0.250000  0.722992  1
  O  O18  1  0.215371  0.250000  0.082791  1
  O  O19  1  0.220967  0.110132  0.290585  1
  O  O20  1  0.279033  0.389868  0.790585  1
  O  O21  1  0.284629  0.250000  0.582791  1
  O  O22  1  0.220967  0.389868  0.290585  1
  O  O23  1  0.779033  0.889868  0.709415  1
  O  O24  1  0.720967  0.889868  0.209415  1
  O  O25  1  0.715371  0.750000  0.417209  1
  O  O26  1  0.720967  0.610132  0.209415  1
  O  O27  1  0.746601  0.250000  0.222992  1
  O  O28  1  0.253399  0.750000  0.777008  1
  O  O29  1  0.279033  0.110132  0.790585  1
  O  O30  1  0.784629  0.750000  0.917209  1
  O  O31  1  0.779033  0.610132  0.709415  1
  F  F32  1  0.768428  0.417171  0.467794  1
  F  F33  1  0.268428  0.582829  0.032206  1
  F  F34  1  0.268428  0.917171  0.032206  1
  F  F35  1  0.731572  0.417171  0.967794  1
  F  F36  1  0.768428  0.082829  0.467794  1
  F  F37  1  0.231572  0.582829  0.532206  1
  F  F38  1  0.231572  0.917171  0.532206  1
  F  F39  1  0.731572  0.082829  0.967794  1
