# generated using pymatgen
data_Sn(Mo2O3)2
_symmetry_space_group_name_H-M   'P 1'
_cell_length_a   3.21977182
_cell_length_b   9.78582434
_cell_length_c   9.78582434
_cell_angle_alpha   90.00000000
_cell_angle_beta   90.00000000
_cell_angle_gamma   90.00000000
_symmetry_Int_Tables_number   1
_chemical_formula_structural   Sn(Mo2O3)2
_chemical_formula_sum   'Sn2 Mo8 O12'
_cell_volume   308.33294175
_cell_formula_units_Z   2
loop_
 _symmetry_equiv_pos_site_id
 _symmetry_equiv_pos_as_xyz
  1  'x, y, z'
loop_
 _atom_site_type_symbol
 _atom_site_label
 _atom_site_symmetry_multiplicity
 _atom_site_fract_x
 _atom_site_fract_y
 _atom_site_fract_z
 _atom_site_occupancy
  Sn  Sn0  1  0.000000  0.000000  0.000000  1
  Sn  Sn1  1  0.000000  0.500000  0.500000  1
  Mo  Mo2  1  0.000000  0.388271  0.111729  1
  Mo  Mo3  1  0.000000  0.888271  0.388271  1
  Mo  Mo4  1  0.000000  0.111729  0.611729  1
  Mo  Mo5  1  0.000000  0.611729  0.888271  1
  Mo  Mo6  1  0.500000  0.649364  0.149364  1
  Mo  Mo7  1  0.500000  0.850636  0.649364  1
  Mo  Mo8  1  0.500000  0.149364  0.350636  1
  Mo  Mo9  1  0.500000  0.350636  0.850636  1
  O  O10  1  0.500000  0.295821  0.204179  1
  O  O11  1  0.500000  0.795821  0.295821  1
  O  O12  1  0.500000  0.204179  0.704179  1
  O  O13  1  0.500000  0.704179  0.795821  1
  O  O14  1  0.000000  0.239930  0.950862  1
  O  O15  1  0.000000  0.049138  0.239930  1
  O  O16  1  0.000000  0.950862  0.760070  1
  O  O17  1  0.000000  0.760070  0.049138  1
  O  O18  1  0.000000  0.739930  0.549138  1
  O  O19  1  0.000000  0.260070  0.450862  1
  O  O20  1  0.000000  0.450862  0.739930  1
  O  O21  1  0.000000  0.549138  0.260070  1
