# generated using pymatgen
data_RbGd(PO3)4
_symmetry_space_group_name_H-M   'P 1'
_cell_length_a   9.05160438
_cell_length_b   10.51824398
_cell_length_c   11.12019914
_cell_angle_alpha   106.42815882
_cell_angle_beta   90.00000000
_cell_angle_gamma   90.00000000
_symmetry_Int_Tables_number   1
_chemical_formula_structural   RbGd(PO3)4
_chemical_formula_sum   'Rb4 Gd4 P16 O48'
_cell_volume   1015.49844835
_cell_formula_units_Z   4
loop_
 _symmetry_equiv_pos_site_id
 _symmetry_equiv_pos_as_xyz
  1  'x, y, z'
loop_
 _atom_site_type_symbol
 _atom_site_label
 _atom_site_symmetry_multiplicity
 _atom_site_fract_x
 _atom_site_fract_y
 _atom_site_fract_z
 _atom_site_occupancy
  Rb  Rb0  1  0.067686  0.805227  0.041803  1
  Rb  Rb1  1  0.432314  0.305227  0.541803  1
  Rb  Rb2  1  0.932314  0.194773  0.958197  1
  Rb  Rb3  1  0.567686  0.694773  0.458197  1
  Gd  Gd4  1  0.773181  0.001094  0.316863  1
  Gd  Gd5  1  0.273181  0.498906  0.183137  1
  Gd  Gd6  1  0.226819  0.998906  0.683137  1
  Gd  Gd7  1  0.726819  0.501094  0.816863  1
  P  P8  1  0.892608  0.323920  0.522503  1
  P  P9  1  0.392608  0.176080  0.977497  1
  P  P10  1  0.107392  0.676080  0.477497  1
  P  P11  1  0.407229  0.853932  0.240958  1
  P  P12  1  0.092771  0.353932  0.740958  1
  P  P13  1  0.592771  0.146068  0.759042  1
  P  P14  1  0.672195  0.460191  0.137336  1
  P  P15  1  0.172195  0.039809  0.362664  1
  P  P16  1  0.026231  0.251342  0.277373  1
  P  P17  1  0.827805  0.960191  0.637336  1
  P  P18  1  0.607392  0.823920  0.022503  1
  P  P19  1  0.526231  0.248658  0.222627  1
  P  P20  1  0.473769  0.751342  0.777373  1
  P  P21  1  0.907229  0.646068  0.259042  1
  P  P22  1  0.327805  0.539809  0.862664  1
  P  P23  1  0.973769  0.748658  0.722627  1
  O  O24  1  0.209958  0.568861  0.406298  1
  O  O25  1  0.545154  0.858608  0.898726  1
  O  O26  1  0.084257  0.854153  0.784111  1
  O  O27  1  0.207768  0.475811  0.753347  1
  O  O28  1  0.157616  0.185205  0.339580  1
  O  O29  1  0.954846  0.358608  0.398726  1
  O  O30  1  0.792232  0.524189  0.246653  1
  O  O31  1  0.451390  0.831041  0.096234  1
  O  O32  1  0.045154  0.641392  0.601274  1
  O  O33  1  0.342384  0.685205  0.839580  1
  O  O34  1  0.548610  0.168959  0.903766  1
  O  O35  1  0.758439  0.937768  0.510806  1
  O  O36  1  0.915743  0.145847  0.215889  1
  O  O37  1  0.741561  0.437768  0.010806  1
  O  O38  1  0.322736  0.736216  0.254092  1
  O  O39  1  0.162879  0.815993  0.516942  1
  O  O40  1  0.584257  0.645847  0.715889  1
  O  O41  1  0.837121  0.184007  0.483058  1
  O  O42  1  0.258439  0.562232  0.989194  1
  O  O43  1  0.337121  0.315993  0.016942  1
  O  O44  1  0.241561  0.062232  0.489194  1
  O  O45  1  0.709958  0.931139  0.093702  1
  O  O46  1  0.461295  0.099957  0.675821  1
  O  O47  1  0.292232  0.975811  0.253347  1
  O  O48  1  0.405891  0.828790  0.697349  1
  O  O49  1  0.790042  0.431139  0.593702  1
  O  O50  1  0.707768  0.024189  0.746653  1
  O  O51  1  0.961295  0.400043  0.824179  1
  O  O52  1  0.951390  0.668959  0.403766  1
  O  O53  1  0.031281  0.963061  0.328562  1
  O  O54  1  0.038705  0.599957  0.175821  1
  O  O55  1  0.968719  0.036939  0.671438  1
  O  O56  1  0.842384  0.814795  0.660420  1
  O  O57  1  0.905891  0.671210  0.802651  1
  O  O58  1  0.468719  0.463061  0.828562  1
  O  O59  1  0.094109  0.328790  0.197349  1
  O  O60  1  0.662879  0.684007  0.983058  1
  O  O61  1  0.594109  0.171210  0.302651  1
  O  O62  1  0.657616  0.314795  0.160420  1
  O  O63  1  0.048610  0.331041  0.596234  1
  O  O64  1  0.822736  0.763784  0.245908  1
  O  O65  1  0.177264  0.236216  0.754092  1
  O  O66  1  0.538705  0.900043  0.324179  1
  O  O67  1  0.415743  0.354153  0.284111  1
  O  O68  1  0.677264  0.263784  0.745908  1
  O  O69  1  0.290042  0.068861  0.906298  1
  O  O70  1  0.531281  0.536939  0.171438  1
  O  O71  1  0.454846  0.141392  0.101274  1
