# generated using pymatgen
data_NbTl(PO4)2
_symmetry_space_group_name_H-M   'P 1'
_cell_length_a   5.13788562
_cell_length_b   11.41799950
_cell_length_c   13.06216830
_cell_angle_alpha   90.00000000
_cell_angle_beta   90.00000000
_cell_angle_gamma   93.77712569
_symmetry_Int_Tables_number   1
_chemical_formula_structural   NbTl(PO4)2
_chemical_formula_sum   'Nb4 Tl4 P8 O32'
_cell_volume   764.61945944
_cell_formula_units_Z   4
loop_
 _symmetry_equiv_pos_site_id
 _symmetry_equiv_pos_as_xyz
  1  'x, y, z'
loop_
 _atom_site_type_symbol
 _atom_site_label
 _atom_site_symmetry_multiplicity
 _atom_site_fract_x
 _atom_site_fract_y
 _atom_site_fract_z
 _atom_site_occupancy
  Tl  Tl0  1  0.718963  0.976698  0.618030  1
  Tl  Tl1  1  0.781037  0.523302  0.118030  1
  Tl  Tl2  1  0.281037  0.023302  0.381970  1
  Tl  Tl3  1  0.218963  0.476698  0.881970  1
  Nb  Nb4  1  0.702372  0.797236  0.927687  1
  Nb  Nb5  1  0.797628  0.702764  0.427687  1
  Nb  Nb6  1  0.297628  0.202764  0.072313  1
  Nb  Nb7  1  0.202372  0.297236  0.572313  1
  P  P8  1  0.708798  0.290766  0.749773  1
  P  P9  1  0.791202  0.209234  0.249773  1
  P  P10  1  0.291202  0.709234  0.250227  1
  P  P11  1  0.208798  0.790766  0.750227  1
  P  P12  1  0.802641  0.113599  0.912641  1
  P  P13  1  0.697359  0.386401  0.412641  1
  P  P14  1  0.197359  0.886401  0.087359  1
  P  P15  1  0.302641  0.613599  0.587359  1
  O  O16  1  0.848701  0.985960  0.897800  1
  O  O17  1  0.651299  0.514040  0.397800  1
  O  O18  1  0.151299  0.014040  0.102200  1
  O  O19  1  0.348701  0.485960  0.602200  1
  O  O20  1  0.457731  0.309341  0.450475  1
  O  O21  1  0.042269  0.190659  0.950475  1
  O  O22  1  0.542269  0.690659  0.549525  1
  O  O23  1  0.957731  0.809341  0.049525  1
  O  O24  1  0.503959  0.261396  0.665627  1
  O  O25  1  0.996041  0.238604  0.165627  1
  O  O26  1  0.496041  0.738604  0.334373  1
  O  O27  1  0.003959  0.761396  0.834373  1
  O  O28  1  0.238911  0.660876  0.700518  1
  O  O29  1  0.261089  0.839124  0.200518  1
  O  O30  1  0.761088  0.339124  0.299482  1
  O  O31  1  0.738912  0.160876  0.799482  1
  O  O32  1  0.432944  0.866113  0.018643  1
  O  O33  1  0.067056  0.633887  0.518643  1
  O  O34  1  0.567056  0.133887  0.981357  1
  O  O35  1  0.932944  0.366113  0.481357  1
  O  O36  1  0.639659  0.376747  0.829773  1
  O  O37  1  0.860341  0.123253  0.329773  1
  O  O38  1  0.360341  0.623253  0.170227  1
  O  O39  1  0.139659  0.876747  0.670227  1
  O  O40  1  0.600408  0.648050  0.948279  1
  O  O41  1  0.899592  0.851950  0.448279  1
  O  O42  1  0.399592  0.351950  0.051721  1
  O  O43  1  0.100408  0.148050  0.551721  1
  O  O44  1  0.476593  0.823053  0.801460  1
  O  O45  1  0.023407  0.676947  0.301460  1
  O  O46  1  0.523407  0.176947  0.198540  1
  O  O47  1  0.976593  0.323053  0.698540  1
