# generated using pymatgen
data_SrMn5(SO4)6
_symmetry_space_group_name_H-M   'P 1'
_cell_length_a   14.83612991
_cell_length_b   14.83613032
_cell_length_c   7.59653977
_cell_angle_alpha   90.00000000
_cell_angle_beta   90.00000000
_cell_angle_gamma   119.99999907
_symmetry_Int_Tables_number   1
_chemical_formula_structural   SrMn5(SO4)6
_chemical_formula_sum   'Sr3 Mn15 S18 O72'
_cell_volume   1448.06387312
_cell_formula_units_Z   3
loop_
 _symmetry_equiv_pos_site_id
 _symmetry_equiv_pos_as_xyz
  1  'x, y, z'
loop_
 _atom_site_type_symbol
 _atom_site_label
 _atom_site_symmetry_multiplicity
 _atom_site_fract_x
 _atom_site_fract_y
 _atom_site_fract_z
 _atom_site_occupancy
  Sr  Sr0  1  0.666667  0.333333  0.001028  1
  Sr  Sr1  1  0.333333  0.666667  0.998972  1
  Sr  Sr2  1  0.000000  0.000000  0.500000  1
  Mn  Mn3  1  0.001617  0.346940  0.964903  1
  Mn  Mn4  1  0.654677  0.001617  0.035097  1
  Mn  Mn5  1  0.323145  0.004965  0.545559  1
  Mn  Mn6  1  0.666667  0.333333  0.501639  1
  Mn  Mn7  1  0.346940  0.345323  0.035097  1
  Mn  Mn8  1  0.653060  0.654677  0.964903  1
  Mn  Mn9  1  0.998383  0.653060  0.035097  1
  Mn  Mn10  1  0.995035  0.318180  0.545559  1
  Mn  Mn11  1  0.333333  0.666667  0.498361  1
  Mn  Mn12  1  0.004965  0.681820  0.454441  1
  Mn  Mn13  1  0.676855  0.995035  0.454441  1
  Mn  Mn14  1  0.000000  0.000000  0.000000  1
  Mn  Mn15  1  0.681820  0.676855  0.545559  1
  Mn  Mn16  1  0.318180  0.323145  0.454441  1
  Mn  Mn17  1  0.345323  0.998383  0.964903  1
  S  S18  1  0.773974  0.902332  0.757044  1
  S  S19  1  0.440914  0.236216  0.744302  1
  S  S20  1  0.569912  0.460848  0.259169  1
  S  S21  1  0.430088  0.539152  0.740831  1
  S  S22  1  0.204698  0.440914  0.255698  1
  S  S23  1  0.559086  0.763784  0.255698  1
  S  S24  1  0.763784  0.204698  0.744302  1
  S  S25  1  0.460848  0.890936  0.740831  1
  S  S26  1  0.890936  0.430088  0.259169  1
  S  S27  1  0.109064  0.569912  0.740831  1
  S  S28  1  0.871642  0.773974  0.242956  1
  S  S29  1  0.097668  0.871642  0.757044  1
  S  S30  1  0.902332  0.128358  0.242956  1
  S  S31  1  0.226026  0.097668  0.242956  1
  S  S32  1  0.128358  0.226026  0.757044  1
  S  S33  1  0.236216  0.795302  0.255698  1
  S  S34  1  0.795302  0.559086  0.744302  1
  S  S35  1  0.539152  0.109064  0.259169  1
  O  O36  1  0.424499  0.968947  0.744794  1
  O  O37  1  0.244790  0.366042  0.239343  1
  O  O38  1  0.410296  0.277532  0.594952  1
  O  O39  1  0.495229  0.110249  0.082457  1
  O  O40  1  0.255313  0.044420  0.111495  1
  O  O41  1  0.867236  0.589704  0.594952  1
  O  O42  1  0.415948  0.630706  0.709996  1
  O  O43  1  0.252612  0.705074  0.286134  1
  O  O44  1  0.845581  0.556649  0.912744  1
  O  O45  1  0.919345  0.039302  0.205452  1
  O  O46  1  0.083912  0.621801  0.600876  1
  O  O47  1  0.154419  0.443351  0.087256  1
  O  O48  1  0.747388  0.294926  0.713866  1
  O  O49  1  0.080655  0.960698  0.794548  1
  O  O50  1  0.210893  0.255313  0.888505  1
  O  O51  1  0.944023  0.166682  0.423549  1
  O  O52  1  0.889751  0.384980  0.082457  1
  O  O53  1  0.089575  0.302070  0.758811  1
  O  O54  1  0.575501  0.031053  0.255206  1
  O  O55  1  0.277532  0.867236  0.405048  1
  O  O56  1  0.378199  0.462111  0.600876  1
  O  O57  1  0.615020  0.504771  0.082457  1
  O  O58  1  0.916088  0.378199  0.399124  1
  O  O59  1  0.630706  0.214758  0.290004  1
  O  O60  1  0.547538  0.252612  0.713866  1
  O  O61  1  0.039302  0.119957  0.794548  1
  O  O62  1  0.222660  0.055977  0.423549  1
  O  O63  1  0.132764  0.410296  0.405048  1
  O  O64  1  0.878748  0.244790  0.760657  1
  O  O65  1  0.443351  0.288932  0.912744  1
  O  O66  1  0.697930  0.787505  0.758811  1
  O  O67  1  0.537889  0.916088  0.600876  1
  O  O68  1  0.785242  0.415948  0.290004  1
  O  O69  1  0.633958  0.878748  0.239343  1
  O  O70  1  0.294926  0.547538  0.286134  1
  O  O71  1  0.556649  0.711068  0.087256  1
  O  O72  1  0.705074  0.452462  0.713866  1
  O  O73  1  0.366042  0.121252  0.760657  1
  O  O74  1  0.960698  0.880043  0.205452  1
  O  O75  1  0.452462  0.747388  0.286134  1
  O  O76  1  0.584052  0.369294  0.290004  1
  O  O77  1  0.110249  0.615020  0.917543  1
  O  O78  1  0.880043  0.919345  0.794548  1
  O  O79  1  0.722468  0.132764  0.594952  1
  O  O80  1  0.302070  0.212495  0.241189  1
  O  O81  1  0.711068  0.154419  0.912744  1
  O  O82  1  0.589704  0.722468  0.405048  1
  O  O83  1  0.031053  0.455552  0.744794  1
  O  O84  1  0.968947  0.544448  0.255206  1
  O  O85  1  0.955580  0.210893  0.111495  1
  O  O86  1  0.288932  0.845581  0.087256  1
  O  O87  1  0.455552  0.424499  0.255206  1
  O  O88  1  0.504771  0.889751  0.917543  1
  O  O89  1  0.755210  0.633958  0.760657  1
  O  O90  1  0.621801  0.537889  0.399124  1
  O  O91  1  0.044420  0.789107  0.888505  1
  O  O92  1  0.369294  0.785242  0.709996  1
  O  O93  1  0.787505  0.089575  0.241189  1
  O  O94  1  0.544448  0.575501  0.744794  1
  O  O95  1  0.744687  0.955580  0.888505  1
  O  O96  1  0.789107  0.744687  0.111495  1
  O  O97  1  0.121252  0.755210  0.239343  1
  O  O98  1  0.462111  0.083912  0.399124  1
  O  O99  1  0.119957  0.080655  0.205452  1
  O  O100  1  0.212495  0.910425  0.758811  1
  O  O101  1  0.055977  0.833318  0.576451  1
  O  O102  1  0.384980  0.495229  0.917543  1
  O  O103  1  0.910425  0.697930  0.241189  1
  O  O104  1  0.214758  0.584052  0.709996  1
  O  O105  1  0.833318  0.777340  0.423549  1
  O  O106  1  0.777340  0.944023  0.576451  1
  O  O107  1  0.166682  0.222660  0.576451  1
