# generated using pymatgen
data_SbP(Cl3O)2
_symmetry_space_group_name_H-M   'P 1'
_cell_length_a   8.91593649
_cell_length_b   11.37702833
_cell_length_c   12.05493030
_cell_angle_alpha   90.00000000
_cell_angle_beta   90.00000000
_cell_angle_gamma   108.78744972
_symmetry_Int_Tables_number   1
_chemical_formula_structural   SbP(Cl3O)2
_chemical_formula_sum   'Sb4 P4 Cl24 O8'
_cell_volume   1157.66254557
_cell_formula_units_Z   4
loop_
 _symmetry_equiv_pos_site_id
 _symmetry_equiv_pos_as_xyz
  1  'x, y, z'
loop_
 _atom_site_type_symbol
 _atom_site_label
 _atom_site_symmetry_multiplicity
 _atom_site_fract_x
 _atom_site_fract_y
 _atom_site_fract_z
 _atom_site_occupancy
  Sb  Sb0  1  0.809257  0.270481  0.538598  1
  Sb  Sb1  1  0.809257  0.770481  0.961402  1
  Sb  Sb2  1  0.190743  0.229519  0.038598  1
  Sb  Sb3  1  0.190743  0.729519  0.461402  1
  P  P4  1  0.190072  0.458458  0.594141  1
  P  P5  1  0.809928  0.041542  0.094141  1
  P  P6  1  0.809928  0.541542  0.405859  1
  P  P7  1  0.190072  0.958458  0.905859  1
  Cl  Cl8  1  0.688299  0.294839  0.706129  1
  Cl  Cl9  1  0.041819  0.714891  0.625901  1
  Cl  Cl10  1  0.282268  0.535063  0.737275  1
  Cl  Cl11  1  0.311701  0.705161  0.293871  1
  Cl  Cl12  1  0.860233  0.089527  0.597557  1
  Cl  Cl13  1  0.434766  0.830172  0.550252  1
  Cl  Cl14  1  0.434766  0.330172  0.949748  1
  Cl  Cl15  1  0.565234  0.669828  0.050252  1
  Cl  Cl16  1  0.717732  0.964937  0.237275  1
  Cl  Cl17  1  0.717732  0.464937  0.262725  1
  Cl  Cl18  1  0.041819  0.214891  0.874099  1
  Cl  Cl19  1  0.684820  0.651596  0.447780  1
  Cl  Cl20  1  0.958181  0.285109  0.374099  1
  Cl  Cl21  1  0.684820  0.151596  0.052220  1
  Cl  Cl22  1  0.958181  0.785109  0.125901  1
  Cl  Cl23  1  0.860233  0.589527  0.902443  1
  Cl  Cl24  1  0.282268  0.035063  0.762725  1
  Cl  Cl25  1  0.315180  0.848404  0.947780  1
  Cl  Cl26  1  0.315180  0.348404  0.552220  1
  Cl  Cl27  1  0.139767  0.910473  0.402443  1
  Cl  Cl28  1  0.688299  0.794839  0.793871  1
  Cl  Cl29  1  0.311701  0.205161  0.206129  1
  Cl  Cl30  1  0.565234  0.169828  0.449748  1
  Cl  Cl31  1  0.139767  0.410473  0.097557  1
  O  O32  1  0.782554  0.444863  0.497591  1
  O  O33  1  0.018673  0.381736  0.618980  1
  O  O34  1  0.217446  0.055137  0.997591  1
  O  O35  1  0.217446  0.555137  0.502409  1
  O  O36  1  0.018673  0.881736  0.881020  1
  O  O37  1  0.981327  0.118264  0.118980  1
  O  O38  1  0.782554  0.944863  0.002409  1
  O  O39  1  0.981327  0.618264  0.381020  1
