# generated using pymatgen
data_Ce3Si2S8Cl
_symmetry_space_group_name_H-M   'P 1'
_cell_length_a   7.70939861
_cell_length_b   8.77023282
_cell_length_c   11.04317069
_cell_angle_alpha   96.46949780
_cell_angle_beta   90.00000000
_cell_angle_gamma   116.07330712
_symmetry_Int_Tables_number   1
_chemical_formula_structural   Ce3Si2S8Cl
_chemical_formula_sum   'Ce6 Si4 S16 Cl2'
_cell_volume   665.38058191
_cell_formula_units_Z   2
loop_
 _symmetry_equiv_pos_site_id
 _symmetry_equiv_pos_as_xyz
  1  'x, y, z'
loop_
 _atom_site_type_symbol
 _atom_site_label
 _atom_site_symmetry_multiplicity
 _atom_site_fract_x
 _atom_site_fract_y
 _atom_site_fract_z
 _atom_site_occupancy
  Ce  Ce0  1  0.073086  0.389988  0.686027  1
  Ce  Ce1  1  0.683098  0.610012  0.813973  1
  Ce  Ce2  1  0.926914  0.610012  0.313973  1
  Ce  Ce3  1  0.316902  0.389988  0.186027  1
  Ce  Ce4  1  0.379277  0.000000  0.750000  1
  Ce  Ce5  1  0.620723  0.000000  0.250000  1
  Cl  Cl6  1  0.994265  0.000000  0.250000  1
  Cl  Cl7  1  0.005735  0.000000  0.750000  1
  Si  Si8  1  0.691433  0.320128  0.029932  1
  Si  Si9  1  0.371305  0.679872  0.470068  1
  Si  Si10  1  0.308567  0.679872  0.970068  1
  Si  Si11  1  0.628695  0.320128  0.529932  1
  S  S12  1  0.896029  0.291930  0.142257  1
  S  S13  1  0.604099  0.708070  0.357743  1
  S  S14  1  0.103971  0.708070  0.857743  1
  S  S15  1  0.395901  0.291930  0.642257  1
  S  S16  1  0.711668  0.569005  0.085267  1
  S  S17  1  0.142662  0.430995  0.414733  1
  S  S18  1  0.288332  0.430995  0.914733  1
  S  S19  1  0.857338  0.569005  0.585267  1
  S  S20  1  0.407562  0.131394  0.051260  1
  S  S21  1  0.276167  0.868606  0.448740  1
  S  S22  1  0.592438  0.868606  0.948740  1
  S  S23  1  0.723833  0.131394  0.551260  1
  S  S24  1  0.737212  0.295628  0.840261  1
  S  S25  1  0.441584  0.704372  0.659739  1
  S  S26  1  0.262788  0.704372  0.159739  1
  S  S27  1  0.558416  0.295628  0.340261  1
