# generated using pymatgen
data_Fe2Cu3(SeO3)6
_symmetry_space_group_name_H-M   'P 1'
_cell_length_a   5.48442688
_cell_length_b   7.68447727
_cell_length_c   19.35901165
_cell_angle_alpha   90.00000000
_cell_angle_beta   90.00000000
_cell_angle_gamma   92.37457245
_symmetry_Int_Tables_number   1
_chemical_formula_structural   Fe2Cu3(SeO3)6
_chemical_formula_sum   'Fe4 Cu6 Se12 O36'
_cell_volume   815.18406289
_cell_formula_units_Z   2
loop_
 _symmetry_equiv_pos_site_id
 _symmetry_equiv_pos_as_xyz
  1  'x, y, z'
loop_
 _atom_site_type_symbol
 _atom_site_label
 _atom_site_symmetry_multiplicity
 _atom_site_fract_x
 _atom_site_fract_y
 _atom_site_fract_z
 _atom_site_occupancy
  Fe  Fe0  1  0.532403  0.761946  0.656535  1
  Fe  Fe1  1  0.467597  0.238054  0.343465  1
  Fe  Fe2  1  0.032403  0.261946  0.843465  1
  Fe  Fe3  1  0.967597  0.738054  0.156535  1
  Cu  Cu4  1  0.115467  0.323325  0.513333  1
  Cu  Cu5  1  0.884533  0.676675  0.486667  1
  Cu  Cu6  1  0.384533  0.176675  0.013333  1
  Cu  Cu7  1  0.000000  0.500000  0.000000  1
  Cu  Cu8  1  0.615467  0.823325  0.986667  1
  Cu  Cu9  1  0.500000  0.000000  0.500000  1
  Se  Se10  1  0.475941  0.939634  0.220526  1
  Se  Se11  1  0.378508  0.641309  0.403819  1
  Se  Se12  1  0.451340  0.526354  0.117378  1
  Se  Se13  1  0.548660  0.473646  0.882622  1
  Se  Se14  1  0.524059  0.060366  0.779474  1
  Se  Se15  1  0.975941  0.439634  0.279474  1
  Se  Se16  1  0.048660  0.973646  0.617378  1
  Se  Se17  1  0.121492  0.858691  0.903819  1
  Se  Se18  1  0.024059  0.560366  0.720526  1
  Se  Se19  1  0.621492  0.358691  0.596181  1
  Se  Se20  1  0.878508  0.141309  0.096181  1
  Se  Se21  1  0.951340  0.026354  0.382622  1
  O  O22  1  0.063143  0.263011  0.037120  1
  O  O23  1  0.563143  0.763011  0.462880  1
  O  O24  1  0.081470  0.507846  0.805580  1
  O  O25  1  0.664199  0.039411  0.040734  1
  O  O26  1  0.247316  0.159187  0.770893  1
  O  O27  1  0.831572  0.811037  0.594018  1
  O  O28  1  0.747316  0.659187  0.729107  1
  O  O29  1  0.668428  0.688963  0.094018  1
  O  O30  1  0.935579  0.028358  0.889960  1
  O  O31  1  0.684945  0.110647  0.421222  1
  O  O32  1  0.164199  0.539411  0.459266  1
  O  O33  1  0.225022  0.741279  0.712754  1
  O  O34  1  0.064421  0.971642  0.110040  1
  O  O35  1  0.274978  0.758721  0.212754  1
  O  O36  1  0.752684  0.840813  0.229107  1
  O  O37  1  0.936857  0.736989  0.962880  1
  O  O38  1  0.815055  0.389353  0.921222  1
  O  O39  1  0.252684  0.340813  0.270893  1
  O  O40  1  0.047301  0.875434  0.442272  1
  O  O41  1  0.564421  0.471642  0.389960  1
  O  O42  1  0.418531  0.992154  0.305580  1
  O  O43  1  0.331572  0.311037  0.905982  1
  O  O44  1  0.184945  0.610647  0.078778  1
  O  O45  1  0.581469  0.007846  0.694420  1
  O  O46  1  0.315055  0.889353  0.578778  1
  O  O47  1  0.725022  0.241279  0.787246  1
  O  O48  1  0.774978  0.258721  0.287246  1
  O  O49  1  0.168428  0.188963  0.405982  1
  O  O50  1  0.547301  0.375434  0.057728  1
  O  O51  1  0.918531  0.492154  0.194420  1
  O  O52  1  0.436857  0.236989  0.537120  1
  O  O53  1  0.335801  0.960589  0.959266  1
  O  O54  1  0.452699  0.624566  0.942272  1
  O  O55  1  0.435579  0.528358  0.610040  1
  O  O56  1  0.952699  0.124566  0.557728  1
  O  O57  1  0.835801  0.460589  0.540734  1
