# generated using pymatgen
data_Cs3LaCl6
_symmetry_space_group_name_H-M   'P 1'
_cell_length_a   8.40178293
_cell_length_b   13.75087113
_cell_length_c   14.48408364
_cell_angle_alpha   99.48284944
_cell_angle_beta   106.87313455
_cell_angle_gamma   90.00201314
_symmetry_Int_Tables_number   1
_chemical_formula_structural   Cs3LaCl6
_chemical_formula_sum   'Cs12 La4 Cl24'
_cell_volume   1577.42005940
_cell_formula_units_Z   4
loop_
 _symmetry_equiv_pos_site_id
 _symmetry_equiv_pos_as_xyz
  1  'x, y, z'
loop_
 _atom_site_type_symbol
 _atom_site_label
 _atom_site_symmetry_multiplicity
 _atom_site_fract_x
 _atom_site_fract_y
 _atom_site_fract_z
 _atom_site_occupancy
  Cs  Cs0  1  0.024382  0.196864  0.673825  1
  Cs  Cs1  1  0.162215  0.855153  0.695465  1
  Cs  Cs2  1  0.837785  0.144847  0.304535  1
  Cs  Cs3  1  0.350437  0.303071  0.326154  1
  Cs  Cs4  1  0.787093  0.429452  0.096313  1
  Cs  Cs5  1  0.975618  0.803136  0.326175  1
  Cs  Cs6  1  0.466849  0.644862  0.304615  1
  Cs  Cs7  1  0.649563  0.696929  0.673846  1
  Cs  Cs8  1  0.212907  0.570548  0.903687  1
  Cs  Cs9  1  0.690902  0.070575  0.903723  1
  Cs  Cs10  1  0.309098  0.929425  0.096277  1
  Cs  Cs11  1  0.533151  0.355138  0.695385  1
  La  La12  1  0.792227  0.749983  0.000001  1
  La  La13  1  0.000000  0.500000  0.500000  1
  La  La14  1  0.207773  0.250017  0.999999  1
  La  La15  1  0.500000  0.000000  0.500000  1
  Cl  Cl16  1  0.387463  0.079312  0.660696  1
  Cl  Cl17  1  0.273282  0.579335  0.660668  1
  Cl  Cl18  1  0.099509  0.702592  0.120375  1
  Cl  Cl19  1  0.635354  0.186282  0.496780  1
  Cl  Cl20  1  0.726718  0.420665  0.339332  1
  Cl  Cl21  1  0.020817  0.202617  0.120365  1
  Cl  Cl22  1  0.206391  0.030196  0.360763  1
  Cl  Cl23  1  0.793609  0.969804  0.639237  1
  Cl  Cl24  1  0.151608  0.064705  0.884454  1
  Cl  Cl25  1  0.861478  0.686271  0.496776  1
  Cl  Cl26  1  0.267203  0.435317  0.115546  1
  Cl  Cl27  1  0.496601  0.174904  0.112012  1
  Cl  Cl28  1  0.503399  0.825096  0.887988  1
  Cl  Cl29  1  0.900491  0.297408  0.879625  1
  Cl  Cl30  1  0.845633  0.469843  0.639263  1
  Cl  Cl31  1  0.979183  0.797383  0.879635  1
  Cl  Cl32  1  0.615406  0.674894  0.112028  1
  Cl  Cl33  1  0.848392  0.935295  0.115546  1
  Cl  Cl34  1  0.612537  0.920688  0.339304  1
  Cl  Cl35  1  0.732797  0.564683  0.884454  1
  Cl  Cl36  1  0.384594  0.325106  0.887972  1
  Cl  Cl37  1  0.364646  0.813718  0.503220  1
  Cl  Cl38  1  0.138522  0.313729  0.503224  1
  Cl  Cl39  1  0.154367  0.530157  0.360737  1
