# generated using pymatgen
data_Cd(IO3)2
_symmetry_space_group_name_H-M   'P 1'
_cell_length_a   5.59748946
_cell_length_b   11.34823716
_cell_length_c   17.87955917
_cell_angle_alpha   90.00000000
_cell_angle_beta   90.00000000
_cell_angle_gamma   90.00000000
_symmetry_Int_Tables_number   1
_chemical_formula_structural   Cd(IO3)2
_chemical_formula_sum   'Cd8 I16 O48'
_cell_volume   1135.73888328
_cell_formula_units_Z   8
loop_
 _symmetry_equiv_pos_site_id
 _symmetry_equiv_pos_as_xyz
  1  'x, y, z'
loop_
 _atom_site_type_symbol
 _atom_site_label
 _atom_site_symmetry_multiplicity
 _atom_site_fract_x
 _atom_site_fract_y
 _atom_site_fract_z
 _atom_site_occupancy
  Cd  Cd0  1  0.273366  0.632083  0.111491  1
  Cd  Cd1  1  0.219669  0.849157  0.940703  1
  Cd  Cd2  1  0.780331  0.349157  0.059297  1
  Cd  Cd3  1  0.726634  0.632083  0.611491  1
  Cd  Cd4  1  0.273366  0.132083  0.388509  1
  Cd  Cd5  1  0.726634  0.132083  0.888509  1
  Cd  Cd6  1  0.780331  0.849157  0.440703  1
  Cd  Cd7  1  0.219669  0.349157  0.559297  1
  I  I8  1  0.271702  0.376291  0.197201  1
  I  I9  1  0.320673  0.363234  0.890784  1
  I  I10  1  0.785323  0.607062  0.969901  1
  I  I11  1  0.197718  0.621185  0.776716  1
  I  I12  1  0.679327  0.863234  0.109216  1
  I  I13  1  0.728298  0.376291  0.697201  1
  I  I14  1  0.728298  0.876291  0.802799  1
  I  I15  1  0.785323  0.107062  0.530099  1
  I  I16  1  0.197718  0.121185  0.723284  1
  I  I17  1  0.214676  0.607062  0.469901  1
  I  I18  1  0.802282  0.121185  0.223284  1
  I  I19  1  0.320673  0.863234  0.609216  1
  I  I20  1  0.271702  0.876291  0.302799  1
  I  I21  1  0.802282  0.621185  0.276716  1
  I  I22  1  0.679327  0.363234  0.390784  1
  I  I23  1  0.214676  0.107062  0.030099  1
  O  O24  1  0.485198  0.795068  0.850252  1
  O  O25  1  0.111963  0.434134  0.113698  1
  O  O26  1  0.576882  0.518378  0.711017  1
  O  O27  1  0.460209  0.801489  0.523377  1
  O  O28  1  0.989482  0.691001  0.351079  1
  O  O29  1  0.576882  0.018378  0.788983  1
  O  O30  1  0.964907  0.693185  0.515454  1
  O  O31  1  0.937756  0.465357  0.958030  1
  O  O32  1  0.989482  0.191001  0.148921  1
  O  O33  1  0.514802  0.795068  0.350252  1
  O  O34  1  0.010518  0.191001  0.648921  1
  O  O35  1  0.464380  0.290160  0.326583  1
  O  O36  1  0.937756  0.965357  0.541970  1
  O  O37  1  0.539791  0.801489  0.023377  1
  O  O38  1  0.960335  0.183478  0.304258  1
  O  O39  1  0.888037  0.934134  0.886302  1
  O  O40  1  0.039665  0.183478  0.804258  1
  O  O41  1  0.464380  0.790160  0.173417  1
  O  O42  1  0.039665  0.683478  0.695742  1
  O  O43  1  0.960335  0.683478  0.195742  1
  O  O44  1  0.443799  0.512982  0.890732  1
  O  O45  1  0.535620  0.290160  0.826583  1
  O  O46  1  0.535620  0.790160  0.673417  1
  O  O47  1  0.625610  0.053344  0.445886  1
  O  O48  1  0.077153  0.470012  0.779178  1
  O  O49  1  0.556201  0.012982  0.109268  1
  O  O50  1  0.556201  0.512982  0.390732  1
  O  O51  1  0.443799  0.012982  0.609268  1
  O  O52  1  0.625610  0.553344  0.054114  1
  O  O53  1  0.374390  0.553344  0.554114  1
  O  O54  1  0.010518  0.691001  0.851079  1
  O  O55  1  0.111963  0.934134  0.386302  1
  O  O56  1  0.964907  0.193185  0.984546  1
  O  O57  1  0.035093  0.193185  0.484546  1
  O  O58  1  0.374390  0.053344  0.945886  1
  O  O59  1  0.922847  0.470012  0.279178  1
  O  O60  1  0.035093  0.693185  0.015454  1
  O  O61  1  0.062244  0.965357  0.041970  1
  O  O62  1  0.077153  0.970012  0.720822  1
  O  O63  1  0.423118  0.018378  0.288983  1
  O  O64  1  0.423118  0.518378  0.211017  1
  O  O65  1  0.922847  0.970012  0.220822  1
  O  O66  1  0.485198  0.295068  0.649748  1
  O  O67  1  0.539791  0.301489  0.476623  1
  O  O68  1  0.514802  0.295068  0.149748  1
  O  O69  1  0.888037  0.434134  0.613698  1
  O  O70  1  0.460209  0.301489  0.976623  1
  O  O71  1  0.062244  0.465357  0.458030  1
