# generated using pymatgen
data_MgSiO3
_symmetry_space_group_name_H-M   'P 1'
_cell_length_a   9.28050493
_cell_length_b   8.95300596
_cell_length_c   5.26750048
_cell_angle_alpha   90.00000000
_cell_angle_beta   90.00000000
_cell_angle_gamma   90.00000000
_symmetry_Int_Tables_number   1
_chemical_formula_structural   MgSiO3
_chemical_formula_sum   'Mg8 Si8 O24'
_cell_volume   437.66827090
_cell_formula_units_Z   8
loop_
 _symmetry_equiv_pos_site_id
 _symmetry_equiv_pos_as_xyz
  1  'x, y, z'
loop_
 _atom_site_type_symbol
 _atom_site_label
 _atom_site_symmetry_multiplicity
 _atom_site_fract_x
 _atom_site_fract_y
 _atom_site_fract_z
 _atom_site_occupancy
  Mg  Mg0  1  0.998009  0.151454  0.220198  1
  Mg  Mg1  1  0.498009  0.848545  0.779802  1
  Mg  Mg2  1  0.498009  0.651455  0.279802  1
  Mg  Mg3  1  0.998009  0.348546  0.720198  1
  Mg  Mg4  1  0.001822  0.992379  0.720790  1
  Mg  Mg5  1  0.501822  0.007621  0.279210  1
  Mg  Mg6  1  0.501822  0.492379  0.779210  1
  Mg  Mg7  1  0.001822  0.507621  0.220790  1
  Si  Si8  1  0.702160  0.338721  0.375259  1
  Si  Si9  1  0.202160  0.661279  0.624741  1
  Si  Si10  1  0.202160  0.838721  0.124741  1
  Si  Si11  1  0.702160  0.161279  0.875259  1
  Si  Si12  1  0.296227  0.161857  0.567134  1
  Si  Si13  1  0.796227  0.838143  0.432866  1
  Si  Si14  1  0.796227  0.661857  0.932866  1
  Si  Si15  1  0.296227  0.338143  0.067134  1
  O  O16  1  0.878802  0.341028  0.385141  1
  O  O17  1  0.378802  0.658972  0.614859  1
  O  O18  1  0.378802  0.841028  0.114859  1
  O  O19  1  0.878802  0.158972  0.885141  1
  O  O20  1  0.120401  0.163056  0.560164  1
  O  O21  1  0.620401  0.836944  0.439836  1
  O  O22  1  0.620401  0.663056  0.939836  1
  O  O23  1  0.120401  0.336944  0.060164  1
  O  O24  1  0.619804  0.489267  0.461428  1
  O  O25  1  0.119804  0.510733  0.538572  1
  O  O26  1  0.119804  0.989267  0.038572  1
  O  O27  1  0.619804  0.010733  0.961428  1
  O  O28  1  0.378051  0.005286  0.598404  1
  O  O29  1  0.878051  0.994714  0.401596  1
  O  O30  1  0.878051  0.505286  0.901596  1
  O  O31  1  0.378051  0.494714  0.098404  1
  O  O32  1  0.648071  0.293049  0.081741  1
  O  O33  1  0.148071  0.706951  0.918259  1
  O  O34  1  0.148071  0.793049  0.418259  1
  O  O35  1  0.648071  0.206951  0.581741  1
  O  O36  1  0.355653  0.286899  0.777845  1
  O  O37  1  0.855653  0.713101  0.222155  1
  O  O38  1  0.855653  0.786899  0.722155  1
  O  O39  1  0.355653  0.213101  0.277845  1
