# generated using pymatgen
data_MnHgC4(SeN)4
_symmetry_space_group_name_H-M   'P 1'
_cell_length_a   4.89397152
_cell_length_b   8.55021995
_cell_length_c   8.55021967
_cell_angle_alpha   85.30194950
_cell_angle_beta   73.37001883
_cell_angle_gamma   73.37002167
_symmetry_Int_Tables_number   1
_chemical_formula_structural   MnHgC4(SeN)4
_chemical_formula_sum   'Mn1 Hg1 Se4 C4 N4'
_cell_volume   328.47613117
_cell_formula_units_Z   1
loop_
 _symmetry_equiv_pos_site_id
 _symmetry_equiv_pos_as_xyz
  1  'x, y, z'
loop_
 _atom_site_type_symbol
 _atom_site_label
 _atom_site_symmetry_multiplicity
 _atom_site_fract_x
 _atom_site_fract_y
 _atom_site_fract_z
 _atom_site_occupancy
  Hg  Hg0  1  0.000000  0.000000  0.000000  1
  Se  Se1  1  0.427418  0.039506  0.724609  1
  Se  Se2  1  0.847973  0.724609  0.960494  1
  Se  Se3  1  0.533076  0.275391  0.039506  1
  Se  Se4  1  0.191533  0.960494  0.275391  1
  Mn  Mn5  1  0.750000  0.500000  0.500000  1
  N  N6  1  0.655902  0.410703  0.315128  1
  N  N7  1  0.028969  0.315128  0.589297  1
  N  N8  1  0.933395  0.684872  0.410703  1
  N  N9  1  0.381734  0.589297  0.684872  1
  C  C10  1  0.182838  0.206145  0.644712  1
  C  C11  1  0.172450  0.644712  0.793855  1
  C  C12  1  0.611017  0.355288  0.206145  1
  C  C13  1  0.033695  0.793855  0.355288  1
