# generated using pymatgen
data_MoCl4
_symmetry_space_group_name_H-M   'P 1'
_cell_length_a   12.64668285
_cell_length_b   12.64668272
_cell_length_c   6.38817188
_cell_angle_alpha   90.00000000
_cell_angle_beta   90.00000000
_cell_angle_gamma   120.00000032
_symmetry_Int_Tables_number   1
_chemical_formula_structural   MoCl4
_chemical_formula_sum   'Mo6 Cl24'
_cell_volume   884.83129312
_cell_formula_units_Z   6
loop_
 _symmetry_equiv_pos_site_id
 _symmetry_equiv_pos_as_xyz
  1  'x, y, z'
loop_
 _atom_site_type_symbol
 _atom_site_label
 _atom_site_symmetry_multiplicity
 _atom_site_fract_x
 _atom_site_fract_y
 _atom_site_fract_z
 _atom_site_occupancy
  Mo  Mo0  1  0.827864  0.655728  0.000000  1
  Mo  Mo1  1  0.172136  0.827864  0.000000  1
  Mo  Mo2  1  0.172136  0.344272  0.000000  1
  Mo  Mo3  1  0.827864  0.172136  0.000000  1
  Mo  Mo4  1  0.344272  0.172136  0.000000  1
  Mo  Mo5  1  0.655728  0.827864  0.000000  1
  Cl  Cl6  1  0.171204  0.479177  0.767154  1
  Cl  Cl7  1  0.000000  0.673908  0.790094  1
  Cl  Cl8  1  0.828796  0.307973  0.767154  1
  Cl  Cl9  1  0.172037  0.000000  0.804415  1
  Cl  Cl10  1  0.828796  0.520823  0.232846  1
  Cl  Cl11  1  0.673908  0.673908  0.209906  1
  Cl  Cl12  1  1.000000  0.827963  0.195585  1
  Cl  Cl13  1  0.000000  0.172037  0.804415  1
  Cl  Cl14  1  0.479177  0.171204  0.767154  1
  Cl  Cl15  1  0.171204  0.692027  0.232846  1
  Cl  Cl16  1  0.326092  0.000000  0.209906  1
  Cl  Cl17  1  0.326092  0.326092  0.790094  1
  Cl  Cl18  1  0.692027  0.171204  0.232846  1
  Cl  Cl19  1  0.307973  0.828796  0.767154  1
  Cl  Cl20  1  0.172037  0.172037  0.195585  1
  Cl  Cl21  1  0.307973  0.479177  0.232846  1
  Cl  Cl22  1  0.673908  0.000000  0.790094  1
  Cl  Cl23  1  0.520823  0.692027  0.767154  1
  Cl  Cl24  1  0.827963  0.827963  0.804415  1
  Cl  Cl25  1  0.479177  0.307973  0.232846  1
  Cl  Cl26  1  0.520823  0.828796  0.232846  1
  Cl  Cl27  1  0.692027  0.520823  0.767154  1
  Cl  Cl28  1  0.827963  0.000000  0.195585  1
  Cl  Cl29  1  1.000000  0.326092  0.209906  1
