# generated using pymatgen
data_Dy3ReO7
_symmetry_space_group_name_H-M   'P 1'
_cell_length_a   6.44573665
_cell_length_b   6.44573592
_cell_length_c   7.45085446
_cell_angle_alpha   90.00000000
_cell_angle_beta   90.00000000
_cell_angle_gamma   109.24897187
_symmetry_Int_Tables_number   1
_chemical_formula_structural   Dy3ReO7
_chemical_formula_sum   'Dy6 Re2 O14'
_cell_volume   292.25827420
_cell_formula_units_Z   2
loop_
 _symmetry_equiv_pos_site_id
 _symmetry_equiv_pos_as_xyz
  1  'x, y, z'
loop_
 _atom_site_type_symbol
 _atom_site_label
 _atom_site_symmetry_multiplicity
 _atom_site_fract_x
 _atom_site_fract_y
 _atom_site_fract_z
 _atom_site_occupancy
  Dy  Dy0  1  -0.000159  0.466343  0.500559  1
  Dy  Dy1  1  0.496568  0.496568  0.750000  1
  Dy  Dy2  1  1.000159  0.533657  0.000559  1
  Dy  Dy3  1  0.466343  -0.000159  0.999441  1
  Dy  Dy4  1  0.533657  1.000159  0.499441  1
  Dy  Dy5  1  0.503432  0.503432  0.250000  1
  Re  Re6  1  0.999865  0.999865  0.750000  1
  Re  Re7  1  0.000135  0.000135  0.250000  1
  O  O8  1  0.072589  0.320609  0.221269  1
  O  O9  1  0.931467  0.068533  0.500000  1
  O  O10  1  0.075615  0.322040  0.779333  1
  O  O11  1  0.924385  0.677960  0.279333  1
  O  O12  1  0.636675  0.363325  0.500000  1
  O  O13  1  0.677960  0.924385  0.220667  1
  O  O14  1  0.320609  0.072589  0.278731  1
  O  O15  1  0.322040  0.075615  0.720667  1
  O  O16  1  0.679391  0.927411  0.778731  1
  O  O17  1  0.927411  0.679391  0.721269  1
  O  O18  1  0.630838  0.369162  0.000000  1
  O  O19  1  0.363325  0.636675  0.000000  1
  O  O20  1  0.369162  0.630838  0.500000  1
  O  O21  1  0.068533  0.931467  0.000000  1
