# generated using pymatgen
data_KPO3
_symmetry_space_group_name_H-M   'P 1'
_cell_length_a   7.49784000
_cell_length_b   11.26362013
_cell_length_c   12.18313327
_cell_angle_alpha   90.00000000
_cell_angle_beta   90.00000000
_cell_angle_gamma   102.17506782
_symmetry_Int_Tables_number   1
_chemical_formula_structural   KPO3
_chemical_formula_sum   'K12 P12 O36'
_cell_volume   1005.75771364
_cell_formula_units_Z   12
loop_
 _symmetry_equiv_pos_site_id
 _symmetry_equiv_pos_as_xyz
  1  'x, y, z'
loop_
 _atom_site_type_symbol
 _atom_site_label
 _atom_site_symmetry_multiplicity
 _atom_site_fract_x
 _atom_site_fract_y
 _atom_site_fract_z
 _atom_site_occupancy
  K  K0  1  0.902640  0.601096  0.243732  1
  K  K1  1  0.147175  0.378607  0.418655  1
  K  K2  1  0.158063  0.080551  0.641220  1
  K  K3  1  0.647175  0.878607  0.081345  1
  K  K4  1  0.841937  0.919449  0.358780  1
  K  K5  1  0.658063  0.580551  0.858780  1
  K  K6  1  0.352825  0.121393  0.918655  1
  K  K7  1  0.097360  0.398904  0.756268  1
  K  K8  1  0.597360  0.898904  0.743732  1
  K  K9  1  0.852825  0.621393  0.581345  1
  K  K10  1  0.402640  0.101096  0.256268  1
  K  K11  1  0.341937  0.419449  0.141220  1
  P  P12  1  0.227877  0.835363  0.445333  1
  P  P13  1  0.372527  0.654358  0.570014  1
  P  P14  1  0.772123  0.164637  0.554667  1
  P  P15  1  0.576257  0.324164  0.671250  1
  P  P16  1  0.727877  0.335363  0.054667  1
  P  P17  1  0.272123  0.664637  0.945333  1
  P  P18  1  0.127473  0.845642  0.070014  1
  P  P19  1  0.627473  0.345642  0.429986  1
  P  P20  1  0.923743  0.175836  0.171250  1
  P  P21  1  0.872527  0.154358  0.929986  1
  P  P22  1  0.076257  0.824164  0.828750  1
  P  P23  1  0.423743  0.675836  0.328750  1
  O  O24  1  0.040263  0.758836  0.427936  1
  O  O25  1  0.095787  0.204057  0.237539  1
  O  O26  1  0.514386  0.666232  0.657932  1
  O  O27  1  0.763696  0.081540  0.209820  1
  O  O28  1  0.750365  0.029625  0.548163  1
  O  O29  1  0.485614  0.333768  0.342068  1
  O  O30  1  0.749635  0.470375  0.048163  1
  O  O31  1  0.595787  0.704057  0.262461  1
  O  O32  1  0.736304  0.418460  0.709820  1
  O  O33  1  0.904213  0.795943  0.762461  1
  O  O34  1  0.133915  0.693188  0.849201  1
  O  O35  1  0.249635  0.970375  0.451837  1
  O  O36  1  0.700878  0.058430  0.922545  1
  O  O37  1  0.633915  0.193188  0.650799  1
  O  O38  1  0.366085  0.806812  0.349201  1
  O  O39  1  0.959737  0.241164  0.572064  1
  O  O40  1  0.263696  0.581540  0.290180  1
  O  O41  1  0.540263  0.258836  0.072064  1
  O  O42  1  0.677821  0.211277  0.445936  1
  O  O43  1  0.979469  0.143095  0.046373  1
  O  O44  1  0.799122  0.441570  0.422545  1
  O  O45  1  0.822179  0.288723  0.945936  1
  O  O46  1  0.479469  0.643095  0.453627  1
  O  O47  1  0.866085  0.306812  0.150799  1
  O  O48  1  0.020531  0.856905  0.953627  1
  O  O49  1  0.299122  0.941570  0.077455  1
  O  O50  1  0.177821  0.711277  0.054064  1
  O  O51  1  0.322179  0.788723  0.554064  1
  O  O52  1  0.250365  0.529625  0.951837  1
  O  O53  1  0.985614  0.833768  0.157932  1
  O  O54  1  0.459737  0.741164  0.927936  1
  O  O55  1  0.404213  0.295943  0.737539  1
  O  O56  1  0.014386  0.166232  0.842068  1
  O  O57  1  0.200878  0.558430  0.577455  1
  O  O58  1  0.520531  0.356905  0.546373  1
  O  O59  1  0.236304  0.918460  0.790180  1
