# generated using pymatgen
data_Tb8Ni18P11
_symmetry_space_group_name_H-M   'P 1'
_cell_length_a   18.03008806
_cell_length_b   18.03008848
_cell_length_c   3.82218017
_cell_angle_alpha   90.00000000
_cell_angle_beta   90.00000000
_cell_angle_gamma   119.99999923
_symmetry_Int_Tables_number   1
_chemical_formula_structural   Tb8Ni18P11
_chemical_formula_sum   'Tb16 Ni36 P22'
_cell_volume   1076.06249783
_cell_formula_units_Z   2
loop_
 _symmetry_equiv_pos_site_id
 _symmetry_equiv_pos_as_xyz
  1  'x, y, z'
loop_
 _atom_site_type_symbol
 _atom_site_label
 _atom_site_symmetry_multiplicity
 _atom_site_fract_x
 _atom_site_fract_y
 _atom_site_fract_z
 _atom_site_occupancy
  Tb  Tb0  1  0.593941  0.406059  0.000000  1
  Tb  Tb1  1  0.334712  0.451042  0.500000  1
  Tb  Tb2  1  0.334712  0.883670  0.500000  1
  Tb  Tb3  1  0.548958  0.665288  0.500000  1
  Tb  Tb4  1  0.548958  0.883670  0.500000  1
  Tb  Tb5  1  0.380850  0.190425  0.000000  1
  Tb  Tb6  1  0.116330  0.665288  0.500000  1
  Tb  Tb7  1  0.773869  0.886934  0.500000  1
  Tb  Tb8  1  0.809575  0.190425  0.000000  1
  Tb  Tb9  1  0.809575  0.619150  0.000000  1
  Tb  Tb10  1  0.593941  0.187881  0.000000  1
  Tb  Tb11  1  0.116330  0.451042  0.500000  1
  Tb  Tb12  1  0.812119  0.406059  0.000000  1
  Tb  Tb13  1  0.113066  0.886934  0.500000  1
  Tb  Tb14  1  0.333333  0.666667  0.500000  1
  Tb  Tb15  1  0.113066  0.226131  0.500000  1
  Ni  Ni16  1  0.204307  0.034876  0.000000  1
  Ni  Ni17  1  0.044245  0.088490  0.000000  1
  Ni  Ni18  1  0.518006  0.036011  0.500000  1
  Ni  Ni19  1  0.963850  0.590633  0.000000  1
  Ni  Ni20  1  0.189185  0.810815  0.000000  1
  Ni  Ni21  1  0.963850  0.373217  0.000000  1
  Ni  Ni22  1  0.405955  0.594045  0.000000  1
  Ni  Ni23  1  0.963989  0.481994  0.500000  1
  Ni  Ni24  1  0.103603  0.051802  0.500000  1
  Ni  Ni25  1  0.962894  0.268125  0.500000  1
  Ni  Ni26  1  0.405955  0.811910  0.000000  1
  Ni  Ni27  1  0.731875  0.694768  0.500000  1
  Ni  Ni28  1  0.948198  0.051802  0.500000  1
  Ni  Ni29  1  0.044245  0.955755  0.000000  1
  Ni  Ni30  1  0.738766  0.477531  0.500000  1
  Ni  Ni31  1  0.948198  0.896397  0.500000  1
  Ni  Ni32  1  0.626783  0.036150  0.000000  1
  Ni  Ni33  1  0.305232  0.037106  0.500000  1
  Ni  Ni34  1  0.409367  0.373217  0.000000  1
  Ni  Ni35  1  0.621631  0.810815  0.000000  1
  Ni  Ni36  1  0.830569  0.034876  0.000000  1
  Ni  Ni37  1  0.830569  0.795693  0.000000  1
  Ni  Ni38  1  0.188090  0.594045  0.000000  1
  Ni  Ni39  1  0.189185  0.378369  0.000000  1
  Ni  Ni40  1  0.965124  0.169431  0.000000  1
  Ni  Ni41  1  0.522469  0.261234  0.500000  1
  Ni  Ni42  1  0.965124  0.795693  0.000000  1
  Ni  Ni43  1  0.305232  0.268125  0.500000  1
  Ni  Ni44  1  0.911510  0.955755  0.000000  1
  Ni  Ni45  1  0.738766  0.261234  0.500000  1
  Ni  Ni46  1  0.731875  0.037106  0.500000  1
  Ni  Ni47  1  0.518006  0.481994  0.500000  1
  Ni  Ni48  1  0.204307  0.169431  0.000000  1
  Ni  Ni49  1  0.409367  0.036150  0.000000  1
  Ni  Ni50  1  0.626783  0.590633  0.000000  1
  Ni  Ni51  1  0.962894  0.694768  0.500000  1
  P  P52  1  0.262043  0.310206  0.000000  1
  P  P53  1  0.665665  0.118894  0.500000  1
  P  P54  1  0.879102  0.120898  0.500000  1
  P  P55  1  0.476766  0.738383  0.000000  1
  P  P56  1  0.048163  0.310206  0.000000  1
  P  P57  1  0.665665  0.546771  0.500000  1
  P  P58  1  0.879102  0.758205  0.500000  1
  P  P59  1  0.261617  0.738383  0.000000  1
  P  P60  1  0.453229  0.118894  0.500000  1
  P  P61  1  0.261617  0.523234  0.000000  1
  P  P62  1  0.048163  0.737957  0.000000  1
  P  P63  1  0.689794  0.737957  0.000000  1
  P  P64  1  0.881106  0.334335  0.500000  1
  P  P65  1  0.453229  0.334335  0.500000  1
  P  P66  1  0.241795  0.120898  0.500000  1
  P  P67  1  0.477378  0.954757  0.000000  1
  P  P68  1  0.881106  0.546771  0.500000  1
  P  P69  1  0.689794  0.951837  0.000000  1
  P  P70  1  0.666667  0.333333  0.500000  1
  P  P71  1  0.262043  0.951837  0.000000  1
  P  P72  1  0.477378  0.522622  0.000000  1
  P  P73  1  0.045243  0.522622  0.000000  1
