# generated using pymatgen
data_CsSbCl6
_symmetry_space_group_name_H-M   'P 1'
_cell_length_a   6.81764168
_cell_length_b   7.26498522
_cell_length_c   13.02353787
_cell_angle_alpha   101.25985416
_cell_angle_beta   90.00000000
_cell_angle_gamma   117.98318107
_symmetry_Int_Tables_number   1
_chemical_formula_structural   CsSbCl6
_chemical_formula_sum   'Cs2 Sb2 Cl12'
_cell_volume   555.54089078
_cell_formula_units_Z   2
loop_
 _symmetry_equiv_pos_site_id
 _symmetry_equiv_pos_as_xyz
  1  'x, y, z'
loop_
 _atom_site_type_symbol
 _atom_site_label
 _atom_site_symmetry_multiplicity
 _atom_site_fract_x
 _atom_site_fract_y
 _atom_site_fract_z
 _atom_site_occupancy
  Cs  Cs0  1  0.870793  0.500317  0.499229  1
  Cs  Cs1  1  0.629524  0.500318  0.999229  1
  Sb  Sb2  1  0.249791  0.001019  0.249018  1
  Sb  Sb3  1  0.751228  0.001018  0.749018  1
  Cl  Cl4  1  0.122047  0.071200  0.095723  1
  Cl  Cl5  1  0.204029  0.667960  0.144659  1
  Cl  Cl6  1  0.627619  0.182948  0.208588  1
  Cl  Cl7  1  0.871788  0.818857  0.289561  1
  Cl  Cl8  1  0.295710  0.334097  0.353471  1
  Cl  Cl9  1  0.377692  0.930604  0.402651  1
  Cl  Cl10  1  0.949151  0.071200  0.595723  1
  Cl  Cl11  1  0.463930  0.667958  0.644658  1
  Cl  Cl12  1  0.555327  0.182947  0.708588  1
  Cl  Cl13  1  0.947069  0.818857  0.789561  1
  Cl  Cl14  1  0.038388  0.334097  0.853471  1
  Cl  Cl15  1  0.552913  0.930605  0.902651  1
