# generated using pymatgen
data_KS2O3
_symmetry_space_group_name_H-M   'P 1'
_cell_length_a   8.30211527
_cell_length_b   10.31140100
_cell_length_c   11.99387069
_cell_angle_alpha   101.32824172
_cell_angle_beta   110.24885624
_cell_angle_gamma   90.00000070
_symmetry_Int_Tables_number   1
_chemical_formula_structural   KS2O3
_chemical_formula_sum   'K8 S16 O24'
_cell_volume   941.94764401
_cell_formula_units_Z   8
loop_
 _symmetry_equiv_pos_site_id
 _symmetry_equiv_pos_as_xyz
  1  'x, y, z'
loop_
 _atom_site_type_symbol
 _atom_site_label
 _atom_site_symmetry_multiplicity
 _atom_site_fract_x
 _atom_site_fract_y
 _atom_site_fract_z
 _atom_site_occupancy
  K  K0  1  0.855792  0.613619  0.872368  1
  K  K1  1  0.016576  0.113619  0.872368  1
  K  K2  1  0.375975  0.737508  0.971100  1
  K  K3  1  0.595125  0.237508  0.971100  1
  K  K4  1  0.348513  0.560691  0.564145  1
  K  K5  1  0.215632  0.060691  0.564145  1
  K  K6  1  0.915054  0.949064  0.152028  1
  K  K7  1  0.236974  0.449064  0.152028  1
  S  S8  1  0.600727  0.897216  0.801368  1
  S  S9  1  0.200642  0.397216  0.801368  1
  S  S10  1  0.631625  0.901954  0.629838  1
  S  S11  1  -0.001786  0.401954  0.629838  1
  S  S12  1  0.745294  0.738543  0.583418  1
  S  S13  1  0.838124  0.238543  0.583418  1
  S  S14  1  0.020643  0.794535  0.673887  1
  S  S15  1  0.653244  0.294535  0.673887  1
  S  S16  1  0.725188  0.567903  0.112385  1
  S  S17  1  0.387197  0.067903  0.112385  1
  S  S18  1  0.860380  0.577973  0.303523  1
  S  S19  1  0.443143  0.077973  0.303523  1
  S  S20  1  0.805587  0.395007  0.321510  1
  S  S21  1  0.515924  0.895007  0.321510  1
  S  S22  1  0.013018  0.277625  0.292291  1
  S  S23  1  0.279272  0.777625  0.292291  1
  O  O24  1  0.766145  0.946150  0.900170  1
  O  O25  1  0.134025  0.446150  0.900170  1
  O  O26  1  0.465384  0.989888  0.794525  1
  O  O27  1  0.329141  0.489888  0.794525  1
  O  O28  1  0.549393  0.759237  0.797562  1
  O  O29  1  0.248169  0.259237  0.797562  1
  O  O30  1  0.064885  0.763808  0.795206  1
  O  O31  1  0.730320  0.263808  0.795206  1
  O  O32  1  0.093142  0.709456  0.593306  1
  O  O33  1  0.500164  0.209456  0.593306  1
  O  O34  1  0.040255  0.936739  0.677102  1
  O  O35  1  0.636846  0.436739  0.677102  1
  O  O36  1  0.737651  0.707226  0.101387  1
  O  O37  1  0.363736  0.207226  0.101387  1
  O  O38  1  0.547916  0.515161  0.084691  1
  O  O39  1  0.536775  0.015161  0.084691  1
  O  O40  1  0.818637  0.480661  0.047156  1
  O  O41  1  0.228519  0.980661  0.047156  1
  O  O42  1  0.006222  0.170721  0.355907  1
  O  O43  1  0.349685  0.670721  0.355907  1
  O  O44  1  0.963924  0.229571  0.159742  1
  O  O45  1  0.195819  0.729571  0.159742  1
  O  O46  1  0.170222  0.366943  0.345785  1
  O  O47  1  0.175563  0.866943  0.345785  1
