# generated using pymatgen
data_Co2TeCl2O3
_symmetry_space_group_name_H-M   'P 1'
_cell_length_a   5.05981268
_cell_length_b   6.74321947
_cell_length_c   8.52884286
_cell_angle_alpha   89.84387041
_cell_angle_beta   105.27933069
_cell_angle_gamma   90.01274236
_symmetry_Int_Tables_number   1
_chemical_formula_structural   Co2TeCl2O3
_chemical_formula_sum   'Co4 Te2 Cl4 O6'
_cell_volume   280.71207341
_cell_formula_units_Z   2
loop_
 _symmetry_equiv_pos_site_id
 _symmetry_equiv_pos_as_xyz
  1  'x, y, z'
loop_
 _atom_site_type_symbol
 _atom_site_label
 _atom_site_symmetry_multiplicity
 _atom_site_fract_x
 _atom_site_fract_y
 _atom_site_fract_z
 _atom_site_occupancy
  Co  Co0  1  0.233205  0.751244  0.775102  1
  Co  Co1  1  0.766745  0.248757  0.224853  1
  Co  Co2  1  0.000015  0.500005  0.000009  1
  Co  Co3  1  0.000015  0.999993  0.000013  1
  Te  Te4  1  0.406825  0.251300  0.754105  1
  Te  Te5  1  0.593190  0.748698  0.245912  1
  Cl  Cl6  1  0.160759  0.750012  0.497028  1
  Cl  Cl7  1  0.745622  0.750349  0.799853  1
  Cl  Cl8  1  0.254387  0.249651  0.200147  1
  Cl  Cl9  1  0.839243  0.249996  0.502944  1
  O  O10  1  0.761212  0.962186  0.161382  1
  O  O11  1  0.239198  0.464114  0.838684  1
  O  O12  1  0.238783  0.037806  0.838618  1
  O  O13  1  0.749024  0.250148  0.927645  1
  O  O14  1  0.250973  0.749850  0.072393  1
  O  O15  1  0.760805  0.535892  0.161312  1
