# generated using pymatgen
data_NaNb2PS10
_symmetry_space_group_name_H-M   'P 1'
_cell_length_a   8.26447362
_cell_length_b   13.03100206
_cell_length_c   13.70606406
_cell_angle_alpha   90.39352608
_cell_angle_beta   107.54709884
_cell_angle_gamma   90.00000077
_symmetry_Int_Tables_number   1
_chemical_formula_structural   NaNb2PS10
_chemical_formula_sum   'Na4 Nb8 P4 S40'
_cell_volume   1407.34727975
_cell_formula_units_Z   4
loop_
 _symmetry_equiv_pos_site_id
 _symmetry_equiv_pos_as_xyz
  1  'x, y, z'
loop_
 _atom_site_type_symbol
 _atom_site_label
 _atom_site_symmetry_multiplicity
 _atom_site_fract_x
 _atom_site_fract_y
 _atom_site_fract_z
 _atom_site_occupancy
  Na  Na0  1  0.938183  0.880379  0.884377  1
  Na  Na1  1  0.053807  0.619621  0.115623  1
  Na  Na2  1  0.946193  0.380379  0.884377  1
  Na  Na3  1  0.061817  0.119621  0.115623  1
  Nb  Nb4  1  0.703790  0.722984  0.279318  1
  Nb  Nb5  1  0.698067  0.013876  0.279672  1
  Nb  Nb6  1  0.296210  0.277016  0.720682  1
  Nb  Nb7  1  0.581604  0.513876  0.279672  1
  Nb  Nb8  1  0.575528  0.222984  0.279318  1
  Nb  Nb9  1  0.301933  0.986124  0.720328  1
  Nb  Nb10  1  0.418396  0.486124  0.720328  1
  Nb  Nb11  1  0.424472  0.777016  0.720682  1
  P  P12  1  0.225336  0.371160  0.205025  1
  P  P13  1  0.979689  0.871160  0.205025  1
  P  P14  1  0.020311  0.128840  0.794975  1
  P  P15  1  0.774664  0.628840  0.794975  1
  S  S16  1  0.273893  0.503370  0.292342  1
  S  S17  1  0.240551  0.130560  0.587219  1
  S  S18  1  0.714887  0.868056  0.144090  1
  S  S19  1  0.346668  0.630560  0.587219  1
  S  S20  1  0.180737  0.856494  0.583493  1
  S  S21  1  0.726107  0.496630  0.707658  1
  S  S22  1  0.981551  0.996630  0.707658  1
  S  S23  1  0.429203  0.368056  0.144090  1
  S  S24  1  0.586129  0.094612  0.415566  1
  S  S25  1  0.462108  0.648774  0.139830  1
  S  S26  1  0.759449  0.869440  0.412781  1
  S  S27  1  0.688107  0.583996  0.141381  1
  S  S28  1  0.546726  0.916004  0.858619  1
  S  S29  1  0.990609  0.372680  0.105389  1
  S  S30  1  0.267811  0.239485  0.291544  1
  S  S31  1  0.597245  0.643506  0.416507  1
  S  S32  1  0.516761  0.867056  0.314776  1
  S  S33  1  0.819263  0.143506  0.416507  1
  S  S34  1  0.732189  0.760515  0.708456  1
  S  S35  1  0.976267  0.260515  0.708456  1
  S  S36  1  0.285113  0.131944  0.855910  1
  S  S37  1  0.483239  0.132944  0.685224  1
  S  S38  1  0.170563  0.405388  0.584434  1
  S  S39  1  0.311893  0.416004  0.858619  1
  S  S40  1  0.653332  0.369440  0.412781  1
  S  S41  1  0.023733  0.739485  0.291544  1
  S  S42  1  0.570797  0.631944  0.855910  1
  S  S43  1  0.413871  0.905388  0.584434  1
  S  S44  1  0.402755  0.356494  0.583493  1
  S  S45  1  0.885220  0.127320  0.894611  1
  S  S46  1  0.537892  0.351226  0.860170  1
  S  S47  1  0.114780  0.872680  0.105389  1
  S  S48  1  0.677722  0.148774  0.139830  1
  S  S49  1  0.201985  0.632944  0.685224  1
  S  S50  1  0.829437  0.594612  0.415566  1
  S  S51  1  0.798015  0.367056  0.314776  1
  S  S52  1  0.322278  0.851226  0.860170  1
  S  S53  1  0.009391  0.627320  0.894611  1
  S  S54  1  0.018449  0.003370  0.292342  1
  S  S55  1  0.453274  0.083996  0.141381  1
