# generated using pymatgen
data_La6Zr8F47
_symmetry_space_group_name_H-M   'P 1'
_cell_length_a   11.11175179
_cell_length_b   11.11175117
_cell_length_c   11.01450398
_cell_angle_alpha   109.15174343
_cell_angle_beta   110.02094016
_cell_angle_gamma   109.59886153
_symmetry_Int_Tables_number   1
_chemical_formula_structural   La6Zr8F47
_chemical_formula_sum   'La6 Zr8 F47'
_cell_volume   1042.21248217
_cell_formula_units_Z   1
loop_
 _symmetry_equiv_pos_site_id
 _symmetry_equiv_pos_as_xyz
  1  'x, y, z'
loop_
 _atom_site_type_symbol
 _atom_site_label
 _atom_site_symmetry_multiplicity
 _atom_site_fract_x
 _atom_site_fract_y
 _atom_site_fract_z
 _atom_site_occupancy
  F  F0  1  0.016698  0.647277  0.994663  1
  F  F1  1  0.137371  0.985753  0.987604  1
  F  F2  1  0.090474  0.826856  0.685522  1
  F  F3  1  1.005417  0.529117  0.666267  1
  F  F4  1  0.101048  0.742514  0.416430  1
  F  F5  1  0.130789  0.312767  0.903750  1
  F  F6  1  0.346643  0.847652  0.863718  1
  F  F7  1  0.013514  0.502632  0.156160  1
  F  F8  1  0.201280  0.451280  0.750000  1
  F  F9  1  0.153344  0.511060  0.493947  1
  F  F10  1  0.401101  0.816564  0.638057  1
  F  F11  1  0.349419  0.844766  0.358935  1
  F  F12  1  0.362850  0.339150  0.833733  1
  F  F13  1  0.318129  0.899751  0.136927  1
  F  F14  1  0.186144  0.364075  0.260949  1
  F  F15  1  0.152614  0.022035  0.505337  1
  F  F16  1  0.306603  0.581221  0.161789  1
  F  F17  1  0.262824  0.181202  0.363073  1
  F  F18  1  0.483298  0.639559  0.485817  1
  F  F19  1  0.483934  0.482926  0.636282  1
  F  F20  1  0.416438  0.093322  0.732201  1
  F  F21  1  0.678507  0.763045  0.861943  1
  F  F22  1  0.362009  0.259806  0.182009  1
  F  F23  1  0.603125  0.925195  0.239051  1
  F  F24  1  0.641334  0.404952  0.814478  1
  F  F25  1  0.761848  0.859885  0.680913  1
  F  F26  1  0.498149  0.149768  0.512396  1
  F  F27  1  0.504428  0.490917  0.142376  1
  F  F28  1  0.517113  0.659398  0.006053  1
  F  F29  1  0.653741  0.997481  0.014183  1
  F  F30  1  0.639749  0.491788  0.484243  1
  F  F31  1  0.861121  0.684237  0.767799  1
  F  F32  1  0.678972  0.080935  0.819087  1
  F  F33  1  0.577797  0.180000  0.317991  1
  F  F34  1  0.846471  0.857354  0.343840  1
  F  F35  1  0.507545  0.155505  0.015757  1
  F  F36  1  0.856653  0.341579  0.849123  1
  F  F37  1  0.823301  0.640149  0.403972  1
  F  F38  1  0.650603  -0.002537  0.515107  1
  F  F39  1  0.826084  0.684618  0.083570  1
  F  F40  1  0.736177  0.419329  0.096028  1
  F  F41  1  0.848542  0.362052  0.357624  1
  F  F42  1  0.985831  0.990484  0.141065  1
  F  F43  1  0.982357  0.135497  0.984893  1
  F  F44  1  0.909017  0.227039  0.596250  1
  F  F45  1  0.919432  0.144814  0.338211  1
  F  F46  1  0.992457  0.007530  0.650877  1
  La  La47  1  0.125238  0.755288  0.876369  1
  La  La48  1  0.249612  0.623087  0.370755  1
  La  La49  1  0.378919  0.248869  0.623631  1
  La  La50  1  0.628194  0.378194  0.250000  1
  La  La51  1  0.752331  0.878856  0.129245  1
  La  La52  1  0.872729  0.122729  0.750000  1
  Zr  Zr53  1  0.156532  0.157942  0.156484  1
  Zr  Zr54  1  0.331783  0.491525  0.978766  1
  Zr  Zr55  1  0.654113  0.655799  0.656453  1
  Zr  Zr56  1  0.499346  -0.002340  0.843547  1
  Zr  Zr57  1  0.501458  0.000049  0.343516  1
  Zr  Zr58  1  0.002513  0.845862  0.500687  1
  Zr  Zr59  1  0.845175  0.501826  0.999313  1
  Zr  Zr60  1  0.012759  0.353017  0.521234  1
