# generated using pymatgen
data_EuFeO3
_symmetry_space_group_name_H-M   'P 1'
_cell_length_a   5.50907057
_cell_length_b   5.57074342
_cell_length_c   7.81294556
_cell_angle_alpha   90.00000000
_cell_angle_beta   90.00000000
_cell_angle_gamma   90.00000000
_symmetry_Int_Tables_number   1
_chemical_formula_structural   EuFeO3
_chemical_formula_sum   'Eu4 Fe4 O12'
_cell_volume   239.77631960
_cell_formula_units_Z   4
loop_
 _symmetry_equiv_pos_site_id
 _symmetry_equiv_pos_as_xyz
  1  'x, y, z'
loop_
 _atom_site_type_symbol
 _atom_site_label
 _atom_site_symmetry_multiplicity
 _atom_site_fract_x
 _atom_site_fract_y
 _atom_site_fract_z
 _atom_site_occupancy
  Eu  Eu0  1  0.992549  0.041622  0.250000  1
  Eu  Eu1  1  0.492549  0.458378  0.750000  1
  Eu  Eu2  1  0.507451  0.541622  0.250000  1
  Eu  Eu3  1  0.007451  0.958378  0.750000  1
  Fe  Fe4  1  0.000000  0.500000  0.000000  1
  Fe  Fe5  1  0.500000  0.000000  0.000000  1
  Fe  Fe6  1  0.500000  0.000000  0.500000  1
  Fe  Fe7  1  0.000000  0.500000  0.500000  1
  O  O8  1  0.079739  0.478919  0.250000  1
  O  O9  1  0.579739  0.021081  0.750000  1
  O  O10  1  0.420261  0.978919  0.250000  1
  O  O11  1  0.920261  0.521081  0.750000  1
  O  O12  1  0.706086  0.293921  0.041563  1
  O  O13  1  0.206086  0.206079  0.958437  1
  O  O14  1  0.793914  0.793921  0.458437  1
  O  O15  1  0.293914  0.706079  0.541563  1
  O  O16  1  0.293914  0.706079  0.958437  1
  O  O17  1  0.793914  0.793921  0.041563  1
  O  O18  1  0.206086  0.206079  0.541563  1
  O  O19  1  0.706086  0.293921  0.458437  1
