# generated using pymatgen
data_NaPO3
_symmetry_space_group_name_H-M   'P 1'
_cell_length_a   6.10052453
_cell_length_b   7.75078954
_cell_length_c   11.50331819
_cell_angle_alpha   94.19096793
_cell_angle_beta   90.00000000
_cell_angle_gamma   90.00000000
_symmetry_Int_Tables_number   1
_chemical_formula_structural   NaPO3
_chemical_formula_sum   'Na8 P8 O24'
_cell_volume   542.46709629
_cell_formula_units_Z   8
loop_
 _symmetry_equiv_pos_site_id
 _symmetry_equiv_pos_as_xyz
  1  'x, y, z'
loop_
 _atom_site_type_symbol
 _atom_site_label
 _atom_site_symmetry_multiplicity
 _atom_site_fract_x
 _atom_site_fract_y
 _atom_site_fract_z
 _atom_site_occupancy
  Na  Na0  1  0.329266  0.190897  0.999258  1
  Na  Na1  1  0.829266  0.309103  0.500742  1
  Na  Na2  1  0.425729  0.112223  0.305414  1
  Na  Na3  1  0.574271  0.887777  0.694586  1
  Na  Na4  1  0.670734  0.809103  0.000742  1
  Na  Na5  1  0.925729  0.387777  0.194586  1
  Na  Na6  1  0.074271  0.612223  0.805414  1
  Na  Na7  1  0.170734  0.690897  0.499258  1
  P  P8  1  0.921486  0.966093  0.309797  1
  P  P9  1  0.421486  0.533907  0.190203  1
  P  P10  1  0.155085  0.820827  0.097284  1
  P  P11  1  0.578514  0.466093  0.809797  1
  P  P12  1  0.078514  0.033907  0.690203  1
  P  P13  1  0.344915  0.320827  0.597284  1
  P  P14  1  0.655085  0.679173  0.402716  1
  P  P15  1  0.844915  0.179173  0.902716  1
  O  O16  1  0.378478  0.423313  0.877079  1
  O  O17  1  0.445939  0.610367  0.325426  1
  O  O18  1  0.436489  0.281632  0.477858  1
  O  O19  1  0.849618  0.560431  0.384887  1
  O  O20  1  0.655276  0.650681  0.809782  1
  O  O21  1  0.878478  0.076687  0.622921  1
  O  O22  1  0.150382  0.439569  0.615113  1
  O  O23  1  0.203549  0.637776  0.153942  1
  O  O24  1  0.945939  0.889633  0.174574  1
  O  O25  1  0.844724  0.150681  0.309782  1
  O  O26  1  0.796451  0.362224  0.846058  1
  O  O27  1  0.344724  0.349319  0.190218  1
  O  O28  1  0.155276  0.849319  0.690218  1
  O  O29  1  0.054061  0.110367  0.825426  1
  O  O30  1  0.563511  0.718368  0.522142  1
  O  O31  1  0.703549  0.862224  0.346058  1
  O  O32  1  0.554061  0.389633  0.674574  1
  O  O33  1  0.296451  0.137776  0.653942  1
  O  O34  1  0.936489  0.218368  0.022142  1
  O  O35  1  0.063511  0.781632  0.977858  1
  O  O36  1  0.349618  0.939569  0.115113  1
  O  O37  1  0.621522  0.576687  0.122921  1
  O  O38  1  0.121522  0.923313  0.377079  1
  O  O39  1  0.650382  0.060431  0.884887  1
