# generated using pymatgen
data_AgH12C6N5O3
_symmetry_space_group_name_H-M   'P 1'
_cell_length_a   6.65802767
_cell_length_b   10.54616200
_cell_length_c   14.12099050
_cell_angle_alpha   90.00000000
_cell_angle_beta   90.00000000
_cell_angle_gamma   90.00000000
_symmetry_Int_Tables_number   1
_chemical_formula_structural   AgH12C6N5O3
_chemical_formula_sum   'Ag4 H48 C24 N20 O12'
_cell_volume   991.52848391
_cell_formula_units_Z   4
loop_
 _symmetry_equiv_pos_site_id
 _symmetry_equiv_pos_as_xyz
  1  'x, y, z'
loop_
 _atom_site_type_symbol
 _atom_site_label
 _atom_site_symmetry_multiplicity
 _atom_site_fract_x
 _atom_site_fract_y
 _atom_site_fract_z
 _atom_site_occupancy
  Ag  Ag0  1  0.369965  0.982516  0.795092  1
  Ag  Ag1  1  0.869965  0.017484  0.204908  1
  Ag  Ag2  1  0.869965  0.482516  0.704908  1
  Ag  Ag3  1  0.369965  0.517484  0.295092  1
  H  H4  1  0.179454  0.066178  0.581022  1
  H  H5  1  0.727927  0.241959  0.050315  1
  H  H6  1  0.055159  0.739396  0.802303  1
  H  H7  1  0.682404  0.738011  0.809773  1
  H  H8  1  0.679454  0.566178  0.918978  1
  H  H9  1  0.682404  0.761989  0.309773  1
  H  H10  1  0.227927  0.758041  0.949685  1
  H  H11  1  0.051396  0.567919  0.914647  1
  H  H12  1  0.870349  0.904799  0.756341  1
  H  H13  1  0.555159  0.260604  0.197697  1
  H  H14  1  0.679454  0.933822  0.418978  1
  H  H15  1  0.870349  0.595201  0.256341  1
  H  H16  1  0.191171  0.723365  0.693200  1
  H  H17  1  0.691171  0.276635  0.306800  1
  H  H18  1  0.043059  0.576172  0.108159  1
  H  H19  1  0.997800  0.259244  0.547615  1
  H  H20  1  0.873120  0.469718  0.340917  1
  H  H21  1  0.551396  0.432081  0.085353  1
  H  H22  1  0.187076  0.075451  0.389719  1
  H  H23  1  0.179454  0.433822  0.081022  1
  H  H24  1  0.373120  0.969718  0.159083  1
  H  H25  1  0.687076  0.924549  0.610281  1
  H  H26  1  0.370349  0.095201  0.243659  1
  H  H27  1  0.373120  0.530282  0.659083  1
  H  H28  1  0.873120  0.030282  0.840917  1
  H  H29  1  0.558935  0.724711  0.697080  1
  H  H30  1  0.227927  0.741959  0.449685  1
  H  H31  1  0.370349  0.404799  0.743659  1
  H  H32  1  0.182404  0.238011  0.690227  1
  H  H33  1  0.543059  0.076172  0.391841  1
  H  H34  1  0.043059  0.923828  0.608159  1
  H  H35  1  0.727927  0.258041  0.550315  1
  H  H36  1  0.551396  0.067919  0.585353  1
  H  H37  1  0.687076  0.575451  0.110281  1
  H  H38  1  0.558935  0.775289  0.197080  1
  H  H39  1  0.187076  0.424549  0.889719  1
  H  H40  1  0.543059  0.423828  0.891841  1
  H  H41  1  0.497800  0.740756  0.452385  1
  H  H42  1  0.055159  0.760604  0.302303  1
  H  H43  1  0.182404  0.261989  0.190227  1
  H  H44  1  0.555159  0.239396  0.697697  1
  H  H45  1  0.497800  0.759244  0.952385  1
  H  H46  1  0.997800  0.240756  0.047615  1
  H  H47  1  0.058935  0.275289  0.302920  1
  H  H48  1  0.691171  0.223365  0.806800  1
  H  H49  1  0.058935  0.224711  0.802920  1
  H  H50  1  0.051396  0.932081  0.414647  1
  H  H51  1  0.191171  0.776635  0.193200  1
  C  C52  1  0.370793  0.991940  0.235108  1
  C  C53  1  0.370793  0.508060  0.735108  1
  C  C54  1  0.864807  0.281271  0.082039  1
  C  C55  1  0.864807  0.218729  0.582039  1
  C  C56  1  0.364807  0.718729  0.917961  1
  C  C57  1  0.187058  0.971758  0.381788  1
  C  C58  1  0.189828  0.800410  0.268909  1
  C  C59  1  0.689828  0.199590  0.731091  1
  C  C60  1  0.051428  0.199518  0.727590  1
  C  C61  1  0.545323  0.527546  0.884157  1
  C  C62  1  0.870793  0.491940  0.264892  1
  C  C63  1  0.687058  0.471758  0.118212  1
  C  C64  1  0.045323  0.027546  0.615843  1
  C  C65  1  0.687058  0.028242  0.618212  1
  C  C66  1  0.689828  0.300410  0.231091  1
  C  C67  1  0.551428  0.699518  0.772410  1
  C  C68  1  0.551428  0.800482  0.272410  1
  C  C69  1  0.045323  0.472454  0.115843  1
  C  C70  1  0.364807  0.781271  0.417961  1
  C  C71  1  0.187058  0.528242  0.881788  1
  C  C72  1  0.189828  0.699590  0.768909  1
  C  C73  1  0.870793  0.008060  0.764892  1
  C  C74  1  0.545323  0.972454  0.384157  1
  C  C75  1  0.051428  0.300482  0.227590  1
  N  N76  1  0.684694  0.059696  0.721423  1
  N  N77  1  0.364979  0.580419  0.928822  1
  N  N78  1  0.864979  0.419581  0.071178  1
  N  N79  1  0.876926  0.634732  0.521657  1
  N  N80  1  0.054472  0.059375  0.718913  1
  N  N81  1  0.554472  0.940625  0.281087  1
  N  N82  1  0.876926  0.865268  0.021657  1
  N  N83  1  0.184694  0.940304  0.278577  1
  N  N84  1  0.684694  0.440304  0.221423  1
  N  N85  1  0.868667  0.244243  0.184509  1
  N  N86  1  0.868667  0.255757  0.684509  1
  N  N87  1  0.554472  0.559375  0.781087  1
  N  N88  1  0.368667  0.744243  0.315491  1
  N  N89  1  0.364979  0.919581  0.428822  1
  N  N90  1  0.054472  0.440625  0.218913  1
  N  N91  1  0.368667  0.755757  0.815491  1
  N  N92  1  0.864979  0.080419  0.571178  1
  N  N93  1  0.376926  0.365268  0.478343  1
  N  N94  1  0.184694  0.559696  0.778577  1
  N  N95  1  0.376926  0.134732  0.978343  1
  O  O96  1  0.361865  0.310316  0.397612  1
  O  O97  1  0.401061  0.015871  0.981749  1
  O  O98  1  0.901061  0.984129  0.018251  1
  O  O99  1  0.368086  0.299542  0.553257  1
  O  O100  1  0.868086  0.799542  0.946743  1
  O  O101  1  0.861865  0.810316  0.102388  1
  O  O102  1  0.868086  0.700458  0.446743  1
  O  O103  1  0.368086  0.200458  0.053257  1
  O  O104  1  0.861865  0.689684  0.602388  1
  O  O105  1  0.901061  0.515871  0.518251  1
  O  O106  1  0.361865  0.189684  0.897612  1
  O  O107  1  0.401061  0.484129  0.481749  1
