# generated using pymatgen
data_Na2ErMoPO8
_symmetry_space_group_name_H-M   'P 1'
_cell_length_a   6.90410819
_cell_length_b   11.47746321
_cell_length_c   11.47746352
_cell_angle_alpha   63.94097339
_cell_angle_beta   72.49625624
_cell_angle_gamma   72.49625847
_symmetry_Int_Tables_number   1
_chemical_formula_structural   Na2ErMoPO8
_chemical_formula_sum   'Na8 Er4 Mo4 P4 O32'
_cell_volume   763.96027208
_cell_formula_units_Z   4
loop_
 _symmetry_equiv_pos_site_id
 _symmetry_equiv_pos_as_xyz
  1  'x, y, z'
loop_
 _atom_site_type_symbol
 _atom_site_label
 _atom_site_symmetry_multiplicity
 _atom_site_fract_x
 _atom_site_fract_y
 _atom_site_fract_z
 _atom_site_occupancy
  Na  Na0  1  0.158347  0.791553  0.400425  1
  Na  Na1  1  0.649675  0.291553  0.900425  1
  Na  Na2  1  0.841653  0.208447  0.599575  1
  Na  Na3  1  0.850325  0.599575  0.208447  1
  Na  Na4  1  0.658347  0.900425  0.291553  1
  Na  Na5  1  0.350325  0.708447  0.099575  1
  Na  Na6  1  0.341653  0.099575  0.708447  1
  Na  Na7  1  0.149675  0.400425  0.791553  1
  Er  Er8  1  0.750000  0.321729  0.178271  1
  Er  Er9  1  0.250000  0.178271  0.321729  1
  Er  Er10  1  0.250000  0.678271  0.821729  1
  Er  Er11  1  0.750000  0.821729  0.678271  1
  Mo  Mo12  1  0.823009  0.926991  0.926991  1
  Mo  Mo13  1  0.176991  0.073009  0.073009  1
  Mo  Mo14  1  0.676991  0.573009  0.573009  1
  Mo  Mo15  1  0.323009  0.426991  0.426991  1
  P  P16  1  0.750000  0.068772  0.431228  1
  P  P17  1  0.250000  0.931228  0.568772  1
  P  P18  1  0.750000  0.568772  0.931228  1
  P  P19  1  0.250000  0.431228  0.068772  1
  O  O20  1  0.773111  0.398823  0.639543  1
  O  O21  1  0.691456  0.560350  0.075553  1
  O  O22  1  0.726889  0.860457  0.101177  1
  O  O23  1  0.327359  0.939650  0.424447  1
  O  O24  1  0.311478  0.360457  0.601177  1
  O  O25  1  0.581186  0.141870  0.344465  1
  O  O26  1  0.908866  0.154683  0.104828  1
  O  O27  1  0.827359  0.924447  0.439650  1
  O  O28  1  0.331623  0.104828  0.154683  1
  O  O29  1  0.567520  0.655535  0.858130  1
  O  O30  1  0.308544  0.439650  0.924447  1
  O  O31  1  0.418814  0.858130  0.655535  1
  O  O32  1  0.811478  0.101177  0.860457  1
  O  O33  1  0.408866  0.604828  0.654683  1
  O  O34  1  0.172641  0.075553  0.560350  1
  O  O35  1  0.831623  0.654683  0.604828  1
  O  O36  1  0.188522  0.898823  0.139543  1
  O  O37  1  0.226889  0.601177  0.360457  1
  O  O38  1  0.168377  0.345317  0.395172  1
  O  O39  1  0.081186  0.844465  0.641870  1
  O  O40  1  0.672641  0.060350  0.575553  1
  O  O41  1  0.432480  0.344465  0.141870  1
  O  O42  1  0.808544  0.424447  0.939650  1
  O  O43  1  0.591134  0.395172  0.345317  1
  O  O44  1  0.067520  0.358130  0.155535  1
  O  O45  1  0.668377  0.895172  0.845317  1
  O  O46  1  0.191456  0.575553  0.060350  1
  O  O47  1  0.273111  0.139543  0.898823  1
  O  O48  1  0.918814  0.155535  0.358130  1
  O  O49  1  0.932480  0.641870  0.844465  1
  O  O50  1  0.091134  0.845317  0.895172  1
  O  O51  1  0.688522  0.639543  0.398823  1
