# generated using pymatgen
data_Co(NO3)2
_symmetry_space_group_name_H-M   'P 1'
_cell_length_a   7.53050371
_cell_length_b   7.53050371
_cell_length_c   7.53050371
_cell_angle_alpha   90.24718719
_cell_angle_beta   90.24718717
_cell_angle_gamma   90.24718725
_symmetry_Int_Tables_number   1
_chemical_formula_structural   Co(NO3)2
_chemical_formula_sum   'Co4 N8 O24'
_cell_volume   427.03150837
_cell_formula_units_Z   4
loop_
 _symmetry_equiv_pos_site_id
 _symmetry_equiv_pos_as_xyz
  1  'x, y, z'
loop_
 _atom_site_type_symbol
 _atom_site_label
 _atom_site_symmetry_multiplicity
 _atom_site_fract_x
 _atom_site_fract_y
 _atom_site_fract_z
 _atom_site_occupancy
  N  N0  1  0.336587  0.336587  0.336587  1
  N  N1  1  0.842034  0.158700  0.651366  1
  N  N2  1  0.158700  0.651366  0.842034  1
  N  N3  1  0.651366  0.842034  0.158700  1
  N  N4  1  0.157966  0.841300  0.348634  1
  N  N5  1  0.663413  0.663413  0.663413  1
  N  N6  1  0.348634  0.157966  0.841300  1
  N  N7  1  0.841300  0.348634  0.157966  1
  O  O8  1  0.984025  0.246118  0.628006  1
  O  O9  1  0.015975  0.753882  0.371994  1
  O  O10  1  0.628006  0.984025  0.246118  1
  O  O11  1  0.246118  0.628006  0.984025  1
  O  O12  1  0.333581  0.220317  0.456943  1
  O  O13  1  0.456943  0.333581  0.220317  1
  O  O14  1  0.220317  0.456943  0.333581  1
  O  O15  1  0.666419  0.779683  0.543057  1
  O  O16  1  0.543057  0.666419  0.779683  1
  O  O17  1  0.779683  0.543057  0.666419  1
  O  O18  1  0.715689  0.172950  0.540757  1
  O  O19  1  0.540757  0.715689  0.172950  1
  O  O20  1  0.172950  0.540757  0.715689  1
  O  O21  1  0.284311  0.827050  0.459243  1
  O  O22  1  0.459243  0.284311  0.827050  1
  O  O23  1  0.827050  0.459243  0.284311  1
  O  O24  1  0.173260  0.943802  0.216748  1
  O  O25  1  0.216748  0.173260  0.943802  1
  O  O26  1  0.943802  0.216748  0.173260  1
  O  O27  1  0.826740  0.056198  0.783252  1
  O  O28  1  0.783252  0.826740  0.056198  1
  O  O29  1  0.056198  0.783252  0.826740  1
  O  O30  1  0.371994  0.015975  0.753882  1
  O  O31  1  0.753882  0.371994  0.015975  1
  Co  Co32  1  0.000000  0.000000  0.000000  1
  Co  Co33  1  0.000000  0.500000  0.500000  1
  Co  Co34  1  0.500000  0.500000  0.000000  1
  Co  Co35  1  0.500000  0.000000  0.500000  1
