# generated using pymatgen
data_Sr3EuRhO6
_symmetry_space_group_name_H-M   'P 1'
_cell_length_a   6.90428429
_cell_length_b   6.90428430
_cell_length_c   6.90428403
_cell_angle_alpha   91.48485537
_cell_angle_beta   91.48485538
_cell_angle_gamma   91.48485863
_symmetry_Int_Tables_number   1
_chemical_formula_structural   Sr3EuRhO6
_chemical_formula_sum   'Sr6 Eu2 Rh2 O12'
_cell_volume   328.78390115
_cell_formula_units_Z   2
loop_
 _symmetry_equiv_pos_site_id
 _symmetry_equiv_pos_as_xyz
  1  'x, y, z'
loop_
 _atom_site_type_symbol
 _atom_site_label
 _atom_site_symmetry_multiplicity
 _atom_site_fract_x
 _atom_site_fract_y
 _atom_site_fract_z
 _atom_site_occupancy
  Sr  Sr0  1  0.618753  0.881247  0.250000  1
  Sr  Sr1  1  0.250000  0.618753  0.881247  1
  Sr  Sr2  1  0.881247  0.250000  0.618753  1
  Sr  Sr3  1  0.381247  0.118753  0.750000  1
  Sr  Sr4  1  0.750000  0.381247  0.118753  1
  Sr  Sr5  1  0.118753  0.750000  0.381247  1
  Eu  Eu6  1  0.250000  0.250000  0.250000  1
  Eu  Eu7  1  0.750000  0.750000  0.750000  1
  Rh  Rh8  1  0.000000  0.000000  0.000000  1
  Rh  Rh9  1  0.500000  0.500000  0.500000  1
  O  O10  1  0.289008  0.949363  0.082373  1
  O  O11  1  0.082373  0.289008  0.949363  1
  O  O12  1  0.949363  0.082373  0.289008  1
  O  O13  1  0.550637  0.210992  0.417627  1
  O  O14  1  0.417627  0.550637  0.210992  1
  O  O15  1  0.210992  0.417627  0.550637  1
  O  O16  1  0.710992  0.050637  0.917627  1
  O  O17  1  0.917627  0.710992  0.050637  1
  O  O18  1  0.050637  0.917627  0.710992  1
  O  O19  1  0.449363  0.789008  0.582373  1
  O  O20  1  0.582373  0.449363  0.789008  1
  O  O21  1  0.789008  0.582373  0.449363  1
