# generated using pymatgen
data_KHfH2OF5
_symmetry_space_group_name_H-M   'P 1'
_cell_length_a   7.63751087
_cell_length_b   11.16068558
_cell_length_c   12.33447228
_cell_angle_alpha   90.00000000
_cell_angle_beta   90.00000000
_cell_angle_gamma   98.80325356
_symmetry_Int_Tables_number   1
_chemical_formula_structural   KHfH2OF5
_chemical_formula_sum   'K8 Hf8 H16 O8 F40'
_cell_volume   1039.00297781
_cell_formula_units_Z   8
loop_
 _symmetry_equiv_pos_site_id
 _symmetry_equiv_pos_as_xyz
  1  'x, y, z'
loop_
 _atom_site_type_symbol
 _atom_site_label
 _atom_site_symmetry_multiplicity
 _atom_site_fract_x
 _atom_site_fract_y
 _atom_site_fract_z
 _atom_site_occupancy
  Hf  Hf0  1  0.023292  0.876869  0.737658  1
  Hf  Hf1  1  0.976708  0.623131  0.237658  1
  Hf  Hf2  1  0.976708  0.123131  0.262342  1
  Hf  Hf3  1  0.023292  0.376869  0.762342  1
  Hf  Hf4  1  0.470915  0.892698  0.745685  1
  Hf  Hf5  1  0.529085  0.607302  0.245685  1
  Hf  Hf6  1  0.529085  0.107302  0.254315  1
  Hf  Hf7  1  0.470915  0.392698  0.754315  1
  K  K8  1  0.703740  0.880393  0.476342  1
  K  K9  1  0.296260  0.619607  0.976342  1
  K  K10  1  0.296260  0.119607  0.523658  1
  K  K11  1  0.703740  0.380393  0.023658  1
  K  K12  1  0.202383  0.648273  0.538428  1
  K  K13  1  0.797617  0.851727  0.038428  1
  K  K14  1  0.797617  0.351727  0.461572  1
  K  K15  1  0.202383  0.148273  0.961572  1
  F  F16  1  0.525037  0.802109  0.879854  1
  F  F17  1  0.474963  0.697891  0.379854  1
  F  F18  1  0.474963  0.197891  0.120146  1
  F  F19  1  0.525037  0.302109  0.620146  1
  F  F20  1  0.747166  0.885513  0.727488  1
  F  F21  1  0.252834  0.614487  0.227488  1
  F  F22  1  0.252834  0.114487  0.272512  1
  F  F23  1  0.747166  0.385513  0.772512  1
  F  F24  1  0.790096  0.725571  0.298632  1
  F  F25  1  0.209904  0.774429  0.798632  1
  F  F26  1  0.209904  0.274429  0.701368  1
  F  F27  1  0.790096  0.225571  0.201368  1
  F  F28  1  0.488944  0.747565  0.648781  1
  F  F29  1  0.511056  0.752435  0.148781  1
  F  F30  1  0.511056  0.252435  0.351219  1
  F  F31  1  0.488944  0.247565  0.851219  1
  F  F32  1  0.283429  0.995781  0.799753  1
  F  F33  1  0.716571  0.504219  0.299753  1
  F  F34  1  0.716571  0.004219  0.200247  1
  F  F35  1  0.283429  0.495781  0.700247  1
  F  F36  1  0.986932  0.976539  0.357528  1
  F  F37  1  0.013068  0.523461  0.857528  1
  F  F38  1  0.013068  0.023461  0.642472  1
  F  F39  1  0.986932  0.476539  0.142472  1
  F  F40  1  0.937766  0.758436  0.620034  1
  F  F41  1  0.062234  0.741564  0.120034  1
  F  F42  1  0.062234  0.241564  0.379966  1
  F  F43  1  0.937766  0.258436  0.879966  1
  F  F44  1  0.966209  0.971608  0.870965  1
  F  F45  1  0.033791  0.528392  0.370965  1
  F  F46  1  0.033791  0.028392  0.129035  1
  F  F47  1  0.966209  0.471608  0.629035  1
  F  F48  1  0.749451  0.615715  0.129268  1
  F  F49  1  0.250549  0.884285  0.629268  1
  F  F50  1  0.250549  0.384285  0.870732  1
  F  F51  1  0.749451  0.115715  0.370732  1
  F  F52  1  0.553792  0.020881  0.633835  1
  F  F53  1  0.446208  0.479119  0.133835  1
  F  F54  1  0.446208  0.979119  0.366165  1
  F  F55  1  0.553792  0.520881  0.866165  1
  O  O56  1  0.879668  0.722834  0.843844  1
  O  O57  1  0.120332  0.777166  0.343844  1
  O  O58  1  0.120332  0.277166  0.156156  1
  O  O59  1  0.879668  0.222834  0.656156  1
  O  O60  1  0.618827  0.043099  0.853845  1
  O  O61  1  0.381173  0.456901  0.353845  1
  O  O62  1  0.381173  0.956901  0.146155  1
  O  O63  1  0.618827  0.543099  0.646155  1
  H  H64  1  0.751342  0.699604  0.836328  1
  H  H65  1  0.248658  0.800396  0.336328  1
  H  H66  1  0.248658  0.300396  0.163672  1
  H  H67  1  0.751342  0.199604  0.663672  1
  H  H68  1  0.931329  0.645795  0.847270  1
  H  H69  1  0.068671  0.854205  0.347270  1
  H  H70  1  0.068671  0.354205  0.152730  1
  H  H71  1  0.931329  0.145795  0.652730  1
  H  H72  1  0.748737  0.050773  0.855267  1
  H  H73  1  0.251263  0.449227  0.355267  1
  H  H74  1  0.251263  0.949227  0.144733  1
  H  H75  1  0.748737  0.550773  0.644733  1
  H  H76  1  0.583273  0.125392  0.851291  1
  H  H77  1  0.416727  0.374608  0.351291  1
  H  H78  1  0.416727  0.874608  0.148709  1
  H  H79  1  0.583273  0.625392  0.648709  1
