# generated using pymatgen
data_KTeO2F
_symmetry_space_group_name_H-M   'P 1'
_cell_length_a   6.34961866
_cell_length_b   12.09951846
_cell_length_c   15.26837174
_cell_angle_alpha   90.00000000
_cell_angle_beta   90.00000000
_cell_angle_gamma   94.22471652
_symmetry_Int_Tables_number   1
_chemical_formula_structural   KTeO2F
_chemical_formula_sum   'K12 Te12 O24 F12'
_cell_volume   1169.84084418
_cell_formula_units_Z   12
loop_
 _symmetry_equiv_pos_site_id
 _symmetry_equiv_pos_as_xyz
  1  'x, y, z'
loop_
 _atom_site_type_symbol
 _atom_site_label
 _atom_site_symmetry_multiplicity
 _atom_site_fract_x
 _atom_site_fract_y
 _atom_site_fract_z
 _atom_site_occupancy
  K  K0  1  0.221617  0.014668  0.315476  1
  K  K1  1  0.791438  0.631980  0.685020  1
  K  K2  1  0.291438  0.131980  0.814980  1
  K  K3  1  0.708562  0.868020  0.185020  1
  K  K4  1  0.263584  0.601048  0.071278  1
  K  K5  1  0.208562  0.368020  0.314980  1
  K  K6  1  0.278383  0.485332  0.815476  1
  K  K7  1  0.236416  0.898952  0.571278  1
  K  K8  1  0.763584  0.101048  0.428722  1
  K  K9  1  0.736416  0.398952  0.928722  1
  K  K10  1  0.721617  0.514668  0.184524  1
  K  K11  1  0.778383  0.985332  0.684524  1
  Te  Te12  1  0.700073  0.782045  0.448728  1
  Te  Te13  1  0.299927  0.217955  0.551272  1
  Te  Te14  1  0.770897  0.197428  0.184270  1
  Te  Te15  1  0.270897  0.697428  0.315730  1
  Te  Te16  1  0.773881  0.093189  0.961569  1
  Te  Te17  1  0.273881  0.593189  0.538431  1
  Te  Te18  1  0.200073  0.282045  0.051272  1
  Te  Te19  1  0.799927  0.717955  0.948728  1
  Te  Te20  1  0.729103  0.302572  0.684270  1
  Te  Te21  1  0.229103  0.802572  0.815730  1
  Te  Te22  1  0.226119  0.906811  0.038431  1
  Te  Te23  1  0.726119  0.406811  0.461569  1
  O  O24  1  0.240388  0.400968  0.976454  1
  O  O25  1  0.052593  0.683836  0.531039  1
  O  O26  1  0.564229  0.180141  0.606378  1
  O  O27  1  0.000147  0.822082  0.745184  1
  O  O28  1  0.983845  0.801231  0.049061  1
  O  O29  1  0.500147  0.322082  0.754816  1
  O  O30  1  0.759612  0.599032  0.023546  1
  O  O31  1  0.259612  0.099032  0.476454  1
  O  O32  1  0.183601  0.917770  0.901905  1
  O  O33  1  0.816399  0.082230  0.098095  1
  O  O34  1  0.947407  0.316164  0.468961  1
  O  O35  1  0.516155  0.698769  0.549061  1
  O  O36  1  0.435771  0.819859  0.393622  1
  O  O37  1  0.740388  0.900968  0.523546  1
  O  O38  1  0.683601  0.417770  0.598095  1
  O  O39  1  0.447407  0.816164  0.031039  1
  O  O40  1  0.483845  0.301231  0.450939  1
  O  O41  1  0.999853  0.177918  0.254816  1
  O  O42  1  0.552593  0.183836  0.968961  1
  O  O43  1  0.064229  0.680141  0.893622  1
  O  O44  1  0.316399  0.582230  0.401905  1
  O  O45  1  0.016155  0.198769  0.950939  1
  O  O46  1  0.935771  0.319859  0.106378  1
  O  O47  1  0.499853  0.677918  0.245184  1
  F  F48  1  0.400061  0.930655  0.742402  1
  F  F49  1  0.900061  0.430655  0.757598  1
  F  F50  1  0.770037  0.110504  0.823037  1
  F  F51  1  0.099939  0.569345  0.242402  1
  F  F52  1  0.599939  0.069345  0.257598  1
  F  F53  1  0.270037  0.610504  0.676963  1
  F  F54  1  0.632820  0.616658  0.851695  1
  F  F55  1  0.229963  0.889496  0.176963  1
  F  F56  1  0.367180  0.383342  0.148305  1
  F  F57  1  0.132820  0.116658  0.648305  1
  F  F58  1  0.867180  0.883342  0.351695  1
  F  F59  1  0.729963  0.389496  0.323037  1
