# generated using pymatgen
data_Li2Cr(PO3)4
_symmetry_space_group_name_H-M   'P 1'
_cell_length_a   8.50311936
_cell_length_b   8.50311943
_cell_length_c   7.46071717
_cell_angle_alpha   88.36628863
_cell_angle_beta   91.63371135
_cell_angle_gamma   65.40550612
_symmetry_Int_Tables_number   1
_chemical_formula_structural   Li2Cr(PO3)4
_chemical_formula_sum   'Li4 Cr2 P8 O24'
_cell_volume   489.80974268
_cell_formula_units_Z   2
loop_
 _symmetry_equiv_pos_site_id
 _symmetry_equiv_pos_as_xyz
  1  'x, y, z'
loop_
 _atom_site_type_symbol
 _atom_site_label
 _atom_site_symmetry_multiplicity
 _atom_site_fract_x
 _atom_site_fract_y
 _atom_site_fract_z
 _atom_site_occupancy
  Li  Li0  1  0.497488  0.820006  0.812504  1
  Li  Li1  1  0.502512  0.179995  0.187496  1
  Li  Li2  1  0.820005  0.497487  0.687496  1
  Li  Li3  1  0.179994  0.502513  0.312504  1
  O  O4  1  0.620750  0.915638  0.320250  1
  O  O5  1  0.833333  0.113880  0.325232  1
  O  O6  1  0.166667  0.886120  0.674769  1
  O  O7  1  0.113879  0.833334  0.174768  1
  O  O8  1  0.062204  0.674689  0.521942  1
  O  O9  1  0.325312  0.937796  0.021942  1
  O  O10  1  0.151776  0.642040  0.857878  1
  O  O11  1  0.357960  0.848224  0.357877  1
  O  O12  1  0.084363  0.379250  0.820251  1
  O  O13  1  0.122407  0.122406  0.250000  1
  O  O14  1  0.610957  0.705293  0.575128  1
  O  O15  1  0.377386  0.377386  0.750000  1
  O  O16  1  0.877593  0.877594  0.750000  1
  O  O17  1  0.937796  0.325311  0.478057  1
  O  O18  1  0.705293  0.610957  0.924871  1
  O  O19  1  0.886120  0.166667  0.825231  1
  O  O20  1  0.622614  0.622614  0.250000  1
  O  O21  1  0.389043  0.294707  0.424871  1
  O  O22  1  0.379251  0.084362  0.679750  1
  O  O23  1  0.915638  0.620749  0.179750  1
  O  O24  1  0.642040  0.151776  0.642122  1
  O  O25  1  0.848224  0.357961  0.142123  1
  O  O26  1  0.674689  0.062203  0.978058  1
  O  O27  1  0.294707  0.389044  0.075128  1
  P  P28  1  0.778509  0.562424  0.113212  1
  P  P29  1  0.771532  0.071553  0.816535  1
  P  P30  1  0.071553  0.771532  0.683466  1
  P  P31  1  0.228468  0.928448  0.183466  1
  P  P32  1  0.221491  0.437577  0.886788  1
  P  P33  1  0.562422  0.778510  0.386787  1
  P  P34  1  0.437576  0.221491  0.613212  1
  P  P35  1  0.928447  0.228468  0.316535  1
  Cr  Cr36  1  0.871362  0.871362  0.250000  1
  Cr  Cr37  1  0.128637  0.128638  0.750000  1
