# generated using pymatgen
data_CS3NO2F3
_symmetry_space_group_name_H-M   'P 1'
_cell_length_a   7.61056637
_cell_length_b   13.07976451
_cell_length_c   16.43989267
_cell_angle_alpha   70.06634053
_cell_angle_beta   76.61657431
_cell_angle_gamma   73.08641657
_symmetry_Int_Tables_number   1
_chemical_formula_structural   CS3NO2F3
_chemical_formula_sum   'C8 S24 N8 O16 F24'
_cell_volume   1455.90150912
_cell_formula_units_Z   8
loop_
 _symmetry_equiv_pos_site_id
 _symmetry_equiv_pos_as_xyz
  1  'x, y, z'
loop_
 _atom_site_type_symbol
 _atom_site_label
 _atom_site_symmetry_multiplicity
 _atom_site_fract_x
 _atom_site_fract_y
 _atom_site_fract_z
 _atom_site_occupancy
  C  C0  1  0.916777  0.330349  0.546204  1
  C  C1  1  0.206671  0.830349  0.046204  1
  C  C2  1  0.365968  0.448260  0.711150  1
  C  C3  1  0.634032  0.551740  0.288850  1
  C  C4  1  0.525378  0.051740  0.788850  1
  C  C5  1  0.083223  0.669651  0.453796  1
  C  C6  1  0.474622  0.948260  0.211150  1
  C  C7  1  0.793329  0.169651  0.953796  1
  S  S8  1  0.958737  0.319256  0.192020  1
  S  S9  1  0.755673  0.461014  0.963097  1
  S  S10  1  0.179784  0.038986  0.536903  1
  S  S11  1  0.276447  0.452046  0.827519  1
  S  S12  1  0.279298  0.772089  0.949731  1
  S  S13  1  0.443988  0.952046  0.327519  1
  S  S14  1  0.001118  0.727911  0.550269  1
  S  S15  1  0.470014  0.180744  0.307980  1
  S  S16  1  0.723553  0.547954  0.172481  1
  S  S17  1  0.957981  0.704811  0.926836  1
  S  S18  1  0.720702  0.227911  0.050269  1
  S  S19  1  0.244327  0.538986  0.036903  1
  S  S20  1  0.998882  0.272089  0.449731  1
  S  S21  1  0.041263  0.680744  0.807980  1
  S  S22  1  0.589629  0.795189  0.573164  1
  S  S23  1  0.129441  0.513459  0.163381  1
  S  S24  1  0.042019  0.295189  0.073164  1
  S  S25  1  0.556012  0.047954  0.672481  1
  S  S26  1  0.806281  0.986541  0.336619  1
  S  S27  1  0.870559  0.486541  0.836619  1
  S  S28  1  0.820217  0.961014  0.463097  1
  S  S29  1  0.410371  0.204811  0.426836  1
  S  S30  1  0.529986  0.819256  0.692020  1
  S  S31  1  0.193719  0.013459  0.663381  1
  N  N32  1  0.063089  0.539843  0.822113  1
  N  N33  1  0.152135  0.675119  0.976538  1
  N  N34  1  0.425045  0.960157  0.677887  1
  N  N35  1  0.574955  0.039843  0.322113  1
  N  N36  1  0.847865  0.324881  0.023462  1
  N  N37  1  0.196208  0.175119  0.476538  1
  N  N38  1  0.803792  0.824881  0.523462  1
  N  N39  1  0.936911  0.460157  0.177887  1
  O  O40  1  0.789338  0.137795  0.123123  1
  O  O41  1  0.949744  0.637795  0.623123  1
  O  O42  1  0.528537  0.841077  0.375982  1
  O  O43  1  0.396247  0.505506  0.846356  1
  O  O44  1  0.471463  0.158923  0.624018  1
  O  O45  1  0.527546  0.282537  0.049926  1
  O  O46  1  0.603753  0.494494  0.153644  1
  O  O47  1  0.860008  0.217463  0.450074  1
  O  O48  1  0.251891  0.005506  0.346356  1
  O  O49  1  0.210662  0.862205  0.876877  1
  O  O50  1  0.472454  0.717463  0.950074  1
  O  O51  1  0.748109  0.994494  0.653644  1
  O  O52  1  0.050256  0.362205  0.376877  1
  O  O53  1  0.745596  0.658923  0.124018  1
  O  O54  1  0.139992  0.782537  0.549926  1
  O  O55  1  0.254404  0.341077  0.875982  1
  F  F56  1  0.978943  0.131481  0.941154  1
  F  F57  1  0.586899  0.948876  0.842140  1
  F  F58  1  0.289562  0.915387  0.028132  1
  F  F59  1  0.622085  0.448876  0.342140  1
  F  F60  1  0.869246  0.251046  0.619237  1
  F  F61  1  0.051578  0.368519  0.558846  1
  F  F62  1  0.130754  0.748954  0.380763  1
  F  F63  1  0.371807  0.879751  0.211157  1
  F  F64  1  0.948422  0.631481  0.441154  1
  F  F65  1  0.537285  0.379751  0.711157  1
  F  F66  1  0.021057  0.868519  0.058846  1
  F  F67  1  0.653717  0.908205  0.182732  1
  F  F68  1  0.233081  0.584613  0.471868  1
  F  F69  1  0.377915  0.551124  0.657860  1
  F  F70  1  0.710438  0.084613  0.971868  1
  F  F71  1  0.346283  0.091795  0.817268  1
  F  F72  1  0.462714  0.620249  0.288843  1
  F  F73  1  0.413101  0.051124  0.157860  1
  F  F74  1  0.628193  0.120249  0.788843  1
  F  F75  1  0.744654  0.591795  0.317268  1
  F  F76  1  0.739529  0.248954  0.880763  1
  F  F77  1  0.255346  0.408205  0.682732  1
  F  F78  1  0.260471  0.751046  0.119237  1
  F  F79  1  0.766919  0.415387  0.528132  1
