# generated using pymatgen
data_CaNb4O8
_symmetry_space_group_name_H-M   'P 1'
_cell_length_a   13.30091944
_cell_length_b   18.36836335
_cell_length_c   16.89993985
_cell_angle_alpha   23.06559501
_cell_angle_beta   38.17042174
_cell_angle_gamma   43.67017338
_symmetry_Int_Tables_number   1
_chemical_formula_structural   CaNb4O8
_chemical_formula_sum   'Ca6 Nb24 O48'
_cell_volume   999.71241874
_cell_formula_units_Z   6
loop_
 _symmetry_equiv_pos_site_id
 _symmetry_equiv_pos_as_xyz
  1  'x, y, z'
loop_
 _atom_site_type_symbol
 _atom_site_label
 _atom_site_symmetry_multiplicity
 _atom_site_fract_x
 _atom_site_fract_y
 _atom_site_fract_z
 _atom_site_occupancy
  Ca  Ca0  1  0.128440  0.500000  0.999769  1
  Ca  Ca1  1  0.872833  0.000000  0.999774  1
  Ca  Ca2  1  0.140843  0.000000  0.000110  1
  Ca  Ca3  1  0.609157  0.500000  0.999890  1
  Ca  Ca4  1  0.621560  0.000000  0.000231  1
  Ca  Ca5  1  0.877167  0.500000  0.000226  1
  Nb  Nb6  1  0.032563  0.229274  0.489746  1
  Nb  Nb7  1  0.470612  0.229381  0.051672  1
  Nb  Nb8  1  0.351846  0.000000  0.500057  1
  Nb  Nb9  1  0.218649  0.724640  0.055496  1
  Nb  Nb10  1  0.218649  0.275360  0.504776  1
  Nb  Nb11  1  0.098835  0.500000  0.499895  1
  Nb  Nb12  1  0.531351  0.224640  0.495224  1
  Nb  Nb13  1  0.970932  0.224742  0.055533  1
  Nb  Nb14  1  0.847420  0.000000  0.500069  1
  Nb  Nb15  1  0.398154  0.500000  0.499943  1
  Nb  Nb16  1  0.279388  0.270619  0.948328  1
  Nb  Nb17  1  0.279388  0.729381  0.489565  1
  Nb  Nb18  1  0.717437  0.729274  0.051706  1
  Nb  Nb19  1  0.717437  0.270726  0.510254  1
  Nb  Nb20  1  0.595882  0.500000  0.499934  1
  Nb  Nb21  1  0.154118  0.000000  0.500066  1
  Nb  Nb22  1  0.032563  0.770726  0.948294  1
  Nb  Nb23  1  0.470612  0.770619  0.510435  1
  Nb  Nb24  1  0.902580  0.500000  0.499931  1
  Nb  Nb25  1  0.779068  0.275258  0.944467  1
  Nb  Nb26  1  0.779068  0.724742  0.494982  1
  Nb  Nb27  1  0.651165  0.000000  0.500105  1
  Nb  Nb28  1  0.531351  0.775360  0.944504  1
  Nb  Nb29  1  0.970932  0.775258  0.505018  1
  O  O30  1  0.077396  0.000000  0.170135  1
  O  O31  1  0.019589  0.198662  0.170189  1
  O  O32  1  0.336045  0.000000  0.167895  1
  O  O33  1  0.246393  0.199052  0.169104  1
  O  O34  1  0.077635  0.500000  0.168011  1
  O  O35  1  0.583687  0.000000  0.165786  1
  O  O36  1  0.993029  0.698669  0.170014  1
  O  O37  1  0.248201  0.188583  0.450809  1
  O  O38  1  0.527083  0.188663  0.172134  1
  O  O39  1  0.332228  0.500000  0.169998  1
  O  O40  1  0.844951  0.000000  0.156863  1
  O  O41  1  0.479312  0.196760  0.437013  1
  O  O42  1  0.747176  0.196759  0.169400  1
  O  O43  1  0.270688  0.303240  0.562987  1
  O  O44  1  0.270688  0.696760  0.169466  1
  O  O45  1  0.591056  0.500000  0.156894  1
  O  O46  1  0.222917  0.311337  0.827866  1
  O  O47  1  0.222917  0.688663  0.450540  1
  O  O48  1  0.501799  0.311417  0.549191  1
  O  O49  1  0.501799  0.688583  0.172025  1
  O  O50  1  0.019589  0.801338  0.567513  1
  O  O51  1  0.756971  0.198669  0.432647  1
  O  O52  1  0.166313  0.500000  0.834214  1
  O  O53  1  0.834932  0.500000  0.165667  1
  O  O54  1  0.246393  0.800948  0.567208  1
  O  O55  1  0.982465  0.198994  0.432778  1
  O  O56  1  0.503607  0.300948  0.830896  1
  O  O57  1  0.503607  0.699052  0.432792  1
  O  O58  1  0.767535  0.301006  0.567222  1
  O  O59  1  0.767535  0.698994  0.169234  1
  O  O60  1  0.413955  0.500000  0.832105  1
  O  O61  1  0.730411  0.301338  0.829811  1
  O  O62  1  0.730411  0.698662  0.432487  1
  O  O63  1  0.248201  0.811417  0.827975  1
  O  O64  1  0.993029  0.301331  0.567353  1
  O  O65  1  0.527083  0.811337  0.549460  1
  O  O66  1  0.158944  0.000000  0.843106  1
  O  O67  1  0.672604  0.500000  0.829865  1
  O  O68  1  0.479312  0.803240  0.830534  1
  O  O69  1  0.747176  0.803241  0.562918  1
  O  O70  1  0.002824  0.303241  0.830600  1
  O  O71  1  0.002824  0.696759  0.437082  1
  O  O72  1  0.417772  0.000000  0.830002  1
  O  O73  1  0.905049  0.500000  0.843137  1
  O  O74  1  0.756971  0.801331  0.829986  1
  O  O75  1  0.672365  0.000000  0.831989  1
  O  O76  1  0.982465  0.801006  0.830766  1
  O  O77  1  0.915068  0.000000  0.834333  1
