# generated using pymatgen
data_TlCr5S8
_symmetry_space_group_name_H-M   'P 1'
_cell_length_a   3.49178366
_cell_length_b   8.70487705
_cell_length_c   9.17647246
_cell_angle_alpha   104.79049386
_cell_angle_beta   100.96747117
_cell_angle_gamma   89.99909837
_symmetry_Int_Tables_number   1
_chemical_formula_structural   TlCr5S8
_chemical_formula_sum   'Tl1 Cr5 S8'
_cell_volume   264.40974326
_cell_formula_units_Z   1
loop_
 _symmetry_equiv_pos_site_id
 _symmetry_equiv_pos_as_xyz
  1  'x, y, z'
loop_
 _atom_site_type_symbol
 _atom_site_label
 _atom_site_symmetry_multiplicity
 _atom_site_fract_x
 _atom_site_fract_y
 _atom_site_fract_z
 _atom_site_occupancy
  Tl  Tl0  1  0.000000  0.000000  0.000000  1
  Cr  Cr1  1  0.500000  0.500000  0.000000  1
  Cr  Cr2  1  0.203489  0.835193  0.407092  1
  Cr  Cr3  1  0.796511  0.164807  0.592908  1
  Cr  Cr4  1  0.841352  0.525389  0.682731  1
  Cr  Cr5  1  0.158648  0.474611  0.317269  1
  S  S6  1  0.328082  0.011223  0.656179  1
  S  S7  1  0.671918  0.988777  0.343821  1
  S  S8  1  0.737682  0.656044  0.475286  1
  S  S9  1  0.262318  0.343956  0.524714  1
  S  S10  1  0.414308  0.670715  0.828622  1
  S  S11  1  0.585692  0.329285  0.171378  1
  S  S12  1  0.076221  0.649970  0.152546  1
  S  S13  1  0.923779  0.350030  0.847454  1
