# generated using pymatgen
data_Cu7As6Se13
_symmetry_space_group_name_H-M   'P 1'
_cell_length_a   8.76688500
_cell_length_b   8.76688552
_cell_length_c   8.76688498
_cell_angle_alpha   102.36283881
_cell_angle_beta   102.36284056
_cell_angle_gamma   102.36283643
_symmetry_Int_Tables_number   1
_chemical_formula_structural   Cu7As6Se13
_chemical_formula_sum   'Cu7 As6 Se13'
_cell_volume   618.60262156
_cell_formula_units_Z   1
loop_
 _symmetry_equiv_pos_site_id
 _symmetry_equiv_pos_as_xyz
  1  'x, y, z'
loop_
 _atom_site_type_symbol
 _atom_site_label
 _atom_site_symmetry_multiplicity
 _atom_site_fract_x
 _atom_site_fract_y
 _atom_site_fract_z
 _atom_site_occupancy
  Se  Se0  1  0.097437  0.281225  0.740892  1
  Se  Se1  1  0.740892  0.097437  0.281225  1
  Se  Se2  1  0.281225  0.740892  0.097437  1
  Se  Se3  1  0.327704  0.952259  0.786862  1
  Se  Se4  1  0.786862  0.327704  0.952259  1
  Se  Se5  1  0.952259  0.786862  0.327704  1
  Se  Se6  1  0.349803  0.143036  0.441110  1
  Se  Se7  1  0.441110  0.349803  0.143036  1
  Se  Se8  1  0.143036  0.441110  0.349803  1
  Se  Se9  1  0.509700  0.574425  0.796030  1
  Se  Se10  1  0.796030  0.509700  0.574425  1
  Se  Se11  1  0.574425  0.796030  0.509700  1
  Se  Se12  1  0.969965  0.969965  0.969965  1
  Cu  Cu13  1  0.143925  0.935914  0.206197  1
  Cu  Cu14  1  0.206197  0.143925  0.935914  1
  Cu  Cu15  1  0.935914  0.206197  0.143925  1
  Cu  Cu16  1  0.277685  0.371911  0.587226  1
  Cu  Cu17  1  0.587226  0.277685  0.371911  1
  Cu  Cu18  1  0.371911  0.587226  0.277685  1
  Cu  Cu19  1  0.753897  0.753897  0.753897  1
  As  As20  1  0.844057  0.986402  0.497281  1
  As  As21  1  0.497281  0.844057  0.986402  1
  As  As22  1  0.986402  0.497281  0.844057  1
  As  As23  1  0.058621  0.643135  0.526872  1
  As  As24  1  0.526872  0.058621  0.643135  1
  As  As25  1  0.643135  0.526872  0.058621  1
