# generated using pymatgen
data_P2W5O19
_symmetry_space_group_name_H-M   'P 1'
_cell_length_a   5.39530311
_cell_length_b   6.70999814
_cell_length_c   20.91602766
_cell_angle_alpha   90.00000000
_cell_angle_beta   90.33905419
_cell_angle_gamma   90.00000000
_symmetry_Int_Tables_number   1
_chemical_formula_structural   P2W5O19
_chemical_formula_sum   'P4 W10 O38'
_cell_volume   757.19868548
_cell_formula_units_Z   2
loop_
 _symmetry_equiv_pos_site_id
 _symmetry_equiv_pos_as_xyz
  1  'x, y, z'
loop_
 _atom_site_type_symbol
 _atom_site_label
 _atom_site_symmetry_multiplicity
 _atom_site_fract_x
 _atom_site_fract_y
 _atom_site_fract_z
 _atom_site_occupancy
  P  P0  1  0.988193  0.530157  0.303517  1
  P  P1  1  0.488193  0.969843  0.803517  1
  P  P2  1  0.511807  0.030157  0.196483  1
  P  P3  1  0.011807  0.469843  0.696483  1
  W  W4  1  0.002948  0.830136  0.574038  1
  W  W5  1  0.497052  0.330136  0.925962  1
  W  W6  1  0.502948  0.669864  0.074038  1
  W  W7  1  0.997052  0.169864  0.425962  1
  W  W8  1  0.997092  0.664863  0.852451  1
  W  W9  1  0.500000  0.500000  0.500000  1
  W  W10  1  0.002908  0.335137  0.147549  1
  W  W11  1  0.502908  0.164863  0.647549  1
  W  W12  1  0.000000  0.000000  0.000000  1
  W  W13  1  0.497092  0.835137  0.352451  1
  O  O14  1  0.734212  0.488002  0.120009  1
  O  O15  1  0.265788  0.511998  0.879991  1
  O  O16  1  0.227057  0.179997  0.957305  1
  O  O17  1  0.272943  0.679997  0.542695  1
  O  O18  1  0.727678  0.149963  0.964072  1
  O  O19  1  0.706845  0.830347  0.819219  1
  O  O20  1  0.497213  0.158505  0.844777  1
  O  O21  1  0.731086  0.983599  0.613558  1
  O  O22  1  0.502787  0.841495  0.155223  1
  O  O23  1  0.727057  0.320003  0.457305  1
  O  O24  1  0.234212  0.011998  0.620009  1
  O  O25  1  0.997213  0.341495  0.344777  1
  O  O26  1  0.268914  0.016401  0.386442  1
  O  O27  1  0.293155  0.169653  0.180781  1
  O  O28  1  0.002787  0.658505  0.655223  1
  O  O29  1  0.010899  0.470493  0.232614  1
  O  O30  1  0.000451  0.175936  0.074740  1
  O  O31  1  0.489101  0.970493  0.267386  1
  O  O32  1  0.762057  0.138618  0.188536  1
  O  O33  1  0.499549  0.675936  0.425260  1
  O  O34  1  0.772943  0.820003  0.042695  1
  O  O35  1  0.999549  0.824064  0.925260  1
  O  O36  1  0.500451  0.324064  0.574740  1
  O  O37  1  0.262057  0.361382  0.688536  1
  O  O38  1  0.765788  0.988002  0.379991  1
  O  O39  1  0.989101  0.529507  0.767386  1
  O  O40  1  0.737943  0.638618  0.311464  1
  O  O41  1  0.227678  0.350037  0.464072  1
  O  O42  1  0.510899  0.029507  0.732614  1
  O  O43  1  0.768914  0.483599  0.886442  1
  O  O44  1  0.206845  0.669653  0.319219  1
  O  O45  1  0.772322  0.649963  0.535928  1
  O  O46  1  0.237943  0.861382  0.811464  1
  O  O47  1  0.231086  0.516401  0.113558  1
  O  O48  1  0.793155  0.330347  0.680781  1
  O  O49  1  0.272322  0.850037  0.035928  1
  O  O50  1  0.500000  0.500000  0.000000  1
  O  O51  1  0.000000  0.000000  0.500000  1
