# generated using pymatgen
data_Li14Cr2N8O
_symmetry_space_group_name_H-M   'P 1'
_cell_length_a   5.81298388
_cell_length_b   5.81298387
_cell_length_c   8.22628961
_cell_angle_alpha   90.00000000
_cell_angle_beta   90.00000000
_cell_angle_gamma   120.00000005
_symmetry_Int_Tables_number   1
_chemical_formula_structural   Li14Cr2N8O
_chemical_formula_sum   'Li14 Cr2 N8 O1'
_cell_volume   240.73146749
_cell_formula_units_Z   1
loop_
 _symmetry_equiv_pos_site_id
 _symmetry_equiv_pos_as_xyz
  1  'x, y, z'
loop_
 _atom_site_type_symbol
 _atom_site_label
 _atom_site_symmetry_multiplicity
 _atom_site_fract_x
 _atom_site_fract_y
 _atom_site_fract_z
 _atom_site_occupancy
  Li  Li0  1  0.927961  0.303669  0.090271  1
  Li  Li1  1  0.696331  0.624292  0.090271  1
  Li  Li2  1  0.375708  0.072039  0.090271  1
  Li  Li3  1  0.072039  0.696331  0.909729  1
  Li  Li4  1  0.303669  0.375708  0.909729  1
  Li  Li5  1  0.624292  0.927961  0.909729  1
  Li  Li6  1  0.352337  0.312603  0.413885  1
  Li  Li7  1  0.687397  0.039734  0.413885  1
  Li  Li8  1  0.960266  0.647663  0.413885  1
  Li  Li9  1  0.647663  0.687397  0.586115  1
  Li  Li10  1  0.312603  0.960266  0.586115  1
  Li  Li11  1  0.039734  0.352337  0.586115  1
  Li  Li12  1  0.000000  0.000000  0.256760  1
  Li  Li13  1  0.000000  0.000000  0.743240  1
  N  N14  1  0.938835  0.306807  0.831345  1
  N  N15  1  0.666667  0.333333  0.547830  1
  N  N16  1  0.061165  0.693193  0.168655  1
  N  N17  1  0.306807  0.367972  0.168655  1
  N  N18  1  0.632028  0.938835  0.168655  1
  N  N19  1  0.367972  0.061165  0.831345  1
  N  N20  1  0.693193  0.632028  0.831345  1
  N  N21  1  0.333333  0.666667  0.452170  1
  O  O22  1  0.000000  0.000000  0.500000  1
  Cr  Cr23  1  0.666667  0.333333  0.760876  1
  Cr  Cr24  1  0.333333  0.666667  0.239124  1
