# generated using pymatgen
data_RuCl3
_symmetry_space_group_name_H-M   'P 1'
_cell_length_a   5.68081053
_cell_length_b   6.50520062
_cell_length_c   11.24383134
_cell_angle_alpha   90.00000000
_cell_angle_beta   90.00000000
_cell_angle_gamma   90.00000000
_symmetry_Int_Tables_number   1
_chemical_formula_structural   RuCl3
_chemical_formula_sum   'Ru4 Cl12'
_cell_volume   415.51367537
_cell_formula_units_Z   4
loop_
 _symmetry_equiv_pos_site_id
 _symmetry_equiv_pos_as_xyz
  1  'x, y, z'
loop_
 _atom_site_type_symbol
 _atom_site_label
 _atom_site_symmetry_multiplicity
 _atom_site_fract_x
 _atom_site_fract_y
 _atom_site_fract_z
 _atom_site_occupancy
  Ru  Ru0  1  0.000390  0.255102  0.250000  1
  Ru  Ru1  1  0.500390  0.744898  0.750000  1
  Ru  Ru2  1  0.499610  0.255102  0.250000  1
  Ru  Ru3  1  0.999610  0.744898  0.750000  1
  Cl  Cl4  1  0.750000  0.451839  0.750000  1
  Cl  Cl5  1  0.250000  0.599221  0.603665  1
  Cl  Cl6  1  0.750000  0.963226  0.250000  1
  Cl  Cl7  1  0.250000  0.107823  0.396330  1
  Cl  Cl8  1  0.250000  0.599221  0.896335  1
  Cl  Cl9  1  0.250000  0.107823  0.103670  1
  Cl  Cl10  1  0.750000  0.400779  0.396335  1
  Cl  Cl11  1  0.750000  0.892177  0.896330  1
  Cl  Cl12  1  0.250000  0.548161  0.250000  1
  Cl  Cl13  1  0.250000  0.036774  0.750000  1
  Cl  Cl14  1  0.750000  0.400779  0.103665  1
  Cl  Cl15  1  0.750000  0.892177  0.603670  1
