# generated using pymatgen
data_K2CoH12(SO7)2
_symmetry_space_group_name_H-M   'P 1'
_cell_length_a   6.22464468
_cell_length_b   9.04082068
_cell_length_c   12.28746567
_cell_angle_alpha   90.00000000
_cell_angle_beta   90.00000000
_cell_angle_gamma   104.22686935
_symmetry_Int_Tables_number   1
_chemical_formula_structural   K2CoH12(SO7)2
_chemical_formula_sum   'K4 Co2 H24 S4 O28'
_cell_volume   670.28034374
_cell_formula_units_Z   2
loop_
 _symmetry_equiv_pos_site_id
 _symmetry_equiv_pos_as_xyz
  1  'x, y, z'
loop_
 _atom_site_type_symbol
 _atom_site_label
 _atom_site_symmetry_multiplicity
 _atom_site_fract_x
 _atom_site_fract_y
 _atom_site_fract_z
 _atom_site_occupancy
  Co  Co0  1  0.000000  0.000000  0.000000  1
  Co  Co1  1  0.000000  0.500000  0.500000  1
  K  K2  1  0.345672  0.132002  0.346242  1
  K  K3  1  0.654328  0.367998  0.846242  1
  K  K4  1  0.654328  0.867998  0.653758  1
  K  K5  1  0.345672  0.632002  0.153758  1
  S  S6  1  0.725793  0.406615  0.137840  1
  S  S7  1  0.274207  0.093385  0.637840  1
  S  S8  1  0.274207  0.593385  0.862160  1
  S  S9  1  0.725793  0.906615  0.362160  1
  O  O10  1  0.585216  0.405360  0.236799  1
  O  O11  1  0.414784  0.094640  0.736799  1
  O  O12  1  0.414784  0.594640  0.763201  1
  O  O13  1  0.585216  0.905360  0.263201  1
  O  O14  1  0.748797  0.552093  0.077511  1
  O  O15  1  0.251203  0.947907  0.577511  1
  O  O16  1  0.251203  0.447907  0.922489  1
  O  O17  1  0.748797  0.052093  0.422489  1
  O  O18  1  0.612160  0.277399  0.065420  1
  O  O19  1  0.387840  0.222601  0.565420  1
  O  O20  1  0.387840  0.722601  0.934580  1
  O  O21  1  0.612160  0.777399  0.434580  1
  O  O22  1  0.949464  0.386979  0.170778  1
  O  O23  1  0.050536  0.113021  0.670778  1
  O  O24  1  0.050536  0.613021  0.829222  1
  O  O25  1  0.949464  0.886979  0.329222  1
  O  O26  1  0.164122  0.163465  0.111650  1
  O  O27  1  0.835878  0.336535  0.611650  1
  O  O28  1  0.835878  0.836535  0.888350  1
  O  O29  1  0.164122  0.663465  0.388350  1
  O  O30  1  0.034629  0.823280  0.116094  1
  O  O31  1  0.965371  0.676720  0.616094  1
  O  O32  1  0.965371  0.176720  0.883906  1
  O  O33  1  0.034629  0.323280  0.383906  1
  O  O34  1  0.290850  0.996771  0.936116  1
  O  O35  1  0.709150  0.503229  0.436116  1
  O  O36  1  0.709150  0.003229  0.063884  1
  O  O37  1  0.290850  0.496771  0.563884  1
  H  H38  1  0.318509  0.211204  0.088114  1
  H  H39  1  0.681491  0.288796  0.588114  1
  H  H40  1  0.681491  0.788796  0.911886  1
  H  H41  1  0.318509  0.711204  0.411886  1
  H  H42  1  0.087702  0.246347  0.124016  1
  H  H43  1  0.912298  0.253653  0.624016  1
  H  H44  1  0.912298  0.753653  0.875984  1
  H  H45  1  0.087702  0.746347  0.375984  1
  H  H46  1  0.925263  0.724086  0.101845  1
  H  H47  1  0.074737  0.775914  0.601845  1
  H  H48  1  0.074737  0.275914  0.898155  1
  H  H49  1  0.925263  0.224086  0.398155  1
  H  H50  1  0.000903  0.852598  0.190962  1
  H  H51  1  0.999097  0.647402  0.690962  1
  H  H52  1  0.999097  0.147402  0.809038  1
  H  H53  1  0.000903  0.352598  0.309038  1
  H  H54  1  0.327825  0.895897  0.941722  1
  H  H55  1  0.672175  0.604103  0.441722  1
  H  H56  1  0.672175  0.104103  0.058278  1
  H  H57  1  0.327825  0.395897  0.558278  1
  H  H58  1  0.318124  0.028909  0.858524  1
  H  H59  1  0.681876  0.471091  0.358524  1
  H  H60  1  0.681876  0.971091  0.141476  1
  H  H61  1  0.318124  0.528909  0.641476  1
