# generated using pymatgen
data_Sr4In13Au9
_symmetry_space_group_name_H-M   'P 1'
_cell_length_a   12.94508938
_cell_length_b   12.94508969
_cell_length_c   4.50198497
_cell_angle_alpha   90.00000000
_cell_angle_beta   90.00000000
_cell_angle_gamma   119.99999920
_symmetry_Int_Tables_number   1
_chemical_formula_structural   Sr4In13Au9
_chemical_formula_sum   'Sr4 In13 Au9'
_cell_volume   653.34834193
_cell_formula_units_Z   1
loop_
 _symmetry_equiv_pos_site_id
 _symmetry_equiv_pos_as_xyz
  1  'x, y, z'
loop_
 _atom_site_type_symbol
 _atom_site_label
 _atom_site_symmetry_multiplicity
 _atom_site_fract_x
 _atom_site_fract_y
 _atom_site_fract_z
 _atom_site_occupancy
  Sr  Sr0  1  0.206158  0.793842  0.500000  1
  Sr  Sr1  1  0.587684  0.793842  0.500000  1
  Sr  Sr2  1  0.206158  0.412316  0.500000  1
  Sr  Sr3  1  0.666667  0.333333  0.000000  1
  In  In4  1  0.951499  0.293748  0.000000  1
  In  In5  1  0.706252  0.657751  0.000000  1
  In  In6  1  0.951499  0.657751  0.000000  1
  In  In7  1  0.342249  0.048501  0.000000  1
  In  In8  1  0.166238  0.083119  0.500000  1
  In  In9  1  0.916881  0.833762  0.500000  1
  In  In10  1  0.706252  0.048501  0.000000  1
  In  In11  1  0.532536  0.065071  0.500000  1
  In  In12  1  0.916881  0.083119  0.500000  1
  In  In13  1  0.342249  0.293748  0.000000  1
  In  In14  1  0.532536  0.467464  0.500000  1
  In  In15  1  0.934929  0.467464  0.500000  1
  In  In16  1  0.333333  0.666667  0.000000  1
  Au  Au17  1  0.453774  0.546226  0.000000  1
  Au  Au18  1  0.824669  0.912335  0.000000  1
  Au  Au19  1  0.453774  0.907547  0.000000  1
  Au  Au20  1  0.087665  0.175331  0.000000  1
  Au  Au21  1  0.087665  0.912335  0.000000  1
  Au  Au22  1  0.785441  0.570881  0.500000  1
  Au  Au23  1  0.092453  0.546226  0.000000  1
  Au  Au24  1  0.785441  0.214559  0.500000  1
  Au  Au25  1  0.429119  0.214559  0.500000  1
