# generated using pymatgen
data_Gd3CuSnSe7
_symmetry_space_group_name_H-M   'P 1'
_cell_length_a   10.36984550
_cell_length_b   10.36984529
_cell_length_c   6.45313234
_cell_angle_alpha   90.00000000
_cell_angle_beta   90.00000000
_cell_angle_gamma   120.00000069
_symmetry_Int_Tables_number   1
_chemical_formula_structural   Gd3CuSnSe7
_chemical_formula_sum   'Gd6 Cu2 Sn2 Se14'
_cell_volume   600.96027291
_cell_formula_units_Z   2
loop_
 _symmetry_equiv_pos_site_id
 _symmetry_equiv_pos_as_xyz
  1  'x, y, z'
loop_
 _atom_site_type_symbol
 _atom_site_label
 _atom_site_symmetry_multiplicity
 _atom_site_fract_x
 _atom_site_fract_y
 _atom_site_fract_z
 _atom_site_occupancy
  Gd  Gd0  1  0.208772  0.357164  0.915041  1
  Gd  Gd1  1  0.791228  0.642836  0.415041  1
  Gd  Gd2  1  0.851608  0.208772  0.415041  1
  Gd  Gd3  1  0.642836  0.851608  0.915041  1
  Gd  Gd4  1  0.148392  0.791228  0.915041  1
  Gd  Gd5  1  0.357164  0.148392  0.415041  1
  Cu  Cu6  1  0.000000  0.000000  0.500050  1
  Cu  Cu7  1  0.000000  0.000000  1.000050  1
  Sn  Sn8  1  0.333333  0.666667  0.342097  1
  Sn  Sn9  1  0.666667  0.333333  0.842097  1
  Se  Se10  1  0.850632  0.737916  0.975782  1
  Se  Se11  1  0.887284  0.149368  0.975782  1
  Se  Se12  1  0.737916  0.887284  0.475782  1
  Se  Se13  1  0.438197  0.920755  0.163336  1
  Se  Se14  1  0.517442  0.438197  0.663336  1
  Se  Se15  1  0.112716  0.850632  0.475782  1
  Se  Se16  1  0.482558  0.561803  0.163336  1
  Se  Se17  1  0.149368  0.262084  0.475782  1
  Se  Se18  1  0.561803  0.079245  0.663336  1
  Se  Se19  1  0.666667  0.333333  0.236676  1
  Se  Se20  1  0.333333  0.666667  0.736676  1
  Se  Se21  1  0.079245  0.517442  0.163336  1
  Se  Se22  1  0.262084  0.112716  0.975782  1
  Se  Se23  1  0.920755  0.482558  0.663336  1
