# generated using pymatgen
data_Ga2PbSe4
_symmetry_space_group_name_H-M   'P 1'
_cell_length_a   12.74359098
_cell_length_b   12.74359177
_cell_length_c   12.58328397
_cell_angle_alpha   105.03875453
_cell_angle_beta   105.03875543
_cell_angle_gamma   119.18186398
_symmetry_Int_Tables_number   1
_chemical_formula_structural   Ga2PbSe4
_chemical_formula_sum   'Ga16 Pb8 Se32'
_cell_volume   1531.89541076
_cell_formula_units_Z   8
loop_
 _symmetry_equiv_pos_site_id
 _symmetry_equiv_pos_as_xyz
  1  'x, y, z'
loop_
 _atom_site_type_symbol
 _atom_site_label
 _atom_site_symmetry_multiplicity
 _atom_site_fract_x
 _atom_site_fract_y
 _atom_site_fract_z
 _atom_site_occupancy
  Ga  Ga0  1  0.887714  0.388737  0.522467  1
  Ga  Ga1  1  0.030034  0.528866  0.891424  1
  Ga  Ga2  1  0.133731  0.134754  0.022467  1
  Ga  Ga3  1  0.528866  0.030034  0.391424  1
  Ga  Ga4  1  0.388737  0.887714  0.022467  1
  Ga  Ga5  1  0.637442  0.638611  0.608576  1
  Ga  Ga6  1  0.638611  0.637442  0.108576  1
  Ga  Ga7  1  0.112286  0.611263  0.477533  1
  Ga  Ga8  1  0.362558  0.361389  0.391424  1
  Ga  Ga9  1  0.361389  0.362558  0.891424  1
  Ga  Ga10  1  0.969966  0.471134  0.108576  1
  Ga  Ga11  1  0.134754  0.133731  0.522467  1
  Ga  Ga12  1  0.865246  0.866269  0.477533  1
  Ga  Ga13  1  0.611263  0.112286  0.977533  1
  Ga  Ga14  1  0.471134  0.969966  0.608576  1
  Ga  Ga15  1  0.866269  0.865246  0.977533  1
  Pb  Pb16  1  0.872377  0.127623  0.750000  1
  Pb  Pb17  1  0.375000  0.625000  0.250000  1
  Pb  Pb18  1  0.625000  0.375000  0.750000  1
  Pb  Pb19  1  0.377623  0.622377  0.750000  1
  Pb  Pb20  1  0.127623  0.872377  0.250000  1
  Pb  Pb21  1  0.622377  0.377623  0.250000  1
  Pb  Pb22  1  0.125000  0.875000  0.750000  1
  Pb  Pb23  1  0.875000  0.125000  0.250000  1
  Se  Se24  1  0.342662  0.344295  0.687240  1
  Se  Se25  1  0.084258  0.915203  0.998021  1
  Se  Se26  1  0.844519  0.849530  0.662395  1
  Se  Se27  1  0.085624  0.416166  0.003075  1
  Se  Se28  1  0.413091  0.582549  0.496925  1
  Se  Se29  1  0.917183  0.586237  0.501979  1
  Se  Se30  1  0.915203  0.084258  0.498021  1
  Se  Se31  1  0.914376  0.583834  0.996925  1
  Se  Se32  1  0.150470  0.155481  0.837605  1
  Se  Se33  1  0.082817  0.413763  0.498021  1
  Se  Se34  1  0.586237  0.917183  0.001979  1
  Se  Se35  1  0.317876  0.812865  0.662395  1
  Se  Se36  1  0.413763  0.082817  0.998021  1
  Se  Se37  1  0.849530  0.844519  0.162395  1
  Se  Se38  1  0.655705  0.657338  0.812760  1
  Se  Se39  1  0.657338  0.655705  0.312760  1
  Se  Se40  1  0.682124  0.187135  0.337605  1
  Se  Se41  1  0.344295  0.342662  0.187240  1
  Se  Se42  1  0.582549  0.413091  0.996925  1
  Se  Se43  1  0.155423  0.657056  0.312760  1
  Se  Se44  1  0.915742  0.084797  0.001979  1
  Se  Se45  1  0.583834  0.914376  0.496925  1
  Se  Se46  1  0.187135  0.682124  0.837605  1
  Se  Se47  1  0.812865  0.317876  0.162395  1
  Se  Se48  1  0.084797  0.915742  0.501979  1
  Se  Se49  1  0.586909  0.417451  0.503075  1
  Se  Se50  1  0.155481  0.150470  0.337605  1
  Se  Se51  1  0.417451  0.586909  0.003075  1
  Se  Se52  1  0.844577  0.342944  0.687240  1
  Se  Se53  1  0.416166  0.085624  0.503075  1
  Se  Se54  1  0.342944  0.844577  0.187240  1
  Se  Se55  1  0.657056  0.155423  0.812760  1
