# generated using pymatgen
data_Cr3O8
_symmetry_space_group_name_H-M   'P 1'
_cell_length_a   5.64715463
_cell_length_b   10.48930276
_cell_length_c   5.64628178
_cell_angle_alpha   90.49344749
_cell_angle_beta   119.46504478
_cell_angle_gamma   89.46305747
_symmetry_Int_Tables_number   1
_chemical_formula_structural   Cr3O8
_chemical_formula_sum   'Cr6 O16'
_cell_volume   291.18014778
_cell_formula_units_Z   2
loop_
 _symmetry_equiv_pos_site_id
 _symmetry_equiv_pos_as_xyz
  1  'x, y, z'
loop_
 _atom_site_type_symbol
 _atom_site_label
 _atom_site_symmetry_multiplicity
 _atom_site_fract_x
 _atom_site_fract_y
 _atom_site_fract_z
 _atom_site_occupancy
  Cr  Cr0  1  0.916061  0.312015  0.084029  1
  Cr  Cr1  1  0.415739  0.812476  0.583708  1
  Cr  Cr2  1  0.583936  0.187535  0.415974  1
  Cr  Cr3  1  0.084258  0.687909  0.916266  1
  Cr  Cr4  1  0.249998  0.249738  0.750007  1
  Cr  Cr5  1  0.749985  0.750237  0.249966  1
  O  O6  1  0.583189  0.356056  0.915888  1
  O  O7  1  0.082342  0.856172  0.415363  1
  O  O8  1  0.084548  0.355738  0.417730  1
  O  O9  1  0.584034  0.856396  0.916808  1
  O  O10  1  0.916843  0.143607  0.584133  1
  O  O11  1  0.417686  0.644206  0.084635  1
  O  O12  1  0.415442  0.143922  0.082259  1
  O  O13  1  0.915978  0.643980  0.583170  1
  O  O14  1  0.916349  0.161447  0.083689  1
  O  O15  1  0.416395  0.661856  0.583744  1
  O  O16  1  0.583634  0.338143  0.416329  1
  O  O17  1  0.083602  0.838535  0.916263  1
  O  O18  1  0.412403  0.143076  0.587416  1
  O  O19  1  0.912668  0.643402  0.087696  1
  O  O20  1  0.087582  0.356579  0.912609  1
  O  O21  1  0.587326  0.856973  0.412316  1
