# generated using pymatgen
data_Y5Mg16Cu5
_symmetry_space_group_name_H-M   'P 1'
_cell_length_a   4.15359641
_cell_length_b   9.76931763
_cell_length_c   28.89282797
_cell_angle_alpha   90.00000000
_cell_angle_beta   90.00000000
_cell_angle_gamma   102.27380992
_symmetry_Int_Tables_number   1
_chemical_formula_structural   Y5Mg16Cu5
_chemical_formula_sum   'Y10 Mg32 Cu10'
_cell_volume   1145.60957616
_cell_formula_units_Z   2
loop_
 _symmetry_equiv_pos_site_id
 _symmetry_equiv_pos_as_xyz
  1  'x, y, z'
loop_
 _atom_site_type_symbol
 _atom_site_label
 _atom_site_symmetry_multiplicity
 _atom_site_fract_x
 _atom_site_fract_y
 _atom_site_fract_z
 _atom_site_occupancy
  Y  Y0  1  0.603969  0.207937  0.656701  1
  Y  Y1  1  0.412181  0.824363  0.622786  1
  Y  Y2  1  0.587819  0.175637  0.122786  1
  Y  Y3  1  0.587819  0.175637  0.377214  1
  Y  Y4  1  0.372481  0.744962  0.750000  1
  Y  Y5  1  0.396031  0.792063  0.156701  1
  Y  Y6  1  0.396031  0.792063  0.343299  1
  Y  Y7  1  0.627519  0.255038  0.250000  1
  Y  Y8  1  0.603969  0.207937  0.843299  1
  Y  Y9  1  0.412181  0.824363  0.877214  1
  Mg  Mg10  1  0.074786  0.149571  0.032347  1
  Mg  Mg11  1  0.546727  0.093454  0.546033  1
  Mg  Mg12  1  0.243204  0.486408  0.831762  1
  Mg  Mg13  1  0.838291  0.676583  0.070261  1
  Mg  Mg14  1  0.981915  0.963831  0.695876  1
  Mg  Mg15  1  0.308530  0.617060  0.988689  1
  Mg  Mg16  1  0.925214  0.850429  0.967653  1
  Mg  Mg17  1  0.778266  0.556531  0.909446  1
  Mg  Mg18  1  0.877964  0.755928  0.250000  1
  Mg  Mg19  1  0.161709  0.323417  0.929739  1
  Mg  Mg20  1  0.981915  0.963831  0.804124  1
  Mg  Mg21  1  0.691470  0.382940  0.011311  1
  Mg  Mg22  1  0.691470  0.382940  0.488689  1
  Mg  Mg23  1  0.453273  0.906546  0.046033  1
  Mg  Mg24  1  0.756796  0.513592  0.168238  1
  Mg  Mg25  1  0.122036  0.244072  0.750000  1
  Mg  Mg26  1  0.734147  0.468293  0.750000  1
  Mg  Mg27  1  0.018085  0.036169  0.195876  1
  Mg  Mg28  1  0.221734  0.443469  0.090554  1
  Mg  Mg29  1  0.453273  0.906546  0.453967  1
  Mg  Mg30  1  0.756796  0.513592  0.331762  1
  Mg  Mg31  1  0.221734  0.443469  0.409446  1
  Mg  Mg32  1  0.161709  0.323417  0.570261  1
  Mg  Mg33  1  0.778266  0.556531  0.590554  1
  Mg  Mg34  1  0.925214  0.850429  0.532347  1
  Mg  Mg35  1  0.018085  0.036169  0.304124  1
  Mg  Mg36  1  0.308530  0.617060  0.511311  1
  Mg  Mg37  1  0.838291  0.676583  0.429739  1
  Mg  Mg38  1  0.074786  0.149571  0.467653  1
  Mg  Mg39  1  0.243204  0.486408  0.668238  1
  Mg  Mg40  1  0.546727  0.093454  0.953967  1
  Mg  Mg41  1  0.265853  0.531707  0.250000  1
  Cu  Cu42  1  0.975446  0.950892  0.104213  1
  Cu  Cu43  1  0.165311  0.330622  0.179078  1
  Cu  Cu44  1  0.834689  0.669378  0.679078  1
  Cu  Cu45  1  0.528612  0.057224  0.750000  1
  Cu  Cu46  1  0.024554  0.049108  0.604213  1
  Cu  Cu47  1  0.471388  0.942776  0.250000  1
  Cu  Cu48  1  0.024554  0.049108  0.895787  1
  Cu  Cu49  1  0.165311  0.330622  0.320922  1
  Cu  Cu50  1  0.834689  0.669378  0.820922  1
  Cu  Cu51  1  0.975446  0.950892  0.395787  1
