# generated using pymatgen
data_RbNiF3
_symmetry_space_group_name_H-M   'P 1'
_cell_length_a   5.93020946
_cell_length_b   5.93020947
_cell_length_c   14.50426961
_cell_angle_alpha   90.00000000
_cell_angle_beta   90.00000000
_cell_angle_gamma   119.99999996
_symmetry_Int_Tables_number   1
_chemical_formula_structural   RbNiF3
_chemical_formula_sum   'Rb6 Ni6 F18'
_cell_volume   441.73983324
_cell_formula_units_Z   6
loop_
 _symmetry_equiv_pos_site_id
 _symmetry_equiv_pos_as_xyz
  1  'x, y, z'
loop_
 _atom_site_type_symbol
 _atom_site_label
 _atom_site_symmetry_multiplicity
 _atom_site_fract_x
 _atom_site_fract_y
 _atom_site_fract_z
 _atom_site_occupancy
  F  F0  1  0.834298  0.165702  0.420091  1
  F  F1  1  0.834298  0.668596  0.420091  1
  F  F2  1  0.331404  0.165702  0.420091  1
  F  F3  1  0.668596  0.834298  0.920091  1
  F  F4  1  0.165702  0.331404  0.579909  1
  F  F5  1  0.165702  0.834298  0.920091  1
  F  F6  1  0.165702  0.331404  0.920091  1
  F  F7  1  0.834298  0.165702  0.079909  1
  F  F8  1  0.331404  0.165702  0.079909  1
  F  F9  1  0.668596  0.834298  0.579909  1
  F  F10  1  0.165702  0.834298  0.579909  1
  F  F11  1  0.834298  0.668596  0.079909  1
  F  F12  1  0.518292  0.036585  0.250000  1
  F  F13  1  0.481708  0.518292  0.750000  1
  F  F14  1  0.036585  0.518292  0.750000  1
  F  F15  1  0.963415  0.481708  0.250000  1
  F  F16  1  0.518292  0.481708  0.250000  1
  F  F17  1  0.481708  0.963415  0.750000  1
  Ni  Ni18  1  0.333333  0.666667  0.655154  1
  Ni  Ni19  1  0.666667  0.333333  0.155154  1
  Ni  Ni20  1  0.666667  0.333333  0.344846  1
  Ni  Ni21  1  0.333333  0.666667  0.844846  1
  Ni  Ni22  1  0.000000  0.000000  0.500000  1
  Ni  Ni23  1  0.000000  0.000000  0.000000  1
  Rb  Rb24  1  0.333333  0.666667  0.405859  1
  Rb  Rb25  1  0.666667  0.333333  0.905859  1
  Rb  Rb26  1  0.666667  0.333333  0.594141  1
  Rb  Rb27  1  0.333333  0.666667  0.094141  1
  Rb  Rb28  1  0.000000  0.000000  0.750000  1
  Rb  Rb29  1  0.000000  0.000000  0.250000  1
