# generated using pymatgen
data_CoPtF6
_symmetry_space_group_name_H-M   'P 1'
_cell_length_a   5.48412353
_cell_length_b   5.48412330
_cell_length_c   5.48412333
_cell_angle_alpha   56.55258032
_cell_angle_beta   56.55258213
_cell_angle_gamma   56.55258470
_symmetry_Int_Tables_number   1
_chemical_formula_structural   CoPtF6
_chemical_formula_sum   'Co1 Pt1 F6'
_cell_volume   107.33809672
_cell_formula_units_Z   1
loop_
 _symmetry_equiv_pos_site_id
 _symmetry_equiv_pos_as_xyz
  1  'x, y, z'
loop_
 _atom_site_type_symbol
 _atom_site_label
 _atom_site_symmetry_multiplicity
 _atom_site_fract_x
 _atom_site_fract_y
 _atom_site_fract_z
 _atom_site_occupancy
  Co  Co0  1  0.500000  0.500000  0.500000  1
  Pt  Pt1  1  0.000000  0.000000  0.000000  1
  F  F2  1  0.752825  0.378054  0.113964  1
  F  F3  1  0.378054  0.113964  0.752825  1
  F  F4  1  0.621946  0.886036  0.247175  1
  F  F5  1  0.247175  0.621946  0.886036  1
  F  F6  1  0.113964  0.752825  0.378054  1
  F  F7  1  0.886036  0.247175  0.621946  1
