# generated using pymatgen
data_Cr2B(PO4)3
_symmetry_space_group_name_H-M   'P 1'
_cell_length_a   8.08600587
_cell_length_b   8.08600623
_cell_length_c   7.52777836
_cell_angle_alpha   90.00000000
_cell_angle_beta   90.00000000
_cell_angle_gamma   119.99999850
_symmetry_Int_Tables_number   1
_chemical_formula_structural   Cr2B(PO4)3
_chemical_formula_sum   'Cr4 B2 P6 O24'
_cell_volume   426.25117165
_cell_formula_units_Z   2
loop_
 _symmetry_equiv_pos_site_id
 _symmetry_equiv_pos_as_xyz
  1  'x, y, z'
loop_
 _atom_site_type_symbol
 _atom_site_label
 _atom_site_symmetry_multiplicity
 _atom_site_fract_x
 _atom_site_fract_y
 _atom_site_fract_z
 _atom_site_occupancy
  Cr  Cr0  1  0.000000  0.000000  0.561688  1
  Cr  Cr1  1  0.666667  0.333333  0.447366  1
  Cr  Cr2  1  0.666667  0.333333  0.061331  1
  Cr  Cr3  1  0.000000  0.000000  0.947850  1
  B  B4  1  0.333333  0.666667  0.754505  1
  B  B5  1  0.333333  0.666667  0.254391  1
  P  P6  1  0.018607  0.716237  0.254671  1
  P  P7  1  0.382838  0.031070  0.754397  1
  P  P8  1  0.648232  0.617162  0.754397  1
  P  P9  1  0.968930  0.351768  0.754397  1
  P  P10  1  0.283763  0.302370  0.254671  1
  P  P11  1  0.697630  0.981393  0.254671  1
  O  O12  1  0.196636  0.477763  0.754485  1
  O  O13  1  0.281127  0.803364  0.754485  1
  O  O14  1  0.605791  0.503073  0.924974  1
  O  O15  1  0.496927  0.102718  0.924974  1
  O  O16  1  0.144402  0.614303  0.254401  1
  O  O17  1  0.769113  0.939430  0.425619  1
  O  O18  1  0.496132  0.102693  0.583435  1
  O  O19  1  0.729699  0.189103  0.254368  1
  O  O20  1  0.769283  0.938951  0.084122  1
  O  O21  1  0.897307  0.393439  0.583435  1
  O  O22  1  0.810897  0.540596  0.254368  1
  O  O23  1  0.207154  0.063059  0.754784  1
  O  O24  1  0.855905  0.792846  0.754784  1
  O  O25  1  0.606561  0.503868  0.583435  1
  O  O26  1  0.170317  0.230887  0.425619  1
  O  O27  1  0.169668  0.230717  0.084122  1
  O  O28  1  0.385697  0.530098  0.254401  1
  O  O29  1  0.522237  0.718873  0.754485  1
  O  O30  1  0.897282  0.394209  0.924974  1
  O  O31  1  0.060570  0.829683  0.425619  1
  O  O32  1  0.936941  0.144095  0.754784  1
  O  O33  1  0.459404  0.270301  0.254368  1
  O  O34  1  0.469902  0.855598  0.254401  1
  O  O35  1  0.061049  0.830332  0.084122  1
