# generated using pymatgen
data_Cs2TeOF4
_symmetry_space_group_name_H-M   'P 1'
_cell_length_a   6.81796591
_cell_length_b   7.32636335
_cell_length_c   8.27594430
_cell_angle_alpha   90.00000000
_cell_angle_beta   114.32517195
_cell_angle_gamma   90.00000000
_symmetry_Int_Tables_number   1
_chemical_formula_structural   Cs2TeOF4
_chemical_formula_sum   'Cs4 Te2 O2 F8'
_cell_volume   376.69098239
_cell_formula_units_Z   2
loop_
 _symmetry_equiv_pos_site_id
 _symmetry_equiv_pos_as_xyz
  1  'x, y, z'
loop_
 _atom_site_type_symbol
 _atom_site_label
 _atom_site_symmetry_multiplicity
 _atom_site_fract_x
 _atom_site_fract_y
 _atom_site_fract_z
 _atom_site_occupancy
  Cs  Cs0  1  0.435789  0.250000  0.871578  1
  Cs  Cs1  1  0.243565  0.750000  0.487131  1
  Cs  Cs2  1  0.756435  0.250000  0.512869  1
  Cs  Cs3  1  0.564211  0.750000  0.128422  1
  Te  Te4  1  0.109404  0.250000  0.218808  1
  Te  Te5  1  0.890596  0.750000  0.781192  1
  O  O6  1  0.230181  0.250000  0.460362  1
  O  O7  1  0.769819  0.750000  0.539638  1
  F  F8  1  0.332081  0.049830  0.217739  1
  F  F9  1  0.667919  0.950170  0.782261  1
  F  F10  1  0.885658  0.450170  0.217739  1
  F  F11  1  0.114342  0.950170  0.782261  1
  F  F12  1  0.667919  0.549830  0.782261  1
  F  F13  1  0.885658  0.049830  0.217739  1
  F  F14  1  0.114342  0.549830  0.782261  1
  F  F15  1  0.332081  0.450170  0.217739  1
