# generated using pymatgen
data_GaSe
_symmetry_space_group_name_H-M   'P 1'
_cell_length_a   3.92686390
_cell_length_b   3.92686364
_cell_length_c   16.98461132
_cell_angle_alpha   90.00000000
_cell_angle_beta   90.00000000
_cell_angle_gamma   120.00000222
_symmetry_Int_Tables_number   1
_chemical_formula_structural   GaSe
_chemical_formula_sum   'Ga4 Se4'
_cell_volume   226.81820256
_cell_formula_units_Z   4
loop_
 _symmetry_equiv_pos_site_id
 _symmetry_equiv_pos_as_xyz
  1  'x, y, z'
loop_
 _atom_site_type_symbol
 _atom_site_label
 _atom_site_symmetry_multiplicity
 _atom_site_fract_x
 _atom_site_fract_y
 _atom_site_fract_z
 _atom_site_occupancy
  Ga  Ga0  1  0.666667  0.333333  0.094493  1
  Ga  Ga1  1  0.333333  0.666667  0.594493  1
  Ga  Ga2  1  0.666667  0.333333  0.405507  1
  Ga  Ga3  1  0.333333  0.666667  0.905507  1
  Se  Se4  1  0.333333  0.666667  0.331855  1
  Se  Se5  1  0.666667  0.333333  0.831855  1
  Se  Se6  1  0.666667  0.333333  0.668145  1
  Se  Se7  1  0.333333  0.666667  0.168145  1
