# generated using pymatgen
data_Rb2Cr2O7
_symmetry_space_group_name_H-M   'P 1'
_cell_length_a   7.86668873
_cell_length_b   7.91366962
_cell_length_c   13.83650683
_cell_angle_alpha   82.51252542
_cell_angle_beta   89.03516345
_cell_angle_gamma   86.63312217
_symmetry_Int_Tables_number   1
_chemical_formula_structural   Rb2Cr2O7
_chemical_formula_sum   'Rb8 Cr8 O28'
_cell_volume   852.52756479
_cell_formula_units_Z   4
loop_
 _symmetry_equiv_pos_site_id
 _symmetry_equiv_pos_as_xyz
  1  'x, y, z'
loop_
 _atom_site_type_symbol
 _atom_site_label
 _atom_site_symmetry_multiplicity
 _atom_site_fract_x
 _atom_site_fract_y
 _atom_site_fract_z
 _atom_site_occupancy
  Rb  Rb0  1  0.889096  0.878943  0.865421  1
  Rb  Rb1  1  0.110904  0.121057  0.134579  1
  Rb  Rb2  1  0.780214  0.621600  0.156592  1
  Rb  Rb3  1  0.219786  0.378400  0.843408  1
  Rb  Rb4  1  0.440910  0.806426  0.658444  1
  Rb  Rb5  1  0.559090  0.193574  0.341556  1
  Rb  Rb6  1  0.217021  0.708070  0.368551  1
  Rb  Rb7  1  0.782979  0.291930  0.631449  1
  Cr  Cr8  1  0.715037  0.390535  0.890257  1
  Cr  Cr9  1  0.284963  0.609465  0.109743  1
  Cr  Cr10  1  0.649701  0.137027  0.085381  1
  Cr  Cr11  1  0.350299  0.862973  0.914619  1
  Cr  Cr12  1  0.935913  0.752509  0.611146  1
  Cr  Cr13  1  0.064087  0.247491  0.388854  1
  Cr  Cr14  1  0.697600  0.714476  0.417287  1
  Cr  Cr15  1  0.302400  0.285524  0.582713  1
  O  O16  1  0.580682  0.272334  0.977167  1
  O  O17  1  0.419318  0.727666  0.022833  1
  O  O18  1  0.594061  0.486813  0.802669  1
  O  O19  1  0.405939  0.513187  0.197331  1
  O  O20  1  0.855084  0.258497  0.845553  1
  O  O21  1  0.144916  0.741503  0.154447  1
  O  O22  1  0.813934  0.528179  0.943862  1
  O  O23  1  0.186066  0.471821  0.056138  1
  O  O24  1  0.485410  0.060869  0.145781  1
  O  O25  1  0.514590  0.939131  0.854219  1
  O  O26  1  0.752612  0.250386  0.153719  1
  O  O27  1  0.247388  0.749614  0.846281  1
  O  O28  1  0.780693  0.982525  0.056159  1
  O  O29  1  0.219307  0.017475  0.943841  1
  O  O30  1  0.812941  0.652106  0.528879  1
  O  O31  1  0.187059  0.347894  0.471121  1
  O  O32  1  0.985447  0.605750  0.702012  1
  O  O33  1  0.014553  0.394250  0.297988  1
  O  O34  1  0.821971  0.908524  0.652704  1
  O  O35  1  0.178029  0.091476  0.347296  1
  O  O36  1  0.108497  0.822480  0.557135  1
  O  O37  1  0.891503  0.177520  0.442865  1
  O  O38  1  0.629259  0.542568  0.381223  1
  O  O39  1  0.370741  0.457432  0.618777  1
  O  O40  1  0.820019  0.809920  0.333402  1
  O  O41  1  0.179981  0.190080  0.666598  1
  O  O42  1  0.533662  0.842416  0.438216  1
  O  O43  1  0.466338  0.157584  0.561784  1
