# generated using pymatgen
data_KGd(PO3)4
_symmetry_space_group_name_H-M   'P 1'
_cell_length_a   7.35857758
_cell_length_b   7.99774755
_cell_length_c   8.52620017
_cell_angle_alpha   90.00000000
_cell_angle_beta   90.00000000
_cell_angle_gamma   91.55080359
_symmetry_Int_Tables_number   1
_chemical_formula_structural   KGd(PO3)4
_chemical_formula_sum   'K2 Gd2 P8 O24'
_cell_volume   501.60053057
_cell_formula_units_Z   2
loop_
 _symmetry_equiv_pos_site_id
 _symmetry_equiv_pos_as_xyz
  1  'x, y, z'
loop_
 _atom_site_type_symbol
 _atom_site_label
 _atom_site_symmetry_multiplicity
 _atom_site_fract_x
 _atom_site_fract_y
 _atom_site_fract_z
 _atom_site_occupancy
  K  K0  1  0.731977  0.279235  0.438304  1
  K  K1  1  0.268023  0.720765  0.938304  1
  Gd  Gd2  1  0.762833  0.758727  0.750473  1
  Gd  Gd3  1  0.237167  0.241273  0.250473  1
  P  P4  1  0.435579  0.098256  0.876338  1
  P  P5  1  0.564421  0.901744  0.376338  1
  P  P6  1  0.384969  0.597343  0.501308  1
  P  P7  1  0.097622  0.102923  0.674054  1
  P  P8  1  0.902378  0.897077  0.174054  1
  P  P9  1  0.996018  0.383716  0.903373  1
  P  P10  1  0.615031  0.402657  0.001308  1
  P  P11  1  0.003982  0.616284  0.403373  1
  O  O12  1  0.973432  0.071972  0.205839  1
  O  O13  1  0.176999  0.653732  0.514754  1
  O  O14  1  0.307905  0.119831  0.724509  1
  O  O15  1  0.692095  0.880169  0.224509  1
  O  O16  1  0.162103  0.385014  0.005705  1
  O  O17  1  0.823001  0.346268  0.014754  1
  O  O18  1  0.460757  0.721724  0.364533  1
  O  O19  1  0.026568  0.928028  0.705839  1
  O  O20  1  0.967279  0.537110  0.805571  1
  O  O21  1  0.086058  0.174137  0.512335  1
  O  O22  1  0.391444  0.421452  0.441484  1
  O  O23  1  0.032721  0.462890  0.305571  1
  O  O24  1  0.567859  0.962952  0.842709  1
  O  O25  1  0.837897  0.614986  0.505705  1
  O  O26  1  0.013220  0.779784  0.294066  1
  O  O27  1  0.525377  0.358960  0.154074  1
  O  O28  1  0.323917  0.074794  0.022171  1
  O  O29  1  0.913942  0.825863  0.012335  1
  O  O30  1  0.432141  0.037048  0.342709  1
  O  O31  1  0.474623  0.641040  0.654074  1
  O  O32  1  0.608556  0.578548  0.941484  1
  O  O33  1  0.539243  0.278276  0.864533  1
  O  O34  1  0.986780  0.220216  0.794066  1
  O  O35  1  0.676083  0.925206  0.522171  1
