# generated using pymatgen
data_Re2SCl12
_symmetry_space_group_name_H-M   'P 1'
_cell_length_a   8.72758466
_cell_length_b   9.15314683
_cell_length_c   11.39862983
_cell_angle_alpha   90.00000000
_cell_angle_beta   90.00000000
_cell_angle_gamma   94.99520995
_symmetry_Int_Tables_number   1
_chemical_formula_structural   Re2SCl12
_chemical_formula_sum   'Re4 S2 Cl24'
_cell_volume   907.11959937
_cell_formula_units_Z   2
loop_
 _symmetry_equiv_pos_site_id
 _symmetry_equiv_pos_as_xyz
  1  'x, y, z'
loop_
 _atom_site_type_symbol
 _atom_site_label
 _atom_site_symmetry_multiplicity
 _atom_site_fract_x
 _atom_site_fract_y
 _atom_site_fract_z
 _atom_site_occupancy
  Re  Re0  1  0.859616  0.625871  0.250000  1
  Re  Re1  1  0.360999  0.607790  0.750000  1
  Re  Re2  1  0.140384  0.374129  0.750000  1
  Re  Re3  1  0.639001  0.392210  0.250000  1
  S  S4  1  0.169607  0.933393  0.250000  1
  S  S5  1  0.830393  0.066607  0.750000  1
  Cl  Cl6  1  0.385427  0.782963  0.895257  1
  Cl  Cl7  1  0.828096  0.925860  0.611760  1
  Cl  Cl8  1  0.379928  0.420421  0.250000  1
  Cl  Cl9  1  0.614573  0.217037  0.104743  1
  Cl  Cl10  1  0.046526  0.676982  0.105414  1
  Cl  Cl11  1  0.620072  0.579579  0.750000  1
  Cl  Cl12  1  0.670715  0.580835  0.402538  1
  Cl  Cl13  1  0.171904  0.074140  0.111760  1
  Cl  Cl14  1  0.171904  0.074140  0.388240  1
  Cl  Cl15  1  0.388282  0.877967  0.250000  1
  Cl  Cl16  1  0.809920  0.873188  0.250000  1
  Cl  Cl17  1  0.329285  0.419165  0.902538  1
  Cl  Cl18  1  0.614573  0.217037  0.395257  1
  Cl  Cl19  1  0.611718  0.122033  0.750000  1
  Cl  Cl20  1  0.046526  0.676982  0.394586  1
  Cl  Cl21  1  0.670715  0.580835  0.097462  1
  Cl  Cl22  1  0.190080  0.126812  0.750000  1
  Cl  Cl23  1  0.917277  0.373200  0.250000  1
  Cl  Cl24  1  0.953474  0.323018  0.605414  1
  Cl  Cl25  1  0.828096  0.925860  0.888240  1
  Cl  Cl26  1  0.082723  0.626800  0.750000  1
  Cl  Cl27  1  0.329285  0.419165  0.597462  1
  Cl  Cl28  1  0.385427  0.782963  0.604743  1
  Cl  Cl29  1  0.953474  0.323018  0.894586  1
