# generated using pymatgen
data_MgSiO3
_symmetry_space_group_name_H-M   'P 1'
_cell_length_a   5.24579352
_cell_length_b   8.94539619
_cell_length_c   18.44950261
_cell_angle_alpha   90.00000000
_cell_angle_beta   90.00000000
_cell_angle_gamma   90.00000000
_symmetry_Int_Tables_number   1
_chemical_formula_structural   MgSiO3
_chemical_formula_sum   'Mg16 Si16 O48'
_cell_volume   865.75584985
_cell_formula_units_Z   16
loop_
 _symmetry_equiv_pos_site_id
 _symmetry_equiv_pos_as_xyz
  1  'x, y, z'
loop_
 _atom_site_type_symbol
 _atom_site_label
 _atom_site_symmetry_multiplicity
 _atom_site_fract_x
 _atom_site_fract_y
 _atom_site_fract_z
 _atom_site_occupancy
  O  O0  1  0.400594  0.303246  0.948542  1
  O  O1  1  0.900594  0.696754  0.551458  1
  O  O2  1  0.099406  0.803246  0.051458  1
  O  O3  1  0.599406  0.196754  0.448542  1
  O  O4  1  0.599406  0.696754  0.051458  1
  O  O5  1  0.099406  0.303246  0.448542  1
  O  O6  1  0.900594  0.196754  0.948542  1
  O  O7  1  0.400594  0.803246  0.551458  1
  O  O8  1  0.309262  0.017420  0.932491  1
  O  O9  1  0.809262  0.982580  0.567509  1
  O  O10  1  0.190738  0.517420  0.067509  1
  O  O11  1  0.690738  0.482580  0.432491  1
  O  O12  1  0.690738  0.982580  0.067509  1
  O  O13  1  0.190738  0.017420  0.432491  1
  O  O14  1  0.809262  0.482580  0.932491  1
  O  O15  1  0.309262  0.517420  0.567509  1
  O  O16  1  0.203546  0.159227  0.062988  1
  O  O17  1  0.703546  0.840773  0.437012  1
  O  O18  1  0.296454  0.659227  0.937012  1
  O  O19  1  0.952560  0.999318  0.811596  1
  O  O20  1  0.796454  0.340773  0.562988  1
  O  O21  1  0.296454  0.159227  0.562988  1
  O  O22  1  0.703546  0.340773  0.062988  1
  O  O23  1  0.203546  0.659227  0.437012  1
  O  O24  1  0.161824  0.278721  0.802935  1
  O  O25  1  0.661824  0.721279  0.697065  1
  O  O26  1  0.338176  0.778721  0.197065  1
  O  O27  1  0.838176  0.221279  0.302935  1
  O  O28  1  0.838176  0.721279  0.197065  1
  O  O29  1  0.338176  0.278721  0.302935  1
  O  O30  1  0.661824  0.221279  0.802935  1
  O  O31  1  0.161824  0.778721  0.697065  1
  O  O32  1  0.960918  0.660080  0.816384  1
  O  O33  1  0.460918  0.339919  0.683616  1
  O  O34  1  0.539082  0.160080  0.183616  1
  O  O35  1  0.039082  0.839920  0.316384  1
  O  O36  1  0.039082  0.339919  0.183616  1
  O  O37  1  0.539082  0.660080  0.316384  1
  O  O38  1  0.460918  0.839920  0.816384  1
  O  O39  1  0.960918  0.160080  0.683616  1
  O  O40  1  0.952560  0.499318  0.688404  1
  O  O41  1  0.452560  0.500682  0.811596  1
  O  O42  1  0.547440  0.999318  0.311596  1
  O  O43  1  0.047440  0.000682  0.188404  1
  O  O44  1  0.047440  0.500682  0.311596  1
  O  O45  1  0.547440  0.499318  0.188404  1
  O  O46  1  0.452560  0.000682  0.688404  1
  O  O47  1  0.796454  0.840773  0.937012  1
  Mg  Mg48  1  0.130474  0.347218  0.624121  1
  Mg  Mg49  1  0.630474  0.652782  0.875879  1
  Mg  Mg50  1  0.369526  0.847218  0.375879  1
  Mg  Mg51  1  0.869526  0.152782  0.124121  1
  Mg  Mg52  1  0.869526  0.652782  0.375879  1
  Mg  Mg53  1  0.369526  0.347218  0.124121  1
  Mg  Mg54  1  0.630474  0.152782  0.624121  1
  Mg  Mg55  1  0.130474  0.847218  0.875879  1
  Mg  Mg56  1  0.636481  0.511190  0.623934  1
  Mg  Mg57  1  0.136481  0.488810  0.876066  1
  Mg  Mg58  1  0.863519  0.011190  0.376066  1
  Mg  Mg59  1  0.363519  0.988810  0.123934  1
  Mg  Mg60  1  0.363519  0.488810  0.376066  1
  Mg  Mg61  1  0.863519  0.511190  0.123934  1
  Mg  Mg62  1  0.136481  0.988810  0.623934  1
  Mg  Mg63  1  0.636481  0.011190  0.876066  1
  Si  Si64  1  0.944456  0.658957  0.728134  1
  Si  Si65  1  0.444456  0.341043  0.771866  1
  Si  Si66  1  0.555544  0.158957  0.271866  1
  Si  Si67  1  0.055544  0.841043  0.228134  1
  Si  Si68  1  0.055544  0.341043  0.271866  1
  Si  Si69  1  0.555544  0.658957  0.228134  1
  Si  Si70  1  0.444456  0.841043  0.728134  1
  Si  Si71  1  0.944456  0.158957  0.771866  1
  Si  Si72  1  0.204423  0.662692  0.525818  1
  Si  Si73  1  0.704423  0.337308  0.974182  1
  Si  Si74  1  0.295577  0.162692  0.474182  1
  Si  Si75  1  0.795577  0.837308  0.025818  1
  Si  Si76  1  0.795577  0.337308  0.474182  1
  Si  Si77  1  0.295577  0.662692  0.025818  1
  Si  Si78  1  0.704423  0.837308  0.525818  1
  Si  Si79  1  0.204423  0.162692  0.974182  1
