# generated using pymatgen
data_Cu2SiPbS4
_symmetry_space_group_name_H-M   'P 1'
_cell_length_a   6.08738339
_cell_length_b   6.08743168
_cell_length_c   15.21657680
_cell_angle_alpha   90.00086873
_cell_angle_beta   90.00024053
_cell_angle_gamma   119.99766075
_symmetry_Int_Tables_number   1
_chemical_formula_structural   Cu2SiPbS4
_chemical_formula_sum   'Cu6 Si3 Pb3 S12'
_cell_volume   488.34032211
_cell_formula_units_Z   3
loop_
 _symmetry_equiv_pos_site_id
 _symmetry_equiv_pos_as_xyz
  1  'x, y, z'
loop_
 _atom_site_type_symbol
 _atom_site_label
 _atom_site_symmetry_multiplicity
 _atom_site_fract_x
 _atom_site_fract_y
 _atom_site_fract_z
 _atom_site_occupancy
  Cu  Cu0  1  0.427190  0.335962  0.742953  1
  Cu  Cu1  1  0.336119  0.427204  0.256979  1
  Cu  Cu2  1  0.572864  0.908891  0.923728  1
  Cu  Cu3  1  0.909018  0.572992  0.076285  1
  Cu  Cu4  1  0.663967  0.091238  0.409678  1
  Si  Si5  1  0.722242  -0.000028  0.666672  1
  Si  Si6  1  -0.000020  0.722277  0.333326  1
  Cu  Cu7  1  0.091064  0.663874  0.590324  1
  Si  Si8  1  0.277744  0.277730  -0.000000  1
  Pb  Pb9  1  0.529383  0.000118  0.166671  1
  Pb  Pb10  1  0.999920  0.529247  0.833342  1
  Pb  Pb11  1  0.470567  0.470683  0.500025  1
  S  S12  1  0.494965  0.973414  0.555023  1
  S  S13  1  0.327122  0.096640  0.335580  1
  S  S14  1  0.026494  0.521488  0.221682  1
  S  S15  1  0.521513  0.026495  0.778324  1
  S  S16  1  0.096614  0.327102  0.664418  1
  S  S17  1  0.769492  0.672834  0.668929  1
  S  S18  1  0.672836  0.769516  0.331096  1
  S  S19  1  0.903371  0.230490  0.002273  1
  S  S20  1  0.478434  0.504999  0.888351  1
  S  S21  1  0.230527  0.903370  0.997722  1
  S  S22  1  0.973487  0.495018  0.444982  1
  S  S23  1  0.505085  0.478444  0.111638  1
