# generated using pymatgen
data_LiEu(PO3)4
_symmetry_space_group_name_H-M   'P 1'
_cell_length_a   7.18894324
_cell_length_b   9.07438457
_cell_length_c   9.08393019
_cell_angle_alpha   65.99236094
_cell_angle_beta   66.69063648
_cell_angle_gamma   66.66466384
_symmetry_Int_Tables_number   1
_chemical_formula_structural   LiEu(PO3)4
_chemical_formula_sum   'Li2 Eu2 P8 O24'
_cell_volume   477.22205617
_cell_formula_units_Z   2
loop_
 _symmetry_equiv_pos_site_id
 _symmetry_equiv_pos_as_xyz
  1  'x, y, z'
loop_
 _atom_site_type_symbol
 _atom_site_label
 _atom_site_symmetry_multiplicity
 _atom_site_fract_x
 _atom_site_fract_y
 _atom_site_fract_z
 _atom_site_occupancy
  Eu  Eu0  1  0.699552  0.750000  0.250000  1
  Eu  Eu1  1  0.300448  0.250000  0.750000  1
  Li  Li2  1  0.797647  0.250000  0.750000  1
  Li  Li3  1  0.202353  0.750000  0.250000  1
  P  P4  1  0.193869  0.385196  0.337751  1
  P  P5  1  0.806131  0.614804  0.662249  1
  P  P6  1  0.509445  0.197653  0.097569  1
  P  P7  1  0.490555  0.802347  0.902431  1
  P  P8  1  0.916816  0.114804  0.162249  1
  P  P9  1  0.804667  0.302347  0.402431  1
  P  P10  1  0.195333  0.697653  0.597569  1
  P  P11  1  0.083184  0.885196  0.837751  1
  O  O12  1  0.038443  0.268392  0.412525  1
  O  O13  1  0.719360  0.231608  0.087475  1
  O  O14  1  0.487813  0.031605  0.224238  1
  O  O15  1  0.100626  0.182474  0.046011  1
  O  O16  1  0.925268  0.430614  0.703607  1
  O  O17  1  0.329111  0.317526  0.453989  1
  O  O18  1  0.670889  0.682474  0.546011  1
  O  O19  1  0.840123  0.148136  0.341571  1
  O  O20  1  0.329830  0.351864  0.158429  1
  O  O21  1  0.512187  0.968395  0.775762  1
  O  O22  1  0.280640  0.768392  0.912525  1
  O  O23  1  0.743656  0.468395  0.275762  1
  O  O24  1  0.521620  0.229375  0.918577  1
  O  O25  1  0.159877  0.851864  0.658429  1
  O  O26  1  0.669572  0.270625  0.581423  1
  O  O27  1  0.940511  0.930614  0.203607  1
  O  O28  1  0.330428  0.729375  0.418577  1
  O  O29  1  0.478380  0.770625  0.081423  1
  O  O30  1  0.256344  0.531605  0.724238  1
  O  O31  1  0.074732  0.569386  0.296393  1
  O  O32  1  0.670170  0.648136  0.841571  1
  O  O33  1  0.961557  0.731608  0.587475  1
  O  O34  1  0.899374  0.817526  0.953989  1
  O  O35  1  0.059490  0.069386  0.796393  1
