# generated using pymatgen
data_SiO2
_symmetry_space_group_name_H-M   'P 1'
_cell_length_a   12.88428479
_cell_length_b   12.88428479
_cell_length_c   3.88457731
_cell_angle_alpha   90.00000000
_cell_angle_beta   90.00000000
_cell_angle_gamma   119.99999998
_symmetry_Int_Tables_number   1
_chemical_formula_structural   SiO2
_chemical_formula_sum   'Si12 O24'
_cell_volume   558.46380681
_cell_formula_units_Z   12
loop_
 _symmetry_equiv_pos_site_id
 _symmetry_equiv_pos_as_xyz
  1  'x, y, z'
loop_
 _atom_site_type_symbol
 _atom_site_label
 _atom_site_symmetry_multiplicity
 _atom_site_fract_x
 _atom_site_fract_y
 _atom_site_fract_z
 _atom_site_occupancy
  Si  Si0  1  0.570711  0.905040  0.845465  1
  Si  Si1  1  0.665671  0.570711  0.845465  1
  Si  Si2  1  0.905040  0.334329  0.845465  1
  Si  Si3  1  0.334329  0.429289  0.845465  1
  Si  Si4  1  0.665671  0.094960  0.154535  1
  Si  Si5  1  0.570711  0.665671  0.154535  1
  Si  Si6  1  0.334329  0.905040  0.154535  1
  Si  Si7  1  0.429289  0.094960  0.845465  1
  Si  Si8  1  0.094960  0.665671  0.845465  1
  Si  Si9  1  0.905040  0.570711  0.154535  1
  Si  Si10  1  0.429289  0.334329  0.154535  1
  Si  Si11  1  0.094960  0.429289  0.154535  1
  O  O12  1  1.000000  0.296244  0.000000  1
  O  O13  1  0.703756  0.000000  0.000000  1
  O  O14  1  0.296244  0.296244  0.000000  1
  O  O15  1  0.556737  0.778369  0.000000  1
  O  O16  1  0.401988  0.000000  0.500000  1
  O  O17  1  0.443263  0.221631  0.000000  1
  O  O18  1  0.778369  0.221631  0.000000  1
  O  O19  1  0.880932  0.440466  0.000000  1
  O  O20  1  0.559534  0.440466  0.000000  1
  O  O21  1  0.221631  0.778369  0.000000  1
  O  O22  1  0.000000  0.401988  0.500000  1
  O  O23  1  0.598012  0.598012  0.500000  1
  O  O24  1  0.296244  0.000000  0.000000  1
  O  O25  1  0.221631  0.443263  0.000000  1
  O  O26  1  0.598012  0.000000  0.500000  1
  O  O27  1  0.559534  0.119068  0.000000  1
  O  O28  1  0.401988  0.401988  0.500000  1
  O  O29  1  0.703756  0.703756  0.000000  1
  O  O30  1  0.440466  0.559534  0.000000  1
  O  O31  1  1.000000  0.598012  0.500000  1
  O  O32  1  0.440466  0.880932  0.000000  1
  O  O33  1  0.778369  0.556737  0.000000  1
  O  O34  1  0.119068  0.559534  0.000000  1
  O  O35  1  0.000000  0.703756  0.000000  1
