# generated using pymatgen
data_SrMnO3
_symmetry_space_group_name_H-M   'P 1'
_cell_length_a   5.53460033
_cell_length_b   5.53460093
_cell_length_c   9.28513207
_cell_angle_alpha   90.00000000
_cell_angle_beta   90.00000000
_cell_angle_gamma   119.78376069
_symmetry_Int_Tables_number   1
_chemical_formula_structural   SrMnO3
_chemical_formula_sum   'Sr4 Mn4 O12'
_cell_volume   246.85020439
_cell_formula_units_Z   4
loop_
 _symmetry_equiv_pos_site_id
 _symmetry_equiv_pos_as_xyz
  1  'x, y, z'
loop_
 _atom_site_type_symbol
 _atom_site_label
 _atom_site_symmetry_multiplicity
 _atom_site_fract_x
 _atom_site_fract_y
 _atom_site_fract_z
 _atom_site_occupancy
  Sr  Sr0  1  0.661733  0.338267  0.250000  1
  Sr  Sr1  1  0.018788  0.018788  0.000000  1
  Sr  Sr2  1  0.338267  0.661733  0.750000  1
  Sr  Sr3  1  0.981212  0.981212  0.500000  1
  Mn  Mn4  1  0.685179  0.350068  0.887839  1
  Mn  Mn5  1  0.649932  0.314821  0.612161  1
  Mn  Mn6  1  0.314821  0.649932  0.387839  1
  Mn  Mn7  1  0.350068  0.685179  0.112161  1
  O  O8  1  0.634897  0.817703  0.266719  1
  O  O9  1  0.820028  0.179972  0.750000  1
  O  O10  1  0.182297  0.365103  0.233281  1
  O  O11  1  0.179972  0.820028  0.250000  1
  O  O12  1  0.365103  0.182297  0.766719  1
  O  O13  1  0.949590  0.448106  0.479219  1
  O  O14  1  0.050410  0.551894  0.979219  1
  O  O15  1  0.447562  0.447562  0.500000  1
  O  O16  1  0.552438  0.552438  0.000000  1
  O  O17  1  0.817703  0.634897  0.733281  1
  O  O18  1  0.448106  0.949590  0.520781  1
  O  O19  1  0.551894  0.050410  0.020781  1
