# generated using pymatgen
data_Sr2Li3NbN4
_symmetry_space_group_name_H-M   'P 1'
_cell_length_a   7.05627650
_cell_length_b   8.74823093
_cell_length_c   9.03444165
_cell_angle_alpha   90.00000000
_cell_angle_beta   90.00000000
_cell_angle_gamma   90.00000000
_symmetry_Int_Tables_number   1
_chemical_formula_structural   Sr2Li3NbN4
_chemical_formula_sum   'Sr8 Li12 Nb4 N16'
_cell_volume   557.69550781
_cell_formula_units_Z   4
loop_
 _symmetry_equiv_pos_site_id
 _symmetry_equiv_pos_as_xyz
  1  'x, y, z'
loop_
 _atom_site_type_symbol
 _atom_site_label
 _atom_site_symmetry_multiplicity
 _atom_site_fract_x
 _atom_site_fract_y
 _atom_site_fract_z
 _atom_site_occupancy
  Li  Li0  1  0.237485  0.017785  0.365370  1
  Li  Li1  1  0.237485  0.982215  0.634630  1
  Li  Li2  1  0.262515  0.517785  0.134630  1
  Li  Li3  1  0.262515  0.482215  0.865370  1
  Li  Li4  1  0.762515  0.982215  0.634630  1
  Li  Li5  1  0.762515  0.017785  0.365370  1
  Li  Li6  1  0.737485  0.482215  0.865370  1
  Li  Li7  1  0.737485  0.517785  0.134630  1
  N  N8  1  0.234808  0.302044  0.018907  1
  N  N9  1  0.234808  0.697956  0.981093  1
  N  N10  1  0.265192  0.802044  0.481093  1
  N  N11  1  0.265192  0.197956  0.518907  1
  N  N12  1  0.765192  0.697956  0.981093  1
  N  N13  1  0.765192  0.302044  0.018907  1
  N  N14  1  0.734808  0.197956  0.518907  1
  N  N15  1  0.734808  0.802044  0.481093  1
  N  N16  1  0.000000  0.072122  0.221099  1
  N  N17  1  0.000000  0.927878  0.778901  1
  N  N18  1  0.500000  0.572122  0.278901  1
  N  N19  1  0.500000  0.427878  0.721099  1
  Li  Li20  1  0.000000  0.205279  0.421829  1
  Li  Li21  1  0.000000  0.794721  0.578171  1
  Li  Li22  1  0.500000  0.705279  0.078171  1
  Li  Li23  1  0.500000  0.294721  0.921829  1
  Sr  Sr24  1  0.000000  0.243274  0.754330  1
  Sr  Sr25  1  0.000000  0.756726  0.245670  1
  Sr  Sr26  1  0.500000  0.743274  0.745670  1
  Sr  Sr27  1  0.500000  0.256726  0.254330  1
  Nb  Nb28  1  0.000000  0.285510  0.137669  1
  Nb  Nb29  1  0.000000  0.714490  0.862331  1
  Nb  Nb30  1  0.500000  0.785510  0.362331  1
  Nb  Nb31  1  0.500000  0.214490  0.637669  1
  N  N32  1  0.000000  0.453330  0.284405  1
  N  N33  1  0.000000  0.546670  0.715595  1
  N  N34  1  0.500000  0.953330  0.215595  1
  N  N35  1  0.500000  0.046670  0.784405  1
  Sr  Sr36  1  0.259485  0.000000  0.000000  1
  Sr  Sr37  1  0.240515  0.500000  0.500000  1
  Sr  Sr38  1  0.740515  0.000000  0.000000  1
  Sr  Sr39  1  0.759485  0.500000  0.500000  1
