# generated using pymatgen
data_NaCo3As3(HO6)2
_symmetry_space_group_name_H-M   'P 1'
_cell_length_a   6.91107154
_cell_length_b   8.72610659
_cell_length_c   8.72610664
_cell_angle_alpha   91.44810311
_cell_angle_beta   105.93032909
_cell_angle_gamma   105.93033562
_symmetry_Int_Tables_number   1
_chemical_formula_structural   NaCo3As3(HO6)2
_chemical_formula_sum   'Na2 Co6 As6 H4 O24'
_cell_volume   483.71105232
_cell_formula_units_Z   2
loop_
 _symmetry_equiv_pos_site_id
 _symmetry_equiv_pos_as_xyz
  1  'x, y, z'
loop_
 _atom_site_type_symbol
 _atom_site_label
 _atom_site_symmetry_multiplicity
 _atom_site_fract_x
 _atom_site_fract_y
 _atom_site_fract_z
 _atom_site_occupancy
  Na  Na0  1  0.250000  0.995579  0.004421  1
  Na  Na1  1  0.750000  0.004421  0.995579  1
  Co  Co2  1  0.750000  0.722196  0.277804  1
  Co  Co3  1  0.250000  0.277804  0.722196  1
  Co  Co4  1  0.614775  0.044823  0.369373  1
  Co  Co5  1  0.885225  0.630627  0.955177  1
  Co  Co6  1  0.385225  0.955177  0.630627  1
  Co  Co7  1  0.114775  0.369373  0.044823  1
  As  As8  1  0.750000  0.314556  0.685444  1
  As  As9  1  0.250000  0.685444  0.314556  1
  As  As10  1  0.888443  0.895759  0.667228  1
  As  As11  1  0.611557  0.332772  0.104241  1
  As  As12  1  0.111557  0.104241  0.332772  1
  As  As13  1  0.388443  0.667228  0.895759  1
  O  O14  1  0.475134  0.798119  0.272161  1
  O  O15  1  0.024866  0.727839  0.201881  1
  O  O16  1  0.524866  0.201881  0.727839  1
  O  O17  1  0.975134  0.272161  0.798119  1
  O  O18  1  0.727423  0.280965  0.484082  1
  O  O19  1  0.772577  0.515918  0.719035  1
  O  O20  1  0.272577  0.719035  0.515918  1
  O  O21  1  0.227423  0.484082  0.280965  1
  O  O22  1  0.871985  0.974683  0.330608  1
  O  O23  1  0.628015  0.669392  0.025317  1
  O  O24  1  0.128015  0.025317  0.669392  1
  O  O25  1  0.371985  0.330608  0.974683  1
  O  O26  1  0.665444  0.462503  0.279086  1
  O  O27  1  0.834556  0.720914  0.537497  1
  O  O28  1  0.334556  0.537497  0.720914  1
  O  O29  1  0.165444  0.279086  0.462503  1
  O  O30  1  0.686136  0.978093  0.601361  1
  O  O31  1  0.813864  0.398639  0.021907  1
  O  O32  1  0.313864  0.021907  0.398639  1
  O  O33  1  0.186136  0.601361  0.978093  1
  O  O34  1  0.593032  0.140851  0.151100  1
  O  O35  1  0.906968  0.848900  0.859149  1
  O  O36  1  0.406968  0.859149  0.848900  1
  O  O37  1  0.093032  0.151100  0.140851  1
  H  H38  1  0.803980  0.617804  0.608868  1
  H  H39  1  0.696020  0.391132  0.382196  1
  H  H40  1  0.196020  0.382196  0.391132  1
  H  H41  1  0.303980  0.608868  0.617804  1
