# generated using pymatgen
data_Yb8Cl17
_symmetry_space_group_name_H-M   'P 1'
_cell_length_a   6.56764279
_cell_length_b   6.88010420
_cell_length_c   27.41237593
_cell_angle_alpha   96.17275565
_cell_angle_beta   96.88032999
_cell_angle_gamma   89.99831321
_symmetry_Int_Tables_number   1
_chemical_formula_structural   Yb8Cl17
_chemical_formula_sum   'Yb16 Cl34'
_cell_volume   1222.50388424
_cell_formula_units_Z   2
loop_
 _symmetry_equiv_pos_site_id
 _symmetry_equiv_pos_as_xyz
  1  'x, y, z'
loop_
 _atom_site_type_symbol
 _atom_site_label
 _atom_site_symmetry_multiplicity
 _atom_site_fract_x
 _atom_site_fract_y
 _atom_site_fract_z
 _atom_site_occupancy
  Yb  Yb0  1  0.008901  0.362513  0.069283  1
  Yb  Yb1  1  0.747060  0.428862  0.438884  1
  Yb  Yb2  1  0.315243  0.038610  0.683716  1
  Yb  Yb3  1  0.376648  0.687362  0.806321  1
  Yb  Yb4  1  0.252940  0.571138  0.561116  1
  Yb  Yb5  1  0.191837  0.928876  0.438889  1
  Yb  Yb6  1  0.439627  0.137506  0.930715  1
  Yb  Yb7  1  0.991099  0.637487  0.930717  1
  Yb  Yb8  1  0.070331  0.812647  0.193677  1
  Yb  Yb9  1  0.684757  0.961390  0.316284  1
  Yb  Yb10  1  0.623352  0.312638  0.193679  1
  Yb  Yb11  1  0.808163  0.071124  0.561111  1
  Yb  Yb12  1  0.929669  0.187353  0.806323  1
  Yb  Yb13  1  0.560373  0.862494  0.069285  1
  Yb  Yb14  1  0.131528  0.461384  0.316277  1
  Yb  Yb15  1  0.868472  0.538616  0.683723  1
  Cl  Cl16  1  0.326554  0.817542  0.340175  1
  Cl  Cl17  1  0.420838  0.923108  0.551502  1
  Cl  Cl18  1  0.066271  0.860178  0.743609  1
  Cl  Cl19  1  0.003871  0.804209  0.621447  1
  Cl  Cl20  1  0.117558  0.304207  0.621445  1
  Cl  Cl21  1  0.234261  0.426655  0.867099  1
  Cl  Cl22  1  0.773895  0.610955  0.010242  1
  Cl  Cl23  1  0.132839  0.926638  0.867107  1
  Cl  Cl24  1  0.579162  0.076892  0.448498  1
  Cl  Cl25  1  0.280516  0.491194  0.224741  1
  Cl  Cl26  1  0.757368  0.307370  0.891982  1
  Cl  Cl27  1  0.673446  0.182458  0.659825  1
  Cl  Cl28  1  0.242632  0.692630  0.108018  1
  Cl  Cl29  1  0.996129  0.195791  0.378553  1
  Cl  Cl30  1  0.736318  0.110973  0.010242  1
  Cl  Cl31  1  0.369342  0.576918  0.448512  1
  Cl  Cl32  1  0.882442  0.695793  0.378555  1
  Cl  Cl33  1  0.444232  0.991207  0.224742  1
  Cl  Cl34  1  0.634611  0.807359  0.891973  1
  Cl  Cl35  1  0.941703  0.749989  0.499998  1
  Cl  Cl36  1  0.365389  0.192641  0.108027  1
  Cl  Cl37  1  0.513646  0.317564  0.340164  1
  Cl  Cl38  1  0.555768  0.008793  0.775258  1
  Cl  Cl39  1  0.867161  0.073362  0.132893  1
  Cl  Cl40  1  0.486354  0.682436  0.659836  1
  Cl  Cl41  1  0.226105  0.389045  0.989758  1
  Cl  Cl42  1  0.630658  0.423082  0.551488  1
  Cl  Cl43  1  0.263682  0.889027  0.989758  1
  Cl  Cl44  1  0.177333  0.360146  0.743614  1
  Cl  Cl45  1  0.765739  0.573345  0.132901  1
  Cl  Cl46  1  0.058297  0.250011  0.500002  1
  Cl  Cl47  1  0.719484  0.508806  0.775259  1
  Cl  Cl48  1  0.933729  0.139822  0.256391  1
  Cl  Cl49  1  0.822667  0.639854  0.256386  1
