# generated using pymatgen
data_CdI2
_symmetry_space_group_name_H-M   'P 1'
_cell_length_a   4.33362692
_cell_length_b   4.33362719
_cell_length_c   136.42000122
_cell_angle_alpha   90.00000000
_cell_angle_beta   90.00000000
_cell_angle_gamma   119.99999797
_symmetry_Int_Tables_number   1
_chemical_formula_structural   CdI2
_chemical_formula_sum   'Cd18 I36'
_cell_volume   2218.76730186
_cell_formula_units_Z   18
loop_
 _symmetry_equiv_pos_site_id
 _symmetry_equiv_pos_as_xyz
  1  'x, y, z'
loop_
 _atom_site_type_symbol
 _atom_site_label
 _atom_site_symmetry_multiplicity
 _atom_site_fract_x
 _atom_site_fract_y
 _atom_site_fract_z
 _atom_site_occupancy
  Cd  Cd0  1  0.000000  0.000000  0.402797  1
  Cd  Cd1  1  0.666667  0.333333  0.458368  1
  Cd  Cd2  1  0.666667  0.333333  0.125019  1
  Cd  Cd3  1  0.666667  0.333333  0.680531  1
  Cd  Cd4  1  0.000000  0.000000  0.847202  1
  Cd  Cd5  1  0.666667  0.333333  0.902788  1
  Cd  Cd6  1  0.666667  0.333333  0.569407  1
  Cd  Cd7  1  0.666667  0.333333  0.736086  1
  Cd  Cd8  1  0.000000  0.000000  0.958292  1
  Cd  Cd9  1  0.000000  0.000000  0.513894  1
  Cd  Cd10  1  0.666667  0.333333  0.625018  1
  Cd  Cd11  1  0.666667  0.333333  0.236084  1
  Cd  Cd12  1  0.666667  0.333333  0.013889  1
  Cd  Cd13  1  0.666667  0.333333  0.347249  1
  Cd  Cd14  1  0.666667  0.333333  0.291694  1
  Cd  Cd15  1  0.666667  0.333333  0.791692  1
  Cd  Cd16  1  0.000000  0.000000  0.180542  1
  Cd  Cd17  1  0.000000  0.000000  0.069439  1
  I  I18  1  0.000000  0.000000  0.112377  1
  I  I19  1  0.333333  0.666667  0.915434  1
  I  I20  1  0.000000  0.000000  0.445747  1
  I  I21  1  0.333333  0.666667  0.359885  1
  I  I22  1  0.000000  0.000000  0.279045  1
  I  I23  1  0.333333  0.666667  0.804344  1
  I  I24  1  0.000000  0.000000  0.779044  1
  I  I25  1  0.333333  0.666667  0.082078  1
  I  I26  1  0.333333  0.666667  0.304345  1
  I  I27  1  0.000000  0.000000  0.223444  1
  I  I28  1  0.333333  0.666667  0.137670  1
  I  I29  1  0.000000  0.000000  0.667889  1
  I  I30  1  0.666667  0.333333  0.834560  1
  I  I31  1  0.333333  0.666667  0.026532  1
  I  I32  1  0.333333  0.666667  0.859840  1
  I  I33  1  0.666667  0.333333  0.167909  1
  I  I34  1  0.333333  0.666667  0.637668  1
  I  I35  1  0.333333  0.666667  0.193183  1
  I  I36  1  0.333333  0.666667  0.470986  1
  I  I37  1  0.333333  0.666667  0.693176  1
  I  I38  1  0.666667  0.333333  0.056802  1
  I  I39  1  0.000000  0.000000  0.001240  1
  I  I40  1  0.333333  0.666667  0.415442  1
  I  I41  1  0.000000  0.000000  0.556756  1
  I  I42  1  0.000000  0.000000  0.723446  1
  I  I43  1  0.333333  0.666667  0.970943  1
  I  I44  1  0.666667  0.333333  0.390158  1
  I  I45  1  0.666667  0.333333  0.945638  1
  I  I46  1  0.333333  0.666667  0.526531  1
  I  I47  1  0.000000  0.000000  0.334615  1
  I  I48  1  0.333333  0.666667  0.748730  1
  I  I49  1  0.333333  0.666667  0.582059  1
  I  I50  1  0.666667  0.333333  0.501258  1
  I  I51  1  0.333333  0.666667  0.248727  1
  I  I52  1  0.000000  0.000000  0.890134  1
  I  I53  1  0.000000  0.000000  0.612375  1
