# generated using pymatgen
data_FeSiO3
_symmetry_space_group_name_H-M   'P 1'
_cell_length_a   5.39002578
_cell_length_b   9.26440510
_cell_length_c   9.55362116
_cell_angle_alpha   90.00000000
_cell_angle_beta   102.38439131
_cell_angle_gamma   90.00000000
_symmetry_Int_Tables_number   1
_chemical_formula_structural   FeSiO3
_chemical_formula_sum   'Fe8 Si8 O24'
_cell_volume   465.96280533
_cell_formula_units_Z   8
loop_
 _symmetry_equiv_pos_site_id
 _symmetry_equiv_pos_as_xyz
  1  'x, y, z'
loop_
 _atom_site_type_symbol
 _atom_site_label
 _atom_site_symmetry_multiplicity
 _atom_site_fract_x
 _atom_site_fract_y
 _atom_site_fract_z
 _atom_site_occupancy
  Fe  Fe0  1  0.501906  0.496340  0.249752  1
  Fe  Fe1  1  0.998094  -0.003660  0.750248  1
  Fe  Fe2  1  0.498094  0.503660  0.750248  1
  Fe  Fe3  1  0.001906  1.003660  0.249752  1
  Fe  Fe4  1  0.500914  0.847359  0.250371  1
  Fe  Fe5  1  0.999086  0.347359  0.749629  1
  Fe  Fe6  1  0.499086  0.152641  0.749629  1
  Fe  Fe7  1  0.000914  0.652641  0.250371  1
  Si  Si8  1  0.782203  0.664120  0.549842  1
  Si  Si9  1  0.717797  0.164120  0.450158  1
  Si  Si10  1  0.217798  0.335880  0.450158  1
  Si  Si11  1  0.282203  0.835880  0.549842  1
  Si  Si12  1  0.279627  0.164140  0.048766  1
  Si  Si13  1  0.220373  0.664140  0.951234  1
  Si  Si14  1  0.720373  0.835860  0.951234  1
  Si  Si15  1  0.779627  0.335860  0.048766  1
  O  O16  1  0.572470  0.770357  0.604079  1
  O  O17  1  0.927530  0.270357  0.395921  1
  O  O18  1  0.427530  0.229643  0.395921  1
  O  O19  1  0.072470  0.729643  0.604079  1
  O  O20  1  0.067045  0.267281  0.103925  1
  O  O21  1  0.432955  0.767281  0.896075  1
  O  O22  1  0.932955  0.732719  0.896075  1
  O  O23  1  0.567045  0.232719  0.103925  1
  O  O24  1  0.763249  0.510848  0.630022  1
  O  O25  1  0.736751  0.010848  0.369978  1
  O  O26  1  0.236751  0.489152  0.369978  1
  O  O27  1  0.263249  0.989152  0.630022  1
  O  O28  1  0.264631  0.010088  0.128155  1
  O  O29  1  0.235369  0.510088  0.871845  1
  O  O30  1  0.735369  0.989912  0.871845  1
  O  O31  1  0.764631  0.489912  0.128155  1
  O  O32  1  0.712643  0.336761  0.872953  1
  O  O33  1  0.787357  0.836761  0.127047  1
  O  O34  1  0.287357  0.663239  0.127047  1
  O  O35  1  0.212643  0.163239  0.872953  1
  O  O36  1  0.215153  0.837969  0.374078  1
  O  O37  1  0.284847  0.337969  0.625922  1
  O  O38  1  0.784847  0.162031  0.625922  1
  O  O39  1  0.715153  0.662031  0.374078  1
