# generated using pymatgen
data_BaBeSiO4
_symmetry_space_group_name_H-M   'P 1'
_cell_length_a   5.12008962
_cell_length_b   5.19298790
_cell_length_c   5.19298624
_cell_angle_alpha   61.12163230
_cell_angle_beta   60.65268382
_cell_angle_gamma   60.65271021
_symmetry_Int_Tables_number   1
_chemical_formula_structural   BaBeSiO4
_chemical_formula_sum   'Ba1 Be1 Si1 O4'
_cell_volume   99.41018262
_cell_formula_units_Z   1
loop_
 _symmetry_equiv_pos_site_id
 _symmetry_equiv_pos_as_xyz
  1  'x, y, z'
loop_
 _atom_site_type_symbol
 _atom_site_label
 _atom_site_symmetry_multiplicity
 _atom_site_fract_x
 _atom_site_fract_y
 _atom_site_fract_z
 _atom_site_occupancy
  O  O0  1  0.440128  0.375838  0.878120  1
  Be  Be1  1  0.263963  0.252012  0.252012  1
  Si  Si2  1  0.515059  0.500774  0.500774  1
  Ba  Ba3  1  0.026701  0.986545  0.986546  1
  O  O4  1  0.889070  0.328555  0.328555  1
  O  O5  1  0.440126  0.878120  0.375836  1
  O  O6  1  0.285653  0.427156  0.427158  1
