# generated using pymatgen
data_Er3(CuGe)4
_symmetry_space_group_name_H-M   'P 1'
_cell_length_a   4.17453212
_cell_length_b   6.64130935
_cell_length_c   7.94984807
_cell_angle_alpha   114.69154191
_cell_angle_beta   105.22708639
_cell_angle_gamma   89.99624728
_symmetry_Int_Tables_number   1
_chemical_formula_structural   Er3(CuGe)4
_chemical_formula_sum   'Er3 Cu4 Ge4'
_cell_volume   191.70511471
_cell_formula_units_Z   1
loop_
 _symmetry_equiv_pos_site_id
 _symmetry_equiv_pos_as_xyz
  1  'x, y, z'
loop_
 _atom_site_type_symbol
 _atom_site_label
 _atom_site_symmetry_multiplicity
 _atom_site_fract_x
 _atom_site_fract_y
 _atom_site_fract_z
 _atom_site_occupancy
  Er  Er0  1  0.871018  0.871006  0.742017  1
  Er  Er1  1  0.128982  0.128994  0.257983  1
  Er  Er2  1  0.000000  0.500000  0.000000  1
  Cu  Cu3  1  0.329424  0.137057  0.657726  1
  Cu  Cu4  1  0.329177  0.520766  0.657821  1
  Cu  Cu5  1  0.670576  0.862943  0.342274  1
  Cu  Cu6  1  0.670823  0.479234  0.342179  1
  Ge  Ge7  1  0.499985  0.806600  1.000005  1
  Ge  Ge8  1  0.783670  0.283569  0.567115  1
  Ge  Ge9  1  0.216330  0.716430  0.432885  1
  Ge  Ge10  1  0.500015  0.193400  -0.000005  1
