# generated using pymatgen
data_RbP3PbO9
_symmetry_space_group_name_H-M   'P 1'
_cell_length_a   7.33741717
_cell_length_b   14.31099671
_cell_length_c   17.37379129
_cell_angle_alpha   90.00000000
_cell_angle_beta   90.00000000
_cell_angle_gamma   103.75767902
_symmetry_Int_Tables_number   1
_chemical_formula_structural   RbP3PbO9
_chemical_formula_sum   'Rb8 P24 Pb8 O72'
_cell_volume   1772.00786611
_cell_formula_units_Z   8
loop_
 _symmetry_equiv_pos_site_id
 _symmetry_equiv_pos_as_xyz
  1  'x, y, z'
loop_
 _atom_site_type_symbol
 _atom_site_label
 _atom_site_symmetry_multiplicity
 _atom_site_fract_x
 _atom_site_fract_y
 _atom_site_fract_z
 _atom_site_occupancy
  Rb  Rb0  1  0.829916  0.949910  0.659874  1
  Rb  Rb1  1  0.346826  0.001381  0.828273  1
  Rb  Rb2  1  0.153174  0.498619  0.328273  1
  Rb  Rb3  1  0.170084  0.050090  0.340126  1
  Rb  Rb4  1  0.846826  0.501381  0.671727  1
  Rb  Rb5  1  0.653174  0.998619  0.171727  1
  Rb  Rb6  1  0.329916  0.449910  0.840126  1
  Rb  Rb7  1  0.670084  0.550090  0.159874  1
  P  P8  1  0.414194  0.636945  0.008605  1
  P  P9  1  0.813301  0.859777  0.875034  1
  P  P10  1  0.839540  0.359187  0.864872  1
  P  P11  1  0.585806  0.363055  0.991395  1
  P  P12  1  0.233057  0.698007  0.747463  1
  P  P13  1  0.085806  0.863055  0.508605  1
  P  P14  1  0.511249  0.852141  0.988945  1
  P  P15  1  0.873056  0.810165  0.277239  1
  P  P16  1  0.733057  0.198007  0.752537  1
  P  P17  1  0.686699  0.640223  0.375034  1
  P  P18  1  0.988751  0.647859  0.488945  1
  P  P19  1  0.313301  0.359777  0.624966  1
  P  P20  1  0.339540  0.859187  0.635128  1
  P  P21  1  0.626944  0.689835  0.777239  1
  P  P22  1  0.660460  0.140813  0.364872  1
  P  P23  1  0.373056  0.310165  0.222761  1
  P  P24  1  0.186699  0.140223  0.124966  1
  P  P25  1  0.914194  0.136945  0.491395  1
  P  P26  1  0.160460  0.640813  0.135128  1
  P  P27  1  0.126944  0.189835  0.722761  1
  P  P28  1  0.266943  0.801993  0.247463  1
  P  P29  1  0.011249  0.352141  0.511055  1
  P  P30  1  0.488751  0.147859  0.011055  1
  P  P31  1  0.766943  0.301993  0.252537  1
  Pb  Pb32  1  0.041980  0.868257  0.076354  1
  Pb  Pb33  1  0.541980  0.368257  0.423646  1
  Pb  Pb34  1  0.912664  0.619998  0.927551  1
  Pb  Pb35  1  0.087336  0.380002  0.072449  1
  Pb  Pb36  1  0.412664  0.119998  0.572449  1
  Pb  Pb37  1  0.458020  0.631743  0.576354  1
  Pb  Pb38  1  0.958020  0.131743  0.923646  1
  Pb  Pb39  1  0.587336  0.880002  0.427551  1
  O  O40  1  0.259372  0.201227  0.203145  1
  O  O41  1  0.154132  0.364342  0.448305  1
  O  O42  1  0.148336  0.598859  0.490666  1
  O  O43  1  0.434857  0.453856  0.651819  1
  O  O44  1  0.710275  0.189861  0.280922  1
  O  O45  1  0.391013  0.298088  0.569530  1
  O  O46  1  0.086234  0.760770  0.471193  1
  O  O47  1  0.105521  0.117407  0.491145  1
  O  O48  1  0.913458  0.192529  0.700827  1
  O  O49  1  0.072133  0.686267  0.801717  1
  O  O50  1  0.648336  0.098859  0.009334  1
  O  O51  1  0.608987  0.701912  0.430470  1
  O  O52  1  0.586542  0.307471  0.200827  1
  O  O53  1  0.630790  0.346735  0.899440  1
  O  O54  1  0.381659  0.118494  0.094015  1
  O  O55  1  0.350404  0.321703  0.307569  1
  O  O56  1  0.072435  0.536807  0.151893  1
  O  O57  1  0.789725  0.310139  0.780922  1
  O  O58  1  0.927565  0.463193  0.848107  1
  O  O59  1  0.780783  0.367853  0.321096  1
  O  O60  1  0.740628  0.798773  0.796855  1
  O  O61  1  0.894479  0.882593  0.508855  1
  O  O62  1  0.654132  0.864342  0.051695  1
  O  O63  1  0.934857  0.953856  0.848181  1
  O  O64  1  0.328452  0.384170  0.169085  1
  O  O65  1  0.671548  0.615830  0.830915  1
  O  O66  1  0.649596  0.678297  0.692431  1
  O  O67  1  0.351664  0.901141  0.990666  1
  O  O68  1  0.280783  0.867853  0.178904  1
  O  O69  1  0.451905  0.804449  0.587098  1
  O  O70  1  0.565143  0.546144  0.348181  1
  O  O71  1  0.586234  0.260770  0.028807  1
  O  O72  1  0.747338  0.066291  0.524769  1
  O  O73  1  0.605521  0.617407  0.008855  1
  O  O74  1  0.130790  0.846735  0.600560  1
  O  O75  1  0.828452  0.884170  0.330915  1
  O  O76  1  0.913766  0.239230  0.528807  1
  O  O77  1  0.413458  0.692529  0.799173  1
  O  O78  1  0.252662  0.933709  0.475231  1
  O  O79  1  0.210275  0.689861  0.219078  1
  O  O80  1  0.759372  0.701227  0.296855  1
  O  O81  1  0.108987  0.201912  0.069530  1
  O  O82  1  0.086542  0.807471  0.299173  1
  O  O83  1  0.219217  0.632147  0.678904  1
  O  O84  1  0.065143  0.046144  0.151819  1
  O  O85  1  0.845868  0.635658  0.551695  1
  O  O86  1  0.851664  0.401141  0.509334  1
  O  O87  1  0.881659  0.618494  0.405985  1
  O  O88  1  0.427867  0.813733  0.301717  1
  O  O89  1  0.149596  0.178297  0.807569  1
  O  O90  1  0.572435  0.036807  0.348107  1
  O  O91  1  0.891013  0.798088  0.930470  1
  O  O92  1  0.618341  0.881506  0.905985  1
  O  O93  1  0.345868  0.135658  0.948305  1
  O  O94  1  0.394479  0.382593  0.991145  1
  O  O95  1  0.572133  0.186267  0.698283  1
  O  O96  1  0.247338  0.566291  0.975231  1
  O  O97  1  0.369210  0.653265  0.100560  1
  O  O98  1  0.951905  0.304449  0.912902  1
  O  O99  1  0.171548  0.115830  0.669085  1
  O  O100  1  0.548095  0.195551  0.412902  1
  O  O101  1  0.427565  0.963193  0.651893  1
  O  O102  1  0.289725  0.810139  0.719078  1
  O  O103  1  0.719217  0.132147  0.821096  1
  O  O104  1  0.927867  0.313733  0.198283  1
  O  O105  1  0.118341  0.381506  0.594015  1
  O  O106  1  0.869210  0.153264  0.399440  1
  O  O107  1  0.752662  0.433709  0.024769  1
  O  O108  1  0.048095  0.695551  0.087098  1
  O  O109  1  0.413766  0.739230  0.971193  1
  O  O110  1  0.240628  0.298773  0.703145  1
  O  O111  1  0.850404  0.821703  0.192431  1
