# generated using pymatgen
data_BaLa4Cu5O12
_symmetry_space_group_name_H-M   'P 1'
_cell_length_a   3.87367739
_cell_length_b   8.72100937
_cell_length_c   8.73215943
_cell_angle_alpha   90.04016216
_cell_angle_beta   90.00000000
_cell_angle_gamma   90.00000000
_symmetry_Int_Tables_number   1
_chemical_formula_structural   BaLa4Cu5O12
_chemical_formula_sum   'Ba1 La4 Cu5 O12'
_cell_volume   294.99302748
_cell_formula_units_Z   1
loop_
 _symmetry_equiv_pos_site_id
 _symmetry_equiv_pos_as_xyz
  1  'x, y, z'
loop_
 _atom_site_type_symbol
 _atom_site_label
 _atom_site_symmetry_multiplicity
 _atom_site_fract_x
 _atom_site_fract_y
 _atom_site_fract_z
 _atom_site_occupancy
  Ba  Ba0  1  0.500000  0.500000  0.500000  1
  La  La1  1  0.500000  0.701854  0.126480  1
  La  La2  1  0.500000  0.298146  0.873520  1
  La  La3  1  0.500000  0.874805  0.702167  1
  La  La4  1  0.500000  0.125195  0.297833  1
  Cu  Cu5  1  0.000000  0.593217  0.833845  1
  Cu  Cu6  1  0.000000  0.000000  0.000000  1
  Cu  Cu7  1  0.000000  0.164997  0.593275  1
  Cu  Cu8  1  0.000000  0.835003  0.406725  1
  Cu  Cu9  1  0.000000  0.406783  0.166155  1
  O  O10  1  0.500000  0.151197  0.589802  1
  O  O11  1  0.000000  0.605190  0.266320  1
  O  O12  1  0.000000  0.055810  0.787406  1
  O  O13  1  0.000000  0.944190  0.212594  1
  O  O14  1  0.000000  0.737249  0.605954  1
  O  O15  1  0.000000  0.213867  0.054407  1
  O  O16  1  0.000000  0.394810  0.733680  1
  O  O17  1  0.500000  0.588402  0.847780  1
  O  O18  1  0.500000  0.848804  0.410198  1
  O  O19  1  0.500000  0.411598  0.152220  1
  O  O20  1  0.000000  0.262751  0.394046  1
  O  O21  1  0.000000  0.786133  0.945593  1
