# generated using pymatgen
data_Nd4(SBr2)3
_symmetry_space_group_name_H-M   'P 1'
_cell_length_a   6.93048485
_cell_length_b   7.20698531
_cell_length_c   15.27670445
_cell_angle_alpha   94.53838051
_cell_angle_beta   103.11061971
_cell_angle_gamma   89.99999668
_symmetry_Int_Tables_number   1
_chemical_formula_structural   Nd4(SBr2)3
_chemical_formula_sum   'Nd8 S6 Br12'
_cell_volume   740.69320632
_cell_formula_units_Z   2
loop_
 _symmetry_equiv_pos_site_id
 _symmetry_equiv_pos_as_xyz
  1  'x, y, z'
loop_
 _atom_site_type_symbol
 _atom_site_label
 _atom_site_symmetry_multiplicity
 _atom_site_fract_x
 _atom_site_fract_y
 _atom_site_fract_z
 _atom_site_occupancy
  Nd  Nd0  1  0.633304  0.014926  0.885984  1
  Nd  Nd1  1  0.864187  0.093845  0.342111  1
  Nd  Nd2  1  0.135813  0.906155  0.657889  1
  Nd  Nd3  1  0.366696  0.985074  0.114016  1
  Nd  Nd4  1  0.522075  0.406155  0.657889  1
  Nd  Nd5  1  0.252680  0.514926  0.885984  1
  Nd  Nd6  1  0.477925  0.593845  0.342111  1
  Nd  Nd7  1  0.747320  0.485074  0.114016  1
  S  S8  1  0.332411  0.209244  0.767095  1
  S  S9  1  0.449605  0.250000  0.000000  1
  S  S10  1  0.565316  0.290756  0.232905  1
  S  S11  1  0.667589  0.790756  0.232905  1
  S  S12  1  0.434684  0.709244  0.767095  1
  S  S13  1  0.550395  0.750000  1.000000  1
  Br  Br14  1  0.055190  0.889980  0.896475  1
  Br  Br15  1  0.944810  0.110020  0.103525  1
  Br  Br16  1  0.938268  0.554420  0.688026  1
  Br  Br17  1  0.652056  0.314788  0.469805  1
  Br  Br18  1  0.250242  0.945580  0.311974  1
  Br  Br19  1  0.061732  0.445580  0.311974  1
  Br  Br20  1  0.158715  0.610020  0.103525  1
  Br  Br21  1  0.841285  0.389980  0.896475  1
  Br  Br22  1  0.749758  0.054420  0.688026  1
  Br  Br23  1  0.182251  0.185212  0.530195  1
  Br  Br24  1  0.817749  0.814788  0.469805  1
  Br  Br25  1  0.347944  0.685212  0.530195  1
