# generated using pymatgen
data_Sr(AsPt)2
_symmetry_space_group_name_H-M   'P 1'
_cell_length_a   4.52563824
_cell_length_b   8.99836166
_cell_length_c   10.09417963
_cell_angle_alpha   90.79372611
_cell_angle_beta   90.00000000
_cell_angle_gamma   90.00000000
_symmetry_Int_Tables_number   1
_chemical_formula_structural   Sr(AsPt)2
_chemical_formula_sum   'Sr4 As8 Pt8'
_cell_volume   411.02916101
_cell_formula_units_Z   4
loop_
 _symmetry_equiv_pos_site_id
 _symmetry_equiv_pos_as_xyz
  1  'x, y, z'
loop_
 _atom_site_type_symbol
 _atom_site_label
 _atom_site_symmetry_multiplicity
 _atom_site_fract_x
 _atom_site_fract_y
 _atom_site_fract_z
 _atom_site_occupancy
  Sr  Sr0  1  0.239592  0.373725  0.751468  1
  Sr  Sr1  1  0.260408  0.873725  0.751468  1
  Sr  Sr2  1  0.739592  0.126275  0.248532  1
  Sr  Sr3  1  0.760408  0.626275  0.248532  1
  As  As4  1  0.745647  0.376413  0.999415  1
  As  As5  1  0.754353  0.876413  0.999415  1
  As  As6  1  0.794604  0.613697  0.628593  1
  As  As7  1  0.254353  0.623587  0.000585  1
  As  As8  1  0.205396  0.386303  0.371407  1
  As  As9  1  0.245647  0.123587  0.000585  1
  As  As10  1  0.705396  0.113697  0.628593  1
  As  As11  1  0.294604  0.886303  0.371407  1
  Pt  Pt12  1  0.322732  0.641315  0.497845  1
  Pt  Pt13  1  0.177268  0.141315  0.497845  1
  Pt  Pt14  1  0.253389  0.874264  0.120390  1
  Pt  Pt15  1  0.677268  0.358685  0.502155  1
  Pt  Pt16  1  0.246611  0.374264  0.120390  1
  Pt  Pt17  1  0.746611  0.125736  0.879610  1
  Pt  Pt18  1  0.753389  0.625736  0.879610  1
  Pt  Pt19  1  0.822732  0.858685  0.502155  1
