# generated using pymatgen
data_FeBi3(MoO6)2
_symmetry_space_group_name_H-M   'P 1'
_cell_length_a   5.34780069
_cell_length_b   10.41314600
_cell_length_c   10.41314587
_cell_angle_alpha   69.25210337
_cell_angle_beta   75.58855891
_cell_angle_gamma   75.58855633
_symmetry_Int_Tables_number   1
_chemical_formula_structural   FeBi3(MoO6)2
_chemical_formula_sum   'Fe2 Bi6 Mo4 O24'
_cell_volume   516.87687164
_cell_formula_units_Z   2
loop_
 _symmetry_equiv_pos_site_id
 _symmetry_equiv_pos_as_xyz
  1  'x, y, z'
loop_
 _atom_site_type_symbol
 _atom_site_label
 _atom_site_symmetry_multiplicity
 _atom_site_fract_x
 _atom_site_fract_y
 _atom_site_fract_z
 _atom_site_occupancy
  Fe  Fe0  1  0.750000  0.118092  0.881908  1
  Fe  Fe1  1  0.250000  0.881908  0.118092  1
  Bi  Bi2  1  0.410034  0.960443  0.735688  1
  Bi  Bi3  1  0.750000  0.655858  0.344142  1
  Bi  Bi4  1  0.250000  0.344142  0.655858  1
  Bi  Bi5  1  0.589966  0.039557  0.264312  1
  Bi  Bi6  1  0.910034  0.735688  0.960443  1
  Bi  Bi7  1  0.089966  0.264312  0.039557  1
  Mo  Mo8  1  0.575621  0.539794  0.796498  1
  Mo  Mo9  1  0.075621  0.796498  0.539794  1
  Mo  Mo10  1  0.424379  0.460206  0.203502  1
  Mo  Mo11  1  0.924379  0.203502  0.460206  1
  O  O12  1  0.262958  0.929137  0.504346  1
  O  O13  1  0.376910  0.406277  0.825245  1
  O  O14  1  0.492361  0.129397  0.046338  1
  O  O15  1  0.303054  0.637930  0.542845  1
  O  O16  1  0.470651  0.846520  0.253081  1
  O  O17  1  0.123090  0.174755  0.593723  1
  O  O18  1  0.970651  0.253081  0.846520  1
  O  O19  1  0.696946  0.362070  0.457155  1
  O  O20  1  0.737042  0.070863  0.495654  1
  O  O21  1  0.141735  0.211455  0.294572  1
  O  O22  1  0.876910  0.825245  0.406277  1
  O  O23  1  0.237042  0.495654  0.070863  1
  O  O24  1  0.529349  0.153480  0.746919  1
  O  O25  1  0.507639  0.870603  0.953662  1
  O  O26  1  0.858265  0.788545  0.705428  1
  O  O27  1  0.196946  0.457155  0.362070  1
  O  O28  1  0.358265  0.705428  0.788545  1
  O  O29  1  0.623090  0.593723  0.174755  1
  O  O30  1  0.029349  0.746919  0.153480  1
  O  O31  1  0.803054  0.542845  0.637930  1
  O  O32  1  0.762958  0.504346  0.929137  1
  O  O33  1  0.007639  0.953662  0.870603  1
  O  O34  1  0.992361  0.046338  0.129397  1
  O  O35  1  0.641735  0.294572  0.211455  1
