# generated using pymatgen
data_HCN
_symmetry_space_group_name_H-M   'P 1'
_cell_length_a   5.04705992
_cell_length_b   8.71329934
_cell_length_c   12.66765442
_cell_angle_alpha   101.84297544
_cell_angle_beta   90.00000000
_cell_angle_gamma   90.00000000
_symmetry_Int_Tables_number   1
_chemical_formula_structural   HCN
_chemical_formula_sum   'H16 C16 N16'
_cell_volume   545.22151105
_cell_formula_units_Z   16
loop_
 _symmetry_equiv_pos_site_id
 _symmetry_equiv_pos_as_xyz
  1  'x, y, z'
loop_
 _atom_site_type_symbol
 _atom_site_label
 _atom_site_symmetry_multiplicity
 _atom_site_fract_x
 _atom_site_fract_y
 _atom_site_fract_z
 _atom_site_occupancy
  N  N0  1  0.417742  0.806820  0.059585  1
  N  N1  1  0.917742  0.193180  0.440415  1
  N  N2  1  0.582258  0.193180  0.940415  1
  N  N3  1  0.082258  0.806820  0.559585  1
  N  N4  1  0.720557  0.636971  0.963101  1
  N  N5  1  0.220557  0.363029  0.536899  1
  N  N6  1  0.279443  0.363029  0.036899  1
  N  N7  1  0.779443  0.636971  0.463101  1
  N  N8  1  0.026441  0.962080  0.867267  1
  N  N9  1  0.526441  0.037920  0.632733  1
  N  N10  1  0.973559  0.037920  0.132733  1
  N  N11  1  0.473559  0.962080  0.367267  1
  N  N12  1  0.587185  0.617801  0.682160  1
  N  N13  1  0.087185  0.382199  0.817840  1
  N  N14  1  0.412815  0.382199  0.317840  1
  N  N15  1  0.912815  0.617801  0.182160  1
  C  C16  1  0.517050  0.735628  0.964063  1
  C  C17  1  0.017050  0.264372  0.535937  1
  C  C18  1  0.482950  0.264372  0.035937  1
  C  C19  1  0.982950  0.735628  0.464063  1
  C  C20  1  0.406187  0.763549  0.865325  1
  C  C21  1  0.906187  0.236451  0.634675  1
  C  C22  1  0.593813  0.236451  0.134675  1
  C  C23  1  0.093813  0.763549  0.365325  1
  C  C24  1  0.199387  0.871550  0.865722  1
  C  C25  1  0.699387  0.128450  0.634278  1
  C  C26  1  0.800613  0.128450  0.134278  1
  C  C27  1  0.300613  0.871550  0.365722  1
  C  C28  1  0.505264  0.685090  0.765907  1
  C  C29  1  0.005264  0.314910  0.734093  1
  C  C30  1  0.494736  0.314910  0.234094  1
  C  C31  1  0.994736  0.685090  0.265906  1
  H  H32  1  0.262508  0.884260  0.068602  1
  H  H33  1  0.762508  0.115740  0.431398  1
  H  H34  1  0.737492  0.115740  0.931398  1
  H  H35  1  0.237492  0.884260  0.568602  1
  H  H36  1  0.513656  0.794620  0.127790  1
  H  H37  1  0.013656  0.205380  0.372210  1
  H  H38  1  0.486344  0.205380  0.872210  1
  H  H39  1  0.986344  0.794620  0.627790  1
  H  H40  1  0.807569  0.580126  0.893617  1
  H  H41  1  0.307569  0.419874  0.606383  1
  H  H42  1  0.192431  0.419874  0.106383  1
  H  H43  1  0.692431  0.580126  0.393617  1
  H  H44  1  0.794777  0.618350  0.034860  1
  H  H45  1  0.294777  0.381650  0.465140  1
  H  H46  1  0.205223  0.381650  0.965140  1
  H  H47  1  0.705223  0.618350  0.534860  1
