# generated using pymatgen
data_CaCr2O4
_symmetry_space_group_name_H-M   'P 1'
_cell_length_a   5.18298121
_cell_length_b   5.97375341
_cell_length_c   11.08376817
_cell_angle_alpha   90.00000000
_cell_angle_beta   90.00000000
_cell_angle_gamma   90.00000000
_symmetry_Int_Tables_number   1
_chemical_formula_structural   CaCr2O4
_chemical_formula_sum   'Ca4 Cr8 O16'
_cell_volume   343.17398610
_cell_formula_units_Z   4
loop_
 _symmetry_equiv_pos_site_id
 _symmetry_equiv_pos_as_xyz
  1  'x, y, z'
loop_
 _atom_site_type_symbol
 _atom_site_label
 _atom_site_symmetry_multiplicity
 _atom_site_fract_x
 _atom_site_fract_y
 _atom_site_fract_z
 _atom_site_occupancy
  Ca  Ca0  1  0.855775  0.250000  0.750000  1
  Ca  Ca1  1  0.144225  0.750000  0.250000  1
  Ca  Ca2  1  0.535269  0.250000  0.250000  1
  Ca  Ca3  1  0.464731  0.750000  0.750000  1
  Cr  Cr4  1  0.505953  0.750000  0.490487  1
  Cr  Cr5  1  0.505953  0.750000  0.009513  1
  Cr  Cr6  1  0.494047  0.250000  0.509513  1
  Cr  Cr7  1  0.494047  0.250000  0.990487  1
  Cr  Cr8  1  0.000000  0.500000  0.500000  1
  Cr  Cr9  1  0.000000  0.000000  0.000000  1
  Cr  Cr10  1  0.000000  0.000000  0.500000  1
  Cr  Cr11  1  0.000000  0.500000  0.000000  1
  O  O12  1  0.842557  0.750000  0.402620  1
  O  O13  1  0.842557  0.750000  0.097380  1
  O  O14  1  0.157443  0.250000  0.597380  1
  O  O15  1  0.157443  0.250000  0.902620  1
  O  O16  1  0.179892  0.750000  0.589453  1
  O  O17  1  0.179892  0.750000  0.910547  1
  O  O18  1  0.820108  0.250000  0.410547  1
  O  O19  1  0.820108  0.250000  0.089453  1
  O  O20  1  0.665138  0.503397  0.600789  1
  O  O21  1  0.665138  0.996603  0.899211  1
  O  O22  1  0.334862  0.003397  0.399211  1
  O  O23  1  0.334862  0.496603  0.100789  1
  O  O24  1  0.334862  0.496603  0.399211  1
  O  O25  1  0.334862  0.003397  0.100789  1
  O  O26  1  0.665138  0.996603  0.600789  1
  O  O27  1  0.665138  0.503397  0.899211  1
