# generated using pymatgen
data_K3GaTe3
_symmetry_space_group_name_H-M   'P 1'
_cell_length_a   8.73295020
_cell_length_b   9.21331749
_cell_length_c   13.90877172
_cell_angle_alpha   90.00000000
_cell_angle_beta   90.00000000
_cell_angle_gamma   101.12625763
_symmetry_Int_Tables_number   1
_chemical_formula_structural   K3GaTe3
_chemical_formula_sum   'K12 Ga4 Te12'
_cell_volume   1098.05793975
_cell_formula_units_Z   4
loop_
 _symmetry_equiv_pos_site_id
 _symmetry_equiv_pos_as_xyz
  1  'x, y, z'
loop_
 _atom_site_type_symbol
 _atom_site_label
 _atom_site_symmetry_multiplicity
 _atom_site_fract_x
 _atom_site_fract_y
 _atom_site_fract_z
 _atom_site_occupancy
  K  K0  1  0.264485  0.600391  0.093891  1
  K  K1  1  0.235515  0.899609  0.593891  1
  K  K2  1  0.735515  0.399609  0.906109  1
  K  K3  1  0.764485  0.100391  0.406109  1
  K  K4  1  0.286295  0.409299  0.810735  1
  K  K5  1  0.213705  0.090701  0.310735  1
  K  K6  1  0.713705  0.590701  0.189265  1
  K  K7  1  0.786295  0.909299  0.689265  1
  K  K8  1  0.160357  0.524453  0.383755  1
  K  K9  1  0.339643  0.975547  0.883755  1
  K  K10  1  0.839643  0.475547  0.616245  1
  K  K11  1  0.660357  0.024453  0.116245  1
  Ga  Ga12  1  0.099256  0.165721  0.063871  1
  Ga  Ga13  1  0.400744  0.334279  0.563871  1
  Ga  Ga14  1  0.900744  0.834279  0.936129  1
  Ga  Ga15  1  0.599256  0.665721  0.436129  1
  Te  Te16  1  0.463740  0.628584  0.610715  1
  Te  Te17  1  0.036260  0.871416  0.110715  1
  Te  Te18  1  0.536260  0.371416  0.389285  1
  Te  Te19  1  0.963740  0.128584  0.889285  1
  Te  Te20  1  0.457652  0.815845  0.314156  1
  Te  Te21  1  0.042348  0.684155  0.814156  1
  Te  Te22  1  0.542348  0.184155  0.685844  1
  Te  Te23  1  0.957652  0.315845  0.185844  1
  Te  Te24  1  0.900947  0.768553  0.445629  1
  Te  Te25  1  0.599053  0.731447  0.945629  1
  Te  Te26  1  0.099053  0.231447  0.554371  1
  Te  Te27  1  0.400947  0.268553  0.054371  1
