# generated using pymatgen
data_Re2S2NCl11
_symmetry_space_group_name_H-M   'P 1'
_cell_length_a   9.14805697
_cell_length_b   9.14805677
_cell_length_c   11.95094746
_cell_angle_alpha   101.86885071
_cell_angle_beta   101.86885044
_cell_angle_gamma   93.85343940
_symmetry_Int_Tables_number   1
_chemical_formula_structural   Re2S2NCl11
_chemical_formula_sum   'Re4 S4 N2 Cl22'
_cell_volume   951.54935334
_cell_formula_units_Z   2
loop_
 _symmetry_equiv_pos_site_id
 _symmetry_equiv_pos_as_xyz
  1  'x, y, z'
loop_
 _atom_site_type_symbol
 _atom_site_label
 _atom_site_symmetry_multiplicity
 _atom_site_fract_x
 _atom_site_fract_y
 _atom_site_fract_z
 _atom_site_occupancy
  Re  Re0  1  0.271145  0.923671  0.218573  1
  Re  Re1  1  0.076329  0.728855  0.281427  1
  Re  Re2  1  0.923671  0.271145  0.718573  1
  Re  Re3  1  0.728855  0.076329  0.781427  1
  S  S4  1  0.601617  0.246333  0.126084  1
  S  S5  1  0.246333  0.601617  0.626084  1
  S  S6  1  0.398383  0.753667  0.873916  1
  S  S7  1  0.753667  0.398383  0.373916  1
  N  N8  1  0.294744  0.705256  0.750000  1
  N  N9  1  0.705256  0.294744  0.250000  1
  Cl  Cl10  1  0.673481  0.168910  0.602065  1
  Cl  Cl11  1  0.558104  0.613962  0.897111  1
  Cl  Cl12  1  0.386038  0.441896  0.602889  1
  Cl  Cl13  1  0.326519  0.831090  0.397935  1
  Cl  Cl14  1  0.366674  0.162363  0.329316  1
  Cl  Cl15  1  0.831090  0.326519  0.897935  1
  Cl  Cl16  1  0.023954  0.976046  0.250000  1
  Cl  Cl17  1  0.130409  0.493544  0.311453  1
  Cl  Cl18  1  0.976046  0.023954  0.750000  1
  Cl  Cl19  1  0.869591  0.506456  0.688547  1
  Cl  Cl20  1  0.221378  0.012093  0.048223  1
  Cl  Cl21  1  0.493544  0.130409  0.811453  1
  Cl  Cl22  1  0.012093  0.221378  0.548223  1
  Cl  Cl23  1  0.162363  0.366674  0.829316  1
  Cl  Cl24  1  0.441896  0.386038  0.102889  1
  Cl  Cl25  1  0.987907  0.778622  0.451777  1
  Cl  Cl26  1  0.837637  0.633326  0.170684  1
  Cl  Cl27  1  0.506456  0.869591  0.188547  1
  Cl  Cl28  1  0.613962  0.558104  0.397111  1
  Cl  Cl29  1  0.633326  0.837637  0.670684  1
  Cl  Cl30  1  0.168910  0.673481  0.102065  1
  Cl  Cl31  1  0.778622  0.987907  0.951777  1
