# generated using pymatgen
data_Ag2O3
_symmetry_space_group_name_H-M   'P 1'
_cell_length_a   3.78296026
_cell_length_b   5.67207077
_cell_length_c   6.83801065
_cell_angle_alpha   84.71447358
_cell_angle_beta   73.93661216
_cell_angle_gamma   70.52393560
_symmetry_Int_Tables_number   1
_chemical_formula_structural   Ag2O3
_chemical_formula_sum   'Ag4 O6'
_cell_volume   132.92832136
_cell_formula_units_Z   2
loop_
 _symmetry_equiv_pos_site_id
 _symmetry_equiv_pos_as_xyz
  1  'x, y, z'
loop_
 _atom_site_type_symbol
 _atom_site_label
 _atom_site_symmetry_multiplicity
 _atom_site_fract_x
 _atom_site_fract_y
 _atom_site_fract_z
 _atom_site_occupancy
  O  O0  1  0.783337  0.033587  0.664455  1
  O  O1  1  0.066786  0.466350  0.164462  1
  O  O2  1  0.697734  0.533702  0.835526  1
  O  O3  1  0.415402  0.499966  0.499999  1
  O  O4  1  0.481328  0.966365  0.335539  1
  Ag  Ag5  1  0.585433  0.734105  0.093965  1
  Ag  Ag6  1  0.569687  0.765932  0.593933  1
  O  O7  1  0.165248  0.000060  0.999979  1
  Ag  Ag8  1  0.929579  0.234051  0.406049  1
  Ag  Ag9  1  0.413864  0.265881  0.906095  1
