# generated using pymatgen
data_Cs2Nb4O11
_symmetry_space_group_name_H-M   'P 1'
_cell_length_a   7.60603278
_cell_length_b   10.70163160
_cell_length_c   29.48337769
_cell_angle_alpha   90.00000000
_cell_angle_beta   90.00000000
_cell_angle_gamma   90.00000000
_symmetry_Int_Tables_number   1
_chemical_formula_structural   Cs2Nb4O11
_chemical_formula_sum   'Cs16 Nb32 O88'
_cell_volume   2399.85733658
_cell_formula_units_Z   8
loop_
 _symmetry_equiv_pos_site_id
 _symmetry_equiv_pos_as_xyz
  1  'x, y, z'
loop_
 _atom_site_type_symbol
 _atom_site_label
 _atom_site_symmetry_multiplicity
 _atom_site_fract_x
 _atom_site_fract_y
 _atom_site_fract_z
 _atom_site_occupancy
  Cs  Cs0  1  0.497543  0.588109  0.423826  1
  Cs  Cs1  1  0.992024  0.109904  0.307184  1
  Cs  Cs2  1  0.507976  0.609904  0.807184  1
  Cs  Cs3  1  0.506491  0.355883  0.692770  1
  Cs  Cs4  1  0.998560  0.877979  0.423676  1
  Cs  Cs5  1  0.993509  0.855883  0.192770  1
  Cs  Cs6  1  0.492024  0.609904  0.192816  1
  Cs  Cs7  1  0.498560  0.377979  0.076324  1
  Cs  Cs8  1  0.997543  0.088109  0.076174  1
  Cs  Cs9  1  0.493509  0.355883  0.307230  1
  Cs  Cs10  1  0.002457  0.088109  0.923826  1
  Cs  Cs11  1  0.001440  0.877979  0.576324  1
  Cs  Cs12  1  0.006491  0.855883  0.807230  1
  Cs  Cs13  1  0.501440  0.377979  0.923676  1
  Cs  Cs14  1  0.502457  0.588109  0.576174  1
  Cs  Cs15  1  0.007976  0.109904  0.692816  1
  Nb  Nb16  1  0.732818  0.243769  0.188338  1
  Nb  Nb17  1  0.507253  0.984787  0.250477  1
  Nb  Nb18  1  0.496314  0.972501  0.624967  1
  Nb  Nb19  1  0.500000  0.963278  0.000000  1
  Nb  Nb20  1  0.233179  0.224475  0.188246  1
  Nb  Nb21  1  0.992747  0.484787  0.750477  1
  Nb  Nb22  1  0.503605  0.994831  0.125415  1
  Nb  Nb23  1  0.767182  0.743769  0.688338  1
  Nb  Nb24  1  0.766821  0.224475  0.811754  1
  Nb  Nb25  1  0.232818  0.743769  0.311662  1
  Nb  Nb26  1  0.733179  0.724475  0.311754  1
  Nb  Nb27  1  0.749013  0.235159  0.438429  1
  Nb  Nb28  1  0.267182  0.243769  0.811662  1
  Nb  Nb29  1  0.000000  0.463278  0.500000  1
  Nb  Nb30  1  0.266821  0.724475  0.688246  1
  Nb  Nb31  1  0.003605  0.494831  0.374585  1
  Nb  Nb32  1  0.500000  0.003674  0.500000  1
  Nb  Nb33  1  0.251111  0.732390  0.938423  1
  Nb  Nb34  1  0.750987  0.735159  0.938429  1
  Nb  Nb35  1  0.496395  0.994831  0.874585  1
  Nb  Nb36  1  0.503686  0.972501  0.375033  1
  Nb  Nb37  1  0.007253  0.484787  0.249523  1
  Nb  Nb38  1  0.003686  0.472501  0.124967  1
  Nb  Nb39  1  0.996314  0.472501  0.875033  1
  Nb  Nb40  1  0.250987  0.235159  0.561571  1
  Nb  Nb41  1  0.249013  0.735159  0.061571  1
  Nb  Nb42  1  0.996395  0.494831  0.625415  1
  Nb  Nb43  1  0.000000  0.503674  0.000000  1
  Nb  Nb44  1  0.748889  0.732390  0.061578  1
  Nb  Nb45  1  0.492747  0.984787  0.749523  1
  Nb  Nb46  1  0.248889  0.232390  0.438422  1
  Nb  Nb47  1  0.751111  0.232390  0.561577  1
  O  O48  1  0.185581  0.609852  0.636998  1
  O  O49  1  0.202428  0.357609  0.500155  1
  O  O50  1  0.815228  0.608746  0.266052  1
  O  O51  1  0.685249  0.856645  0.363058  1
  O  O52  1  0.313986  0.862561  0.266588  1
  O  O53  1  0.185249  0.356645  0.136942  1
  O  O54  1  0.201756  0.609789  0.999826  1
  O  O55  1  0.684912  0.860392  0.266987  1
  O  O56  1  0.500409  0.683872  0.946455  1
  O  O57  1  0.298244  0.109789  0.499826  1
  O  O58  1  0.497740  0.046736  0.684127  1
  O  O59  1  0.815382  0.611723  0.637015  1
  O  O60  1  0.000466  0.784065  0.946170  1
  O  O61  1  0.688213  0.865815  0.899254  1
  O  O62  1  0.188846  0.600607  0.899786  1
  O  O63  1  0.798244  0.609789  0.000174  1
  O  O64  1  0.815456  0.357710  0.136887  1
  O  O65  1  0.999591  0.183872  0.446455  1
  O  O66  1  0.815088  0.360392  0.766987  1
  O  O67  1  0.499534  0.284065  0.446170  1
  O  O68  1  0.815595  0.610476  0.733681  1
  O  O69  1  0.814751  0.356645  0.863058  1
  O  O70  1  0.184544  0.357710  0.863113  1
  O  O71  1  0.684405  0.110476  0.233681  1
  O  O72  1  0.997953  0.170282  0.185677  1
  O  O73  1  0.997740  0.546736  0.815873  1
  O  O74  1  0.001951  0.798571  0.685117  1
  O  O75  1  0.797572  0.357609  0.499845  1
  O  O76  1  0.184912  0.360392  0.233013  1
  O  O77  1  0.002484  0.423182  0.315220  1
  O  O78  1  0.814419  0.609852  0.363002  1
  O  O79  1  0.813986  0.362561  0.233412  1
  O  O80  1  0.184405  0.610476  0.266319  1
  O  O81  1  0.188213  0.365815  0.600746  1
  O  O82  1  0.811787  0.365815  0.399254  1
  O  O83  1  0.998858  0.405027  0.948121  1
  O  O84  1  0.499176  0.061684  0.948095  1
  O  O85  1  0.311787  0.865815  0.100746  1
  O  O86  1  0.186014  0.362561  0.766588  1
  O  O87  1  0.187554  0.365865  0.399393  1
  O  O88  1  0.688846  0.100607  0.600214  1
  O  O89  1  0.498049  0.298571  0.185117  1
  O  O90  1  0.502047  0.670282  0.685677  1
  O  O91  1  0.297572  0.857609  0.000155  1
  O  O92  1  0.314751  0.856645  0.636942  1
  O  O93  1  0.684772  0.108746  0.766052  1
  O  O94  1  0.811839  0.600928  0.899862  1
  O  O95  1  0.311839  0.100928  0.600138  1
  O  O96  1  0.500466  0.284065  0.553830  1
  O  O97  1  0.497516  0.923182  0.815220  1
  O  O98  1  0.002260  0.546736  0.184127  1
  O  O99  1  0.688161  0.100928  0.399862  1
  O  O100  1  0.502260  0.046736  0.315873  1
  O  O101  1  0.999534  0.784065  0.053830  1
  O  O102  1  0.188161  0.600928  0.100138  1
  O  O103  1  0.811154  0.600607  0.100214  1
  O  O104  1  0.499591  0.683872  0.053545  1
  O  O105  1  0.315228  0.108746  0.233948  1
  O  O106  1  0.998049  0.798571  0.314883  1
  O  O107  1  0.501142  0.905027  0.448120  1
  O  O108  1  0.184772  0.608746  0.733948  1
  O  O109  1  0.000409  0.183872  0.553545  1
  O  O110  1  0.315088  0.860392  0.733013  1
  O  O111  1  0.999176  0.561684  0.551905  1
  O  O112  1  0.502484  0.923182  0.184780  1
  O  O113  1  0.184618  0.611723  0.362985  1
  O  O114  1  0.000824  0.561684  0.448095  1
  O  O115  1  0.315382  0.111723  0.862985  1
  O  O116  1  0.686014  0.862561  0.733412  1
  O  O117  1  0.497953  0.670282  0.314323  1
  O  O118  1  0.687554  0.865865  0.100607  1
  O  O119  1  0.002047  0.170282  0.814323  1
  O  O120  1  0.684544  0.857710  0.636887  1
  O  O121  1  0.001142  0.405027  0.051880  1
  O  O122  1  0.501951  0.298571  0.814883  1
  O  O123  1  0.312446  0.865865  0.899393  1
  O  O124  1  0.702428  0.857609  0.999845  1
  O  O125  1  0.314419  0.109852  0.136998  1
  O  O126  1  0.315456  0.857710  0.363113  1
  O  O127  1  0.701756  0.109789  0.500174  1
  O  O128  1  0.500824  0.061684  0.051905  1
  O  O129  1  0.685581  0.109852  0.863002  1
  O  O130  1  0.498858  0.905027  0.551879  1
  O  O131  1  0.311154  0.100607  0.399786  1
  O  O132  1  0.684618  0.111723  0.137015  1
  O  O133  1  0.997516  0.423182  0.684780  1
  O  O134  1  0.315595  0.110476  0.766319  1
  O  O135  1  0.812446  0.365865  0.600607  1
