# generated using pymatgen
data_BaSr(FeO2)4
_symmetry_space_group_name_H-M   'P 1'
_cell_length_a   5.76194738
_cell_length_b   5.76194693
_cell_length_c   10.22298235
_cell_angle_alpha   90.00000000
_cell_angle_beta   90.00000000
_cell_angle_gamma   120.00000257
_symmetry_Int_Tables_number   1
_chemical_formula_structural   BaSr(FeO2)4
_chemical_formula_sum   'Ba1 Sr1 Fe4 O8'
_cell_volume   293.93193482
_cell_formula_units_Z   1
loop_
 _symmetry_equiv_pos_site_id
 _symmetry_equiv_pos_as_xyz
  1  'x, y, z'
loop_
 _atom_site_type_symbol
 _atom_site_label
 _atom_site_symmetry_multiplicity
 _atom_site_fract_x
 _atom_site_fract_y
 _atom_site_fract_z
 _atom_site_occupancy
  Ba  Ba0  1  0.000000  0.000000  0.000000  1
  Sr  Sr1  1  0.000000  0.000000  0.500000  1
  Fe  Fe2  1  0.666667  0.333333  0.686673  1
  Fe  Fe3  1  0.666667  0.333333  0.313327  1
  Fe  Fe4  1  0.333333  0.666667  0.813280  1
  Fe  Fe5  1  0.333333  0.666667  0.186720  1
  O  O6  1  0.498937  0.501063  0.252876  1
  O  O7  1  0.498937  -0.002128  0.252876  1
  O  O8  1  1.002128  0.501063  0.747124  1
  O  O9  1  0.498937  -0.002128  0.747124  1
  O  O10  1  0.666667  0.333333  0.500000  1
  O  O11  1  1.002128  0.501063  0.252876  1
  O  O12  1  0.498937  0.501063  0.747124  1
  O  O13  1  0.333333  0.666667  0.000000  1
