# generated using pymatgen
data_Te2SO7
_symmetry_space_group_name_H-M   'P 1'
_cell_length_a   4.94413152
_cell_length_b   6.95057022
_cell_length_c   8.83137068
_cell_angle_alpha   90.00000000
_cell_angle_beta   90.00000000
_cell_angle_gamma   90.00000000
_symmetry_Int_Tables_number   1
_chemical_formula_structural   Te2SO7
_chemical_formula_sum   'Te4 S2 O14'
_cell_volume   303.48593188
_cell_formula_units_Z   2
loop_
 _symmetry_equiv_pos_site_id
 _symmetry_equiv_pos_as_xyz
  1  'x, y, z'
loop_
 _atom_site_type_symbol
 _atom_site_label
 _atom_site_symmetry_multiplicity
 _atom_site_fract_x
 _atom_site_fract_y
 _atom_site_fract_z
 _atom_site_occupancy
  Te  Te0  1  0.557581  0.179346  0.696369  1
  Te  Te1  1  0.057581  0.820654  0.803631  1
  Te  Te2  1  0.057581  0.820654  0.196369  1
  Te  Te3  1  0.557581  0.179346  0.303631  1
  S  S4  1  0.535738  0.505167  0.000000  1
  S  S5  1  0.035738  0.494833  0.500000  1
  O  O6  1  0.189879  0.453228  0.639624  1
  O  O7  1  0.689879  0.546772  0.139624  1
  O  O8  1  0.285036  0.640749  0.000000  1
  O  O9  1  0.412081  0.938045  0.786967  1
  O  O10  1  0.456748  0.067638  0.500000  1
  O  O11  1  0.956748  0.932362  0.000000  1
  O  O12  1  0.689879  0.546772  0.860376  1
  O  O13  1  0.412081  0.938045  0.213033  1
  O  O14  1  0.912081  0.061955  0.286967  1
  O  O15  1  0.939798  0.696576  0.500000  1
  O  O16  1  0.785036  0.359251  0.500000  1
  O  O17  1  0.189879  0.453228  0.360376  1
  O  O18  1  0.439798  0.303424  0.000000  1
  O  O19  1  0.912081  0.061955  0.713033  1
