# generated using pymatgen
data_Rb3FeO3
_symmetry_space_group_name_H-M   'P 1'
_cell_length_a   6.93143961
_cell_length_b   6.96549539
_cell_length_c   6.96549498
_cell_angle_alpha   114.49259653
_cell_angle_beta   96.99332311
_cell_angle_gamma   96.99332244
_symmetry_Int_Tables_number   1
_chemical_formula_structural   Rb3FeO3
_chemical_formula_sum   'Rb6 Fe2 O6'
_cell_volume   298.18829284
_cell_formula_units_Z   2
loop_
 _symmetry_equiv_pos_site_id
 _symmetry_equiv_pos_as_xyz
  1  'x, y, z'
loop_
 _atom_site_type_symbol
 _atom_site_label
 _atom_site_symmetry_multiplicity
 _atom_site_fract_x
 _atom_site_fract_y
 _atom_site_fract_z
 _atom_site_occupancy
  Rb  Rb0  1  0.000000  0.260926  0.739074  1
  Rb  Rb1  1  1.000000  0.739074  0.260926  1
  Rb  Rb2  1  0.500000  0.191369  0.808631  1
  Rb  Rb3  1  0.500000  0.808631  0.191369  1
  Rb  Rb4  1  0.346284  0.626989  0.626989  1
  Rb  Rb5  1  0.653717  0.373011  0.373011  1
  Fe  Fe6  1  0.852711  0.835153  0.835153  1
  Fe  Fe7  1  0.147289  0.164847  0.164847  1
  O  O8  1  0.265802  0.417349  0.152794  1
  O  O9  1  0.734198  0.582651  0.847206  1
  O  O10  1  0.147732  0.902034  0.902034  1
  O  O11  1  0.265802  0.152794  0.417349  1
  O  O12  1  0.734198  0.847206  0.582651  1
  O  O13  1  0.852268  0.097966  0.097966  1
