# generated using pymatgen
data_Tl4Cu4(P2O7)3
_symmetry_space_group_name_H-M   'P 1'
_cell_length_a   9.77019215
_cell_length_b   10.78343058
_cell_length_c   20.48049907
_cell_angle_alpha   90.00000000
_cell_angle_beta   90.00000000
_cell_angle_gamma   90.00000000
_symmetry_Int_Tables_number   1
_chemical_formula_structural   Tl4Cu4(P2O7)3
_chemical_formula_sum   'Tl16 Cu16 P24 O84'
_cell_volume   2157.74732679
_cell_formula_units_Z   4
loop_
 _symmetry_equiv_pos_site_id
 _symmetry_equiv_pos_as_xyz
  1  'x, y, z'
loop_
 _atom_site_type_symbol
 _atom_site_label
 _atom_site_symmetry_multiplicity
 _atom_site_fract_x
 _atom_site_fract_y
 _atom_site_fract_z
 _atom_site_occupancy
  Tl  Tl0  1  0.335647  0.741727  0.604343  1
  Tl  Tl1  1  0.835647  0.258273  0.604343  1
  Tl  Tl2  1  0.250000  0.606749  0.000000  1
  Tl  Tl3  1  0.335647  0.258273  0.895657  1
  Tl  Tl4  1  0.664353  0.741727  0.104343  1
  Tl  Tl5  1  0.664353  0.258273  0.395657  1
  Tl  Tl6  1  0.164353  0.741727  0.395657  1
  Tl  Tl7  1  0.164353  0.258273  0.104343  1
  Tl  Tl8  1  0.329085  0.000000  0.250000  1
  Tl  Tl9  1  0.670915  0.000000  0.750000  1
  Tl  Tl10  1  0.750000  0.393251  0.000000  1
  Tl  Tl11  1  0.750000  0.606749  0.500000  1
  Tl  Tl12  1  0.829085  0.000000  0.250000  1
  Tl  Tl13  1  0.170915  0.000000  0.750000  1
  Tl  Tl14  1  0.835647  0.741727  0.895657  1
  Tl  Tl15  1  0.250000  0.393251  0.500000  1
  Cu  Cu16  1  0.975717  0.157004  0.915105  1
  Cu  Cu17  1  0.185802  0.347523  0.672742  1
  Cu  Cu18  1  0.524283  0.157004  0.084895  1
  Cu  Cu19  1  0.475717  0.842996  0.915105  1
  Cu  Cu20  1  0.024283  0.157004  0.415105  1
  Cu  Cu21  1  0.314198  0.347523  0.327258  1
  Cu  Cu22  1  0.975717  0.842996  0.584895  1
  Cu  Cu23  1  0.814198  0.652477  0.327258  1
  Cu  Cu24  1  0.685802  0.652477  0.672742  1
  Cu  Cu25  1  0.524283  0.842996  0.415105  1
  Cu  Cu26  1  0.024283  0.842996  0.084895  1
  Cu  Cu27  1  0.314198  0.652477  0.172742  1
  Cu  Cu28  1  0.475717  0.157004  0.584895  1
  Cu  Cu29  1  0.685802  0.347523  0.827258  1
  Cu  Cu30  1  0.814198  0.347523  0.172742  1
  Cu  Cu31  1  0.185802  0.652477  0.827258  1
  P  P32  1  0.478232  0.558777  0.871298  1
  P  P33  1  0.848938  0.911579  0.448787  1
  P  P34  1  0.021768  0.441223  0.371298  1
  P  P35  1  0.151062  0.088421  0.551213  1
  P  P36  1  0.959972  0.263132  0.770129  1
  P  P37  1  0.459972  0.736868  0.770129  1
  P  P38  1  0.521768  0.441223  0.128702  1
  P  P39  1  0.021768  0.558777  0.128702  1
  P  P40  1  0.540028  0.736868  0.270129  1
  P  P41  1  0.478232  0.441223  0.628702  1
  P  P42  1  0.348938  0.911579  0.051213  1
  P  P43  1  0.040028  0.736868  0.229871  1
  P  P44  1  0.978232  0.441223  0.871298  1
  P  P45  1  0.848938  0.088421  0.051213  1
  P  P46  1  0.459972  0.263132  0.729871  1
  P  P47  1  0.151062  0.911579  0.948787  1
  P  P48  1  0.540028  0.263132  0.229871  1
  P  P49  1  0.651062  0.088421  0.948787  1
  P  P50  1  0.959972  0.736868  0.729871  1
  P  P51  1  0.651062  0.911579  0.551213  1
  P  P52  1  0.521768  0.558777  0.371298  1
  P  P53  1  0.978232  0.558777  0.628702  1
  P  P54  1  0.348938  0.088421  0.448787  1
  P  P55  1  0.040028  0.263132  0.270129  1
  O  O56  1  0.952765  0.432536  0.118348  1
  O  O57  1  0.463599  0.848954  0.010813  1
  O  O58  1  0.596345  0.989192  0.902313  1
  O  O59  1  0.528133  0.388931  0.699746  1
  O  O60  1  0.979391  0.654162  0.077272  1
  O  O61  1  0.471867  0.388931  0.199745  1
  O  O62  1  0.035140  0.239461  0.705370  1
  O  O63  1  0.964860  0.239461  0.205370  1
  O  O64  1  0.250000  0.986485  0.000000  1
  O  O65  1  0.479391  0.654162  0.422728  1
  O  O66  1  0.463599  0.151046  0.489187  1
  O  O67  1  0.979391  0.345838  0.422728  1
  O  O68  1  0.971867  0.388931  0.300254  1
  O  O69  1  0.013698  0.842980  0.181637  1
  O  O70  1  0.257507  0.816758  0.086290  1
  O  O71  1  0.403655  0.989192  0.402313  1
  O  O72  1  0.963599  0.848954  0.489187  1
  O  O73  1  0.036401  0.848954  0.989187  1
  O  O74  1  0.192847  0.712497  0.242256  1
  O  O75  1  0.986302  0.157020  0.818363  1
  O  O76  1  0.536401  0.848954  0.510813  1
  O  O77  1  0.013698  0.157020  0.318363  1
  O  O78  1  0.250000  0.013515  0.500000  1
  O  O79  1  0.513698  0.842980  0.318363  1
  O  O80  1  0.807153  0.712497  0.742256  1
  O  O81  1  0.178074  0.539380  0.133899  1
  O  O82  1  0.971867  0.611069  0.199745  1
  O  O83  1  0.513698  0.157020  0.181637  1
  O  O84  1  0.035140  0.760539  0.794630  1
  O  O85  1  0.321926  0.460620  0.633899  1
  O  O86  1  0.520609  0.654162  0.922728  1
  O  O87  1  0.192847  0.287503  0.257744  1
  O  O88  1  0.807153  0.287503  0.757744  1
  O  O89  1  0.963599  0.151046  0.010813  1
  O  O90  1  0.547235  0.567464  0.618348  1
  O  O91  1  0.757507  0.816758  0.413710  1
  O  O92  1  0.964860  0.760539  0.294630  1
  O  O93  1  0.028133  0.388931  0.800254  1
  O  O94  1  0.692847  0.287503  0.242256  1
  O  O95  1  0.520609  0.345838  0.577272  1
  O  O96  1  0.047235  0.567464  0.881652  1
  O  O97  1  0.535140  0.239461  0.794630  1
  O  O98  1  0.535140  0.760539  0.705370  1
  O  O99  1  0.242493  0.816758  0.913710  1
  O  O100  1  0.321926  0.539380  0.866101  1
  O  O101  1  0.536401  0.151046  0.989187  1
  O  O102  1  0.486302  0.842980  0.818363  1
  O  O103  1  0.307153  0.712497  0.757744  1
  O  O104  1  0.096345  0.989192  0.597687  1
  O  O105  1  0.903655  0.989192  0.097687  1
  O  O106  1  0.903655  0.010808  0.402313  1
  O  O107  1  0.178074  0.460620  0.366101  1
  O  O108  1  0.047235  0.432536  0.618348  1
  O  O109  1  0.464860  0.239461  0.294630  1
  O  O110  1  0.486302  0.157020  0.681637  1
  O  O111  1  0.742493  0.183242  0.913710  1
  O  O112  1  0.678074  0.539380  0.366101  1
  O  O113  1  0.403655  0.010808  0.097687  1
  O  O114  1  0.678074  0.460620  0.133899  1
  O  O115  1  0.692847  0.712497  0.257744  1
  O  O116  1  0.596345  0.010808  0.597687  1
  O  O117  1  0.096345  0.010808  0.902313  1
  O  O118  1  0.020609  0.654162  0.577272  1
  O  O119  1  0.452765  0.432536  0.381652  1
  O  O120  1  0.952765  0.567464  0.381652  1
  O  O121  1  0.986302  0.842980  0.681637  1
  O  O122  1  0.528133  0.611069  0.800254  1
  O  O123  1  0.750000  0.986485  0.500000  1
  O  O124  1  0.757507  0.183242  0.086290  1
  O  O125  1  0.471867  0.611069  0.300254  1
  O  O126  1  0.547235  0.432536  0.881652  1
  O  O127  1  0.464860  0.760539  0.205370  1
  O  O128  1  0.750000  0.013515  0.000000  1
  O  O129  1  0.036401  0.151046  0.510813  1
  O  O130  1  0.742493  0.816758  0.586290  1
  O  O131  1  0.028133  0.611069  0.699746  1
  O  O132  1  0.821926  0.539380  0.633899  1
  O  O133  1  0.452765  0.567464  0.118348  1
  O  O134  1  0.821926  0.460620  0.866101  1
  O  O135  1  0.020609  0.345838  0.922728  1
  O  O136  1  0.257507  0.183242  0.413710  1
  O  O137  1  0.479391  0.345838  0.077272  1
  O  O138  1  0.307153  0.287503  0.742256  1
  O  O139  1  0.242493  0.183242  0.586290  1
