# generated using pymatgen
data_GaH20C2S2NO14
_symmetry_space_group_name_H-M   'P 1'
_cell_length_a   6.49506094
_cell_length_b   10.60258606
_cell_length_c   11.74128280
_cell_angle_alpha   90.00000000
_cell_angle_beta   99.96714409
_cell_angle_gamma   90.00000000
_symmetry_Int_Tables_number   1
_chemical_formula_structural   GaH20C2S2NO14
_chemical_formula_sum   'Ga2 H40 C4 S4 N2 O28'
_cell_volume   796.35348202
_cell_formula_units_Z   2
loop_
 _symmetry_equiv_pos_site_id
 _symmetry_equiv_pos_as_xyz
  1  'x, y, z'
loop_
 _atom_site_type_symbol
 _atom_site_label
 _atom_site_symmetry_multiplicity
 _atom_site_fract_x
 _atom_site_fract_y
 _atom_site_fract_z
 _atom_site_occupancy
  Ga  Ga0  1  0.991088  0.744968  0.498999  1
  Ga  Ga1  1  0.491088  0.255032  0.998999  1
  H  H2  1  0.738485  0.197891  0.495238  1
  H  H3  1  0.357628  0.066725  0.856936  1
  H  H4  1  0.801843  0.271876  0.880163  1
  H  H5  1  0.238485  0.802109  0.995238  1
  H  H6  1  0.718044  0.413244  0.904034  1
  H  H7  1  0.830973  0.222245  0.159521  1
  H  H8  1  0.154510  0.283639  0.841056  1
  H  H9  1  0.857628  0.933275  0.356936  1
  H  H10  1  0.943007  0.683545  0.122750  1
  H  H11  1  0.817076  0.693592  0.915326  1
  H  H12  1  0.983376  0.850737  0.120751  1
  H  H13  1  0.723230  0.787684  0.084311  1
  H  H14  1  0.368748  0.448579  0.113124  1
  H  H15  1  0.644414  0.252079  0.350630  1
  H  H16  1  0.218044  0.586756  0.404034  1
  H  H17  1  0.301843  0.728124  0.380163  1
  H  H18  1  0.307662  0.405025  0.826039  1
  H  H19  1  0.443007  0.316455  0.622750  1
  H  H20  1  0.170512  0.638964  0.969281  1
  H  H21  1  0.330973  0.777755  0.659521  1
  H  H22  1  0.483376  0.149263  0.620751  1
  H  H23  1  0.127525  0.561642  0.643075  1
  H  H24  1  0.144414  0.747921  0.850630  1
  H  H25  1  0.870558  0.850299  0.915360  1
  H  H26  1  0.672004  0.105038  0.176515  1
  H  H27  1  0.617657  0.060497  0.884390  1
  H  H28  1  0.172004  0.894962  0.676515  1
  H  H29  1  0.180035  0.230938  0.115611  1
  H  H30  1  0.807662  0.594975  0.326039  1
  H  H31  1  0.868748  0.551421  0.613124  1
  H  H32  1  0.680035  0.769062  0.615611  1
  H  H33  1  0.370558  0.149701  0.415360  1
  H  H34  1  0.670512  0.361036  0.469281  1
  H  H35  1  0.317076  0.306408  0.415326  1
  H  H36  1  0.223230  0.212316  0.584311  1
  H  H37  1  0.776683  0.907281  0.594627  1
  H  H38  1  0.627525  0.438358  0.143075  1
  H  H39  1  0.117657  0.939503  0.384390  1
  H  H40  1  0.276683  0.092719  0.094627  1
  H  H41  1  0.654510  0.716361  0.341056  1
  C  C42  1  0.133317  0.736144  0.941957  1
  C  C43  1  0.633317  0.263856  0.441957  1
  C  C44  1  0.888523  0.772220  0.080220  1
  C  C45  1  0.388523  0.227780  0.580220  1
  S  S46  1  0.931009  0.064706  0.764796  1
  S  S47  1  0.560954  0.571339  0.736457  1
  S  S48  1  0.060954  0.428661  0.236457  1
  S  S49  1  0.431009  0.935294  0.264796  1
  N  N50  1  0.414502  0.235444  0.456740  1
  N  N51  1  0.914502  0.764556  0.956740  1
  O  O52  1  0.254081  0.181410  0.061778  1
  O  O53  1  0.824932  0.000578  0.852750  1
  O  O54  1  0.699185  0.176178  0.124866  1
  O  O55  1  0.443907  0.797049  0.290642  1
  O  O56  1  0.731049  0.323384  0.933904  1
  O  O57  1  0.199185  0.823822  0.624866  1
  O  O58  1  0.646984  0.988562  0.271759  1
  O  O59  1  0.689750  0.554776  0.854193  1
  O  O60  1  0.231049  0.676616  0.433904  1
  O  O61  1  0.845039  0.478068  0.237365  1
  O  O62  1  0.811377  0.044359  0.646901  1
  O  O63  1  0.943907  0.202951  0.790642  1
  O  O64  1  0.754081  0.818590  0.561778  1
  O  O65  1  0.156440  0.496015  0.148306  1
  O  O66  1  0.548611  0.710371  0.710721  1
  O  O67  1  0.048611  0.289629  0.210721  1
  O  O68  1  0.499498  0.417241  0.085572  1
  O  O69  1  0.324932  0.999422  0.352750  1
  O  O70  1  0.345039  0.521932  0.737365  1
  O  O71  1  0.487729  0.096283  0.909177  1
  O  O72  1  0.311377  0.955641  0.146901  1
  O  O73  1  0.775457  0.663520  0.379260  1
  O  O74  1  0.656440  0.503985  0.648306  1
  O  O75  1  0.275457  0.336480  0.879260  1
  O  O76  1  0.987729  0.903717  0.409177  1
  O  O77  1  0.189750  0.445224  0.354193  1
  O  O78  1  0.999498  0.582759  0.585572  1
  O  O79  1  0.146984  0.011438  0.771759  1
