# generated using pymatgen
data_H24OsC8(NF3)2
_symmetry_space_group_name_H-M   'P 1'
_cell_length_a   8.23164796
_cell_length_b   8.21255051
_cell_length_c   8.21803866
_cell_angle_alpha   59.63417862
_cell_angle_beta   59.33096049
_cell_angle_gamma   59.43887315
_symmetry_Int_Tables_number   1
_chemical_formula_structural   H24OsC8(NF3)2
_chemical_formula_sum   'H24 Os1 C8 N2 F6'
_cell_volume   388.08249576
_cell_formula_units_Z   1
loop_
 _symmetry_equiv_pos_site_id
 _symmetry_equiv_pos_as_xyz
  1  'x, y, z'
loop_
 _atom_site_type_symbol
 _atom_site_label
 _atom_site_symmetry_multiplicity
 _atom_site_fract_x
 _atom_site_fract_y
 _atom_site_fract_z
 _atom_site_occupancy
  H  H0  1  0.974182  0.284842  0.252331  1
  H  H1  1  0.251484  0.283117  0.487478  1
  H  H2  1  0.987906  0.507616  0.230533  1
  H  H3  1  0.012096  0.492383  0.769466  1
  H  H4  1  0.252516  0.973140  0.284460  1
  H  H5  1  0.306998  0.465780  0.960227  1
  H  H6  1  0.486314  0.251965  0.282865  1
  H  H7  1  0.513688  0.748033  0.717134  1
  H  H8  1  0.040776  0.693582  0.532369  1
  H  H9  1  0.467032  0.959528  0.305542  1
  H  H10  1  0.747485  0.026858  0.715540  1
  H  H11  1  0.025820  0.715158  0.747669  1
  H  H12  1  0.228718  0.989240  0.506966  1
  H  H13  1  0.748518  0.716882  0.512521  1
  H  H14  1  0.508289  0.228471  0.987936  1
  H  H15  1  0.771284  0.010759  0.493033  1
  H  H16  1  0.282282  0.487093  0.253007  1
  H  H17  1  0.491713  0.771527  0.012063  1
  H  H18  1  0.959225  0.306418  0.467630  1
  H  H19  1  0.717720  0.512906  0.746992  1
  H  H20  1  0.693003  0.534219  0.039772  1
  H  H21  1  0.714111  0.748951  0.026556  1
  H  H22  1  0.532970  0.040471  0.694458  1
  Os  Os23  1  0.999993  1.000005  0.000005  1
  H  H24  1  0.285889  0.251048  0.973444  1
  C  C25  1  0.696610  0.974646  0.655850  1
  C  C26  1  0.677077  0.676322  0.676123  1
  C  C27  1  0.654745  0.697574  0.974547  1
  C  C28  1  0.025311  0.344713  0.303942  1
  C  C29  1  0.303391  0.025353  0.344149  1
  C  C30  1  0.974690  0.655286  0.696057  1
  C  C31  1  0.345256  0.302424  0.025452  1
  C  C32  1  0.322925  0.323676  0.323876  1
  N  N33  1  0.249221  0.249113  0.249318  1
  N  N34  1  0.750781  0.750886  0.750682  1
  F  F35  1  0.832178  0.193880  0.140514  1
  F  F36  1  0.801940  0.854031  0.171483  1
  F  F37  1  0.854167  0.171689  0.802504  1
  F  F38  1  0.198052  0.145970  0.828521  1
  F  F39  1  0.145829  0.828315  0.197495  1
  F  F40  1  0.167816  0.806132  0.859489  1
