# generated using pymatgen
data_Tb2H16S3O20
_symmetry_space_group_name_H-M   'P 1'
_cell_length_a   6.76570287
_cell_length_b   7.56067780
_cell_length_c   18.39173775
_cell_angle_alpha   101.18248429
_cell_angle_beta   90.00000000
_cell_angle_gamma   116.57872286
_symmetry_Int_Tables_number   1
_chemical_formula_structural   Tb2H16S3O20
_chemical_formula_sum   'Tb4 H32 S6 O40'
_cell_volume   821.35416161
_cell_formula_units_Z   2
loop_
 _symmetry_equiv_pos_site_id
 _symmetry_equiv_pos_as_xyz
  1  'x, y, z'
loop_
 _atom_site_type_symbol
 _atom_site_label
 _atom_site_symmetry_multiplicity
 _atom_site_fract_x
 _atom_site_fract_y
 _atom_site_fract_z
 _atom_site_occupancy
  Tb  Tb0  1  0.146513  0.334993  0.392536  1
  Tb  Tb1  1  0.811520  0.665007  0.107464  1
  Tb  Tb2  1  0.853487  0.665007  0.607464  1
  Tb  Tb3  1  0.188480  0.334993  0.892536  1
  O  O4  1  0.172280  0.028712  0.357506  1
  O  O5  1  0.143568  0.971288  0.142494  1
  O  O6  1  0.827720  0.971288  0.642494  1
  O  O7  1  0.856432  0.028712  0.857506  1
  O  O8  1  0.270871  0.512374  0.297993  1
  O  O9  1  0.758497  0.487626  0.202007  1
  O  O10  1  0.729129  0.487626  0.702007  1
  O  O11  1  0.241503  0.512374  0.797993  1
  O  O12  1  0.358834  0.684513  0.457190  1
  O  O13  1  0.674321  0.315487  0.042810  1
  O  O14  1  0.641166  0.315487  0.542810  1
  O  O15  1  0.325679  0.684513  0.957190  1
  O  O16  1  0.801388  0.084154  0.435935  1
  O  O17  1  0.717233  0.915846  0.064065  1
  O  O18  1  0.198612  0.915846  0.564065  1
  O  O19  1  0.282767  0.084154  0.935935  1
  S  S20  1  0.674305  0.000000  0.250000  1
  S  S21  1  0.325695  0.000000  0.750000  1
  O  O22  1  0.886672  0.170893  0.287370  1
  O  O23  1  0.715780  0.829107  0.212630  1
  O  O24  1  0.113328  0.829107  0.712630  1
  O  O25  1  0.284220  0.170893  0.787370  1
  O  O26  1  0.514803  0.932333  0.307053  1
  O  O27  1  0.582470  0.067667  0.192947  1
  O  O28  1  0.485197  0.067667  0.692947  1
  O  O29  1  0.417530  0.932333  0.807053  1
  S  S30  1  0.245873  0.435193  0.590278  1
  S  S31  1  0.810680  0.564807  0.909722  1
  S  S32  1  0.754127  0.564807  0.409722  1
  S  S33  1  0.189320  0.435193  0.090278  1
  O  O34  1  0.221804  0.287501  0.517745  1
  O  O35  1  0.934303  0.712499  0.982255  1
  O  O36  1  0.778196  0.712499  0.482255  1
  O  O37  1  0.065697  0.287501  0.017745  1
  O  O38  1  0.089585  0.519039  0.581713  1
  O  O39  1  0.570547  0.480961  0.918287  1
  O  O40  1  0.910415  0.480961  0.418287  1
  O  O41  1  0.429453  0.519039  0.081713  1
  O  O42  1  0.476879  0.600726  0.603157  1
  O  O43  1  0.876152  0.399274  0.896843  1
  O  O44  1  0.523121  0.399274  0.396843  1
  O  O45  1  0.123848  0.600726  0.103157  1
  O  O46  1  0.195004  0.324954  0.651415  1
  O  O47  1  0.870049  0.675046  0.848585  1
  O  O48  1  0.804996  0.675046  0.348585  1
  O  O49  1  0.129951  0.324954  0.151415  1
  H  H50  1  0.301488  0.012245  0.339085  1
  H  H51  1  0.289244  0.987755  0.160915  1
  H  H52  1  0.698512  0.987755  0.660915  1
  H  H53  1  0.710756  0.012245  0.839085  1
  H  H54  1  0.042971  0.891743  0.350266  1
  H  H55  1  0.151228  0.108257  0.149734  1
  H  H56  1  0.957029  0.108257  0.649734  1
  H  H57  1  0.848772  0.891743  0.850266  1
  H  H58  1  0.374981  0.656973  0.302540  1
  H  H59  1  0.718008  0.343027  0.197460  1
  H  H60  1  0.625019  0.343027  0.697460  1
  H  H61  1  0.281992  0.656973  0.802540  1
  H  H62  1  0.213155  0.452146  0.244844  1
  H  H63  1  0.761009  0.547854  0.255156  1
  H  H64  1  0.786845  0.547854  0.755156  1
  H  H65  1  0.238991  0.452146  0.744844  1
  H  H66  1  0.290689  0.753944  0.491550  1
  H  H67  1  0.536745  0.246056  0.008450  1
  H  H68  1  0.709311  0.246056  0.508450  1
  H  H69  1  0.463255  0.753944  0.991550  1
  H  H70  1  0.501377  0.713176  0.482771  1
  H  H71  1  0.788201  0.286824  0.017229  1
  H  H72  1  0.498623  0.286824  0.517229  1
  H  H73  1  0.211799  0.713176  0.982771  1
  H  H74  1  0.681831  0.015984  0.393617  1
  H  H75  1  0.665848  0.984016  0.106383  1
  H  H76  1  0.318169  0.984016  0.606383  1
  H  H77  1  0.334152  0.015984  0.893617  1
  H  H78  1  0.811581  0.974413  0.454365  1
  H  H79  1  0.837168  0.025587  0.045635  1
  H  H80  1  0.188419  0.025587  0.545635  1
  H  H81  1  0.162832  0.974413  0.954365  1
