# generated using pymatgen
data_KC(NO2)3
_symmetry_space_group_name_H-M   'P 1'
_cell_length_a   9.04481965
_cell_length_b   9.38823125
_cell_length_c   9.38823056
_cell_angle_alpha   76.58249472
_cell_angle_beta   61.20281951
_cell_angle_gamma   61.20281924
_symmetry_Int_Tables_number   1
_chemical_formula_structural   KC(NO2)3
_chemical_formula_sum   'K4 C4 N12 O24'
_cell_volume   612.21388805
_cell_formula_units_Z   4
loop_
 _symmetry_equiv_pos_site_id
 _symmetry_equiv_pos_as_xyz
  1  'x, y, z'
loop_
 _atom_site_type_symbol
 _atom_site_label
 _atom_site_symmetry_multiplicity
 _atom_site_fract_x
 _atom_site_fract_y
 _atom_site_fract_z
 _atom_site_occupancy
  K  K0  1  0.149094  0.225906  0.725906  1
  K  K1  1  0.125000  0.725906  0.774094  1
  K  K2  1  0.100906  0.774094  0.274094  1
  K  K3  1  0.625000  0.274094  0.225906  1
  C  C4  1  0.625000  0.687489  0.812511  1
  C  C5  1  0.125000  0.312511  0.187489  1
  C  C6  1  0.687511  0.187489  0.687489  1
  C  C7  1  0.562489  0.812511  0.312511  1
  N  N8  1  0.459069  0.832529  0.831724  1
  N  N9  1  0.442405  0.932595  0.432595  1
  N  N10  1  0.126678  0.331724  0.332529  1
  N  N11  1  0.790931  0.668276  0.667471  1
  N  N12  1  0.540793  0.332529  0.668276  1
  N  N13  1  0.807595  0.067405  0.567405  1
  N  N14  1  0.708403  0.168276  0.832529  1
  N  N15  1  0.123322  0.167471  0.168276  1
  N  N16  1  0.625000  0.567405  0.932595  1
  N  N17  1  0.709207  0.831724  0.167471  1
  N  N18  1  0.125000  0.432595  0.067405  1
  N  N19  1  0.541597  0.667471  0.331724  1
  O  O20  1  0.687288  0.540235  0.270993  1
  O  O21  1  0.208281  0.040235  0.229007  1
  O  O22  1  0.766570  0.432764  0.903097  1
  O  O23  1  0.498516  0.459765  0.729007  1
  O  O24  1  0.477523  0.959765  0.770993  1
  O  O25  1  0.919667  0.932764  0.596903  1
  O  O26  1  0.868020  0.092478  0.828268  1
  O  O27  1  0.449334  0.067236  0.403097  1
  O  O28  1  0.946288  0.592478  0.671732  1
  O  O29  1  0.788765  0.907522  0.171732  1
  O  O30  1  0.147569  0.403097  0.932764  1
  O  O31  1  0.483430  0.596903  0.067236  1
  O  O32  1  0.102431  0.567236  0.096903  1
  O  O33  1  0.562712  0.229007  0.959765  1
  O  O34  1  0.461235  0.328268  0.592478  1
  O  O35  1  0.772477  0.729007  0.540235  1
  O  O36  1  0.303712  0.828268  0.907522  1
  O  O37  1  0.330333  0.903097  0.567236  1
  O  O38  1  0.800666  0.096903  0.432764  1
  O  O39  1  0.210498  0.407522  0.328268  1
  O  O40  1  0.381980  0.671732  0.407522  1
  O  O41  1  0.041719  0.270993  0.459765  1
  O  O42  1  0.751484  0.770993  0.040235  1
  O  O43  1  0.039502  0.171732  0.092478  1
