# generated using pymatgen
data_AlPO4
_symmetry_space_group_name_H-M   'P 1'
_cell_length_a   8.52825315
_cell_length_b   18.74511169
_cell_length_c   18.73562061
_cell_angle_alpha   120.01675899
_cell_angle_beta   90.01357528
_cell_angle_gamma   89.97286320
_symmetry_Int_Tables_number   1
_chemical_formula_structural   AlPO4
_chemical_formula_sum   'Al18 P18 O72'
_cell_volume   2593.42334688
_cell_formula_units_Z   18
loop_
 _symmetry_equiv_pos_site_id
 _symmetry_equiv_pos_as_xyz
  1  'x, y, z'
loop_
 _atom_site_type_symbol
 _atom_site_label
 _atom_site_symmetry_multiplicity
 _atom_site_fract_x
 _atom_site_fract_y
 _atom_site_fract_z
 _atom_site_occupancy
  Al  Al0  1  0.737413  0.506632  0.823262  1
  Al  Al1  1  0.238102  0.009120  0.583236  1
  Al  Al2  1  0.736486  0.833324  0.495505  1
  Al  Al3  1  0.737413  0.683370  0.176738  1
  Al  Al4  1  0.738878  0.010195  0.426757  1
  Al  Al5  1  0.735541  0.435578  0.000000  1
  Al  Al6  1  0.235460  0.507370  0.662934  1
  Al  Al7  1  0.735531  0.186187  0.671270  1
  Al  Al8  1  0.736486  0.337818  0.504495  1
  Al  Al9  1  0.237314  0.595287  1.000000  1
  Al  Al10  1  0.235895  0.349373  0.831177  1
  Al  Al11  1  0.735531  0.514917  0.328730  1
  Al  Al12  1  0.238102  0.425884  0.416764  1
  Al  Al13  1  0.738878  0.583438  0.573243  1
  Al  Al14  1  0.235725  0.179660  0.506755  1
  Al  Al15  1  0.235895  0.518196  0.168823  1
  Al  Al16  1  0.235460  0.844436  0.337066  1
  Al  Al17  1  0.235725  0.672905  0.493245  1
  P  P18  1  0.610625  0.505502  0.664013  1
  P  P19  1  0.109342  0.508203  0.822192  1
  P  P20  1  0.611471  0.178899  0.504494  1
  P  P21  1  0.113460  0.586985  0.575028  1
  P  P22  1  0.109106  0.832402  0.494668  1
  P  P23  1  0.610828  0.596900  1.000000  1
  P  P24  1  0.610000  0.009055  0.586046  1
  P  P25  1  0.610000  0.423009  0.413954  1
  P  P26  1  0.611324  0.347428  0.829454  1
  P  P27  1  0.611471  0.674405  0.495506  1
  P  P28  1  0.114914  0.433768  0.000000  1
  P  P29  1  0.109342  0.686011  0.177808  1
  P  P30  1  0.109106  0.337734  0.505332  1
  P  P31  1  0.610625  0.841488  0.335987  1
  P  P32  1  0.109905  0.187285  0.674133  1
  P  P33  1  0.113460  0.011957  0.424972  1
  P  P34  1  0.109905  0.513152  0.325867  1
  P  P35  1  0.611324  0.517974  0.170546  1
  O  O36  1  0.698110  0.195014  0.583585  1
  O  O37  1  0.935522  0.708445  0.196884  1
  O  O38  1  0.701135  0.595762  0.185638  1
  O  O39  1  0.436745  0.370569  0.841981  1
  O  O40  1  0.436745  0.528588  0.158019  1
  O  O41  1  0.141446  0.352447  0.432658  1
  O  O42  1  0.435975  0.004108  0.604249  1
  O  O43  1  0.934805  0.203142  0.694398  1
  O  O44  1  0.150463  0.414431  0.588175  1
  O  O45  1  0.934805  0.508744  0.305602  1
  O  O46  1  0.629510  0.260706  0.755089  1
  O  O47  1  0.436537  0.165735  0.513200  1
  O  O48  1  0.151702  0.668956  0.578148  1
  O  O49  1  0.436085  0.860350  0.356040  1
  O  O50  1  0.220402  0.010853  0.490876  1
  O  O51  1  0.147084  0.670349  0.090596  1
  O  O52  1  0.935409  0.811314  0.494442  1
  O  O53  1  0.686908  0.423602  0.599931  1
  O  O54  1  0.436246  0.617051  1.000000  1
  O  O55  1  0.152892  0.100933  0.659264  1
  O  O56  1  0.435975  0.399858  0.395751  1
  O  O57  1  0.141446  0.919789  0.567342  1
  O  O58  1  0.691779  0.578471  0.662068  1
  O  O59  1  0.152892  0.441670  0.340736  1
  O  O60  1  0.144941  0.424042  0.814529  1
  O  O61  1  0.148569  0.591049  0.657812  1
  O  O62  1  0.629510  0.505616  0.244911  1
  O  O63  1  0.939671  0.012837  0.448441  1
  O  O64  1  0.627698  0.515256  1.000000  1
  O  O65  1  0.682013  0.432467  0.343793  1
  O  O66  1  0.681151  0.101488  0.429136  1
  O  O67  1  0.627684  0.516892  0.750432  1
  O  O68  1  0.144941  0.609513  0.185471  1
  O  O69  1  0.696372  0.355105  0.421945  1
  O  O70  1  0.686908  0.823671  0.400069  1
  O  O71  1  0.689761  0.588464  0.922226  1
  O  O72  1  0.696372  0.933160  0.578055  1
  O  O73  1  0.701135  0.410124  0.814362  1
  O  O74  1  0.938249  0.451356  0.000000  1
  O  O75  1  0.630692  0.252397  0.490882  1
  O  O76  1  0.436537  0.652535  0.486800  1
  O  O77  1  0.208714  0.770760  0.506165  1
  O  O78  1  0.213451  0.502669  0.000000  1
  O  O79  1  0.220402  0.519977  0.509124  1
  O  O80  1  0.691779  0.916403  0.337932  1
  O  O81  1  0.208714  0.264595  0.493835  1
  O  O82  1  0.689761  0.666238  0.077774  1
  O  O83  1  0.682013  0.088674  0.656207  1
  O  O84  1  0.146382  0.597395  0.402000  1
  O  O85  1  0.208988  0.519306  0.760392  1
  O  O86  1  0.436085  0.504311  0.643960  1
  O  O87  1  0.150463  0.826256  0.411825  1
  O  O88  1  0.147084  0.579753  0.909404  1
  O  O89  1  0.625388  0.505204  0.495386  1
  O  O90  1  0.148569  0.933237  0.342188  1
  O  O91  1  0.935409  0.316872  0.505558  1
  O  O92  1  0.678218  0.441393  0.093166  1
  O  O93  1  0.157684  0.352753  0.920962  1
  O  O94  1  0.625388  0.009818  0.504614  1
  O  O95  1  0.681151  0.672352  0.570864  1
  O  O96  1  0.146382  0.195395  0.598000  1
  O  O97  1  0.630692  0.761515  0.509118  1
  O  O98  1  0.205468  0.250982  0.747826  1
  O  O99  1  0.627684  0.766460  0.249568  1
  O  O100  1  0.698110  0.611430  0.416415  1
  O  O101  1  0.678218  0.348226  0.906834  1
  O  O102  1  0.151702  0.090809  0.421852  1
  O  O103  1  0.935522  0.511562  0.803116  1
  O  O104  1  0.208988  0.758914  0.239608  1
  O  O105  1  0.939671  0.564396  0.551559  1
  O  O106  1  0.157684  0.431791  0.079038  1
  O  O107  1  0.205468  0.503156  0.252174  1
