# generated using pymatgen
data_MnVH4O2F5
_symmetry_space_group_name_H-M   'P 1'
_cell_length_a   6.64392986
_cell_length_b   7.56184953
_cell_length_c   7.56184959
_cell_angle_alpha   61.93200301
_cell_angle_beta   63.94039541
_cell_angle_gamma   63.94039892
_symmetry_Int_Tables_number   1
_chemical_formula_structural   MnVH4O2F5
_chemical_formula_sum   'Mn2 V2 H8 O4 F10'
_cell_volume   287.89160168
_cell_formula_units_Z   2
loop_
 _symmetry_equiv_pos_site_id
 _symmetry_equiv_pos_as_xyz
  1  'x, y, z'
loop_
 _atom_site_type_symbol
 _atom_site_label
 _atom_site_symmetry_multiplicity
 _atom_site_fract_x
 _atom_site_fract_y
 _atom_site_fract_z
 _atom_site_occupancy
  Mn  Mn0  1  0.000000  0.000000  0.000000  1
  Mn  Mn1  1  0.500000  0.500000  0.500000  1
  V  V2  1  0.500000  0.000000  0.500000  1
  V  V3  1  0.500000  0.500000  0.000000  1
  F  F4  1  0.828682  0.911663  0.337254  1
  F  F5  1  0.577598  0.588337  0.162746  1
  F  F6  1  0.171318  0.662746  0.088337  1
  F  F7  1  0.422402  0.837254  0.411663  1
  F  F8  1  0.171318  0.088337  0.662746  1
  F  F9  1  0.422402  0.411663  0.837254  1
  F  F10  1  0.828682  0.337254  0.911663  1
  F  F11  1  0.577598  0.162746  0.588337  1
  F  F12  1  0.428755  0.250000  0.250000  1
  F  F13  1  0.571245  0.750000  0.750000  1
  O  O14  1  0.232379  0.070563  0.070563  1
  O  O15  1  0.873504  0.429437  0.429437  1
  O  O16  1  0.767621  0.929437  0.929437  1
  O  O17  1  0.126496  0.570563  0.570563  1
  H  H18  1  0.291820  0.193352  0.990767  1
  H  H19  1  0.975939  0.306648  0.509233  1
  H  H20  1  0.708180  0.009233  0.806648  1
  H  H21  1  0.024061  0.490767  0.693352  1
  H  H22  1  0.708180  0.806648  0.009233  1
  H  H23  1  0.024061  0.693352  0.490767  1
  H  H24  1  0.291820  0.990767  0.193352  1
  H  H25  1  0.975939  0.509233  0.306648  1
