# generated using pymatgen
data_Fe2Te2W(CO)10
_symmetry_space_group_name_H-M   'P 1'
_cell_length_a   7.35932334
_cell_length_b   9.82437024
_cell_length_c   14.23757423
_cell_angle_alpha   81.77250378
_cell_angle_beta   83.13448547
_cell_angle_gamma   85.59705995
_symmetry_Int_Tables_number   1
_chemical_formula_structural   Fe2Te2W(CO)10
_chemical_formula_sum   'Fe4 Te4 W2 C20 O20'
_cell_volume   1009.62043359
_cell_formula_units_Z   2
loop_
 _symmetry_equiv_pos_site_id
 _symmetry_equiv_pos_as_xyz
  1  'x, y, z'
loop_
 _atom_site_type_symbol
 _atom_site_label
 _atom_site_symmetry_multiplicity
 _atom_site_fract_x
 _atom_site_fract_y
 _atom_site_fract_z
 _atom_site_occupancy
  Fe  Fe0  1  0.716188  0.502132  0.230073  1
  Fe  Fe1  1  0.283812  0.497868  0.769927  1
  Fe  Fe2  1  0.647525  0.169714  0.135416  1
  Fe  Fe3  1  0.352475  0.830286  0.864584  1
  Te  Te4  1  0.908860  0.281664  0.196031  1
  Te  Te5  1  0.091140  0.718337  0.803969  1
  Te  Te6  1  0.550979  0.616469  0.819750  1
  Te  Te7  1  0.449021  0.383531  0.180250  1
  W  W8  1  0.607936  0.229878  0.334565  1
  W  W9  1  0.392064  0.770122  0.665435  1
  C  C10  1  0.557710  0.913002  0.872989  1
  C  C11  1  0.443945  0.371144  0.721514  1
  C  C12  1  0.561443  0.655313  0.576378  1
  C  C13  1  0.099306  0.453356  0.709469  1
  C  C14  1  0.442290  0.086998  0.127011  1
  C  C15  1  0.301029  0.762746  0.985778  1
  C  C16  1  0.620388  0.882711  0.637213  1
  C  C17  1  0.788341  0.011855  0.140243  1
  C  C18  1  0.698971  0.237254  0.014222  1
  C  C19  1  0.280553  0.968455  0.636212  1
  C  C20  1  0.227982  0.408493  0.884885  1
  C  C21  1  0.719447  0.031545  0.363788  1
  C  C22  1  0.776260  0.251577  0.436448  1
  C  C23  1  0.438557  0.344687  0.423622  1
  C  C24  1  0.556055  0.628856  0.278486  1
  C  C25  1  0.772018  0.591507  0.115115  1
  C  C26  1  0.900694  0.546644  0.290531  1
  C  C27  1  0.211659  0.988145  0.859757  1
  C  C28  1  0.379612  0.117289  0.362787  1
  C  C29  1  0.223740  0.748423  0.563552  1
  O  O30  1  0.193171  0.350030  0.961130  1
  O  O31  1  0.879061  0.909902  0.142265  1
  O  O32  1  0.730888  0.281464  0.934301  1
  O  O33  1  0.777541  0.919193  0.383713  1
  O  O34  1  0.128744  0.736635  0.506241  1
  O  O35  1  0.542833  0.285382  0.692654  1
  O  O36  1  0.657431  0.595804  0.523269  1
  O  O37  1  0.688569  0.966536  0.881763  1
  O  O38  1  0.806829  0.649970  0.038870  1
  O  O39  1  0.311431  0.033464  0.118237  1
  O  O40  1  0.342569  0.404196  0.476731  1
  O  O41  1  0.978446  0.423917  0.672924  1
  O  O42  1  0.120939  0.090098  0.857735  1
  O  O43  1  0.250917  0.052739  0.379154  1
  O  O44  1  0.269112  0.718536  0.065699  1
  O  O45  1  0.222459  0.080807  0.616287  1
  O  O46  1  0.749083  0.947261  0.620846  1
  O  O47  1  0.021554  0.576083  0.327076  1
  O  O48  1  0.457167  0.714618  0.307346  1
  O  O49  1  0.871256  0.263365  0.493759  1
