# generated using pymatgen
data_Hg2SeO3
_symmetry_space_group_name_H-M   'P 1'
_cell_length_a   5.26754518
_cell_length_b   10.25162161
_cell_length_c   10.25162178
_cell_angle_alpha   112.73242170
_cell_angle_beta   90.00000000
_cell_angle_gamma   90.00000000
_symmetry_Int_Tables_number   1
_chemical_formula_structural   Hg2SeO3
_chemical_formula_sum   'Hg8 Se4 O12'
_cell_volume   510.59297639
_cell_formula_units_Z   4
loop_
 _symmetry_equiv_pos_site_id
 _symmetry_equiv_pos_as_xyz
  1  'x, y, z'
loop_
 _atom_site_type_symbol
 _atom_site_label
 _atom_site_symmetry_multiplicity
 _atom_site_fract_x
 _atom_site_fract_y
 _atom_site_fract_z
 _atom_site_occupancy
  Hg  Hg0  1  0.456657  0.640411  0.129770  1
  Hg  Hg1  1  0.956657  0.359589  0.870230  1
  Hg  Hg2  1  0.974585  0.803274  0.966722  1
  Hg  Hg3  1  0.456657  0.870230  0.359589  1
  Hg  Hg4  1  0.974585  0.033278  0.196726  1
  Hg  Hg5  1  0.474585  0.966722  0.803274  1
  Hg  Hg6  1  0.474585  0.196726  0.033278  1
  Hg  Hg7  1  0.956657  0.129770  0.640411  1
  Se  Se8  1  0.412502  0.214531  0.427935  1
  Se  Se9  1  0.912502  0.785469  0.572065  1
  Se  Se10  1  0.412502  0.572065  0.785469  1
  Se  Se11  1  0.912502  0.427935  0.214531  1
  O  O12  1  0.483556  0.489152  0.902831  1
  O  O13  1  0.082721  0.197928  0.411372  1
  O  O14  1  0.483556  0.097169  0.510848  1
  O  O15  1  0.008479  0.879678  0.741519  1
  O  O16  1  0.983556  0.902831  0.489152  1
  O  O17  1  0.983556  0.510848  0.097169  1
  O  O18  1  0.508479  0.741519  0.879678  1
  O  O19  1  0.008479  0.258481  0.120322  1
  O  O20  1  0.582721  0.802072  0.588628  1
  O  O21  1  0.582721  0.411372  0.197928  1
  O  O22  1  0.082721  0.588628  0.802072  1
  O  O23  1  0.508479  0.120322  0.258481  1
