# generated using pymatgen
data_KCSeN
_symmetry_space_group_name_H-M   'P 1'
_cell_length_a   4.60398548
_cell_length_b   7.75116355
_cell_length_c   12.08891013
_cell_angle_alpha   90.00353677
_cell_angle_beta   101.66029764
_cell_angle_gamma   90.00419676
_symmetry_Int_Tables_number   1
_chemical_formula_structural   KCSeN
_chemical_formula_sum   'K4 C4 Se4 N4'
_cell_volume   422.50487768
_cell_formula_units_Z   4
loop_
 _symmetry_equiv_pos_site_id
 _symmetry_equiv_pos_as_xyz
  1  'x, y, z'
loop_
 _atom_site_type_symbol
 _atom_site_label
 _atom_site_symmetry_multiplicity
 _atom_site_fract_x
 _atom_site_fract_y
 _atom_site_fract_z
 _atom_site_occupancy
  K  K0  1  0.725580  0.695538  0.096668  1
  K  K1  1  0.274408  0.304469  0.903324  1
  K  K2  1  0.225576  0.804462  0.596659  1
  K  K3  1  0.774410  0.195531  0.403338  1
  C  C4  1  0.043637  0.776650  0.884367  1
  Se  Se5  1  0.658893  0.448242  0.697740  1
  Se  Se6  1  0.841206  0.948180  0.802261  1
  Se  Se7  1  0.158822  0.051803  0.197748  1
  C  C8  1  0.543599  0.723348  0.384362  1
  Se  Se9  1  0.341113  0.551771  0.302256  1
  C  C10  1  0.956346  0.223367  0.115624  1
  C  C11  1  0.456408  0.276663  0.615642  1
  N  N12  1  0.176707  0.663955  0.938791  1
  N  N13  1  0.676698  0.836061  0.438778  1
  N  N14  1  0.323292  0.163939  0.561223  1
  N  N15  1  0.823306  0.336021  0.061218  1
