# generated using pymatgen
data_LiAlSiH2O5
_symmetry_space_group_name_H-M   'P 1'
_cell_length_a   4.79655574
_cell_length_b   9.02801640
_cell_length_c   11.74449582
_cell_angle_alpha   90.00000000
_cell_angle_beta   90.00000000
_cell_angle_gamma   90.00000000
_symmetry_Int_Tables_number   1
_chemical_formula_structural   LiAlSiH2O5
_chemical_formula_sum   'Li4 Al4 Si4 H8 O20'
_cell_volume   508.57641102
_cell_formula_units_Z   4
loop_
 _symmetry_equiv_pos_site_id
 _symmetry_equiv_pos_as_xyz
  1  'x, y, z'
loop_
 _atom_site_type_symbol
 _atom_site_label
 _atom_site_symmetry_multiplicity
 _atom_site_fract_x
 _atom_site_fract_y
 _atom_site_fract_z
 _atom_site_occupancy
  Li  Li0  1  0.379768  0.587490  0.190178  1
  Li  Li1  1  0.379768  0.912510  0.690178  1
  Li  Li2  1  0.879768  0.087490  0.309822  1
  Li  Li3  1  0.879768  0.412510  0.809822  1
  Al  Al4  1  0.355719  0.043949  0.140817  1
  Al  Al5  1  0.855719  0.956051  0.859183  1
  Al  Al6  1  0.355719  0.456051  0.640817  1
  Al  Al7  1  0.855719  0.543949  0.359183  1
  Si  Si8  1  0.768257  0.880973  0.114075  1
  Si  Si9  1  0.268257  0.380973  0.385925  1
  Si  Si10  1  0.268257  0.119027  0.885925  1
  Si  Si11  1  0.768257  0.619027  0.614075  1
  H  H12  1  0.885187  0.853777  0.448462  1
  H  H13  1  0.209471  0.489246  0.009813  1
  H  H14  1  0.709471  0.989246  0.490187  1
  H  H15  1  0.385187  0.146223  0.551538  1
  H  H16  1  0.709471  0.510754  0.990186  1
  H  H17  1  0.385187  0.353777  0.051538  1
  H  H18  1  0.885187  0.646223  0.948462  1
  H  H19  1  0.209471  0.010754  0.509814  1
  O  O20  1  0.972750  0.634080  0.231426  1
  O  O21  1  0.523358  0.474386  0.326132  1
  O  O22  1  0.883679  0.963977  0.447819  1
  O  O23  1  0.472750  0.365920  0.768574  1
  O  O24  1  0.712319  0.774363  0.692089  1
  O  O25  1  0.472750  0.134080  0.268574  1
  O  O26  1  0.212319  0.274363  0.807911  1
  O  O27  1  0.350392  0.161223  0.018943  1
  O  O28  1  0.383679  0.036023  0.552181  1
  O  O29  1  0.350392  0.338777  0.518943  1
  O  O30  1  0.850392  0.661223  0.481057  1
  O  O31  1  0.850392  0.838777  0.981057  1
  O  O32  1  0.883679  0.536023  0.947819  1
  O  O33  1  0.972750  0.865920  0.731426  1
  O  O34  1  0.712319  0.725637  0.192089  1
  O  O35  1  0.212319  0.225637  0.307911  1
  O  O36  1  0.023358  0.974386  0.173868  1
  O  O37  1  0.023358  0.525614  0.673868  1
  O  O38  1  0.523358  0.025614  0.826132  1
  O  O39  1  0.383679  0.463977  0.052181  1
