# generated using pymatgen
data_Cs2CdBi2S5
_symmetry_space_group_name_H-M   'P 1'
_cell_length_a   4.23018739
_cell_length_b   16.09265206
_cell_length_c   18.76976396
_cell_angle_alpha   90.00000000
_cell_angle_beta   90.00000000
_cell_angle_gamma   90.00000000
_symmetry_Int_Tables_number   1
_chemical_formula_structural   Cs2CdBi2S5
_chemical_formula_sum   'Cs8 Cd4 Bi8 S20'
_cell_volume   1277.75043932
_cell_formula_units_Z   4
loop_
 _symmetry_equiv_pos_site_id
 _symmetry_equiv_pos_as_xyz
  1  'x, y, z'
loop_
 _atom_site_type_symbol
 _atom_site_label
 _atom_site_symmetry_multiplicity
 _atom_site_fract_x
 _atom_site_fract_y
 _atom_site_fract_z
 _atom_site_occupancy
  Cs  Cs0  1  0.750000  0.493366  0.126981  1
  Cs  Cs1  1  0.750000  0.034839  0.887514  1
  Cs  Cs2  1  0.250000  0.965161  0.112486  1
  Cs  Cs3  1  0.250000  0.465161  0.387514  1
  Cs  Cs4  1  0.250000  0.506634  0.873019  1
  Cs  Cs5  1  0.250000  0.006634  0.626981  1
  Cs  Cs6  1  0.750000  0.993366  0.373019  1
  Cs  Cs7  1  0.750000  0.534839  0.612486  1
  Cd  Cd8  1  0.250000  0.211487  0.354456  1
  Cd  Cd9  1  0.750000  0.788513  0.645544  1
  Cd  Cd10  1  0.750000  0.288513  0.854456  1
  Cd  Cd11  1  0.250000  0.711487  0.145544  1
  Bi  Bi12  1  0.250000  0.755080  0.481742  1
  Bi  Bi13  1  0.750000  0.707943  0.304622  1
  Bi  Bi14  1  0.250000  0.792057  0.804622  1
  Bi  Bi15  1  0.250000  0.255080  0.018258  1
  Bi  Bi16  1  0.750000  0.744920  0.981742  1
  Bi  Bi17  1  0.250000  0.292057  0.695378  1
  Bi  Bi18  1  0.750000  0.207943  0.195378  1
  Bi  Bi19  1  0.750000  0.244920  0.518258  1
  S  S20  1  0.250000  0.137741  0.475826  1
  S  S21  1  0.250000  0.637741  0.024174  1
  S  S22  1  0.750000  0.139237  0.061532  1
  S  S23  1  0.750000  0.682906  0.852894  1
  S  S24  1  0.250000  0.860762  0.938468  1
  S  S25  1  0.750000  0.862259  0.524174  1
  S  S26  1  0.250000  0.317094  0.147106  1
  S  S27  1  0.250000  0.200361  0.838282  1
  S  S28  1  0.750000  0.393659  0.748968  1
  S  S29  1  0.750000  0.893659  0.751032  1
  S  S30  1  0.250000  0.606341  0.251032  1
  S  S31  1  0.750000  0.299639  0.338282  1
  S  S32  1  0.250000  0.360762  0.561532  1
  S  S33  1  0.250000  0.106341  0.248968  1
  S  S34  1  0.750000  0.799639  0.161718  1
  S  S35  1  0.750000  0.639238  0.438468  1
  S  S36  1  0.750000  0.182906  0.647106  1
  S  S37  1  0.250000  0.700361  0.661718  1
  S  S38  1  0.250000  0.817094  0.352894  1
  S  S39  1  0.750000  0.362259  0.975826  1
