# generated using pymatgen
data_La10(B3C4)3
_symmetry_space_group_name_H-M   'P 1'
_cell_length_a   8.68042066
_cell_length_b   8.68042066
_cell_length_c   25.46336082
_cell_angle_alpha   90.00000000
_cell_angle_beta   90.00000000
_cell_angle_gamma   90.00000000
_symmetry_Int_Tables_number   1
_chemical_formula_structural   La10(B3C4)3
_chemical_formula_sum   'La40 B36 C48'
_cell_volume   1918.65667096
_cell_formula_units_Z   4
loop_
 _symmetry_equiv_pos_site_id
 _symmetry_equiv_pos_as_xyz
  1  'x, y, z'
loop_
 _atom_site_type_symbol
 _atom_site_label
 _atom_site_symmetry_multiplicity
 _atom_site_fract_x
 _atom_site_fract_y
 _atom_site_fract_z
 _atom_site_occupancy
  La  La0  1  0.897219  0.404390  0.540747  1
  La  La1  1  0.397219  0.095610  0.209253  1
  La  La2  1  0.305295  0.585398  0.553907  1
  La  La3  1  0.516509  0.597528  0.810429  1
  La  La4  1  0.317512  0.988756  0.832774  1
  La  La5  1  0.682488  0.011244  0.332774  1
  La  La6  1  0.095610  0.397219  0.790747  1
  La  La7  1  0.914602  0.805295  0.803907  1
  La  La8  1  0.194705  0.085398  0.696093  1
  La  La9  1  0.983491  0.097528  0.439571  1
  La  La10  1  0.785637  0.696612  0.428805  1
  La  La11  1  0.595610  0.102781  0.959253  1
  La  La12  1  0.511244  0.817512  0.082774  1
  La  La13  1  0.097528  0.983491  0.560429  1
  La  La14  1  0.597528  0.516509  0.189571  1
  La  La15  1  0.904390  0.602781  0.290747  1
  La  La16  1  0.696612  0.785637  0.571195  1
  La  La17  1  0.817512  0.511244  0.917226  1
  La  La18  1  0.102781  0.595610  0.040747  1
  La  La19  1  0.011244  0.682488  0.667226  1
  La  La20  1  0.182488  0.488756  0.417226  1
  La  La21  1  0.714363  0.196612  0.821195  1
  La  La22  1  0.803388  0.285637  0.678805  1
  La  La23  1  0.902472  0.016509  0.060429  1
  La  La24  1  0.303388  0.214363  0.071195  1
  La  La25  1  0.694705  0.414602  0.053907  1
  La  La26  1  0.488756  0.182488  0.582774  1
  La  La27  1  0.483491  0.402472  0.310429  1
  La  La28  1  0.404390  0.897219  0.459253  1
  La  La29  1  0.805295  0.914602  0.196093  1
  La  La30  1  0.085398  0.194705  0.303907  1
  La  La31  1  0.602781  0.904390  0.709253  1
  La  La32  1  0.585398  0.305295  0.446093  1
  La  La33  1  0.016509  0.902472  0.939571  1
  La  La34  1  0.402472  0.483491  0.689571  1
  La  La35  1  0.285637  0.803388  0.321195  1
  La  La36  1  0.414602  0.694705  0.946093  1
  La  La37  1  0.214363  0.303388  0.928805  1
  La  La38  1  0.988756  0.317512  0.167226  1
  La  La39  1  0.196612  0.714363  0.178805  1
  B  B40  1  0.376116  0.510315  0.107063  1
  B  B41  1  0.420993  0.420993  0.000000  1
  B  B42  1  0.079007  0.920993  0.250000  1
  B  B43  1  0.302503  0.413125  0.156869  1
  B  B44  1  0.802503  0.086875  0.593131  1
  B  B45  1  0.205872  0.280857  0.524993  1
  B  B46  1  0.086875  0.802503  0.406869  1
  B  B47  1  0.510315  0.376116  0.892937  1
  B  B48  1  0.143738  0.638311  0.882955  1
  B  B49  1  0.489685  0.623884  0.392937  1
  B  B50  1  0.643738  0.861689  0.867045  1
  B  B51  1  0.913125  0.197497  0.906869  1
  B  B52  1  0.197497  0.913125  0.093131  1
  B  B53  1  0.638311  0.143738  0.117045  1
  B  B54  1  0.794128  0.719143  0.024993  1
  B  B55  1  0.876116  0.989685  0.642937  1
  B  B56  1  0.138311  0.356262  0.632955  1
  B  B57  1  0.719143  0.794128  0.975007  1
  B  B58  1  0.920993  0.079007  0.750000  1
  B  B59  1  0.356262  0.138311  0.367045  1
  B  B60  1  0.219143  0.705872  0.774993  1
  B  B61  1  0.697497  0.586875  0.656869  1
  B  B62  1  0.010315  0.123884  0.857063  1
  B  B63  1  0.361689  0.856262  0.617045  1
  B  B64  1  0.705872  0.219143  0.225007  1
  B  B65  1  0.123884  0.010315  0.142937  1
  B  B66  1  0.294128  0.780857  0.725007  1
  B  B67  1  0.856262  0.361689  0.382955  1
  B  B68  1  0.280857  0.205872  0.475007  1
  B  B69  1  0.623884  0.489685  0.607063  1
  B  B70  1  0.413125  0.302503  0.843131  1
  B  B71  1  0.579007  0.579007  0.500000  1
  B  B72  1  0.861689  0.643738  0.132955  1
  B  B73  1  0.586875  0.697497  0.343131  1
  B  B74  1  0.989685  0.876116  0.357063  1
  B  B75  1  0.780857  0.294128  0.274993  1
  C  C76  1  0.711952  0.030873  0.489469  1
  C  C77  1  0.296939  0.182883  0.418338  1
  C  C78  1  0.385921  0.107770  0.311629  1
  C  C79  1  0.703061  0.817117  0.918338  1
  C  C80  1  0.614079  0.892230  0.811629  1
  C  C81  1  0.182883  0.296939  0.581662  1
  C  C82  1  0.596898  0.490394  0.549428  1
  C  C83  1  0.689232  0.006675  0.437496  1
  C  C84  1  0.506675  0.810768  0.187496  1
  C  C85  1  0.075135  0.783316  0.465217  1
  C  C86  1  0.096898  0.009606  0.200572  1
  C  C87  1  0.310768  0.993325  0.937496  1
  C  C88  1  0.969127  0.288048  0.010531  1
  C  C89  1  0.993325  0.310768  0.062504  1
  C  C90  1  0.575135  0.716684  0.284783  1
  C  C91  1  0.107770  0.385921  0.688371  1
  C  C92  1  0.216684  0.924865  0.034783  1
  C  C93  1  0.783316  0.075135  0.534783  1
  C  C94  1  0.114079  0.607770  0.938371  1
  C  C95  1  0.716684  0.575135  0.715217  1
  C  C96  1  0.009606  0.096898  0.799428  1
  C  C97  1  0.490394  0.596898  0.450572  1
  C  C98  1  0.810768  0.506675  0.812504  1
  C  C99  1  0.424865  0.283316  0.784783  1
  C  C100  1  0.317117  0.796939  0.668338  1
  C  C101  1  0.203061  0.682883  0.831662  1
  C  C102  1  0.885921  0.392230  0.438371  1
  C  C103  1  0.903102  0.990394  0.700572  1
  C  C104  1  0.469127  0.211952  0.739469  1
  C  C105  1  0.817117  0.703061  0.081662  1
  C  C106  1  0.403102  0.509606  0.049428  1
  C  C107  1  0.788048  0.530873  0.760531  1
  C  C108  1  0.509606  0.403102  0.950572  1
  C  C109  1  0.796939  0.317117  0.331662  1
  C  C110  1  0.283316  0.424865  0.215217  1
  C  C111  1  0.924865  0.216684  0.965217  1
  C  C112  1  0.682883  0.203061  0.168338  1
  C  C113  1  0.493325  0.189232  0.687496  1
  C  C114  1  0.530873  0.788048  0.239469  1
  C  C115  1  0.006675  0.689232  0.562504  1
  C  C116  1  0.392230  0.885921  0.561629  1
  C  C117  1  0.288048  0.969127  0.989469  1
  C  C118  1  0.189232  0.493325  0.312504  1
  C  C119  1  0.990394  0.903102  0.299428  1
  C  C120  1  0.030873  0.711952  0.510531  1
  C  C121  1  0.211952  0.469127  0.260531  1
  C  C122  1  0.607770  0.114079  0.061629  1
  C  C123  1  0.892230  0.614079  0.188371  1
