# generated using pymatgen
data_AlInI4
_symmetry_space_group_name_H-M   'P 1'
_cell_length_a   7.44597539
_cell_length_b   12.50958889
_cell_length_c   12.00429334
_cell_angle_alpha   90.00000000
_cell_angle_beta   90.00000000
_cell_angle_gamma   95.71853221
_symmetry_Int_Tables_number   1
_chemical_formula_structural   AlInI4
_chemical_formula_sum   'Al4 In4 I16'
_cell_volume   1112.58839152
_cell_formula_units_Z   4
loop_
 _symmetry_equiv_pos_site_id
 _symmetry_equiv_pos_as_xyz
  1  'x, y, z'
loop_
 _atom_site_type_symbol
 _atom_site_label
 _atom_site_symmetry_multiplicity
 _atom_site_fract_x
 _atom_site_fract_y
 _atom_site_fract_z
 _atom_site_occupancy
  Al  Al0  1  0.225131  0.445574  0.750000  1
  Al  Al1  1  0.774869  0.554426  0.250000  1
  Al  Al2  1  0.432633  0.975373  0.750000  1
  Al  Al3  1  0.567367  0.024627  0.250000  1
  In  In4  1  0.591396  0.290691  0.482063  1
  In  In5  1  0.408604  0.709309  0.517937  1
  In  In6  1  0.408604  0.709309  0.982063  1
  In  In7  1  0.591396  0.290691  0.017937  1
  I  I8  1  0.105150  0.632741  0.750000  1
  I  I9  1  0.235079  0.951386  0.924291  1
  I  I10  1  0.570565  0.486198  0.750000  1
  I  I11  1  0.876994  0.657686  0.426605  1
  I  I12  1  0.618958  0.159865  0.750000  1
  I  I13  1  0.653091  0.828035  0.750000  1
  I  I14  1  0.235079  0.951386  0.575709  1
  I  I15  1  0.764921  0.048614  0.075709  1
  I  I16  1  0.894850  0.367259  0.250000  1
  I  I17  1  0.123006  0.342314  0.573395  1
  I  I18  1  0.876994  0.657686  0.073395  1
  I  I19  1  0.429435  0.513802  0.250000  1
  I  I20  1  0.381042  0.840135  0.250000  1
  I  I21  1  0.123006  0.342314  0.926605  1
  I  I22  1  0.764921  0.048614  0.424291  1
  I  I23  1  0.346909  0.171965  0.250000  1
