# generated using pymatgen
data_BeAl6O10
_symmetry_space_group_name_H-M   'P 1'
_cell_length_a   9.00769882
_cell_length_b   9.64694901
_cell_length_c   13.95894282
_cell_angle_alpha   90.00000000
_cell_angle_beta   90.00000000
_cell_angle_gamma   90.02387117
_symmetry_Int_Tables_number   1
_chemical_formula_structural   BeAl6O10
_chemical_formula_sum   'Be8 Al48 O80'
_cell_volume   1212.98751426
_cell_formula_units_Z   8
loop_
 _symmetry_equiv_pos_site_id
 _symmetry_equiv_pos_as_xyz
  1  'x, y, z'
loop_
 _atom_site_type_symbol
 _atom_site_label
 _atom_site_symmetry_multiplicity
 _atom_site_fract_x
 _atom_site_fract_y
 _atom_site_fract_z
 _atom_site_occupancy
  Be  Be0  1  0.655951  0.127666  0.145397  1
  Be  Be1  1  0.844046  0.374394  0.644416  1
  Be  Be2  1  0.155954  0.125606  0.144416  1
  Be  Be3  1  0.155954  0.625606  0.355584  1
  Be  Be4  1  0.344049  0.872334  0.854603  1
  Be  Be5  1  0.344049  0.372334  0.645397  1
  Be  Be6  1  0.844046  0.874394  0.855584  1
  Be  Be7  1  0.655951  0.627666  0.354603  1
  Al  Al8  1  0.877305  0.455040  0.359476  1
  Al  Al9  1  0.365316  0.529957  0.460411  1
  Al  Al10  1  0.871017  0.220299  0.041164  1
  Al  Al11  1  0.634285  0.941481  0.542525  1
  Al  Al12  1  0.122695  0.544960  0.640524  1
  Al  Al13  1  0.877305  0.955040  0.140524  1
  Al  Al14  1  0.870170  0.705529  0.251634  1
  Al  Al15  1  0.646442  0.461141  0.155247  1
  Al  Al16  1  0.058616  0.958779  0.350569  1
  Al  Al17  1  0.129830  0.294471  0.748366  1
  Al  Al18  1  0.941384  0.541221  0.850569  1
  Al  Al19  1  0.556656  0.294699  0.351034  1
  Al  Al20  1  0.122695  0.044960  0.859476  1
  Al  Al21  1  0.859595  0.692710  0.041951  1
  Al  Al22  1  0.370333  0.545724  0.251699  1
  Al  Al23  1  0.623035  0.205129  0.640408  1
  Al  Al24  1  0.376965  0.294871  0.140408  1
  Al  Al25  1  0.365316  0.029957  0.039589  1
  Al  Al26  1  0.854454  0.209759  0.844264  1
  Al  Al27  1  0.145546  0.790241  0.155736  1
  Al  Al28  1  0.140405  0.807290  0.541951  1
  Al  Al29  1  0.353558  0.038859  0.655247  1
  Al  Al30  1  0.623035  0.705129  0.859592  1
  Al  Al31  1  0.129830  0.794471  0.751634  1
  Al  Al32  1  0.629667  0.454276  0.748301  1
  Al  Al33  1  0.859595  0.192710  0.458049  1
  Al  Al34  1  0.128983  0.279701  0.541164  1
  Al  Al35  1  0.871017  0.720299  0.458836  1
  Al  Al36  1  0.556656  0.794699  0.148966  1
  Al  Al37  1  0.941384  0.041221  0.649431  1
  Al  Al38  1  0.854454  0.709759  0.655736  1
  Al  Al39  1  0.634684  0.970043  0.960411  1
  Al  Al40  1  0.128983  0.779701  0.958836  1
  Al  Al41  1  0.443344  0.205301  0.851034  1
  Al  Al42  1  0.870170  0.205529  0.248366  1
  Al  Al43  1  0.370333  0.045724  0.248301  1
  Al  Al44  1  0.646442  0.961141  0.344753  1
  Al  Al45  1  0.140405  0.307290  0.958049  1
  Al  Al46  1  0.058616  0.458779  0.149431  1
  Al  Al47  1  0.629667  0.954276  0.751699  1
  Al  Al48  1  0.365715  0.558519  0.042525  1
  Al  Al49  1  0.376965  0.794871  0.359592  1
  Al  Al50  1  0.443344  0.705301  0.648966  1
  Al  Al51  1  0.353558  0.538859  0.844753  1
  Al  Al52  1  0.365715  0.058519  0.457475  1
  Al  Al53  1  0.145546  0.290241  0.344264  1
  Al  Al54  1  0.634285  0.441481  0.957475  1
  Al  Al55  1  0.634684  0.470043  0.539589  1
  O  O56  1  0.991926  0.137609  0.549847  1
  O  O57  1  0.746571  0.281350  0.151027  1
  O  O58  1  0.495529  0.383199  0.243207  1
  O  O59  1  0.480791  0.128535  0.148559  1
  O  O60  1  0.480791  0.628535  0.351441  1
  O  O61  1  0.746571  0.781350  0.348973  1
  O  O62  1  0.504471  0.116801  0.743207  1
  O  O63  1  0.244111  0.705688  0.262358  1
  O  O64  1  0.758384  0.789123  0.148804  1
  O  O65  1  0.248747  0.199394  0.053815  1
  O  O66  1  0.755023  0.028997  0.850091  1
  O  O67  1  0.741132  0.539167  0.052081  1
  O  O68  1  0.999587  0.148491  0.940761  1
  O  O69  1  0.258868  0.460833  0.947919  1
  O  O70  1  0.755023  0.528997  0.649909  1
  O  O71  1  0.991926  0.637609  0.950153  1
  O  O72  1  0.248672  0.946877  0.944060  1
  O  O73  1  0.991097  0.130660  0.344395  1
  O  O74  1  0.502643  0.395392  0.059411  1
  O  O75  1  0.980947  0.123312  0.146364  1
  O  O76  1  0.241616  0.710877  0.648804  1
  O  O77  1  0.008074  0.362391  0.049847  1
  O  O78  1  0.991097  0.630660  0.155605  1
  O  O79  1  0.751328  0.553123  0.444060  1
  O  O80  1  0.258868  0.960833  0.552081  1
  O  O81  1  0.244977  0.471003  0.350091  1
  O  O82  1  0.000413  0.351509  0.440761  1
  O  O83  1  0.999587  0.648491  0.559239  1
  O  O84  1  0.260210  0.960986  0.350112  1
  O  O85  1  0.739790  0.539014  0.850112  1
  O  O86  1  0.241616  0.210877  0.851196  1
  O  O87  1  0.739790  0.039014  0.649888  1
  O  O88  1  0.751253  0.800606  0.946185  1
  O  O89  1  0.519209  0.871465  0.851441  1
  O  O90  1  0.502643  0.895392  0.440589  1
  O  O91  1  0.497357  0.604608  0.940589  1
  O  O92  1  0.755138  0.790317  0.555782  1
  O  O93  1  0.495529  0.883199  0.256793  1
  O  O94  1  0.248672  0.446877  0.555940  1
  O  O95  1  0.506636  0.392027  0.450177  1
  O  O96  1  0.493364  0.607973  0.549823  1
  O  O97  1  0.253429  0.218650  0.651027  1
  O  O98  1  0.744653  0.545663  0.261796  1
  O  O99  1  0.508130  0.379387  0.846668  1
  O  O100  1  0.491870  0.620613  0.153332  1
  O  O101  1  0.008903  0.869340  0.655605  1
  O  O102  1  0.755889  0.794312  0.762358  1
  O  O103  1  0.744653  0.045663  0.238204  1
  O  O104  1  0.255347  0.454337  0.738204  1
  O  O105  1  0.508130  0.879387  0.653332  1
  O  O106  1  0.497357  0.104608  0.559411  1
  O  O107  1  0.519209  0.371465  0.648559  1
  O  O108  1  0.741132  0.039167  0.447919  1
  O  O109  1  0.755138  0.290317  0.944218  1
  O  O110  1  0.255347  0.954337  0.761796  1
  O  O111  1  0.244111  0.205688  0.237642  1
  O  O112  1  0.980947  0.623312  0.353636  1
  O  O113  1  0.491870  0.120613  0.346668  1
  O  O114  1  0.253429  0.718650  0.848973  1
  O  O115  1  0.248747  0.699394  0.446185  1
  O  O116  1  0.504471  0.616801  0.756793  1
  O  O117  1  0.244977  0.971003  0.149909  1
  O  O118  1  0.004601  0.631216  0.743236  1
  O  O119  1  0.755889  0.294312  0.737642  1
  O  O120  1  0.244862  0.709683  0.055782  1
  O  O121  1  0.995399  0.868784  0.243236  1
  O  O122  1  0.244862  0.209683  0.444218  1
  O  O123  1  0.506636  0.892027  0.049823  1
  O  O124  1  0.995399  0.368784  0.256764  1
  O  O125  1  0.008074  0.862391  0.450153  1
  O  O126  1  0.008903  0.369340  0.844395  1
  O  O127  1  0.000413  0.851509  0.059239  1
  O  O128  1  0.493364  0.107973  0.950177  1
  O  O129  1  0.019053  0.376688  0.646364  1
  O  O130  1  0.260210  0.460986  0.149888  1
  O  O131  1  0.004601  0.131216  0.756764  1
  O  O132  1  0.751328  0.053123  0.055940  1
  O  O133  1  0.758384  0.289123  0.351196  1
  O  O134  1  0.019053  0.876688  0.853636  1
  O  O135  1  0.751253  0.300606  0.553815  1
