# generated using pymatgen
data_SrTb2Fe2O7
_symmetry_space_group_name_H-M   'P 1'
_cell_length_a   5.59217610
_cell_length_b   5.59217610
_cell_length_c   19.60833837
_cell_angle_alpha   90.00000000
_cell_angle_beta   90.00000000
_cell_angle_gamma   90.00000000
_symmetry_Int_Tables_number   1
_chemical_formula_structural   SrTb2Fe2O7
_chemical_formula_sum   'Sr4 Tb8 Fe8 O28'
_cell_volume   613.20045838
_cell_formula_units_Z   4
loop_
 _symmetry_equiv_pos_site_id
 _symmetry_equiv_pos_as_xyz
  1  'x, y, z'
loop_
 _atom_site_type_symbol
 _atom_site_label
 _atom_site_symmetry_multiplicity
 _atom_site_fract_x
 _atom_site_fract_y
 _atom_site_fract_z
 _atom_site_occupancy
  Tb  Tb0  1  0.277153  0.277153  0.183432  1
  Tb  Tb1  1  0.222847  0.777153  0.683432  1
  Tb  Tb2  1  0.777153  0.222847  0.683432  1
  Tb  Tb3  1  0.777153  0.222847  0.316568  1
  Tb  Tb4  1  0.222847  0.777153  0.316568  1
  Tb  Tb5  1  0.722847  0.722847  0.183432  1
  Tb  Tb6  1  0.277153  0.277153  0.816568  1
  Tb  Tb7  1  0.722847  0.722847  0.816568  1
  Sr  Sr8  1  0.259346  0.259346  0.000000  1
  Sr  Sr9  1  0.240654  0.759346  0.500000  1
  Sr  Sr10  1  0.759346  0.240654  0.500000  1
  Sr  Sr11  1  0.740654  0.740654  0.000000  1
  Fe  Fe12  1  0.258302  0.258302  0.399130  1
  Fe  Fe13  1  0.241698  0.758302  0.899130  1
  Fe  Fe14  1  0.758302  0.241698  0.899130  1
  Fe  Fe15  1  0.758302  0.241698  0.100870  1
  Fe  Fe16  1  0.241698  0.758302  0.100870  1
  Fe  Fe17  1  0.741698  0.741698  0.399130  1
  Fe  Fe18  1  0.258302  0.258302  0.600870  1
  Fe  Fe19  1  0.741698  0.741698  0.600870  1
  O  O20  1  0.704898  0.704898  0.500000  1
  O  O21  1  0.795102  0.204898  0.000000  1
  O  O22  1  0.204898  0.795102  0.000000  1
  O  O23  1  0.295102  0.295102  0.500000  1
  O  O24  1  0.185610  0.185610  0.289630  1
  O  O25  1  0.314390  0.685610  0.789630  1
  O  O26  1  0.685610  0.314390  0.789630  1
  O  O27  1  0.685610  0.314390  0.210370  1
  O  O28  1  0.314390  0.685610  0.210370  1
  O  O29  1  0.814390  0.814390  0.289630  1
  O  O30  1  0.185610  0.185610  0.710370  1
  O  O31  1  0.814390  0.814390  0.710370  1
  O  O32  1  0.000000  0.500000  0.112489  1
  O  O33  1  0.000000  0.500000  0.612489  1
  O  O34  1  0.500000  0.000000  0.387511  1
  O  O35  1  0.500000  0.000000  0.887511  1
  O  O36  1  0.000000  0.500000  0.887511  1
  O  O37  1  0.000000  0.500000  0.387511  1
  O  O38  1  0.500000  0.000000  0.612489  1
  O  O39  1  0.500000  0.000000  0.112489  1
  O  O40  1  0.000000  0.000000  0.131084  1
  O  O41  1  0.500000  0.500000  0.631085  1
  O  O42  1  0.500000  0.500000  0.368916  1
  O  O43  1  0.000000  0.000000  0.868915  1
  O  O44  1  0.000000  0.000000  0.409762  1
  O  O45  1  0.500000  0.500000  0.909762  1
  O  O46  1  0.500000  0.500000  0.090238  1
  O  O47  1  0.000000  0.000000  0.590238  1
