# generated using pymatgen
data_Zn3Fe2(CN)12
_symmetry_space_group_name_H-M   'P 1'
_cell_length_a   13.04970113
_cell_length_b   13.04970135
_cell_length_c   13.04970153
_cell_angle_alpha   58.32390555
_cell_angle_beta   58.32390497
_cell_angle_gamma   58.32390440
_symmetry_Int_Tables_number   1
_chemical_formula_structural   Zn3Fe2(CN)12
_chemical_formula_sum   'Zn6 Fe4 C24 N24'
_cell_volume   1511.08994533
_cell_formula_units_Z   2
loop_
 _symmetry_equiv_pos_site_id
 _symmetry_equiv_pos_as_xyz
  1  'x, y, z'
loop_
 _atom_site_type_symbol
 _atom_site_label
 _atom_site_symmetry_multiplicity
 _atom_site_fract_x
 _atom_site_fract_y
 _atom_site_fract_z
 _atom_site_occupancy
  Zn  Zn0  1  0.750000  0.460677  0.039323  1
  Zn  Zn1  1  0.539323  0.960677  0.250000  1
  Zn  Zn2  1  0.039323  0.750000  0.460677  1
  Zn  Zn3  1  0.460677  0.039323  0.750000  1
  Zn  Zn4  1  0.960677  0.250000  0.539323  1
  Zn  Zn5  1  0.250000  0.539323  0.960677  1
  Fe  Fe6  1  0.145858  0.145858  0.145858  1
  Fe  Fe7  1  0.854142  0.854142  0.854142  1
  Fe  Fe8  1  0.354142  0.354142  0.354142  1
  Fe  Fe9  1  0.645858  0.645858  0.645858  1
  C  C10  1  0.294279  0.051561  0.194635  1
  C  C11  1  0.003297  0.751464  0.901417  1
  C  C12  1  0.694635  0.551561  0.794279  1
  C  C13  1  0.051561  0.194635  0.294279  1
  C  C14  1  0.748536  0.496703  0.598583  1
  C  C15  1  0.551561  0.794279  0.694635  1
  C  C16  1  0.805365  0.705721  0.948439  1
  C  C17  1  0.098583  0.996703  0.248536  1
  C  C18  1  0.996703  0.248536  0.098583  1
  C  C19  1  0.194635  0.294279  0.051561  1
  C  C20  1  0.901417  0.003297  0.751464  1
  C  C21  1  0.948439  0.805365  0.705721  1
  C  C22  1  0.503297  0.401417  0.251464  1
  C  C23  1  0.448439  0.205721  0.305365  1
  C  C24  1  0.251464  0.503297  0.401417  1
  C  C25  1  0.751464  0.901417  0.003297  1
  C  C26  1  0.305365  0.448439  0.205721  1
  C  C27  1  0.598583  0.748536  0.496703  1
  C  C28  1  0.705721  0.948439  0.805365  1
  C  C29  1  0.401417  0.251464  0.503297  1
  C  C30  1  0.248536  0.098583  0.996703  1
  C  C31  1  0.205721  0.305365  0.448439  1
  C  C32  1  0.496703  0.598583  0.748536  1
  C  C33  1  0.794279  0.694635  0.551561  1
  N  N34  1  0.095686  0.683843  0.929174  1
  N  N35  1  0.000968  0.775319  0.615353  1
  N  N36  1  0.404314  0.570826  0.816157  1
  N  N37  1  0.115353  0.275319  0.500968  1
  N  N38  1  0.884647  0.724681  0.499032  1
  N  N39  1  0.904314  0.316157  0.070826  1
  N  N40  1  0.929174  0.095686  0.683843  1
  N  N41  1  0.816157  0.404314  0.570826  1
  N  N42  1  0.384647  0.999032  0.224681  1
  N  N43  1  0.275319  0.500968  0.115353  1
  N  N44  1  0.595686  0.429174  0.183843  1
  N  N45  1  0.683843  0.929174  0.095686  1
  N  N46  1  0.500968  0.115353  0.275319  1
  N  N47  1  0.615353  0.000968  0.775319  1
  N  N48  1  0.724681  0.499032  0.884647  1
  N  N49  1  0.316157  0.070826  0.904314  1
  N  N50  1  0.224681  0.384647  0.999032  1
  N  N51  1  0.999032  0.224681  0.384647  1
  N  N52  1  0.499032  0.884647  0.724681  1
  N  N53  1  0.570826  0.816157  0.404314  1
  N  N54  1  0.775319  0.615353  0.000968  1
  N  N55  1  0.183843  0.595686  0.429174  1
  N  N56  1  0.070826  0.904314  0.316157  1
  N  N57  1  0.429174  0.183843  0.595686  1
