# generated using pymatgen
data_Yb(PO3)3
_symmetry_space_group_name_H-M   'P 1'
_cell_length_a   13.18992979
_cell_length_b   13.18992999
_cell_length_c   13.18992965
_cell_angle_alpha   110.49006724
_cell_angle_beta   110.49006756
_cell_angle_gamma   110.49006816
_symmetry_Int_Tables_number   1
_chemical_formula_structural   Yb(PO3)3
_chemical_formula_sum   'Yb8 P24 O72'
_cell_volume   1696.56760309
_cell_formula_units_Z   8
loop_
 _symmetry_equiv_pos_site_id
 _symmetry_equiv_pos_as_xyz
  1  'x, y, z'
loop_
 _atom_site_type_symbol
 _atom_site_label
 _atom_site_symmetry_multiplicity
 _atom_site_fract_x
 _atom_site_fract_y
 _atom_site_fract_z
 _atom_site_occupancy
  Yb  Yb0  1  0.019296  0.538000  0.731639  1
  Yb  Yb1  1  0.980704  0.462000  0.268361  1
  Yb  Yb2  1  0.731639  0.019296  0.538000  1
  Yb  Yb3  1  0.268361  0.980704  0.462000  1
  Yb  Yb4  1  0.500000  0.500000  0.500000  1
  Yb  Yb5  1  0.000000  0.000000  0.000000  1
  Yb  Yb6  1  0.462000  0.268361  0.980704  1
  Yb  Yb7  1  0.538000  0.731639  0.019296  1
  P  P8  1  0.700131  0.982290  0.799476  1
  P  P9  1  0.481254  0.735548  0.730318  1
  P  P10  1  0.264452  0.269682  0.518746  1
  P  P11  1  0.288217  0.767785  0.071864  1
  P  P12  1  0.730318  0.481254  0.735548  1
  P  P13  1  0.376975  0.789453  0.326643  1
  P  P14  1  0.071864  0.288217  0.767785  1
  P  P15  1  0.232215  0.928136  0.711783  1
  P  P16  1  0.200524  0.299869  0.017710  1
  P  P17  1  0.789453  0.326643  0.376975  1
  P  P18  1  0.017710  0.200524  0.299869  1
  P  P19  1  0.982290  0.799476  0.700131  1
  P  P20  1  0.518746  0.264452  0.269682  1
  P  P21  1  0.767785  0.071864  0.288217  1
  P  P22  1  0.326643  0.376975  0.789453  1
  P  P23  1  0.799476  0.700131  0.982290  1
  P  P24  1  0.299869  0.017710  0.200524  1
  P  P25  1  0.623025  0.210547  0.673357  1
  P  P26  1  0.210547  0.673357  0.623025  1
  P  P27  1  0.673357  0.623025  0.210547  1
  P  P28  1  0.711783  0.232215  0.928136  1
  P  P29  1  0.928136  0.711783  0.232215  1
  P  P30  1  0.269682  0.518746  0.264452  1
  P  P31  1  0.735548  0.730318  0.481254  1
  O  O32  1  0.000819  0.698042  0.713002  1
  O  O33  1  0.698042  0.713002  0.000819  1
  O  O34  1  0.319676  0.910707  0.118734  1
  O  O35  1  0.402136  0.319253  0.826540  1
  O  O36  1  0.319253  0.826540  0.402136  1
  O  O37  1  0.181137  0.280387  0.744118  1
  O  O38  1  0.719613  0.255882  0.818863  1
  O  O39  1  0.935616  0.602104  0.234948  1
  O  O40  1  0.602104  0.234948  0.935616  1
  O  O41  1  0.324786  0.049106  0.842516  1
  O  O42  1  0.842516  0.324786  0.049106  1
  O  O43  1  0.729409  0.558763  0.859901  1
  O  O44  1  0.486845  0.112508  0.620783  1
  O  O45  1  0.049106  0.842516  0.324786  1
  O  O46  1  0.173460  0.597864  0.680747  1
  O  O47  1  0.680747  0.173460  0.597864  1
  O  O48  1  0.112508  0.620783  0.486845  1
  O  O49  1  0.286998  0.999181  0.301958  1
  O  O50  1  0.680324  0.089293  0.881266  1
  O  O51  1  0.140099  0.270591  0.441237  1
  O  O52  1  0.636286  0.672085  0.508064  1
  O  O53  1  0.109845  0.197623  0.022747  1
  O  O54  1  0.228073  0.141082  0.501287  1
  O  O55  1  0.498713  0.771927  0.858918  1
  O  O56  1  0.672085  0.508064  0.636286  1
  O  O57  1  0.999181  0.301958  0.286998  1
  O  O58  1  0.977253  0.890155  0.802377  1
  O  O59  1  0.858918  0.498713  0.771927  1
  O  O60  1  0.765052  0.064384  0.397896  1
  O  O61  1  0.859901  0.729409  0.558763  1
  O  O62  1  0.826540  0.402136  0.319253  1
  O  O63  1  0.626994  0.338420  0.690433  1
  O  O64  1  0.508064  0.636286  0.672085  1
  O  O65  1  0.197623  0.022747  0.109845  1
  O  O66  1  0.089293  0.881266  0.680324  1
  O  O67  1  0.744118  0.181137  0.280387  1
  O  O68  1  0.513155  0.887492  0.379217  1
  O  O69  1  0.950894  0.157484  0.675214  1
  O  O70  1  0.441237  0.140099  0.270591  1
  O  O71  1  0.818863  0.719613  0.255882  1
  O  O72  1  0.301958  0.286998  0.999181  1
  O  O73  1  0.675214  0.950894  0.157484  1
  O  O74  1  0.661580  0.309567  0.373006  1
  O  O75  1  0.064384  0.397896  0.765052  1
  O  O76  1  0.022747  0.109845  0.197623  1
  O  O77  1  0.118734  0.319676  0.910707  1
  O  O78  1  0.690433  0.626994  0.338420  1
  O  O79  1  0.280387  0.744118  0.181137  1
  O  O80  1  0.397896  0.765052  0.064384  1
  O  O81  1  0.771927  0.858918  0.498713  1
  O  O82  1  0.373006  0.661580  0.309567  1
  O  O83  1  0.887492  0.379217  0.513155  1
  O  O84  1  0.910707  0.118734  0.319676  1
  O  O85  1  0.881266  0.680324  0.089293  1
  O  O86  1  0.890155  0.802377  0.977253  1
  O  O87  1  0.558763  0.859901  0.729409  1
  O  O88  1  0.270591  0.441237  0.140099  1
  O  O89  1  0.141082  0.501287  0.228073  1
  O  O90  1  0.379217  0.513155  0.887492  1
  O  O91  1  0.597864  0.680747  0.173460  1
  O  O92  1  0.501287  0.228073  0.141082  1
  O  O93  1  0.802377  0.977253  0.890155  1
  O  O94  1  0.363714  0.327915  0.491936  1
  O  O95  1  0.713002  0.000819  0.698042  1
  O  O96  1  0.234948  0.935616  0.602104  1
  O  O97  1  0.620783  0.486845  0.112508  1
  O  O98  1  0.157484  0.675214  0.950894  1
  O  O99  1  0.255882  0.818863  0.719613  1
  O  O100  1  0.491936  0.363714  0.327915  1
  O  O101  1  0.327915  0.491936  0.363714  1
  O  O102  1  0.338420  0.690433  0.626994  1
  O  O103  1  0.309567  0.373006  0.661580  1
