# generated using pymatgen
data_TaO2
_symmetry_space_group_name_H-M   'P 1'
_cell_length_a   6.02406998
_cell_length_b   10.22961609
_cell_length_c   10.22961610
_cell_angle_alpha   85.02641506
_cell_angle_beta   72.87588241
_cell_angle_gamma   72.87588242
_symmetry_Int_Tables_number   1
_chemical_formula_structural   TaO2
_chemical_formula_sum   'Ta16 O32'
_cell_volume   575.73657686
_cell_formula_units_Z   16
loop_
 _symmetry_equiv_pos_site_id
 _symmetry_equiv_pos_as_xyz
  1  'x, y, z'
loop_
 _atom_site_type_symbol
 _atom_site_label
 _atom_site_symmetry_multiplicity
 _atom_site_fract_x
 _atom_site_fract_y
 _atom_site_fract_z
 _atom_site_occupancy
  O  O0  1  0.756014  0.362127  0.113215  1
  O  O1  1  0.869230  0.386785  0.362127  1
  O  O2  1  0.618142  0.113215  0.137873  1
  O  O3  1  0.231357  0.137873  0.386785  1
  O  O4  1  0.243986  0.637873  0.886785  1
  O  O5  1  0.130770  0.613215  0.637873  1
  O  O6  1  0.381858  0.886785  0.862127  1
  O  O7  1  0.768643  0.862127  0.613215  1
  O  O8  1  0.275010  0.350989  0.100507  1
  O  O9  1  0.375518  0.399493  0.350989  1
  O  O10  1  0.125999  0.100507  0.149011  1
  O  O11  1  0.726506  0.149011  0.399493  1
  O  O12  1  0.724990  0.649011  0.899493  1
  O  O13  1  0.624482  0.600507  0.649011  1
  O  O14  1  0.874001  0.899493  0.850989  1
  O  O15  1  0.273494  0.850989  0.600507  1
  O  O16  1  0.971810  0.139413  0.886161  1
  O  O17  1  0.857971  0.613839  0.139413  1
  O  O18  1  0.611223  0.886161  0.360587  1
  O  O19  1  0.997384  0.360587  0.613839  1
  O  O20  1  0.028190  0.860587  0.113839  1
  O  O21  1  0.142029  0.386161  0.860587  1
  O  O22  1  0.388777  0.113839  0.639413  1
  O  O23  1  0.002616  0.639413  0.386161  1
  O  O24  1  0.478581  0.150853  0.903614  1
  O  O25  1  0.382195  0.596386  0.150853  1
  O  O26  1  0.129434  0.903614  0.349147  1
  O  O27  1  0.533048  0.349147  0.596386  1
  O  O28  1  0.521419  0.849147  0.096386  1
  O  O29  1  0.617805  0.403614  0.849147  1
  O  O30  1  0.870566  0.096386  0.650853  1
  O  O31  1  0.466952  0.650853  0.403614  1
  Ta  Ta32  1  0.106328  0.492806  0.242443  1
  Ta  Ta33  1  0.348771  0.257557  0.492806  1
  Ta  Ta34  1  0.099135  0.242443  0.007194  1
  Ta  Ta35  1  0.841578  0.007194  0.257557  1
  Ta  Ta36  1  0.893672  0.507194  0.757557  1
  Ta  Ta37  1  0.651229  0.742443  0.507194  1
  Ta  Ta38  1  0.900865  0.757557  0.992806  1
  Ta  Ta39  1  0.158422  0.992806  0.742443  1
  Ta  Ta40  1  0.639752  0.508871  0.261925  1
  Ta  Ta41  1  0.901678  0.238075  0.508871  1
  Ta  Ta42  1  0.648624  0.261925  0.991129  1
  Ta  Ta43  1  0.410549  0.991129  0.238075  1
  Ta  Ta44  1  0.360248  0.491129  0.738075  1
  Ta  Ta45  1  0.098322  0.761925  0.491129  1
  Ta  Ta46  1  0.351376  0.738075  0.008871  1
  Ta  Ta47  1  0.589451  0.008871  0.761925  1
