# generated using pymatgen
data_KSO4
_symmetry_space_group_name_H-M   'P 1'
_cell_length_a   5.58007720
_cell_length_b   5.10300374
_cell_length_c   7.60958308
_cell_angle_alpha   109.35646741
_cell_angle_beta   103.63847193
_cell_angle_gamma   87.70350733
_symmetry_Int_Tables_number   1
_chemical_formula_structural   KSO4
_chemical_formula_sum   'K2 S2 O8'
_cell_volume   198.49999238
_cell_formula_units_Z   2
loop_
 _symmetry_equiv_pos_site_id
 _symmetry_equiv_pos_as_xyz
  1  'x, y, z'
loop_
 _atom_site_type_symbol
 _atom_site_label
 _atom_site_symmetry_multiplicity
 _atom_site_fract_x
 _atom_site_fract_y
 _atom_site_fract_z
 _atom_site_occupancy
  K  K0  1  0.191334  0.427468  0.759669  1
  S  S1  1  0.283459  0.019079  0.229445  1
  O  O2  1  0.851697  0.841555  0.625418  1
  K  K3  1  0.808638  0.572529  0.240323  1
  O  O4  1  0.873928  0.927356  0.972894  1
  O  O5  1  0.148318  0.158447  0.374583  1
  O  O6  1  0.517616  0.148874  0.245714  1
  O  O7  1  0.482382  0.851115  0.754282  1
  O  O8  1  0.716987  0.283231  0.817765  1
  S  S9  1  0.716551  0.980936  0.770563  1
  O  O10  1  0.283015  0.716765  0.182236  1
  O  O11  1  0.126075  0.072646  0.027109  1
