# generated using pymatgen
data_RbTa(GeO3)3
_symmetry_space_group_name_H-M   'P 1'
_cell_length_a   7.16004613
_cell_length_b   7.16004625
_cell_length_c   10.27798071
_cell_angle_alpha   90.00000000
_cell_angle_beta   90.00000000
_cell_angle_gamma   119.99999941
_symmetry_Int_Tables_number   1
_chemical_formula_structural   RbTa(GeO3)3
_chemical_formula_sum   'Rb2 Ta2 Ge6 O18'
_cell_volume   456.32060579
_cell_formula_units_Z   2
loop_
 _symmetry_equiv_pos_site_id
 _symmetry_equiv_pos_as_xyz
  1  'x, y, z'
loop_
 _atom_site_type_symbol
 _atom_site_label
 _atom_site_symmetry_multiplicity
 _atom_site_fract_x
 _atom_site_fract_y
 _atom_site_fract_z
 _atom_site_occupancy
  Rb  Rb0  1  0.666667  0.333333  0.000000  1
  Rb  Rb1  1  0.666667  0.333333  0.500000  1
  Ta  Ta2  1  0.333333  0.666667  0.000000  1
  Ta  Ta3  1  0.333333  0.666667  0.500000  1
  Ge  Ge4  1  0.076683  0.288654  0.250000  1
  Ge  Ge5  1  0.211971  0.923317  0.250000  1
  Ge  Ge6  1  0.711346  0.788029  0.250000  1
  Ge  Ge7  1  0.711346  0.923317  0.750000  1
  Ge  Ge8  1  0.211971  0.288654  0.750000  1
  Ge  Ge9  1  0.076683  0.788029  0.750000  1
  O  O10  1  0.264522  0.194544  0.250000  1
  O  O11  1  0.930022  0.735479  0.250000  1
  O  O12  1  0.805456  0.069978  0.250000  1
  O  O13  1  0.805456  0.735479  0.750000  1
  O  O14  1  0.930022  0.194544  0.750000  1
  O  O15  1  0.264522  0.069978  0.750000  1
  O  O16  1  0.102967  0.439317  0.110243  1
  O  O17  1  0.336350  0.897033  0.389757  1
  O  O18  1  0.560683  0.663650  0.389757  1
  O  O19  1  0.560683  0.663650  0.110243  1
  O  O20  1  0.336350  0.897033  0.110243  1
  O  O21  1  0.560683  0.897033  0.889757  1
  O  O22  1  0.336350  0.439317  0.889757  1
  O  O23  1  0.102967  0.663650  0.889757  1
  O  O24  1  0.336350  0.439317  0.610243  1
  O  O25  1  0.102967  0.663650  0.610243  1
  O  O26  1  0.102967  0.439317  0.389757  1
  O  O27  1  0.560683  0.897033  0.610243  1
