# generated using pymatgen
data_Cu3NiH6(ClO3)2
_symmetry_space_group_name_H-M   'P 1'
_cell_length_a   6.06900642
_cell_length_b   6.06900683
_cell_length_c   6.06900694
_cell_angle_alpha   70.50648306
_cell_angle_beta   70.50648144
_cell_angle_gamma   70.50648028
_symmetry_Int_Tables_number   1
_chemical_formula_structural   Cu3NiH6(ClO3)2
_chemical_formula_sum   'Cu3 Ni1 H6 Cl2 O6'
_cell_volume   192.32798541
_cell_formula_units_Z   1
loop_
 _symmetry_equiv_pos_site_id
 _symmetry_equiv_pos_as_xyz
  1  'x, y, z'
loop_
 _atom_site_type_symbol
 _atom_site_label
 _atom_site_symmetry_multiplicity
 _atom_site_fract_x
 _atom_site_fract_y
 _atom_site_fract_z
 _atom_site_occupancy
  Cu  Cu0  1  0.500000  0.500000  0.000000  1
  Cu  Cu1  1  0.500000  0.000000  0.500000  1
  Cu  Cu2  1  0.000000  0.500000  0.500000  1
  Ni  Ni3  1  0.500000  0.500000  0.500000  1
  H  H4  1  0.179274  0.775454  0.775454  1
  H  H5  1  0.775454  0.775454  0.179274  1
  H  H6  1  0.224546  0.224546  0.820726  1
  H  H7  1  0.820726  0.224546  0.224546  1
  H  H8  1  0.775454  0.179274  0.775454  1
  H  H9  1  0.224546  0.820726  0.224546  1
  Cl  Cl10  1  0.821261  0.821261  0.821261  1
  Cl  Cl11  1  0.178739  0.178739  0.178739  1
  O  O12  1  0.269068  0.269068  0.640708  1
  O  O13  1  0.269068  0.640708  0.269068  1
  O  O14  1  0.359292  0.730932  0.730932  1
  O  O15  1  0.730932  0.359292  0.730932  1
  O  O16  1  0.730932  0.730932  0.359292  1
  O  O17  1  0.640708  0.269068  0.269068  1
