# generated using pymatgen
data_LiAlSiO4
_symmetry_space_group_name_H-M   'P 1'
_cell_length_a   5.35651795
_cell_length_b   5.35651806
_cell_length_c   11.10301038
_cell_angle_alpha   90.00000000
_cell_angle_beta   90.00000000
_cell_angle_gamma   119.99999926
_symmetry_Int_Tables_number   1
_chemical_formula_structural   LiAlSiO4
_chemical_formula_sum   'Li3 Al3 Si3 O12'
_cell_volume   275.89035553
_cell_formula_units_Z   3
loop_
 _symmetry_equiv_pos_site_id
 _symmetry_equiv_pos_as_xyz
  1  'x, y, z'
loop_
 _atom_site_type_symbol
 _atom_site_label
 _atom_site_symmetry_multiplicity
 _atom_site_fract_x
 _atom_site_fract_y
 _atom_site_fract_z
 _atom_site_occupancy
  Li  Li0  1  0.000000  0.000000  0.833333  1
  Li  Li1  1  0.000000  0.000000  0.166667  1
  Li  Li2  1  0.000000  0.000000  0.500000  1
  Al  Al3  1  0.500000  0.500000  0.833333  1
  Al  Al4  1  0.000000  0.500000  0.166667  1
  Al  Al5  1  0.500000  0.000000  0.500000  1
  Si  Si6  1  0.000000  0.500000  0.666667  1
  Si  Si7  1  0.500000  0.000000  0.000000  1
  Si  Si8  1  0.500000  0.500000  0.333333  1
  O  O9  1  0.785582  0.185676  0.084487  1
  O  O10  1  0.599906  0.785582  0.417821  1
  O  O11  1  0.185676  0.785582  0.582179  1
  O  O12  1  0.400094  0.214418  0.417821  1
  O  O13  1  0.785582  0.599906  0.248846  1
  O  O14  1  0.814324  0.599906  0.751154  1
  O  O15  1  0.185676  0.400094  0.751154  1
  O  O16  1  0.400094  0.185676  0.915513  1
  O  O17  1  0.214418  0.400094  0.248846  1
  O  O18  1  0.214418  0.814324  0.084487  1
  O  O19  1  0.814324  0.214418  0.582179  1
  O  O20  1  0.599906  0.814324  0.915513  1
