# generated using pymatgen
data_Co2P2H4O9
_symmetry_space_group_name_H-M   'P 1'
_cell_length_a   6.40931935
_cell_length_b   7.42513962
_cell_length_c   14.19529624
_cell_angle_alpha   90.00000000
_cell_angle_beta   90.00000000
_cell_angle_gamma   95.71919407
_symmetry_Int_Tables_number   1
_chemical_formula_structural   Co2P2H4O9
_chemical_formula_sum   'Co8 P8 H16 O36'
_cell_volume   672.19268909
_cell_formula_units_Z   4
loop_
 _symmetry_equiv_pos_site_id
 _symmetry_equiv_pos_as_xyz
  1  'x, y, z'
loop_
 _atom_site_type_symbol
 _atom_site_label
 _atom_site_symmetry_multiplicity
 _atom_site_fract_x
 _atom_site_fract_y
 _atom_site_fract_z
 _atom_site_occupancy
  Co  Co0  1  0.765656  0.581727  0.610920  1
  Co  Co1  1  0.734344  0.918273  0.110920  1
  Co  Co2  1  0.234344  0.418273  0.389080  1
  Co  Co3  1  0.265656  0.081727  0.889080  1
  Co  Co4  1  0.551894  0.849102  0.751772  1
  Co  Co5  1  0.948106  0.650898  0.251772  1
  Co  Co6  1  0.448106  0.150898  0.248228  1
  Co  Co7  1  0.051894  0.349102  0.748228  1
  P  P8  1  0.761269  0.149972  0.915281  1
  P  P9  1  0.738731  0.350028  0.415281  1
  P  P10  1  0.238731  0.850028  0.084719  1
  P  P11  1  0.261269  0.649972  0.584719  1
  P  P12  1  0.567209  0.426753  0.812675  1
  P  P13  1  0.932791  0.073247  0.312675  1
  P  P14  1  0.432791  0.573247  0.187325  1
  P  P15  1  0.067209  0.926753  0.687325  1
  O  O16  1  0.806468  0.129444  0.019624  1
  O  O17  1  0.693532  0.370556  0.519624  1
  O  O18  1  0.193532  0.870556  0.980376  1
  O  O19  1  0.306468  0.629444  0.480376  1
  O  O20  1  0.963285  0.157580  0.856227  1
  O  O21  1  0.536715  0.342420  0.356227  1
  O  O22  1  0.036715  0.842420  0.143773  1
  O  O23  1  0.463285  0.657580  0.643773  1
  O  O24  1  0.584119  0.016460  0.874374  1
  O  O25  1  0.915881  0.483540  0.374374  1
  O  O26  1  0.415881  0.983540  0.125626  1
  O  O27  1  0.084119  0.516460  0.625626  1
  O  O28  1  0.541929  0.622755  0.838629  1
  O  O29  1  0.958071  0.877245  0.338629  1
  O  O30  1  0.458070  0.377245  0.161371  1
  O  O31  1  0.041930  0.122755  0.661371  1
  O  O32  1  0.358838  0.307375  0.797273  1
  O  O33  1  0.141162  0.192625  0.297273  1
  O  O34  1  0.641162  0.692625  0.202727  1
  O  O35  1  0.858838  0.807375  0.702727  1
  O  O36  1  0.719982  0.399935  0.729581  1
  O  O37  1  0.780018  0.100065  0.229581  1
  O  O38  1  0.280017  0.600065  0.270419  1
  O  O39  1  0.219982  0.899935  0.770419  1
  O  O40  1  0.674375  0.348115  0.905763  1
  O  O41  1  0.825625  0.151885  0.405763  1
  O  O42  1  0.325625  0.651885  0.094237  1
  O  O43  1  0.174375  0.848115  0.594237  1
  O  O44  1  0.747236  0.722537  0.002568  1
  O  O45  1  0.752764  0.777463  0.502568  1
  O  O46  1  0.252764  0.277463  0.997432  1
  O  O47  1  0.247236  0.222537  0.497432  1
  O  O48  1  0.073158  0.564587  0.844493  1
  O  O49  1  0.426842  0.935413  0.344493  1
  O  O50  1  0.926842  0.435413  0.155507  1
  O  O51  1  0.573158  0.064587  0.655507  1
  H  H52  1  0.652448  0.696758  0.947715  1
  H  H53  1  0.847552  0.803242  0.447715  1
  H  H54  1  0.347552  0.303242  0.052285  1
  H  H55  1  0.152448  0.196758  0.552285  1
  H  H56  1  0.889485  0.738550  0.975999  1
  H  H57  1  0.610515  0.761450  0.475999  1
  H  H58  1  0.110515  0.261450  0.024001  1
  H  H59  1  0.389485  0.238550  0.524001  1
  H  H60  1  0.115797  0.687732  0.819466  1
  H  H61  1  0.384203  0.812268  0.319466  1
  H  H62  1  0.884203  0.312268  0.180534  1
  H  H63  1  0.615797  0.187732  0.680534  1
  H  H64  1  0.180616  0.544626  0.891242  1
  H  H65  1  0.319384  0.955374  0.391242  1
  H  H66  1  0.819384  0.455374  0.108758  1
  H  H67  1  0.680616  0.044626  0.608758  1
