# generated using pymatgen
data_RbNb3VCl11
_symmetry_space_group_name_H-M   'P 1'
_cell_length_a   6.89598033
_cell_length_b   13.65287502
_cell_length_c   17.24663213
_cell_angle_alpha   90.00000000
_cell_angle_beta   90.00000000
_cell_angle_gamma   90.00000000
_symmetry_Int_Tables_number   1
_chemical_formula_structural   RbNb3VCl11
_chemical_formula_sum   'Rb4 Nb12 V4 Cl44'
_cell_volume   1623.76968354
_cell_formula_units_Z   4
loop_
 _symmetry_equiv_pos_site_id
 _symmetry_equiv_pos_as_xyz
  1  'x, y, z'
loop_
 _atom_site_type_symbol
 _atom_site_label
 _atom_site_symmetry_multiplicity
 _atom_site_fract_x
 _atom_site_fract_y
 _atom_site_fract_z
 _atom_site_occupancy
  Rb  Rb0  1  0.250000  0.006840  0.238705  1
  Rb  Rb1  1  0.750000  0.993160  0.761295  1
  Rb  Rb2  1  0.750000  0.493160  0.738705  1
  Rb  Rb3  1  0.250000  0.506840  0.261295  1
  Nb  Nb4  1  0.750000  0.690491  0.146795  1
  Nb  Nb5  1  0.455902  0.752623  0.512660  1
  Nb  Nb6  1  0.250000  0.809509  0.646795  1
  Nb  Nb7  1  0.955902  0.247377  0.487340  1
  Nb  Nb8  1  0.544098  0.247377  0.487340  1
  Nb  Nb9  1  0.044098  0.252623  0.987340  1
  Nb  Nb10  1  0.750000  0.190491  0.353205  1
  Nb  Nb11  1  0.455902  0.252623  0.987340  1
  Nb  Nb12  1  0.044098  0.752623  0.512660  1
  Nb  Nb13  1  0.250000  0.309509  0.853205  1
  Nb  Nb14  1  0.544098  0.747377  0.012660  1
  Nb  Nb15  1  0.955902  0.747377  0.012660  1
  V  V16  1  0.750000  0.181388  0.164022  1
  V  V17  1  0.250000  0.818612  0.835978  1
  V  V18  1  0.750000  0.681388  0.335978  1
  V  V19  1  0.250000  0.318612  0.664022  1
  Cl  Cl20  1  0.497925  0.610607  0.418895  1
  Cl  Cl21  1  0.250000  0.821865  0.084108  1
  Cl  Cl22  1  0.750000  0.658626  0.919454  1
  Cl  Cl23  1  0.250000  0.643073  0.590371  1
  Cl  Cl24  1  0.250000  0.677940  0.927584  1
  Cl  Cl25  1  0.504357  0.589899  0.080959  1
  Cl  Cl26  1  0.250000  0.841374  0.419454  1
  Cl  Cl27  1  0.995643  0.089899  0.419041  1
  Cl  Cl28  1  0.750000  0.856927  0.090371  1
  Cl  Cl29  1  0.989144  0.754138  0.247025  1
  Cl  Cl30  1  0.510856  0.254138  0.252975  1
  Cl  Cl31  1  0.750000  0.822060  0.427584  1
  Cl  Cl32  1  0.497925  0.110607  0.081105  1
  Cl  Cl33  1  0.002075  0.110607  0.081105  1
  Cl  Cl34  1  0.010856  0.745862  0.747025  1
  Cl  Cl35  1  0.250000  0.143073  0.909629  1
  Cl  Cl36  1  0.010856  0.245862  0.752975  1
  Cl  Cl37  1  0.250000  0.341374  0.080546  1
  Cl  Cl38  1  0.750000  0.543025  0.246224  1
  Cl  Cl39  1  0.504357  0.089899  0.419041  1
  Cl  Cl40  1  0.489144  0.245862  0.752975  1
  Cl  Cl41  1  0.250000  0.456975  0.753776  1
  Cl  Cl42  1  0.750000  0.322060  0.072416  1
  Cl  Cl43  1  0.489144  0.745862  0.747025  1
  Cl  Cl44  1  0.002075  0.610607  0.418895  1
  Cl  Cl45  1  0.750000  0.678135  0.584108  1
  Cl  Cl46  1  0.750000  0.178135  0.915892  1
  Cl  Cl47  1  0.495643  0.910101  0.580959  1
  Cl  Cl48  1  0.004357  0.910101  0.580959  1
  Cl  Cl49  1  0.995643  0.589899  0.080959  1
  Cl  Cl50  1  0.510856  0.754138  0.247025  1
  Cl  Cl51  1  0.250000  0.177940  0.572416  1
  Cl  Cl52  1  0.250000  0.321865  0.415892  1
  Cl  Cl53  1  0.997925  0.389393  0.581105  1
  Cl  Cl54  1  0.750000  0.158626  0.580546  1
  Cl  Cl55  1  0.004357  0.410101  0.919041  1
  Cl  Cl56  1  0.989144  0.254138  0.252975  1
  Cl  Cl57  1  0.250000  0.956975  0.746224  1
  Cl  Cl58  1  0.502075  0.889393  0.918895  1
  Cl  Cl59  1  0.750000  0.043025  0.253776  1
  Cl  Cl60  1  0.502075  0.389393  0.581105  1
  Cl  Cl61  1  0.997925  0.889393  0.918895  1
  Cl  Cl62  1  0.495643  0.410101  0.919041  1
  Cl  Cl63  1  0.750000  0.356927  0.409629  1
