# generated using pymatgen
data_LaMgRh
_symmetry_space_group_name_H-M   'P 1'
_cell_length_a   4.22091881
_cell_length_b   7.62128180
_cell_length_c   17.06406250
_cell_angle_alpha   90.00000000
_cell_angle_beta   90.00000000
_cell_angle_gamma   90.00000000
_symmetry_Int_Tables_number   1
_chemical_formula_structural   LaMgRh
_chemical_formula_sum   'La8 Mg8 Rh8'
_cell_volume   548.93061350
_cell_formula_units_Z   8
loop_
 _symmetry_equiv_pos_site_id
 _symmetry_equiv_pos_as_xyz
  1  'x, y, z'
loop_
 _atom_site_type_symbol
 _atom_site_label
 _atom_site_symmetry_multiplicity
 _atom_site_fract_x
 _atom_site_fract_y
 _atom_site_fract_z
 _atom_site_occupancy
  La  La0  1  0.750000  0.337098  0.561556  1
  La  La1  1  0.750000  0.455753  0.781806  1
  La  La2  1  0.250000  0.044247  0.281806  1
  La  La3  1  0.750000  0.955753  0.718194  1
  La  La4  1  0.250000  0.662902  0.438444  1
  La  La5  1  0.250000  0.544247  0.218194  1
  La  La6  1  0.250000  0.162902  0.061556  1
  La  La7  1  0.750000  0.837098  0.938444  1
  Mg  Mg8  1  0.750000  0.503328  0.062743  1
  Mg  Mg9  1  0.250000  0.496672  0.937257  1
  Mg  Mg10  1  0.750000  0.866693  0.148782  1
  Mg  Mg11  1  0.250000  0.996672  0.562743  1
  Mg  Mg12  1  0.250000  0.133307  0.851218  1
  Mg  Mg13  1  0.750000  0.366693  0.351218  1
  Mg  Mg14  1  0.250000  0.633307  0.648782  1
  Mg  Mg15  1  0.750000  0.003328  0.437257  1
  Rh  Rh16  1  0.250000  0.745269  0.062159  1
  Rh  Rh17  1  0.250000  0.253717  0.686789  1
  Rh  Rh18  1  0.750000  0.254731  0.937841  1
  Rh  Rh19  1  0.250000  0.753717  0.813211  1
  Rh  Rh20  1  0.750000  0.246283  0.186789  1
  Rh  Rh21  1  0.750000  0.754731  0.562159  1
  Rh  Rh22  1  0.250000  0.245269  0.437841  1
  Rh  Rh23  1  0.750000  0.746283  0.313211  1
