# generated using pymatgen
data_CdI2
_symmetry_space_group_name_H-M   'P 1'
_cell_length_a   4.33697914
_cell_length_b   4.33697941
_cell_length_c   116.34162628
_cell_angle_alpha   90.00000000
_cell_angle_beta   90.00000000
_cell_angle_gamma   119.99999796
_symmetry_Int_Tables_number   1
_chemical_formula_structural   CdI2
_chemical_formula_sum   'Cd15 I30'
_cell_volume   1895.13636105
_cell_formula_units_Z   15
loop_
 _symmetry_equiv_pos_site_id
 _symmetry_equiv_pos_as_xyz
  1  'x, y, z'
loop_
 _atom_site_type_symbol
 _atom_site_label
 _atom_site_symmetry_multiplicity
 _atom_site_fract_x
 _atom_site_fract_y
 _atom_site_fract_z
 _atom_site_occupancy
  Cd  Cd0  1  0.666667  0.333333  0.016739  1
  Cd  Cd1  1  0.000000  0.000000  0.483108  1
  Cd  Cd2  1  0.000000  0.000000  0.950104  1
  Cd  Cd3  1  0.666667  0.333333  0.616604  1
  Cd  Cd4  1  0.000000  0.000000  0.816797  1
  Cd  Cd5  1  0.000000  0.000000  0.350115  1
  Cd  Cd6  1  0.666667  0.333333  0.283320  1
  Cd  Cd7  1  0.000000  0.000000  0.683302  1
  Cd  Cd8  1  0.000000  0.000000  0.216600  1
  Cd  Cd9  1  0.666667  0.333333  0.550091  1
  Cd  Cd10  1  0.666667  0.333333  0.149853  1
  Cd  Cd11  1  0.000000  0.000000  0.083240  1
  Cd  Cd12  1  0.000000  0.000000  0.883432  1
  Cd  Cd13  1  0.666667  0.333333  0.416634  1
  Cd  Cd14  1  0.666667  0.333333  0.750070  1
  I  I15  1  0.000000  0.000000  0.735270  1
  I  I16  1  0.333333  0.666667  0.564873  1
  I  I17  1  0.000000  0.000000  0.401827  1
  I  I18  1  0.333333  0.666667  0.431430  1
  I  I19  1  0.666667  0.333333  0.335325  1
  I  I20  1  0.333333  0.666667  0.364898  1
  I  I21  1  0.333333  0.666667  0.898208  1
  I  I22  1  0.333333  0.666667  0.964884  1
  I  I23  1  0.333333  0.666667  0.231386  1
  I  I24  1  0.000000  0.000000  0.535306  1
  I  I25  1  0.666667  0.333333  0.802009  1
  I  I26  1  0.333333  0.666667  0.698090  1
  I  I27  1  0.000000  0.000000  0.601815  1
  I  I28  1  0.666667  0.333333  0.868649  1
  I  I29  1  0.333333  0.666667  0.764875  1
  I  I30  1  0.666667  0.333333  0.468333  1
  I  I31  1  0.333333  0.666667  0.631392  1
  I  I32  1  0.666667  0.333333  0.201817  1
  I  I33  1  0.333333  0.666667  0.098028  1
  I  I34  1  0.000000  0.000000  0.001949  1
  I  I35  1  0.000000  0.000000  0.135058  1
  I  I36  1  0.666667  0.333333  0.068458  1
  I  I37  1  0.333333  0.666667  0.031523  1
  I  I38  1  0.000000  0.000000  0.268529  1
  I  I39  1  0.333333  0.666667  0.298106  1
  I  I40  1  0.666667  0.333333  0.935312  1
  I  I41  1  0.333333  0.666667  0.831575  1
  I  I42  1  0.666667  0.333333  0.668519  1
  I  I43  1  0.333333  0.666667  0.164642  1
  I  I44  1  0.333333  0.666667  0.497903  1
