# generated using pymatgen
data_CoNi(PO3)4
_symmetry_space_group_name_H-M   'P 1'
_cell_length_a   7.28177361
_cell_length_b   7.28121356
_cell_length_c   9.79303830
_cell_angle_alpha   98.00843228
_cell_angle_beta   110.30356045
_cell_angle_gamma   110.20623843
_symmetry_Int_Tables_number   1
_chemical_formula_structural   CoNi(PO3)4
_chemical_formula_sum   'Co2 Ni2 P8 O24'
_cell_volume   436.73518579
_cell_formula_units_Z   2
loop_
 _symmetry_equiv_pos_site_id
 _symmetry_equiv_pos_as_xyz
  1  'x, y, z'
loop_
 _atom_site_type_symbol
 _atom_site_label
 _atom_site_symmetry_multiplicity
 _atom_site_fract_x
 _atom_site_fract_y
 _atom_site_fract_z
 _atom_site_occupancy
  Ni  Ni0  1  0.500000  0.500000  0.500000  1
  Ni  Ni1  1  0.500000  0.000000  0.000000  1
  Co  Co2  1  0.696293  0.946195  0.749937  1
  Co  Co3  1  0.303707  0.053805  0.250063  1
  P  P4  1  0.504998  0.311853  0.803298  1
  P  P5  1  0.008612  0.701803  0.696741  1
  P  P6  1  0.495002  0.688147  0.196702  1
  P  P7  1  0.991388  0.298197  0.303259  1
  P  P8  1  0.770789  0.729638  0.023380  1
  P  P9  1  0.206132  0.747200  0.476484  1
  P  P10  1  0.229211  0.270362  0.976620  1
  P  P11  1  0.793868  0.252800  0.523516  1
  O  O12  1  0.309704  0.311891  0.845294  1
  O  O13  1  0.966658  0.464484  0.654822  1
  O  O14  1  0.690296  0.688109  0.154706  1
  O  O15  1  0.033342  0.535516  0.345178  1
  O  O16  1  0.717540  0.502056  0.934488  1
  O  O17  1  0.067458  0.783021  0.565343  1
  O  O18  1  0.282460  0.497944  0.065512  1
  O  O19  1  0.932542  0.216979  0.434657  1
  O  O20  1  0.458228  0.343209  0.651052  1
  O  O21  1  0.192197  0.807346  0.848887  1
  O  O22  1  0.541772  0.656791  0.348948  1
  O  O23  1  0.807803  0.192654  0.151113  1
  O  O24  1  0.538164  0.122066  0.826411  1
  O  O25  1  0.795673  0.711816  0.673602  1
  O  O26  1  0.461836  0.877934  0.173589  1
  O  O27  1  0.204327  0.288184  0.326398  1
  O  O28  1  0.628832  0.811177  0.918199  1
  O  O29  1  0.392780  0.710429  0.581628  1
  O  O30  1  0.371168  0.188823  0.081801  1
  O  O31  1  0.607220  0.289571  0.418372  1
  O  O32  1  0.008486  0.846137  0.093441  1
  O  O33  1  0.252704  0.914910  0.406333  1
  O  O34  1  0.991514  0.153863  0.906559  1
  O  O35  1  0.747296  0.085090  0.593667  1
