# generated using pymatgen
data_LiLuF4
_symmetry_space_group_name_H-M   'P 1'
_cell_length_a   5.12048004
_cell_length_b   5.21169885
_cell_length_c   6.35347065
_cell_angle_alpha   113.04972261
_cell_angle_beta   112.58367494
_cell_angle_gamma   92.63818697
_symmetry_Int_Tables_number   1
_chemical_formula_structural   LiLuF4
_chemical_formula_sum   'Li2 Lu2 F8'
_cell_volume   140.15062269
_cell_formula_units_Z   2
loop_
 _symmetry_equiv_pos_site_id
 _symmetry_equiv_pos_as_xyz
  1  'x, y, z'
loop_
 _atom_site_type_symbol
 _atom_site_label
 _atom_site_symmetry_multiplicity
 _atom_site_fract_x
 _atom_site_fract_y
 _atom_site_fract_z
 _atom_site_occupancy
  Li  Li0  1  0.639953  0.889988  0.780030  1
  Li  Li1  1  0.360047  0.110012  0.219970  1
  Lu  Lu2  1  0.877387  0.627409  0.254788  1
  Lu  Lu3  1  0.122613  0.372591  0.745212  1
  F  F4  1  0.170955  0.045462  0.411261  1
  F  F5  1  0.892895  0.674133  0.917145  1
  F  F6  1  0.524151  0.242900  0.917208  1
  F  F7  1  0.829045  0.954538  0.588739  1
  F  F8  1  0.475849  0.757100  0.082792  1
  F  F9  1  0.107105  0.325867  0.082855  1
  F  F10  1  0.259642  0.634170  0.588684  1
  F  F11  1  0.740358  0.365830  0.411316  1
