# generated using pymatgen
data_Ti(NCl)3
_symmetry_space_group_name_H-M   'P 1'
_cell_length_a   5.88307638
_cell_length_b   7.05856759
_cell_length_c   7.85459640
_cell_angle_alpha   89.87549852
_cell_angle_beta   83.14003779
_cell_angle_gamma   78.61896913
_symmetry_Int_Tables_number   1
_chemical_formula_structural   Ti(NCl)3
_chemical_formula_sum   'Ti2 N6 Cl6'
_cell_volume   317.39121022
_cell_formula_units_Z   2
loop_
 _symmetry_equiv_pos_site_id
 _symmetry_equiv_pos_as_xyz
  1  'x, y, z'
loop_
 _atom_site_type_symbol
 _atom_site_label
 _atom_site_symmetry_multiplicity
 _atom_site_fract_x
 _atom_site_fract_y
 _atom_site_fract_z
 _atom_site_occupancy
  Ti  Ti0  1  0.719616  0.934377  0.129946  1
  Ti  Ti1  1  0.280384  0.065623  0.870054  1
  N  N2  1  0.393212  0.113766  0.117405  1
  N  N3  1  0.704813  0.756165  0.778809  1
  N  N4  1  0.797405  0.635933  0.682599  1
  N  N5  1  0.606788  0.886234  0.882595  1
  N  N6  1  0.202595  0.364067  0.317401  1
  N  N7  1  0.295187  0.243835  0.221191  1
  Cl  Cl8  1  0.377257  0.328803  0.758958  1
  Cl  Cl9  1  0.622743  0.671197  0.241042  1
  Cl  Cl10  1  0.894902  0.219779  0.965965  1
  Cl  Cl11  1  0.105098  0.780221  0.034035  1
  Cl  Cl12  1  0.237271  0.917394  0.630525  1
  Cl  Cl13  1  0.762729  0.082606  0.369475  1
