# generated using pymatgen
data_Li3Mo2(PO4)3
_symmetry_space_group_name_H-M   'P 1'
_cell_length_a   5.01202682
_cell_length_b   5.01201743
_cell_length_c   19.36280474
_cell_angle_alpha   90.11561765
_cell_angle_beta   90.11509145
_cell_angle_gamma   66.27926649
_symmetry_Int_Tables_number   1
_chemical_formula_structural   Li3Mo2(PO4)3
_chemical_formula_sum   'Li6 Mo4 P6 O24'
_cell_volume   445.30689599
_cell_formula_units_Z   2
loop_
 _symmetry_equiv_pos_site_id
 _symmetry_equiv_pos_as_xyz
  1  'x, y, z'
loop_
 _atom_site_type_symbol
 _atom_site_label
 _atom_site_symmetry_multiplicity
 _atom_site_fract_x
 _atom_site_fract_y
 _atom_site_fract_z
 _atom_site_occupancy
  Li  Li0  1  0.000157  0.000154  0.502602  1
  Li  Li1  1  0.331895  0.331890  0.577496  1
  Li  Li2  1  0.334189  0.334192  0.905608  1
  Li  Li3  1  0.665812  0.665810  0.427726  1
  Li  Li4  1  0.668096  0.668116  0.755838  1
  Li  Li5  1  0.999842  0.999841  0.830732  1
  O  O6  1  0.236911  0.691290  0.416910  1
  O  O7  1  0.772379  0.301848  0.251713  1
  O  O8  1  0.759010  0.305201  0.586818  1
  O  O9  1  0.694784  0.241018  0.746511  1
  O  O10  1  0.227629  0.698153  0.081621  1
  O  O11  1  0.301858  0.772371  0.251711  1
  O  O12  1  0.305215  0.758985  0.586819  1
  O  O13  1  0.240983  0.694798  0.746515  1
  O  O14  1  0.698147  0.227627  0.081623  1
  O  O15  1  0.308703  0.763101  0.916426  1
  O  O16  1  0.244054  0.244063  0.353194  1
  O  O17  1  0.245573  0.245585  0.142133  1
  O  O18  1  0.254065  0.254065  0.678599  1
  O  O19  1  0.247162  0.247146  0.810309  1
  O  O20  1  0.763091  0.308708  0.916425  1
  O  O21  1  0.261990  0.261988  0.009629  1
  O  O22  1  0.738009  0.738018  0.323705  1
  O  O23  1  0.751470  0.751465  0.849058  1
  O  O24  1  0.752848  0.752847  0.523019  1
  O  O25  1  0.745930  0.745935  0.654731  1
  O  O26  1  0.754426  0.754419  0.191200  1
  O  O27  1  0.755940  0.755944  0.980140  1
  O  O28  1  0.691297  0.236897  0.416907  1
  O  O29  1  0.248536  0.248530  0.484276  1
  P  P30  1  0.653130  0.653136  0.914549  1
  P  P31  1  0.647948  0.647947  0.586463  1
  P  P32  1  0.647844  0.647836  0.254366  1
  P  P33  1  0.352046  0.352050  0.746871  1
  P  P34  1  0.352160  0.352164  0.078967  1
  P  P35  1  0.346873  0.346864  0.418785  1
  Mo  Mo36  1  0.000003  0.999999  0.166667  1
  Mo  Mo37  1  0.999999  -0.000001  0.666666  1
  Mo  Mo38  1  0.003458  0.003469  0.995565  1
  Mo  Mo39  1  0.996545  0.996530  0.337769  1
