# generated using pymatgen
data_Sr9YbV7O28
_symmetry_space_group_name_H-M   'P 1'
_cell_length_a   14.95513678
_cell_length_b   14.95513686
_cell_length_c   14.95513759
_cell_angle_alpha   44.64569557
_cell_angle_beta   44.64569524
_cell_angle_gamma   44.64569341
_symmetry_Int_Tables_number   1
_chemical_formula_structural   Sr9YbV7O28
_chemical_formula_sum   'Sr18 Yb2 V14 O56'
_cell_volume   1502.23896084
_cell_formula_units_Z   2
loop_
 _symmetry_equiv_pos_site_id
 _symmetry_equiv_pos_as_xyz
  1  'x, y, z'
loop_
 _atom_site_type_symbol
 _atom_site_label
 _atom_site_symmetry_multiplicity
 _atom_site_fract_x
 _atom_site_fract_y
 _atom_site_fract_z
 _atom_site_occupancy
  Yb  Yb0  1  0.999902  0.999902  0.999902  1
  Yb  Yb1  1  0.499902  0.499902  0.499902  1
  Sr  Sr2  1  0.455181  0.472761  0.049895  1
  Sr  Sr3  1  0.909749  0.936391  0.349334  1
  Sr  Sr4  1  0.575559  0.156004  0.566785  1
  Sr  Sr5  1  0.075559  0.066785  0.656004  1
  Sr  Sr6  1  0.156004  0.566785  0.575559  1
  Sr  Sr7  1  0.472761  0.049895  0.455181  1
  Sr  Sr8  1  0.066785  0.656004  0.075559  1
  Sr  Sr9  1  0.409749  0.849334  0.436391  1
  Sr  Sr10  1  0.656004  0.075559  0.066785  1
  Sr  Sr11  1  0.972761  0.955181  0.549895  1
  Sr  Sr12  1  0.349334  0.909749  0.936391  1
  Sr  Sr13  1  0.955181  0.549895  0.972761  1
  Sr  Sr14  1  0.849334  0.436391  0.409749  1
  Sr  Sr15  1  0.549895  0.972761  0.955181  1
  Sr  Sr16  1  0.049895  0.455181  0.472761  1
  Sr  Sr17  1  0.436391  0.409749  0.849334  1
  Sr  Sr18  1  0.566785  0.575559  0.156004  1
  Sr  Sr19  1  0.936391  0.349334  0.909749  1
  V  V20  1  0.776126  0.807545  0.319695  1
  V  V21  1  0.719986  0.187347  0.688990  1
  V  V22  1  0.807545  0.319695  0.776126  1
  V  V23  1  0.687347  0.219986  0.188990  1
  V  V24  1  0.187347  0.688990  0.719986  1
  V  V25  1  0.319695  0.776126  0.807545  1
  V  V26  1  0.307545  0.276126  0.819695  1
  V  V27  1  0.276126  0.819695  0.307545  1
  V  V28  1  0.219986  0.188990  0.687347  1
  V  V29  1  0.688990  0.719986  0.187347  1
  V  V30  1  0.819695  0.307545  0.276126  1
  V  V31  1  0.188990  0.687347  0.219986  1
  V  V32  1  0.270643  0.270643  0.270643  1
  V  V33  1  0.770643  0.770643  0.770643  1
  O  O34  1  0.338011  0.605201  0.894490  1
  O  O35  1  0.767770  0.859090  0.398690  1
  O  O36  1  0.626485  0.378760  0.856100  1
  O  O37  1  0.775021  0.898237  0.603702  1
  O  O38  1  0.394490  0.105201  0.838011  1
  O  O39  1  0.105201  0.838011  0.394490  1
  O  O40  1  0.603702  0.775021  0.898237  1
  O  O41  1  0.859090  0.398690  0.767770  1
  O  O42  1  0.615636  0.633362  0.369274  1
  O  O43  1  0.605201  0.894490  0.338011  1
  O  O44  1  0.133362  0.115636  0.869274  1
  O  O45  1  0.399205  0.094245  0.643192  1
  O  O46  1  0.608110  0.187346  0.175029  1
  O  O47  1  0.187346  0.175029  0.608110  1
  O  O48  1  0.398237  0.275021  0.103702  1
  O  O49  1  0.369274  0.615636  0.633362  1
  O  O50  1  0.359090  0.267770  0.898690  1
  O  O51  1  0.687346  0.108110  0.675029  1
  O  O52  1  0.838011  0.394490  0.105201  1
  O  O53  1  0.633362  0.369274  0.615636  1
  O  O54  1  0.137199  0.873893  0.874983  1
  O  O55  1  0.154079  0.366103  0.632651  1
  O  O56  1  0.132651  0.866103  0.654079  1
  O  O57  1  0.675029  0.687346  0.108110  1
  O  O58  1  0.267770  0.898690  0.359090  1
  O  O59  1  0.103702  0.398237  0.275021  1
  O  O60  1  0.814059  0.814059  0.814059  1
  O  O61  1  0.108110  0.675029  0.687346  1
  O  O62  1  0.115636  0.869274  0.133362  1
  O  O63  1  0.654079  0.132651  0.866103  1
  O  O64  1  0.356100  0.878760  0.126485  1
  O  O65  1  0.866103  0.654079  0.132651  1
  O  O66  1  0.874983  0.137199  0.873893  1
  O  O67  1  0.856100  0.626485  0.378760  1
  O  O68  1  0.398690  0.767770  0.859090  1
  O  O69  1  0.869274  0.133362  0.115636  1
  O  O70  1  0.374983  0.373893  0.637199  1
  O  O71  1  0.643192  0.399205  0.094245  1
  O  O72  1  0.175029  0.608110  0.187346  1
  O  O73  1  0.594245  0.899205  0.143192  1
  O  O74  1  0.637199  0.374983  0.373893  1
  O  O75  1  0.126485  0.356100  0.878760  1
  O  O76  1  0.378760  0.856100  0.626485  1
  O  O77  1  0.314059  0.314059  0.314059  1
  O  O78  1  0.373893  0.637199  0.374983  1
  O  O79  1  0.275021  0.103702  0.398237  1
  O  O80  1  0.094245  0.643192  0.399205  1
  O  O81  1  0.632651  0.154079  0.366103  1
  O  O82  1  0.873893  0.874983  0.137199  1
  O  O83  1  0.898690  0.359090  0.267770  1
  O  O84  1  0.366103  0.632651  0.154079  1
  O  O85  1  0.899205  0.143192  0.594245  1
  O  O86  1  0.894490  0.338011  0.605201  1
  O  O87  1  0.898237  0.603702  0.775021  1
  O  O88  1  0.143192  0.594245  0.899205  1
  O  O89  1  0.878760  0.126485  0.356100  1
