# generated using pymatgen
data_LiEr(PO3)4
_symmetry_space_group_name_H-M   'P 1'
_cell_length_a   7.11255968
_cell_length_b   8.93607922
_cell_length_c   8.92096186
_cell_angle_alpha   65.23746943
_cell_angle_beta   66.50708373
_cell_angle_gamma   66.54393784
_symmetry_Int_Tables_number   1
_chemical_formula_structural   LiEr(PO3)4
_chemical_formula_sum   'Li2 Er2 P8 O24'
_cell_volume   453.64832562
_cell_formula_units_Z   2
loop_
 _symmetry_equiv_pos_site_id
 _symmetry_equiv_pos_as_xyz
  1  'x, y, z'
loop_
 _atom_site_type_symbol
 _atom_site_label
 _atom_site_symmetry_multiplicity
 _atom_site_fract_x
 _atom_site_fract_y
 _atom_site_fract_z
 _atom_site_occupancy
  Li  Li0  1  0.293434  0.750013  0.249987  1
  Li  Li1  1  0.706566  0.249987  0.750013  1
  Er  Er2  1  0.796771  0.750007  0.249999  1
  Er  Er3  1  0.203229  0.249993  0.750001  1
  P  P4  1  0.996408  0.306895  0.402492  1
  P  P5  1  0.413570  0.616282  0.657169  1
  P  P6  1  0.705787  0.193092  0.097553  1
  P  P7  1  0.586430  0.383718  0.342831  1
  P  P8  1  0.003592  0.693105  0.597508  1
  P  P9  1  0.312995  0.116280  0.157190  1
  P  P10  1  0.687005  0.883720  0.842810  1
  P  P11  1  0.294213  0.806908  0.902447  1
  O  O12  1  0.848792  0.224779  0.916649  1
  O  O13  1  0.436493  0.427982  0.703847  1
  O  O14  1  0.177112  0.151785  0.338794  1
  O  O15  1  0.563507  0.572018  0.296153  1
  O  O16  1  0.823370  0.815624  0.961870  1
  O  O17  1  0.243026  0.978023  0.770857  1
  O  O18  1  0.568274  0.072020  0.796146  1
  O  O19  1  0.667663  0.348209  0.161238  1
  O  O20  1  0.008064  0.478007  0.270939  1
  O  O21  1  0.527571  0.765962  0.922941  1
  O  O22  1  0.472429  0.234038  0.077059  1
  O  O23  1  0.009790  0.724830  0.416578  1
  O  O24  1  0.332337  0.651791  0.838762  1
  O  O25  1  0.216469  0.734047  0.577042  1
  O  O26  1  0.756974  0.021978  0.229143  1
  O  O27  1  0.431726  0.927980  0.203854  1
  O  O28  1  0.783531  0.265953  0.422958  1
  O  O29  1  0.822888  0.848215  0.661206  1
  O  O30  1  0.176630  0.184376  0.038130  1
  O  O31  1  0.151208  0.775221  0.083351  1
  O  O32  1  0.991936  0.521993  0.729061  1
  O  O33  1  0.990210  0.275170  0.583422  1
  O  O34  1  0.399113  0.315627  0.461882  1
  O  O35  1  0.600887  0.684373  0.538118  1
