# generated using pymatgen
data_FeB2C6(O3F4)2
_symmetry_space_group_name_H-M   'P 1'
_cell_length_a   7.62223566
_cell_length_b   7.62223562
_cell_length_c   7.77275478
_cell_angle_alpha   119.36145387
_cell_angle_beta   119.36145372
_cell_angle_gamma   90.00000310
_symmetry_Int_Tables_number   1
_chemical_formula_structural   FeB2C6(O3F4)2
_chemical_formula_sum   'Fe1 B2 C6 O6 F8'
_cell_volume   325.38505860
_cell_formula_units_Z   1
loop_
 _symmetry_equiv_pos_site_id
 _symmetry_equiv_pos_as_xyz
  1  'x, y, z'
loop_
 _atom_site_type_symbol
 _atom_site_label
 _atom_site_symmetry_multiplicity
 _atom_site_fract_x
 _atom_site_fract_y
 _atom_site_fract_z
 _atom_site_occupancy
  Fe  Fe0  1  0.500000  0.500000  0.000000  1
  B  B1  1  0.250000  0.750000  0.500000  1
  B  B2  1  0.750000  0.250000  0.500000  1
  C  C3  1  0.328449  0.328449  0.656899  1
  C  C4  1  0.642416  0.707570  0.000000  1
  C  C5  1  0.707570  0.357584  0.000000  1
  C  C6  1  0.671551  0.671551  0.343101  1
  C  C7  1  0.357584  0.292430  1.000000  1
  C  C8  1  0.292430  0.642416  1.000000  1
  O  O9  1  0.772862  0.772862  0.545723  1
  O  O10  1  0.170684  0.728159  0.000000  1
  O  O11  1  0.271841  0.170684  0.000000  1
  O  O12  1  0.728159  0.829316  1.000000  1
  O  O13  1  0.829316  0.271841  1.000000  1
  O  O14  1  0.227138  0.227138  0.454277  1
  F  F15  1  0.691278  0.398934  0.646341  1
  F  F16  1  0.308722  0.601066  0.353659  1
  F  F17  1  0.752594  0.308722  0.353659  1
  F  F18  1  0.044937  0.752594  0.353659  1
  F  F19  1  0.398934  0.955063  0.646341  1
  F  F20  1  0.247406  0.691278  0.646341  1
  F  F21  1  0.955063  0.247406  0.646341  1
  F  F22  1  0.601066  0.044937  0.353659  1
