# generated using pymatgen
data_Tb4CdCo
_symmetry_space_group_name_H-M   'P 1'
_cell_length_a   9.53818051
_cell_length_b   9.53818018
_cell_length_c   9.53818077
_cell_angle_alpha   60.00000147
_cell_angle_beta   60.00000259
_cell_angle_gamma   59.99999858
_symmetry_Int_Tables_number   1
_chemical_formula_structural   Tb4CdCo
_chemical_formula_sum   'Tb16 Cd4 Co4'
_cell_volume   613.59472759
_cell_formula_units_Z   4
loop_
 _symmetry_equiv_pos_site_id
 _symmetry_equiv_pos_as_xyz
  1  'x, y, z'
loop_
 _atom_site_type_symbol
 _atom_site_label
 _atom_site_symmetry_multiplicity
 _atom_site_fract_x
 _atom_site_fract_y
 _atom_site_fract_z
 _atom_site_occupancy
  Tb  Tb0  1  0.188542  0.811458  0.188542  1
  Tb  Tb1  1  0.346489  0.346489  0.346489  1
  Tb  Tb2  1  0.561698  0.561698  0.938302  1
  Tb  Tb3  1  0.811458  0.188542  0.811458  1
  Tb  Tb4  1  0.811458  0.811458  0.188542  1
  Tb  Tb5  1  0.938302  0.561698  0.561698  1
  Tb  Tb6  1  0.811458  0.188542  0.188542  1
  Tb  Tb7  1  0.960533  0.346489  0.346489  1
  Tb  Tb8  1  0.561698  0.938302  0.561698  1
  Tb  Tb9  1  0.346489  0.346489  0.960533  1
  Tb  Tb10  1  0.938302  0.938302  0.561698  1
  Tb  Tb11  1  0.188542  0.188542  0.811458  1
  Tb  Tb12  1  0.561698  0.938302  0.938302  1
  Tb  Tb13  1  0.346489  0.960533  0.346489  1
  Tb  Tb14  1  0.938302  0.561698  0.938302  1
  Tb  Tb15  1  0.188542  0.811458  0.811458  1
  Cd  Cd16  1  0.580328  0.259015  0.580328  1
  Cd  Cd17  1  0.580328  0.580328  0.580328  1
  Cd  Cd18  1  0.580328  0.580328  0.259015  1
  Cd  Cd19  1  0.259015  0.580328  0.580328  1
  Co  Co20  1  0.141035  0.141035  0.141035  1
  Co  Co21  1  0.141035  0.141035  0.576896  1
  Co  Co22  1  0.576896  0.141035  0.141035  1
  Co  Co23  1  0.141035  0.576896  0.141035  1
