# generated using pymatgen
data_NaZr2FeF11
_symmetry_space_group_name_H-M   'P 1'
_cell_length_a   5.77574452
_cell_length_b   5.77574451
_cell_length_c   7.93729589
_cell_angle_alpha   69.10506036
_cell_angle_beta   69.10506039
_cell_angle_gamma   73.03535657
_symmetry_Int_Tables_number   1
_chemical_formula_structural   NaZr2FeF11
_chemical_formula_sum   'Na1 Zr2 Fe1 F11'
_cell_volume   226.95517320
_cell_formula_units_Z   1
loop_
 _symmetry_equiv_pos_site_id
 _symmetry_equiv_pos_as_xyz
  1  'x, y, z'
loop_
 _atom_site_type_symbol
 _atom_site_label
 _atom_site_symmetry_multiplicity
 _atom_site_fract_x
 _atom_site_fract_y
 _atom_site_fract_z
 _atom_site_occupancy
  F  F0  1  0.806690  0.222995  0.691564  1
  F  F1  1  0.777005  0.193310  0.308436  1
  F  F2  1  0.193310  0.777005  0.308436  1
  F  F3  1  0.222995  0.806690  0.691564  1
  F  F4  1  0.500000  0.500000  0.500000  1
  F  F5  1  0.330125  0.669875  0.000000  1
  F  F6  1  0.669875  0.330125  0.000000  1
  F  F7  1  0.246843  0.246843  0.352399  1
  F  F8  1  0.753157  0.753157  0.647601  1
  F  F9  1  0.266549  0.266549  0.890995  1
  F  F10  1  0.733451  0.733451  0.109005  1
  Na  Na11  1  0.000000  0.000000  0.000000  1
  Fe  Fe12  1  0.000000  0.000000  0.500000  1
  Zr  Zr13  1  0.504527  0.504527  0.765086  1
  Zr  Zr14  1  0.495473  0.495473  0.234914  1
