# generated using pymatgen
data_SiO2
_symmetry_space_group_name_H-M   'P 1'
_cell_length_a   5.45161167
_cell_length_b   13.48528679
_cell_length_c   13.48449480
_cell_angle_alpha   88.33778839
_cell_angle_beta   84.73874820
_cell_angle_gamma   84.74222701
_symmetry_Int_Tables_number   1
_chemical_formula_structural   SiO2
_chemical_formula_sum   'Si16 O32'
_cell_volume   982.79125593
_cell_formula_units_Z   16
loop_
 _symmetry_equiv_pos_site_id
 _symmetry_equiv_pos_as_xyz
  1  'x, y, z'
loop_
 _atom_site_type_symbol
 _atom_site_label
 _atom_site_symmetry_multiplicity
 _atom_site_fract_x
 _atom_site_fract_y
 _atom_site_fract_z
 _atom_site_occupancy
  Si  Si0  1  0.421421  0.940516  0.057096  1
  Si  Si1  1  0.140178  0.897373  0.245829  1
  Si  Si2  1  0.959602  0.941624  0.441582  1
  Si  Si3  1  0.579035  0.442899  0.559391  1
  Si  Si4  1  0.139546  0.745788  0.397464  1
  Si  Si5  1  0.860454  0.254212  0.602536  1
  Si  Si6  1  0.036607  0.558668  0.058636  1
  Si  Si7  1  0.209449  0.599739  0.250512  1
  Si  Si8  1  0.578579  0.059484  0.942904  1
  Si  Si9  1  0.790551  0.400261  0.749488  1
  Si  Si10  1  0.040398  0.058376  0.558418  1
  Si  Si11  1  0.859822  0.102627  0.754171  1
  Si  Si12  1  0.420965  0.557101  0.440609  1
  Si  Si13  1  0.790368  0.249481  0.900337  1
  Si  Si14  1  0.209632  0.750519  0.099663  1
  Si  Si15  1  0.963393  0.441332  0.941364  1
  O  O16  1  0.325410  0.962818  0.173943  1
  O  O17  1  0.217798  0.982195  0.482362  1
  O  O18  1  0.367030  0.673632  0.173627  1
  O  O19  1  0.389914  0.823402  0.033862  1
  O  O20  1  0.674590  0.037182  0.826057  1
  O  O21  1  0.295120  0.822744  0.322925  1
  O  O22  1  0.324137  0.673821  0.463103  1
  O  O23  1  0.014477  0.670000  0.326405  1
  O  O24  1  0.065018  0.677695  0.034411  1
  O  O25  1  0.389603  0.533971  0.323463  1
  O  O26  1  0.060183  0.178882  0.535972  1
  O  O27  1  0.782202  0.017805  0.517638  1
  O  O28  1  0.939817  0.821118  0.464028  1
  O  O29  1  0.783007  0.518693  0.018673  1
  O  O30  1  0.985115  0.173518  0.830059  1
  O  O31  1  0.297220  0.023547  0.976341  1
  O  O32  1  0.934982  0.322305  0.965589  1
  O  O33  1  0.064957  0.534456  0.177676  1
  O  O34  1  0.702540  0.523927  0.476478  1
  O  O35  1  0.985523  0.330000  0.673595  1
  O  O36  1  0.675863  0.326179  0.536897  1
  O  O37  1  0.059517  0.035923  0.678952  1
  O  O38  1  0.940483  0.964077  0.321048  1
  O  O39  1  0.704880  0.177256  0.677075  1
  O  O40  1  0.297460  0.476073  0.523522  1
  O  O41  1  0.610086  0.176598  0.966138  1
  O  O42  1  0.702780  0.976453  0.023659  1
  O  O43  1  0.935043  0.465544  0.822324  1
  O  O44  1  0.014885  0.826482  0.169941  1
  O  O45  1  0.632970  0.326368  0.826373  1
  O  O46  1  0.610397  0.466029  0.676537  1
  O  O47  1  0.216993  0.481307  0.981327  1
