# generated using pymatgen
data_SrU(SeO4)2
_symmetry_space_group_name_H-M   'P 1'
_cell_length_a   5.81231554
_cell_length_b   6.88887030
_cell_length_c   11.47307514
_cell_angle_alpha   104.76538182
_cell_angle_beta   94.04440200
_cell_angle_gamma   109.42835871
_symmetry_Int_Tables_number   1
_chemical_formula_structural   SrU(SeO4)2
_chemical_formula_sum   'Sr2 U2 Se4 O16'
_cell_volume   412.80094035
_cell_formula_units_Z   2
loop_
 _symmetry_equiv_pos_site_id
 _symmetry_equiv_pos_as_xyz
  1  'x, y, z'
loop_
 _atom_site_type_symbol
 _atom_site_label
 _atom_site_symmetry_multiplicity
 _atom_site_fract_x
 _atom_site_fract_y
 _atom_site_fract_z
 _atom_site_occupancy
  Sr  Sr0  1  0.331926  0.751265  0.562548  1
  Sr  Sr1  1  0.668074  0.248735  0.437452  1
  U  U2  1  0.168932  0.262656  0.163204  1
  U  U3  1  0.831068  0.737344  0.836796  1
  Se  Se4  1  0.698667  0.191090  0.877671  1
  Se  Se5  1  0.727517  0.691766  0.341689  1
  Se  Se6  1  0.301333  0.808910  0.122329  1
  Se  Se7  1  0.272483  0.308234  0.658311  1
  O  O8  1  0.093159  0.865112  0.029692  1
  O  O9  1  0.119413  0.583412  0.157659  1
  O  O10  1  0.562771  0.665312  0.910952  1
  O  O11  1  0.437229  0.334688  0.089048  1
  O  O12  1  0.919836  0.622052  0.426845  1
  O  O13  1  0.681453  0.979965  0.752736  1
  O  O14  1  0.095685  0.810049  0.757047  1
  O  O15  1  0.674444  0.894047  0.442532  1
  O  O16  1  0.904315  0.189951  0.242953  1
  O  O17  1  0.906841  0.134888  0.970308  1
  O  O18  1  0.080164  0.377948  0.573155  1
  O  O19  1  0.318547  0.020035  0.247264  1
  O  O20  1  0.325556  0.105953  0.557468  1
  O  O21  1  0.559654  0.521324  0.658588  1
  O  O22  1  0.440346  0.478676  0.341412  1
  O  O23  1  0.880587  0.416588  0.842341  1
