# generated using pymatgen
data_H7C(NO)3
_symmetry_space_group_name_H-M   'P 1'
_cell_length_a   3.81072263
_cell_length_b   11.59203086
_cell_length_c   11.56032676
_cell_angle_alpha   90.00000000
_cell_angle_beta   90.00000000
_cell_angle_gamma   100.97915999
_symmetry_Int_Tables_number   1
_chemical_formula_structural   H7C(NO)3
_chemical_formula_sum   'H28 C4 N12 O12'
_cell_volume   501.31907469
_cell_formula_units_Z   4
loop_
 _symmetry_equiv_pos_site_id
 _symmetry_equiv_pos_as_xyz
  1  'x, y, z'
loop_
 _atom_site_type_symbol
 _atom_site_label
 _atom_site_symmetry_multiplicity
 _atom_site_fract_x
 _atom_site_fract_y
 _atom_site_fract_z
 _atom_site_occupancy
  H  H0  1  0.485758  0.534834  0.846432  1
  H  H1  1  0.714799  0.063456  0.848588  1
  H  H2  1  0.560153  0.850638  0.619110  1
  H  H3  1  0.488352  0.185409  0.242505  1
  H  H4  1  0.347633  0.452177  0.601920  1
  H  H5  1  0.270760  0.089421  0.840217  1
  H  H6  1  0.347633  0.952177  0.898080  1
  H  H7  1  0.729240  0.910579  0.159783  1
  H  H8  1  0.439847  0.149362  0.380890  1
  H  H9  1  0.514242  0.465166  0.153568  1
  H  H10  1  0.439847  0.649362  0.119110  1
  H  H11  1  0.270760  0.589421  0.659783  1
  H  H12  1  0.714799  0.563456  0.651412  1
  H  H13  1  0.511648  0.314591  0.742505  1
  H  H14  1  0.488352  0.685409  0.257495  1
  H  H15  1  0.120205  0.435287  0.796374  1
  H  H16  1  0.120205  0.935287  0.703626  1
  H  H17  1  0.485758  0.034834  0.653568  1
  H  H18  1  0.285201  0.936544  0.151412  1
  H  H19  1  0.652367  0.047823  0.101920  1
  H  H20  1  0.514242  0.965166  0.346432  1
  H  H21  1  0.511648  0.814591  0.757495  1
  H  H22  1  0.879795  0.564713  0.203626  1
  H  H23  1  0.729240  0.410579  0.340217  1
  H  H24  1  0.285201  0.436544  0.348588  1
  H  H25  1  0.879795  0.064713  0.296374  1
  H  H26  1  0.652367  0.547823  0.398080  1
  H  H27  1  0.560153  0.350638  0.880890  1
  C  C28  1  0.436180  0.522081  0.665305  1
  C  C29  1  0.436180  0.022081  0.834695  1
  C  C30  1  0.563820  0.977919  0.165305  1
  C  C31  1  0.563820  0.477919  0.334695  1
  N  N32  1  0.604957  0.529628  0.217085  1
  N  N33  1  0.615877  0.382014  0.798042  1
  N  N34  1  0.384123  0.117986  0.298042  1
  N  N35  1  0.395043  0.970372  0.717085  1
  N  N36  1  0.615877  0.882014  0.701958  1
  N  N37  1  0.944420  0.700628  0.932835  1
  N  N38  1  0.944420  0.200628  0.567165  1
  N  N39  1  0.384123  0.617986  0.201958  1
  N  N40  1  0.395043  0.470372  0.782915  1
  N  N41  1  0.604957  0.029628  0.282915  1
  N  N42  1  0.055580  0.799372  0.432835  1
  N  N43  1  0.055580  0.299372  0.067165  1
  O  O44  1  0.077532  0.777162  0.005339  1
  O  O45  1  0.308525  0.883608  0.463671  1
  O  O46  1  0.945967  0.296054  0.171022  1
  O  O47  1  0.691475  0.116392  0.536329  1
  O  O48  1  0.054033  0.203946  0.671022  1
  O  O49  1  0.308525  0.383608  0.036329  1
  O  O50  1  0.922468  0.722838  0.505339  1
  O  O51  1  0.077532  0.277162  0.494661  1
  O  O52  1  0.922468  0.222838  0.994661  1
  O  O53  1  0.945967  0.796054  0.328978  1
  O  O54  1  0.054033  0.703946  0.828978  1
  O  O55  1  0.691475  0.616392  0.963671  1
