# generated using pymatgen
data_CS3N5Cl
_symmetry_space_group_name_H-M   'P 1'
_cell_length_a   5.01101577
_cell_length_b   10.97268645
_cell_length_c   14.30900038
_cell_angle_alpha   90.00000000
_cell_angle_beta   94.74654765
_cell_angle_gamma   90.00000000
_symmetry_Int_Tables_number   1
_chemical_formula_structural   CS3N5Cl
_chemical_formula_sum   'C4 S12 N20 Cl4'
_cell_volume   784.07220168
_cell_formula_units_Z   4
loop_
 _symmetry_equiv_pos_site_id
 _symmetry_equiv_pos_as_xyz
  1  'x, y, z'
loop_
 _atom_site_type_symbol
 _atom_site_label
 _atom_site_symmetry_multiplicity
 _atom_site_fract_x
 _atom_site_fract_y
 _atom_site_fract_z
 _atom_site_occupancy
  C  C0  1  0.246974  0.360591  0.191206  1
  C  C1  1  0.753026  0.639409  0.808794  1
  C  C2  1  0.746974  0.139409  0.691206  1
  C  C3  1  0.253026  0.860591  0.308794  1
  S  S4  1  0.979084  0.777601  0.696469  1
  S  S5  1  0.020916  0.222399  0.303531  1
  S  S6  1  0.350554  0.331769  0.454788  1
  S  S7  1  0.479084  0.722399  0.196469  1
  S  S8  1  0.477367  0.970214  0.179078  1
  S  S9  1  0.522633  0.029786  0.820922  1
  S  S10  1  0.149446  0.831769  0.045212  1
  S  S11  1  0.520916  0.277601  0.803531  1
  S  S12  1  0.022633  0.470214  0.320922  1
  S  S13  1  0.850554  0.168231  0.954788  1
  S  S14  1  0.649446  0.668231  0.545212  1
  S  S15  1  0.977367  0.529786  0.679078  1
  N  N16  1  0.761737  0.039688  0.916967  1
  N  N17  1  0.808835  0.753843  0.787755  1
  N  N18  1  0.238263  0.960312  0.083033  1
  N  N19  1  0.308835  0.746157  0.287755  1
  N  N20  1  0.705691  0.033040  0.731169  1
  N  N21  1  0.691165  0.253843  0.712245  1
  N  N22  1  0.205691  0.466960  0.231169  1
  N  N23  1  0.766408  0.284898  0.897615  1
  N  N24  1  0.191165  0.246157  0.212245  1
  N  N25  1  0.653912  0.845051  0.177076  1
  N  N26  1  0.233592  0.715102  0.102385  1
  N  N27  1  0.346088  0.154949  0.822924  1
  N  N28  1  0.794309  0.533040  0.768831  1
  N  N29  1  0.733592  0.784898  0.602385  1
  N  N30  1  0.738263  0.539688  0.583033  1
  N  N31  1  0.261737  0.460312  0.416967  1
  N  N32  1  0.153912  0.654949  0.677076  1
  N  N33  1  0.846088  0.345051  0.322924  1
  N  N34  1  0.294309  0.966960  0.268831  1
  N  N35  1  0.266408  0.215102  0.397615  1
  Cl  Cl36  1  0.402045  0.374259  0.086569  1
  Cl  Cl37  1  0.097955  0.874259  0.413431  1
  Cl  Cl38  1  0.902045  0.125741  0.586569  1
  Cl  Cl39  1  0.597955  0.625741  0.913431  1
