# generated using pymatgen
data_K3FeSe3
_symmetry_space_group_name_H-M   'P 1'
_cell_length_a   8.12892954
_cell_length_b   8.52212924
_cell_length_c   13.03077308
_cell_angle_alpha   90.00000000
_cell_angle_beta   90.00000000
_cell_angle_gamma   101.60180997
_symmetry_Int_Tables_number   1
_chemical_formula_structural   K3FeSe3
_chemical_formula_sum   'K12 Fe4 Se12'
_cell_volume   884.27356887
_cell_formula_units_Z   4
loop_
 _symmetry_equiv_pos_site_id
 _symmetry_equiv_pos_as_xyz
  1  'x, y, z'
loop_
 _atom_site_type_symbol
 _atom_site_label
 _atom_site_symmetry_multiplicity
 _atom_site_fract_x
 _atom_site_fract_y
 _atom_site_fract_z
 _atom_site_occupancy
  K  K0  1  0.289171  0.417938  0.810402  1
  K  K1  1  0.743635  0.397448  0.920084  1
  K  K2  1  0.138997  0.522954  0.371328  1
  K  K3  1  0.861003  0.477046  0.628672  1
  K  K4  1  0.638997  0.022954  0.128672  1
  K  K5  1  0.756365  0.102552  0.420084  1
  K  K6  1  0.361003  0.977046  0.871328  1
  K  K7  1  0.256365  0.602552  0.079916  1
  K  K8  1  0.789171  0.917938  0.689598  1
  K  K9  1  0.243635  0.897448  0.579916  1
  K  K10  1  0.710829  0.582062  0.189598  1
  K  K11  1  0.210829  0.082062  0.310402  1
  Fe  Fe12  1  0.408608  0.348139  0.556886  1
  Fe  Fe13  1  0.091392  0.151861  0.056886  1
  Fe  Fe14  1  0.591392  0.651861  0.443114  1
  Fe  Fe15  1  0.908608  0.848139  0.943114  1
  Se  Se16  1  0.530561  0.374993  0.387957  1
  Se  Se17  1  0.114178  0.240410  0.548638  1
  Se  Se18  1  0.958343  0.308288  0.172501  1
  Se  Se19  1  0.469439  0.625007  0.612043  1
  Se  Se20  1  0.969439  0.125007  0.887957  1
  Se  Se21  1  0.041657  0.691712  0.827499  1
  Se  Se22  1  0.885822  0.759590  0.451362  1
  Se  Se23  1  0.541657  0.191712  0.672501  1
  Se  Se24  1  0.030561  0.874993  0.112043  1
  Se  Se25  1  0.385822  0.259590  0.048638  1
  Se  Se26  1  0.614178  0.740410  0.951362  1
  Se  Se27  1  0.458343  0.808288  0.327499  1
