# generated using pymatgen
data_CuH8C4O5
_symmetry_space_group_name_H-M   'P 1'
_cell_length_a   7.97790748
_cell_length_b   7.97902756
_cell_length_c   13.22270624
_cell_angle_alpha   98.77536717
_cell_angle_beta   102.04704099
_cell_angle_gamma   113.64464849
_symmetry_Int_Tables_number   1
_chemical_formula_structural   CuH8C4O5
_chemical_formula_sum   'Cu4 H32 C16 O20'
_cell_volume   727.36592945
_cell_formula_units_Z   4
loop_
 _symmetry_equiv_pos_site_id
 _symmetry_equiv_pos_as_xyz
  1  'x, y, z'
loop_
 _atom_site_type_symbol
 _atom_site_label
 _atom_site_symmetry_multiplicity
 _atom_site_fract_x
 _atom_site_fract_y
 _atom_site_fract_z
 _atom_site_occupancy
  Cu  Cu0  1  0.328468  0.470126  0.957069  1
  Cu  Cu1  1  0.013077  0.371468  0.542959  1
  Cu  Cu2  1  0.671532  0.529874  0.042931  1
  Cu  Cu3  1  0.986923  0.628532  0.457041  1
  O  O4  1  0.669629  0.402743  0.896661  1
  O  O5  1  0.006173  0.772838  0.603431  1
  O  O6  1  0.330371  0.597257  0.103339  1
  O  O7  1  0.993827  0.227162  0.396569  1
  O  O8  1  0.361317  0.340715  0.821984  1
  O  O9  1  0.018716  0.539202  0.678091  1
  O  O10  1  0.638683  0.659285  0.178016  1
  O  O11  1  0.981284  0.460798  0.321909  1
  O  O12  1  0.754237  0.767841  -0.000326  1
  O  O13  1  0.268079  0.754569  0.500161  1
  O  O14  1  0.245763  0.232159  1.000326  1
  O  O15  1  0.731921  0.245431  0.499839  1
  O  O16  1  0.448777  0.718808  0.925763  1
  O  O17  1  0.292890  0.523020  0.574083  1
  O  O18  1  0.551223  0.281192  0.074237  1
  O  O19  1  0.707110  0.476980  0.425917  1
  O  O20  1  0.032965  0.410356  0.865860  1
  O  O21  1  0.044483  0.167086  0.634170  1
  O  O22  1  0.967035  0.589644  0.134140  1
  O  O23  1  0.955517  0.832914  0.365830  1
  C  C24  1  0.517719  0.335121  0.817136  1
  C  C25  1  0.017940  0.700399  0.682940  1
  C  C26  1  0.482281  0.664879  0.182864  1
  C  C27  1  0.982060  0.299601  0.317060  1
  C  C28  1  0.519443  0.241220  0.709660  1
  C  C29  1  0.031416  0.809538  0.790413  1
  C  C30  1  0.480557  0.758780  0.290340  1
  C  C31  1  0.968584  0.190462  0.209587  1
  C  C32  1  0.630950  0.813788  0.949442  1
  C  C33  1  0.364213  0.681491  0.550382  1
  C  C34  1  0.369050  0.186212  0.050558  1
  C  C35  1  0.635787  0.318509  0.449618  1
  C  C36  1  0.706748  0.995160  0.915854  1
  C  C37  1  0.579167  0.790831  0.584036  1
  C  C38  1  0.293252  0.004840  0.084146  1
  C  C39  1  0.420833  0.209169  0.415964  1
  H  H40  1  0.465674  0.301417  0.648649  1
  H  H41  1  0.152677  0.816851  0.851420  1
  H  H42  1  0.534326  0.698583  0.351351  1
  H  H43  1  0.847323  0.183149  0.148580  1
  H  H44  1  0.662175  0.257460  0.709594  1
  H  H45  1  0.047736  0.952315  0.790435  1
  H  H46  1  0.337825  0.742540  0.290406  1
  H  H47  1  0.952264  0.047685  0.209565  1
  H  H48  1  0.419217  0.089445  0.687425  1
  H  H49  1  0.901878  0.731575  0.812662  1
  H  H50  1  0.580783  0.910555  0.312575  1
  H  H51  1  0.098122  0.268425  0.187338  1
  H  H52  1  0.637478  0.967395  0.830084  1
  H  H53  1  0.637032  0.807248  0.669808  1
  H  H54  1  0.362522  0.032605  0.169916  1
  H  H55  1  0.362968  0.192752  0.330192  1
  H  H56  1  0.862521  0.056642  0.932326  1
  H  H57  1  0.624211  0.930129  0.567581  1
  H  H58  1  0.137479  0.943358  0.067674  1
  H  H59  1  0.375789  0.069871  0.432419  1
  H  H60  1  0.668922  0.097136  0.959099  1
  H  H61  1  0.637962  0.709786  0.540820  1
  H  H62  1  0.331078  0.902864  0.040901  1
  H  H63  1  0.362038  0.290214  0.459180  1
  H  H64  1  0.026679  0.453847  0.799697  1
  H  H65  1  0.154168  0.226964  0.700314  1
  H  H66  1  0.973321  0.546153  0.200303  1
  H  H67  1  0.845832  0.773036  0.299686  1
  H  H68  1  0.923201  0.409890  0.888389  1
  H  H69  1  0.021530  0.034840  0.611645  1
  H  H70  1  0.076799  0.590110  0.111611  1
  H  H71  1  0.978470  0.965160  0.388355  1
