# generated using pymatgen
data_S3(NO7)2
_symmetry_space_group_name_H-M   'P 1'
_cell_length_a   7.36895620
_cell_length_b   7.75017969
_cell_length_c   10.57469480
_cell_angle_alpha   100.89757409
_cell_angle_beta   110.39095667
_cell_angle_gamma   89.99999935
_symmetry_Int_Tables_number   1
_chemical_formula_structural   S3(NO7)2
_chemical_formula_sum   'S6 N4 O28'
_cell_volume   554.45094166
_cell_formula_units_Z   2
loop_
 _symmetry_equiv_pos_site_id
 _symmetry_equiv_pos_as_xyz
  1  'x, y, z'
loop_
 _atom_site_type_symbol
 _atom_site_label
 _atom_site_symmetry_multiplicity
 _atom_site_fract_x
 _atom_site_fract_y
 _atom_site_fract_z
 _atom_site_occupancy
  N  N0  1  0.693561  0.643197  0.706307  1
  N  N1  1  0.012746  0.143197  0.706307  1
  N  N2  1  0.987921  0.782753  0.293511  1
  N  N3  1  0.305589  0.282753  0.293511  1
  S  S4  1  0.252688  0.750459  0.000026  1
  S  S5  1  0.747338  0.250459  0.000026  1
  S  S6  1  0.172330  0.621754  0.708107  1
  S  S7  1  0.535778  0.121754  0.708107  1
  S  S8  1  0.463715  0.768484  0.291829  1
  S  S9  1  0.828114  0.268484  0.291829  1
  O  O10  1  0.334913  0.695381  0.878341  1
  O  O11  1  0.543427  0.195381  0.878341  1
  O  O12  1  0.456707  0.754058  0.121853  1
  O  O13  1  0.665146  0.254058  0.121853  1
  O  O14  1  0.311486  0.611824  0.639138  1
  O  O15  1  0.327652  0.111824  0.639138  1
  O  O16  1  0.671699  0.793714  0.360627  1
  O  O17  1  0.688928  0.293714  0.360627  1
  O  O18  1  0.083072  0.454381  0.706740  1
  O  O19  1  0.623669  0.954381  0.706740  1
  O  O20  1  0.376395  0.601557  0.293719  1
  O  O21  1  0.917323  0.101557  0.293719  1
  O  O22  1  0.036838  0.760073  0.687596  1
  O  O23  1  0.650758  0.260073  0.687596  1
  O  O24  1  0.348257  0.916367  0.311957  1
  O  O25  1  0.963700  0.416367  0.311957  1
  O  O26  1  0.187837  0.924942  0.002059  1
  O  O27  1  0.814221  0.424942  0.002059  1
  O  O28  1  0.125184  0.610188  0.998826  1
  O  O29  1  0.873642  0.110188  0.998826  1
  O  O30  1  0.727143  0.664858  0.821808  1
  O  O31  1  0.094665  0.164858  0.821808  1
  O  O32  1  0.905158  0.758490  0.178006  1
  O  O33  1  0.272848  0.258490  0.178006  1
  O  O34  1  0.669165  0.613510  0.591499  1
  O  O35  1  0.922334  0.113510  0.591499  1
  O  O36  1  0.077125  0.801011  0.408050  1
  O  O37  1  0.330926  0.301011  0.408050  1
