# generated using pymatgen
data_V3Cd5P6O25
_symmetry_space_group_name_H-M   'P 1'
_cell_length_a   4.80683824
_cell_length_b   8.90342982
_cell_length_c   24.29468060
_cell_angle_alpha   81.67095624
_cell_angle_beta   84.32256427
_cell_angle_gamma   74.33912299
_symmetry_Int_Tables_number   1
_chemical_formula_structural   V3Cd5P6O25
_chemical_formula_sum   'V6 Cd10 P12 O50'
_cell_volume   988.63407429
_cell_formula_units_Z   2
loop_
 _symmetry_equiv_pos_site_id
 _symmetry_equiv_pos_as_xyz
  1  'x, y, z'
loop_
 _atom_site_type_symbol
 _atom_site_label
 _atom_site_symmetry_multiplicity
 _atom_site_fract_x
 _atom_site_fract_y
 _atom_site_fract_z
 _atom_site_occupancy
  V  V0  1  0.773407  0.374635  0.087058  1
  V  V1  1  0.060420  0.750000  0.250000  1
  V  V2  1  0.226593  0.625365  0.912942  1
  V  V3  1  0.939580  0.250000  0.750000  1
  V  V4  1  0.235100  0.125365  0.412942  1
  V  V5  1  0.764900  0.874635  0.587058  1
  Cd  Cd6  1  0.583905  0.762813  0.116444  1
  Cd  Cd7  1  0.536838  0.262813  0.616444  1
  Cd  Cd8  1  0.416095  0.237187  0.883556  1
  Cd  Cd9  1  0.463162  0.737187  0.383556  1
  Cd  Cd10  1  0.692943  0.374671  0.291376  1
  Cd  Cd11  1  0.358990  0.125329  0.208624  1
  Cd  Cd12  1  0.307057  0.625329  0.708624  1
  Cd  Cd13  1  0.641010  0.874671  0.791376  1
  Cd  Cd14  1  0.000000  0.500000  0.500000  1
  Cd  Cd15  1  0.000000  0.000000  0.000000  1
  P  P16  1  0.188931  0.972815  0.674524  1
  P  P17  1  0.811069  0.027185  0.325476  1
  P  P18  1  0.163730  0.472815  0.174524  1
  P  P19  1  0.836270  0.527185  0.825476  1
  P  P20  1  0.673918  0.203162  0.496925  1
  P  P21  1  0.115854  0.497793  0.359206  1
  P  P22  1  0.374005  0.296838  0.003075  1
  P  P23  1  0.625995  0.703162  0.996925  1
  P  P24  1  0.972852  0.002207  0.140794  1
  P  P25  1  0.884146  0.502207  0.640794  1
  P  P26  1  0.027148  0.997793  0.859206  1
  P  P27  1  0.326082  0.796838  0.503075  1
  O  O28  1  0.437175  0.413927  0.951532  1
  O  O29  1  0.137571  0.914360  0.092354  1
  O  O30  1  0.019323  0.824578  0.864415  1
  O  O31  1  0.708315  0.675422  0.635585  1
  O  O32  1  0.754702  0.378862  0.811805  1
  O  O33  1  0.686710  0.130637  0.270801  1
  O  O34  1  0.942168  0.133911  0.354081  1
  O  O35  1  0.662027  0.980599  0.147838  1
  O  O36  1  0.313290  0.869363  0.729199  1
  O  O37  1  0.144285  0.585640  0.407646  1
  O  O38  1  0.280896  0.250000  0.750000  1
  O  O39  1  0.337973  0.019401  0.852162  1
  O  O40  1  0.444472  0.339144  0.522196  1
  O  O41  1  0.569839  0.633911  0.854081  1
  O  O42  1  0.911851  0.630637  0.770801  1
  O  O43  1  0.057832  0.866089  0.645919  1
  O  O44  1  0.868065  0.070569  0.803312  1
  O  O45  1  0.945369  0.121138  0.688195  1
  O  O46  1  0.131935  0.929431  0.196688  1
  O  O47  1  0.873110  0.621516  0.958092  1
  O  O48  1  0.741946  0.429431  0.696688  1
  O  O49  1  0.054631  0.878862  0.311805  1
  O  O50  1  0.100659  0.474704  0.862170  1
  O  O51  1  0.655404  0.234076  0.035972  1
  O  O52  1  0.790464  0.519401  0.352162  1
  O  O53  1  0.802634  0.086073  0.548468  1
  O  O54  1  0.126890  0.378484  0.041908  1
  O  O55  1  0.344596  0.765924  0.964028  1
  O  O56  1  0.862429  0.085640  0.907646  1
  O  O57  1  0.694189  0.839144  0.022196  1
  O  O58  1  0.719104  0.750000  0.250000  1
  O  O59  1  0.437533  0.025296  0.637830  1
  O  O60  1  0.855715  0.414360  0.592354  1
  O  O61  1  0.074548  0.734076  0.535972  1
  O  O62  1  0.547282  0.121516  0.458092  1
  O  O63  1  0.305811  0.160856  0.977804  1
  O  O64  1  0.430161  0.366089  0.145919  1
  O  O65  1  0.258054  0.570569  0.303312  1
  O  O66  1  0.555528  0.660856  0.477804  1
  O  O67  1  0.899341  0.525297  0.137830  1
  O  O68  1  0.925452  0.265924  0.464028  1
  O  O69  1  0.291685  0.324578  0.364414  1
  O  O70  1  0.088149  0.369363  0.229199  1
  O  O71  1  0.980677  0.175422  0.135585  1
  O  O72  1  0.562467  0.974703  0.362170  1
  O  O73  1  0.197366  0.913927  0.451532  1
  O  O74  1  0.245298  0.621138  0.188195  1
  O  O75  1  0.209536  0.480599  0.647838  1
  O  O76  1  0.452718  0.878484  0.541908  1
  O  O77  1  0.562825  0.586073  0.048468  1
