# generated using pymatgen
data_Ce2Ni12P7
_symmetry_space_group_name_H-M   'P 1'
_cell_length_a   9.06819955
_cell_length_b   9.06819955
_cell_length_c   3.72566187
_cell_angle_alpha   90.00000000
_cell_angle_beta   90.00000000
_cell_angle_gamma   119.99999998
_symmetry_Int_Tables_number   1
_chemical_formula_structural   Ce2Ni12P7
_chemical_formula_sum   'Ce2 Ni12 P7'
_cell_volume   265.32379805
_cell_formula_units_Z   1
loop_
 _symmetry_equiv_pos_site_id
 _symmetry_equiv_pos_as_xyz
  1  'x, y, z'
loop_
 _atom_site_type_symbol
 _atom_site_label
 _atom_site_symmetry_multiplicity
 _atom_site_fract_x
 _atom_site_fract_y
 _atom_site_fract_z
 _atom_site_occupancy
  Ce  Ce0  1  0.666667  0.333333  0.500000  1
  Ce  Ce1  1  0.333333  0.666667  0.000000  1
  Ni  Ni2  1  0.381200  0.429349  0.500000  1
  Ni  Ni3  1  0.148275  0.273525  0.000000  1
  Ni  Ni4  1  0.125250  0.851725  0.000000  1
  Ni  Ni5  1  0.726475  0.874750  0.000000  1
  Ni  Ni6  1  0.881605  0.785598  0.500000  1
  Ni  Ni7  1  0.903993  0.118395  0.500000  1
  Ni  Ni8  1  0.048149  0.618800  0.500000  1
  Ni  Ni9  1  0.940606  0.376465  0.000000  1
  Ni  Ni10  1  0.214402  0.096007  0.500000  1
  Ni  Ni11  1  0.570651  0.951851  0.500000  1
  Ni  Ni12  1  0.623535  0.564141  0.000000  1
  Ni  Ni13  1  0.435859  0.059394  0.000000  1
  P  P14  1  0.599558  0.704723  0.500000  1
  P  P15  1  0.105165  0.400442  0.500000  1
  P  P16  1  0.890836  0.598660  0.000000  1
  P  P17  1  0.295277  0.894835  0.500000  1
  P  P18  1  0.000000  0.000000  0.000000  1
  P  P19  1  0.707824  0.109164  0.000000  1
  P  P20  1  0.401340  0.292176  0.000000  1
