# generated using pymatgen
data_LaPb6ClO7
_symmetry_space_group_name_H-M   'P 1'
_cell_length_a   8.20532688
_cell_length_b   9.81468630
_cell_length_c   10.38557902
_cell_angle_alpha   115.94888499
_cell_angle_beta   113.26813207
_cell_angle_gamma   90.00000099
_symmetry_Int_Tables_number   1
_chemical_formula_structural   LaPb6ClO7
_chemical_formula_sum   'La2 Pb12 Cl2 O14'
_cell_volume   675.59578210
_cell_formula_units_Z   2
loop_
 _symmetry_equiv_pos_site_id
 _symmetry_equiv_pos_as_xyz
  1  'x, y, z'
loop_
 _atom_site_type_symbol
 _atom_site_label
 _atom_site_symmetry_multiplicity
 _atom_site_fract_x
 _atom_site_fract_y
 _atom_site_fract_z
 _atom_site_occupancy
  La  La0  1  0.000000  0.000000  0.500000  1
  La  La1  1  0.500000  0.000000  0.500000  1
  Pb  Pb2  1  0.200947  0.270126  0.401894  1
  Pb  Pb3  1  0.100237  0.440572  0.734219  1
  Pb  Pb4  1  0.054498  0.826087  0.108996  1
  Pb  Pb5  1  0.437949  0.237868  0.875897  1
  Pb  Pb6  1  0.366018  0.559428  0.265781  1
  Pb  Pb7  1  0.345528  0.795426  0.691057  1
  Pb  Pb8  1  0.654472  0.204574  0.308943  1
  Pb  Pb9  1  0.562051  0.762132  0.124103  1
  Pb  Pb10  1  0.799053  0.729874  0.598106  1
  Pb  Pb11  1  0.633982  0.440572  0.734219  1
  Pb  Pb12  1  0.899763  0.559428  0.265781  1
  Pb  Pb13  1  0.945502  0.173913  0.891004  1
  Cl  Cl14  1  0.266345  0.000000  0.000000  1
  Cl  Cl15  1  0.733655  1.000000  1.000000  1
  O  O16  1  0.477155  0.740912  0.518124  1
  O  O17  1  0.330243  0.010567  0.660486  1
  O  O18  1  0.653851  0.622318  0.307701  1
  O  O19  1  0.669455  0.242322  0.783504  1
  O  O20  1  0.114048  0.242322  0.783504  1
  O  O21  1  0.330545  0.757678  0.216496  1
  O  O22  1  0.669757  0.989433  0.339514  1
  O  O23  1  0.885952  0.757678  0.216496  1
  O  O24  1  0.040969  0.740912  0.518124  1
  O  O25  1  0.819542  0.971606  0.639084  1
  O  O26  1  0.959031  0.259088  0.481876  1
  O  O27  1  0.346149  0.377682  0.692299  1
  O  O28  1  0.180458  0.028394  0.360916  1
  O  O29  1  0.522845  0.259088  0.481876  1
