# generated using pymatgen
data_RbNd(PO3)4
_symmetry_space_group_name_H-M   'P 1'
_cell_length_a   9.17061773
_cell_length_b   10.64689138
_cell_length_c   11.14795557
_cell_angle_alpha   106.39298432
_cell_angle_beta   90.00000000
_cell_angle_gamma   90.00000000
_symmetry_Int_Tables_number   1
_chemical_formula_structural   RbNd(PO3)4
_chemical_formula_sum   'Rb4 Nd4 P16 O48'
_cell_volume   1044.22253557
_cell_formula_units_Z   4
loop_
 _symmetry_equiv_pos_site_id
 _symmetry_equiv_pos_as_xyz
  1  'x, y, z'
loop_
 _atom_site_type_symbol
 _atom_site_label
 _atom_site_symmetry_multiplicity
 _atom_site_fract_x
 _atom_site_fract_y
 _atom_site_fract_z
 _atom_site_occupancy
  Nd  Nd0  1  0.273262  0.499480  0.184082  1
  Nd  Nd1  1  0.773262  0.000520  0.315918  1
  Nd  Nd2  1  0.726738  0.500520  0.815918  1
  Nd  Nd3  1  0.226738  0.999480  0.684082  1
  Rb  Rb4  1  0.929152  0.199132  0.958531  1
  Rb  Rb5  1  0.429152  0.300868  0.541469  1
  Rb  Rb6  1  0.070848  0.800868  0.041469  1
  Rb  Rb7  1  0.570848  0.699132  0.458531  1
  P  P8  1  0.027453  0.249151  0.275309  1
  P  P9  1  0.527453  0.250849  0.224691  1
  P  P10  1  0.972547  0.750849  0.724691  1
  P  P11  1  0.472547  0.749151  0.775309  1
  P  P12  1  0.827171  0.961137  0.640997  1
  P  P13  1  0.327171  0.538863  0.859003  1
  P  P14  1  0.172829  0.038863  0.359003  1
  P  P15  1  0.672829  0.461137  0.140997  1
  P  P16  1  0.594335  0.144819  0.760140  1
  P  P17  1  0.094335  0.355181  0.739860  1
  P  P18  1  0.405665  0.855181  0.239860  1
  P  P19  1  0.905665  0.644819  0.260140  1
  P  P20  1  0.397001  0.177468  0.978909  1
  P  P21  1  0.897001  0.322532  0.521091  1
  P  P22  1  0.602999  0.822532  0.021091  1
  P  P23  1  0.102999  0.677468  0.478909  1
  O  O24  1  0.706951  0.023749  0.748461  1
  O  O25  1  0.206951  0.476251  0.751539  1
  O  O26  1  0.293049  0.976251  0.251539  1
  O  O27  1  0.793049  0.523749  0.248461  1
  O  O28  1  0.083001  0.853706  0.785953  1
  O  O29  1  0.583001  0.646294  0.714047  1
  O  O30  1  0.916999  0.146294  0.214047  1
  O  O31  1  0.416999  0.353706  0.285953  1
  O  O32  1  0.678385  0.261021  0.747469  1
  O  O33  1  0.178385  0.238979  0.752531  1
  O  O34  1  0.321615  0.738979  0.252531  1
  O  O35  1  0.821615  0.761021  0.247469  1
  O  O36  1  0.965217  0.038349  0.676292  1
  O  O37  1  0.465217  0.461651  0.823708  1
  O  O38  1  0.034783  0.961651  0.323708  1
  O  O39  1  0.534783  0.538349  0.176292  1
  O  O40  1  0.964868  0.400058  0.823452  1
  O  O41  1  0.464868  0.099942  0.676548  1
  O  O42  1  0.035132  0.599942  0.176548  1
  O  O43  1  0.535132  0.900058  0.323452  1
  O  O44  1  0.094779  0.326006  0.195829  1
  O  O45  1  0.594779  0.173994  0.304171  1
  O  O46  1  0.905221  0.673994  0.804171  1
  O  O47  1  0.405221  0.826006  0.695829  1
  O  O48  1  0.344710  0.316369  0.015824  1
  O  O49  1  0.844710  0.183631  0.484176  1
  O  O50  1  0.655290  0.683631  0.984176  1
  O  O51  1  0.155290  0.816369  0.515824  1
  O  O52  1  0.657466  0.317682  0.164293  1
  O  O53  1  0.157466  0.182318  0.335707  1
  O  O54  1  0.342534  0.682319  0.835707  1
  O  O55  1  0.842534  0.817681  0.664293  1
  O  O56  1  0.550717  0.167131  0.904392  1
  O  O57  1  0.050717  0.332869  0.595608  1
  O  O58  1  0.449283  0.832869  0.095608  1
  O  O59  1  0.949283  0.667131  0.404392  1
  O  O60  1  0.260103  0.561713  0.985925  1
  O  O61  1  0.760103  0.938287  0.514075  1
  O  O62  1  0.739897  0.438287  0.014075  1
  O  O63  1  0.239897  0.061713  0.485925  1
  O  O64  1  0.205872  0.571964  0.409866  1
  O  O65  1  0.705872  0.928036  0.090134  1
  O  O66  1  0.794128  0.428036  0.590134  1
  O  O67  1  0.294128  0.071964  0.909866  1
  O  O68  1  0.958723  0.355237  0.396947  1
  O  O69  1  0.458723  0.144763  0.103053  1
  O  O70  1  0.041277  0.644763  0.603053  1
  O  O71  1  0.541277  0.855237  0.896947  1
