# generated using pymatgen
data_B2H10C2NClO3
_symmetry_space_group_name_H-M   'P 1'
_cell_length_a   5.56382620
_cell_length_b   8.64227192
_cell_length_c   9.37807299
_cell_angle_alpha   116.98464540
_cell_angle_beta   95.82982308
_cell_angle_gamma   93.93469272
_symmetry_Int_Tables_number   1
_chemical_formula_structural   B2H10C2NClO3
_chemical_formula_sum   'B4 H20 C4 N2 Cl2 O6'
_cell_volume   396.40297422
_cell_formula_units_Z   2
loop_
 _symmetry_equiv_pos_site_id
 _symmetry_equiv_pos_as_xyz
  1  'x, y, z'
loop_
 _atom_site_type_symbol
 _atom_site_label
 _atom_site_symmetry_multiplicity
 _atom_site_fract_x
 _atom_site_fract_y
 _atom_site_fract_z
 _atom_site_occupancy
  B  B0  1  0.891171  0.662110  0.592887  1
  B  B1  1  0.825603  0.465211  0.595898  1
  B  B2  1  0.108829  0.337890  0.407113  1
  B  B3  1  0.174397  0.534789  0.404102  1
  H  H4  1  0.209499  0.081874  0.578117  1
  H  H5  1  0.574616  0.530899  0.741970  1
  H  H6  1  0.042640  0.735627  0.222939  1
  H  H7  1  0.008376  0.724005  0.025478  1
  H  H8  1  0.227035  0.381412  0.918545  1
  H  H9  1  0.412051  0.957032  0.631171  1
  H  H10  1  0.772965  0.618588  0.081455  1
  H  H11  1  0.991624  0.275995  0.974522  1
  H  H12  1  0.682321  0.805361  0.752543  1
  H  H13  1  0.483129  0.191500  0.715472  1
  H  H14  1  0.790501  0.918126  0.421883  1
  H  H15  1  0.516871  0.808500  0.284528  1
  H  H16  1  0.317679  0.194639  0.247457  1
  H  H17  1  0.957360  0.264373  0.777061  1
  H  H18  1  0.587949  0.042968  0.368829  1
  H  H19  1  0.076056  0.998041  0.776856  1
  H  H20  1  0.425384  0.469101  0.258030  1
  H  H21  1  0.332390  0.114663  0.908523  1
  H  H22  1  0.667610  0.885337  0.091477  1
  H  H23  1  0.923944  0.001959  0.223144  1
  C  C24  1  0.337977  0.081887  0.674686  1
  C  C25  1  0.913299  0.731696  0.124876  1
  C  C26  1  0.086701  0.268304  0.875124  1
  C  C27  1  0.662023  0.918113  0.325314  1
  N  N28  1  0.793062  0.893955  0.187267  1
  N  N29  1  0.206938  0.106045  0.812733  1
  Cl  Cl30  1  0.410581  0.752944  0.869221  1
  Cl  Cl31  1  0.589419  0.247056  0.130779  1
  O  O32  1  0.949882  0.325188  0.507411  1
  O  O33  1  0.805902  0.817340  0.686771  1
  O  O34  1  0.194098  0.182660  0.313229  1
  O  O35  1  0.050118  0.674812  0.492589  1
  O  O36  1  0.336338  0.569554  0.319292  1
  O  O37  1  0.663662  0.430446  0.680708  1
