# generated using pymatgen
data_RbUCrO6
_symmetry_space_group_name_H-M   'P 1'
_cell_length_a   7.22130062
_cell_length_b   8.41750295
_cell_length_c   10.60060655
_cell_angle_alpha   90.00000000
_cell_angle_beta   104.87248520
_cell_angle_gamma   90.00000000
_symmetry_Int_Tables_number   1
_chemical_formula_structural   RbUCrO6
_chemical_formula_sum   'Rb4 U4 Cr4 O24'
_cell_volume   622.77479682
_cell_formula_units_Z   4
loop_
 _symmetry_equiv_pos_site_id
 _symmetry_equiv_pos_as_xyz
  1  'x, y, z'
loop_
 _atom_site_type_symbol
 _atom_site_label
 _atom_site_symmetry_multiplicity
 _atom_site_fract_x
 _atom_site_fract_y
 _atom_site_fract_z
 _atom_site_occupancy
  O  O0  1  0.837160  0.131440  0.568340  1
  O  O1  1  0.162839  0.631439  0.931659  1
  O  O2  1  0.162840  0.868561  0.431659  1
  O  O3  1  0.837161  0.368561  0.068341  1
  O  O4  1  0.572031  0.210158  0.713215  1
  O  O5  1  0.427969  0.710158  0.786786  1
  O  O6  1  0.427969  0.789842  0.286785  1
  O  O7  1  0.572031  0.289843  0.213215  1
  O  O8  1  0.229559  0.441276  0.623745  1
  O  O9  1  0.770442  0.941277  0.876256  1
  O  O10  1  0.770441  0.558723  0.376256  1
  O  O11  1  0.229558  0.058723  0.123744  1
  O  O12  1  0.748016  0.980948  0.234596  1
  O  O13  1  0.251984  0.480949  0.265403  1
  O  O14  1  0.251984  0.019051  0.765403  1
  O  O15  1  0.748016  0.519052  0.734597  1
  O  O16  1  0.535345  0.560525  0.105155  1
  O  O17  1  0.464654  0.060526  0.394845  1
  O  O18  1  0.528666  0.342673  0.493004  1
  O  O19  1  0.535346  0.939475  0.605155  1
  O  O20  1  0.528666  0.157327  0.993004  1
  O  O21  1  0.471334  0.657326  0.506997  1
  O  O22  1  0.471334  0.842674  0.006996  1
  O  O23  1  0.464655  0.439474  0.894845  1
  Cr  Cr24  1  0.610050  0.142644  0.555980  1
  Cr  Cr25  1  0.389951  0.642644  0.944020  1
  Cr  Cr26  1  0.389950  0.857356  0.444020  1
  Cr  Cr27  1  0.610049  0.357355  0.055980  1
  Rb  Rb28  1  0.966685  0.758774  0.638200  1
  Rb  Rb29  1  0.033314  0.258774  0.861800  1
  Rb  Rb30  1  0.966686  0.741226  0.138201  1
  Rb  Rb31  1  0.033315  0.241225  0.361800  1
  U  U32  1  0.489021  0.480495  0.676973  1
  U  U33  1  0.510978  0.980496  0.823027  1
  U  U34  1  0.510979  0.519504  0.323027  1
  U  U35  1  0.489022  0.019504  0.176973  1
