# generated using pymatgen
data_SrSiO3
_symmetry_space_group_name_H-M   'P 1'
_cell_length_a   6.15628423
_cell_length_b   7.54992539
_cell_length_c   12.24680528
_cell_angle_alpha   96.62018061
_cell_angle_beta   90.00000000
_cell_angle_gamma   90.00000000
_symmetry_Int_Tables_number   1
_chemical_formula_structural   SrSiO3
_chemical_formula_sum   'Sr8 Si8 O24'
_cell_volume   565.42975407
_cell_formula_units_Z   8
loop_
 _symmetry_equiv_pos_site_id
 _symmetry_equiv_pos_as_xyz
  1  'x, y, z'
loop_
 _atom_site_type_symbol
 _atom_site_label
 _atom_site_symmetry_multiplicity
 _atom_site_fract_x
 _atom_site_fract_y
 _atom_site_fract_z
 _atom_site_occupancy
  Sr  Sr0  1  0.409094  0.584074  0.841566  1
  Sr  Sr1  1  0.090906  0.084074  0.341566  1
  Sr  Sr2  1  0.600958  0.910903  0.126074  1
  Sr  Sr3  1  0.899042  0.410903  0.626074  1
  Sr  Sr4  1  0.909094  0.915926  0.658434  1
  Sr  Sr5  1  0.590906  0.415926  0.158434  1
  Sr  Sr6  1  0.399042  0.089097  0.873926  1
  Sr  Sr7  1  0.100958  0.589097  0.373926  1
  Si  Si8  1  0.149615  0.668793  0.118264  1
  Si  Si9  1  0.911748  0.749579  0.908146  1
  Si  Si10  1  0.350385  0.168793  0.618264  1
  Si  Si11  1  0.649615  0.831207  0.381736  1
  Si  Si12  1  0.588252  0.249579  0.408146  1
  Si  Si13  1  0.411747  0.750421  0.591854  1
  Si  Si14  1  0.088252  0.250421  0.091854  1
  Si  Si15  1  0.850385  0.331207  0.881736  1
  O  O16  1  0.558242  0.226292  0.542089  1
  O  O17  1  0.058242  0.273708  0.957911  1
  O  O18  1  0.324644  0.157889  0.099315  1
  O  O19  1  0.410939  0.963932  0.655189  1
  O  O20  1  0.910939  0.536068  0.844811  1
  O  O21  1  0.941758  0.726292  0.042089  1
  O  O22  1  0.175356  0.657889  0.599315  1
  O  O23  1  0.675356  0.842111  0.900685  1
  O  O24  1  0.830168  0.202033  0.768187  1
  O  O25  1  0.089061  0.463932  0.155189  1
  O  O26  1  0.628714  0.349406  0.952143  1
  O  O27  1  0.871286  0.849406  0.452143  1
  O  O28  1  0.614951  0.660180  0.647980  1
  O  O29  1  0.169832  0.797967  0.231813  1
  O  O30  1  0.114951  0.839820  0.852020  1
  O  O31  1  0.824644  0.342111  0.400685  1
  O  O32  1  0.589061  0.036068  0.344811  1
  O  O33  1  0.669832  0.702033  0.268187  1
  O  O34  1  0.885049  0.160180  0.147980  1
  O  O35  1  0.441758  0.773708  0.457911  1
  O  O36  1  0.371286  0.650594  0.047857  1
  O  O37  1  0.128714  0.150594  0.547857  1
  O  O38  1  0.330168  0.297967  0.731813  1
  O  O39  1  0.385049  0.339820  0.352020  1
