# generated using pymatgen
data_MoPO5
_symmetry_space_group_name_H-M   'P 1'
_cell_length_a   7.13335331
_cell_length_b   7.57952285
_cell_length_c   7.97243498
_cell_angle_alpha   90.29763138
_cell_angle_beta   90.15690593
_cell_angle_gamma   118.09003952
_symmetry_Int_Tables_number   1
_chemical_formula_structural   MoPO5
_chemical_formula_sum   'Mo4 P4 O20'
_cell_volume   380.26344798
_cell_formula_units_Z   4
loop_
 _symmetry_equiv_pos_site_id
 _symmetry_equiv_pos_as_xyz
  1  'x, y, z'
loop_
 _atom_site_type_symbol
 _atom_site_label
 _atom_site_symmetry_multiplicity
 _atom_site_fract_x
 _atom_site_fract_y
 _atom_site_fract_z
 _atom_site_occupancy
  Mo  Mo0  1  0.242436  0.528475  0.735633  1
  Mo  Mo1  1  0.247027  0.032186  0.766380  1
  Mo  Mo2  1  0.757564  0.471525  0.264367  1
  Mo  Mo3  1  0.752973  0.967814  0.233620  1
  P  P4  1  0.239416  0.754862  0.092428  1
  P  P5  1  0.741923  0.756320  0.591909  1
  P  P6  1  0.258077  0.243680  0.408091  1
  P  P7  1  0.760584  0.245138  0.907572  1
  O  O8  1  0.061585  0.104328  0.304095  1
  O  O9  1  0.938415  0.895672  0.695905  1
  O  O10  1  0.235202  0.748131  0.678168  1
  O  O11  1  0.726847  0.397171  0.016780  1
  O  O12  1  0.328101  0.123120  0.526140  1
  O  O13  1  0.551460  0.102045  0.818431  1
  O  O14  1  0.561374  0.639207  0.717266  1
  O  O15  1  0.261647  0.260897  0.827363  1
  O  O16  1  0.206413  0.388044  0.512871  1
  O  O17  1  0.738353  0.739103  0.172637  1
  O  O18  1  0.448540  0.897955  0.181569  1
  O  O19  1  0.926504  0.351975  0.769253  1
  O  O20  1  0.073496  0.648025  0.230747  1
  O  O21  1  0.438626  0.360793  0.282734  1
  O  O22  1  0.671899  0.876880  0.473860  1
  O  O23  1  0.273153  0.602829  0.983220  1
  O  O24  1  0.793587  0.611956  0.487129  1
  O  O25  1  0.159577  0.873905  0.981155  1
  O  O26  1  0.764798  0.251869  0.321832  1
  O  O27  1  0.840423  0.126095  0.018845  1
