# generated using pymatgen
data_Mg5Al34O56
_symmetry_space_group_name_H-M   'P 1'
_cell_length_a   5.70319853
_cell_length_b   5.74704166
_cell_length_c   40.13839113
_cell_angle_alpha   59.92109209
_cell_angle_beta   59.63120360
_cell_angle_gamma   59.74269699
_symmetry_Int_Tables_number   1
_chemical_formula_structural   Mg5Al34O56
_chemical_formula_sum   'Mg5 Al34 O56'
_cell_volume   925.29141616
_cell_formula_units_Z   1
loop_
 _symmetry_equiv_pos_site_id
 _symmetry_equiv_pos_as_xyz
  1  'x, y, z'
loop_
 _atom_site_type_symbol
 _atom_site_label
 _atom_site_symmetry_multiplicity
 _atom_site_fract_x
 _atom_site_fract_y
 _atom_site_fract_z
 _atom_site_occupancy
  Al  Al0  1  0.087843  0.107602  0.028160  1
  Al  Al1  1  0.484408  0.985787  0.076770  1
  Al  Al2  1  0.432112  0.497801  0.010353  1
  Al  Al3  1  0.150934  0.114110  0.160098  1
  Al  Al4  1  0.484349  0.492500  0.076767  1
  Al  Al5  1  0.503811  1.000124  0.213210  1
  Al  Al6  1  0.514011  0.488355  0.144160  1
  Al  Al7  1  0.164855  0.123849  0.298252  1
  Al  Al8  1  0.503678  0.503679  0.213208  1
  Al  Al9  1  0.521215  0.011561  0.351987  1
  Al  Al10  1  0.506670  0.505604  0.283210  1
  Al  Al11  1  0.840249  0.880900  0.128277  1
  Al  Al12  1  0.015641  0.506210  0.495997  1
  Al  Al13  1  0.520999  0.503465  0.352005  1
  Al  Al14  1  0.510407  0.012457  0.495692  1
  Al  Al15  1  0.531284  0.504655  0.422787  1
  Al  Al16  1  0.859216  0.882568  0.267926  1
  Al  Al17  1  0.010878  0.500051  0.641265  1
  Al  Al18  1  0.510369  0.507387  0.495694  1
  Al  Al19  1  0.501501  0.010434  0.641197  1
  Al  Al20  1  0.509693  0.509120  0.567443  1
  Al  Al21  1  0.883639  0.889111  0.405457  1
  Al  Al22  1  0.000627  0.492263  0.787829  1
  Al  Al23  1  0.501453  0.499509  0.641210  1
  Al  Al24  1  0.495493  0.495615  0.716159  1
  Al  Al25  1  0.491196  0.002614  0.787746  1
  Al  Al26  1  0.988019  0.489437  0.933311  1
  Al  Al27  1  0.491217  0.491866  0.787738  1
  Al  Al28  1  0.481361  0.998538  0.933166  1
  Al  Al29  1  0.485398  0.489999  0.862109  1
  Al  Al30  1  0.870950  0.873414  0.697414  1
  Al  Al31  1  0.481335  0.488023  0.933169  1
  Al  Al32  1  0.863389  0.869622  0.842472  1
  Al  Al33  1  0.839353  0.874804  0.987290  1
  Mg  Mg34  1  0.157691  0.139430  0.437660  1
  Mg  Mg35  1  0.137152  0.131121  0.585791  1
  Mg  Mg36  1  0.126565  0.122549  0.732609  1
  Mg  Mg37  1  0.111237  0.113792  0.880197  1
  Mg  Mg38  1  0.890993  0.892282  0.546357  1
  O  O39  1  0.273536  0.241582  0.033374  1
  O  O40  1  0.278297  0.249277  0.103307  1
  O  O41  1  0.273496  0.751414  0.033381  1
  O  O42  1  0.716307  0.273549  0.033811  1
  O  O43  1  0.298825  0.243049  0.174826  1
  O  O44  1  0.255982  0.752804  0.105490  1
  O  O45  1  0.292357  0.250641  0.243772  1
  O  O46  1  0.733615  0.265788  0.105335  1
  O  O47  1  0.298856  0.734214  0.174817  1
  O  O48  1  0.710299  0.758201  0.039043  1
  O  O49  1  0.733661  0.763244  0.105333  1
  O  O50  1  0.753054  0.254047  0.176960  1
  O  O51  1  0.297624  0.242370  0.317170  1
  O  O52  1  0.263096  0.750526  0.247987  1
  O  O53  1  0.720905  0.268520  0.249722  1
  O  O54  1  0.312015  0.261564  0.380681  1
  O  O55  1  0.297520  0.740133  0.317179  1
  O  O56  1  0.724766  0.751605  0.181702  1
  O  O57  1  0.721206  0.762381  0.249691  1
  O  O58  1  0.765193  0.253863  0.318178  1
  O  O59  1  0.258006  0.257694  0.466860  1
  O  O60  1  0.272130  0.740887  0.392294  1
  O  O61  1  0.271710  0.263965  0.528630  1
  O  O62  1  0.258002  0.716369  0.466854  1
  O  O63  1  0.718221  0.258698  0.394999  1
  O  O64  1  0.732476  0.751962  0.323368  1
  O  O65  1  0.718360  0.758093  0.394986  1
  O  O66  1  0.724400  0.258679  0.465478  1
  O  O67  1  0.259044  0.258047  0.610307  1
  O  O68  1  0.295596  0.734460  0.533644  1
  O  O69  1  0.261282  0.261592  0.673619  1
  O  O70  1  0.259039  0.710645  0.610310  1
  O  O71  1  0.749318  0.743308  0.466307  1
  O  O72  1  0.736194  0.294337  0.533639  1
  O  O73  1  0.736181  0.734050  0.533640  1
  O  O74  1  0.713793  0.257195  0.610244  1
  O  O75  1  0.257059  0.258463  0.754290  1
  O  O76  1  0.264870  0.735607  0.680528  1
  O  O77  1  0.735231  0.265789  0.680421  1
  O  O78  1  0.730268  0.729550  0.615779  1
  O  O79  1  0.254742  0.256781  0.818791  1
  O  O80  1  0.257104  0.704401  0.754271  1
  O  O81  1  0.735225  0.735799  0.680408  1
  O  O82  1  0.705451  0.257746  0.754130  1
  O  O83  1  0.256766  0.261364  0.897049  1
  O  O84  1  0.267897  0.737984  0.822304  1
  O  O85  1  0.243351  0.256797  0.963307  1
  O  O86  1  0.735022  0.272068  0.822153  1
  O  O87  1  0.256744  0.702717  0.897052  1
  O  O88  1  0.735707  0.737615  0.755559  1
  O  O89  1  0.697606  0.262621  0.896752  1
  O  O90  1  0.734970  0.737752  0.822142  1
  O  O91  1  0.261181  0.746151  0.963801  1
  O  O92  1  0.746918  0.271312  0.960812  1
  O  O93  1  0.731512  0.742498  0.897682  1
  O  O94  1  0.746825  0.756026  0.960831  1
