# generated using pymatgen
data_Mg2SiO4
_symmetry_space_group_name_H-M   'P 1'
_cell_length_a   5.85236189
_cell_length_b   7.88682540
_cell_length_c   7.88682540
_cell_angle_alpha   69.15951273
_cell_angle_beta   68.22137697
_cell_angle_gamma   68.22137698
_symmetry_Int_Tables_number   1
_chemical_formula_structural   Mg2SiO4
_chemical_formula_sum   'Mg8 Si4 O16'
_cell_volume   303.71066221
_cell_formula_units_Z   4
loop_
 _symmetry_equiv_pos_site_id
 _symmetry_equiv_pos_as_xyz
  1  'x, y, z'
loop_
 _atom_site_type_symbol
 _atom_site_label
 _atom_site_symmetry_multiplicity
 _atom_site_fract_x
 _atom_site_fract_y
 _atom_site_fract_z
 _atom_site_occupancy
  O  O0  1  0.332152  0.381271  0.888402  1
  O  O1  1  0.101824  0.618729  0.111598  1
  O  O2  1  0.167848  0.111598  0.618729  1
  O  O3  1  0.398176  0.888402  0.381271  1
  O  O4  1  0.667848  0.618729  0.111598  1
  O  O5  1  0.898176  0.381271  0.888402  1
  O  O6  1  0.832152  0.888402  0.381271  1
  O  O7  1  0.601824  0.111598  0.618729  1
  O  O8  1  0.009179  0.235317  0.246324  1
  O  O9  1  0.990821  0.764683  0.753676  1
  O  O10  1  0.490821  0.753676  0.764683  1
  O  O11  1  0.509179  0.246324  0.235317  1
  O  O12  1  0.750000  0.485938  0.514062  1
  O  O13  1  0.250000  0.514062  0.485938  1
  O  O14  1  0.750000  0.939255  0.060745  1
  O  O15  1  0.250000  0.060745  0.939255  1
  Mg  Mg16  1  0.500000  0.500000  0.000000  1
  Mg  Mg17  1  0.000000  0.000000  0.500000  1
  Mg  Mg18  1  0.750000  0.694436  0.305564  1
  Mg  Mg19  1  0.250000  0.305564  0.694436  1
  Mg  Mg20  1  0.132016  0.367984  0.367984  1
  Mg  Mg21  1  0.367984  0.632016  0.632016  1
  Mg  Mg22  1  0.867984  0.632016  0.632016  1
  Mg  Mg23  1  0.632016  0.367984  0.367984  1
  Si  Si24  1  0.610019  0.016060  0.263903  1
  Si  Si25  1  0.389981  0.983940  0.736097  1
  Si  Si26  1  0.889981  0.736097  0.983940  1
  Si  Si27  1  0.110019  0.263903  0.016060  1
