# generated using pymatgen
data_Cs4KLiFe2F12
_symmetry_space_group_name_H-M   'P 1'
_cell_length_a   11.13260534
_cell_length_b   11.13260544
_cell_length_c   11.13260543
_cell_angle_alpha   33.70145938
_cell_angle_beta   33.70145853
_cell_angle_gamma   33.70145905
_symmetry_Int_Tables_number   1
_chemical_formula_structural   Cs4KLiFe2F12
_chemical_formula_sum   'Cs4 K1 Li1 Fe2 F12'
_cell_volume   378.45317350
_cell_formula_units_Z   1
loop_
 _symmetry_equiv_pos_site_id
 _symmetry_equiv_pos_as_xyz
  1  'x, y, z'
loop_
 _atom_site_type_symbol
 _atom_site_label
 _atom_site_symmetry_multiplicity
 _atom_site_fract_x
 _atom_site_fract_y
 _atom_site_fract_z
 _atom_site_occupancy
  Cs  Cs0  1  0.284527  0.284527  0.284527  1
  Cs  Cs1  1  0.715473  0.715473  0.715473  1
  Cs  Cs2  1  0.866648  0.866648  0.866648  1
  Cs  Cs3  1  0.133352  0.133352  0.133352  1
  K  K4  1  0.000000  0.000000  0.000000  1
  Li  Li5  1  0.500000  0.500000  0.500000  1
  Fe  Fe6  1  0.415815  0.415815  0.415815  1
  Fe  Fe7  1  0.584185  0.584185  0.584185  1
  F  F8  1  0.763389  0.328146  0.763389  1
  F  F9  1  0.671854  0.236611  0.236611  1
  F  F10  1  0.328146  0.763389  0.763389  1
  F  F11  1  0.763389  0.763389  0.328146  1
  F  F12  1  0.236611  0.236611  0.671854  1
  F  F13  1  0.236611  0.671854  0.236611  1
  F  F14  1  0.406029  0.406029  0.819741  1
  F  F15  1  0.593971  0.180259  0.593971  1
  F  F16  1  0.593971  0.593971  0.180259  1
  F  F17  1  0.180259  0.593971  0.593971  1
  F  F18  1  0.819741  0.406029  0.406029  1
  F  F19  1  0.406029  0.819741  0.406029  1
