# generated using pymatgen
data_CsH5O3
_symmetry_space_group_name_H-M   'P 1'
_cell_length_a   6.83883945
_cell_length_b   9.26230690
_cell_length_c   13.35789190
_cell_angle_alpha   90.00000000
_cell_angle_beta   90.00000000
_cell_angle_gamma   90.00000000
_symmetry_Int_Tables_number   1
_chemical_formula_structural   CsH5O3
_chemical_formula_sum   'Cs8 H40 O24'
_cell_volume   846.13468819
_cell_formula_units_Z   8
loop_
 _symmetry_equiv_pos_site_id
 _symmetry_equiv_pos_as_xyz
  1  'x, y, z'
loop_
 _atom_site_type_symbol
 _atom_site_label
 _atom_site_symmetry_multiplicity
 _atom_site_fract_x
 _atom_site_fract_y
 _atom_site_fract_z
 _atom_site_occupancy
  Cs  Cs0  1  0.394482  0.506699  0.156915  1
  Cs  Cs1  1  0.605518  0.006699  0.843085  1
  Cs  Cs2  1  0.605518  0.506699  0.656915  1
  Cs  Cs3  1  0.394482  0.006699  0.343085  1
  Cs  Cs4  1  0.067424  0.618674  0.424206  1
  Cs  Cs5  1  0.932576  0.118674  0.575794  1
  Cs  Cs6  1  0.932576  0.618674  0.924206  1
  Cs  Cs7  1  0.067424  0.118674  0.075794  1
  O  O8  1  0.817090  0.236824  0.274096  1
  O  O9  1  0.182910  0.736824  0.725904  1
  O  O10  1  0.182910  0.236824  0.774096  1
  O  O11  1  0.817090  0.736824  0.225904  1
  O  O12  1  0.321531  0.286790  0.489646  1
  O  O13  1  0.678469  0.786790  0.510354  1
  O  O14  1  0.678469  0.286790  0.989646  1
  O  O15  1  0.321531  0.786790  0.010354  1
  O  O16  1  0.883846  0.476678  0.143654  1
  O  O17  1  0.116154  0.976678  0.856346  1
  O  O18  1  0.116154  0.476678  0.643654  1
  O  O19  1  0.883846  0.976678  0.356346  1
  O  O20  1  0.535336  0.621618  0.370781  1
  O  O21  1  0.464664  0.121618  0.629219  1
  O  O22  1  0.464664  0.621618  0.870781  1
  O  O23  1  0.535336  0.121618  0.129219  1
  O  O24  1  0.684019  0.362210  0.436166  1
  O  O25  1  0.315981  0.862210  0.563834  1
  O  O26  1  0.315981  0.362210  0.936166  1
  O  O27  1  0.684019  0.862210  0.063834  1
  O  O28  1  0.194480  0.314244  0.304942  1
  O  O29  1  0.805520  0.814244  0.695058  1
  O  O30  1  0.805520  0.314244  0.804942  1
  O  O31  1  0.194480  0.814244  0.195058  1
  H  H32  1  0.717287  0.203865  0.225932  1
  H  H33  1  0.282713  0.703865  0.774068  1
  H  H34  1  0.282713  0.203865  0.725932  1
  H  H35  1  0.717287  0.703865  0.274068  1
  H  H36  1  0.261304  0.359940  0.532680  1
  H  H37  1  0.738696  0.859940  0.467320  1
  H  H38  1  0.738696  0.359940  0.032680  1
  H  H39  1  0.261304  0.859940  0.967320  1
  H  H40  1  0.865566  0.401137  0.196171  1
  H  H41  1  0.134434  0.901137  0.803829  1
  H  H42  1  0.134434  0.401137  0.696171  1
  H  H43  1  0.865566  0.901137  0.303829  1
  H  H44  1  0.861863  0.574379  0.177294  1
  H  H45  1  0.138137  0.074379  0.822706  1
  H  H46  1  0.138137  0.574379  0.677294  1
  H  H47  1  0.861863  0.074379  0.322706  1
  H  H48  1  0.588486  0.524754  0.389665  1
  H  H49  1  0.411514  0.024754  0.610335  1
  H  H50  1  0.411514  0.524754  0.889665  1
  H  H51  1  0.588486  0.024754  0.110335  1
  H  H52  1  0.587571  0.687002  0.427120  1
  H  H53  1  0.412429  0.187002  0.572880  1
  H  H54  1  0.412429  0.687002  0.927120  1
  H  H55  1  0.587571  0.187002  0.072880  1
  H  H56  1  0.725640  0.310571  0.371505  1
  H  H57  1  0.274360  0.810571  0.628495  1
  H  H58  1  0.274360  0.310571  0.871505  1
  H  H59  1  0.725640  0.810571  0.128495  1
  H  H60  1  0.546374  0.329531  0.453783  1
  H  H61  1  0.453626  0.829531  0.546217  1
  H  H62  1  0.453626  0.329531  0.953783  1
  H  H63  1  0.546374  0.829531  0.046217  1
  H  H64  1  0.056337  0.282746  0.296454  1
  H  H65  1  0.943663  0.782746  0.703546  1
  H  H66  1  0.943663  0.282746  0.796454  1
  H  H67  1  0.056337  0.782746  0.203546  1
  H  H68  1  0.232373  0.303338  0.378371  1
  H  H69  1  0.767627  0.803338  0.621629  1
  H  H70  1  0.767627  0.303338  0.878371  1
  H  H71  1  0.232373  0.803338  0.121629  1
