# generated using pymatgen
data_Ho5Co2Bi
_symmetry_space_group_name_H-M   'P 1'
_cell_length_a   7.51371210
_cell_length_b   7.51371258
_cell_length_c   8.86252523
_cell_angle_alpha   115.08128592
_cell_angle_beta   115.08128775
_cell_angle_gamma   90.00000014
_symmetry_Int_Tables_number   1
_chemical_formula_structural   Ho5Co2Bi
_chemical_formula_sum   'Ho10 Co4 Bi2'
_cell_volume   400.46443227
_cell_formula_units_Z   2
loop_
 _symmetry_equiv_pos_site_id
 _symmetry_equiv_pos_as_xyz
  1  'x, y, z'
loop_
 _atom_site_type_symbol
 _atom_site_label
 _atom_site_symmetry_multiplicity
 _atom_site_fract_x
 _atom_site_fract_y
 _atom_site_fract_z
 _atom_site_occupancy
  Ho  Ho0  1  0.534334  0.712190  0.746524  1
  Ho  Ho1  1  0.965666  0.465666  0.253476  1
  Ho  Ho2  1  0.287810  0.787810  0.253476  1
  Ho  Ho3  1  0.034334  0.534334  0.746524  1
  Ho  Ho4  1  0.000000  0.000000  0.000000  1
  Ho  Ho5  1  0.212190  0.034334  0.746524  1
  Ho  Ho6  1  0.465666  0.287810  0.253476  1
  Ho  Ho7  1  0.712190  0.212190  0.746524  1
  Ho  Ho8  1  0.787810  0.965666  0.253476  1
  Ho  Ho9  1  0.500000  0.500000  0.000000  1
  Co  Co10  1  0.633806  0.133806  0.000000  1
  Co  Co11  1  0.366194  0.866194  1.000000  1
  Co  Co12  1  0.866194  0.633806  1.000000  1
  Co  Co13  1  0.133806  0.366194  0.000000  1
  Bi  Bi14  1  0.250000  0.250000  0.500000  1
  Bi  Bi15  1  0.750000  0.750000  0.500000  1
