# generated using pymatgen
data_K2LaP2Se7
_symmetry_space_group_name_H-M   'P 1'
_cell_length_a   7.34274923
_cell_length_b   9.61446844
_cell_length_c   21.26896872
_cell_angle_alpha   96.48925798
_cell_angle_beta   90.00000000
_cell_angle_gamma   90.00000000
_symmetry_Int_Tables_number   1
_chemical_formula_structural   K2LaP2Se7
_chemical_formula_sum   'K8 La4 P8 Se28'
_cell_volume   1491.89740131
_cell_formula_units_Z   4
loop_
 _symmetry_equiv_pos_site_id
 _symmetry_equiv_pos_as_xyz
  1  'x, y, z'
loop_
 _atom_site_type_symbol
 _atom_site_label
 _atom_site_symmetry_multiplicity
 _atom_site_fract_x
 _atom_site_fract_y
 _atom_site_fract_z
 _atom_site_occupancy
  La  La0  1  0.529404  0.194602  0.850071  1
  La  La1  1  0.029404  0.305398  0.649929  1
  La  La2  1  0.470596  0.805398  0.149929  1
  La  La3  1  0.970596  0.694602  0.350071  1
  Se  Se4  1  0.544345  0.280539  0.002702  1
  Se  Se5  1  0.044345  0.219461  0.497298  1
  Se  Se6  1  0.455655  0.719461  0.997298  1
  Se  Se7  1  0.955655  0.780539  0.502702  1
  Se  Se8  1  0.223084  0.408435  0.895057  1
  Se  Se9  1  0.723084  0.091565  0.604943  1
  Se  Se10  1  0.776916  0.591565  0.104943  1
  Se  Se11  1  0.276916  0.908435  0.395057  1
  Se  Se12  1  0.911997  0.193583  0.780113  1
  Se  Se13  1  0.411997  0.306417  0.719887  1
  Se  Se14  1  0.088003  0.806417  0.219887  1
  Se  Se15  1  0.588003  0.693583  0.280113  1
  Se  Se16  1  0.532585  0.952842  0.743525  1
  Se  Se17  1  0.032585  0.547158  0.756475  1
  Se  Se18  1  0.467415  0.047158  0.256475  1
  Se  Se19  1  0.967415  0.452842  0.243525  1
  Se  Se20  1  0.735858  0.943724  0.900225  1
  Se  Se21  1  0.235858  0.556276  0.599775  1
  Se  Se22  1  0.264142  0.056276  0.099775  1
  Se  Se23  1  0.764142  0.443724  0.400225  1
  Se  Se24  1  0.250531  0.980005  0.903441  1
  Se  Se25  1  0.750531  0.519995  0.596559  1
  Se  Se26  1  0.749469  0.019995  0.096559  1
  Se  Se27  1  0.249469  0.480005  0.403441  1
  Se  Se28  1  0.747154  0.470983  0.891507  1
  Se  Se29  1  0.247154  0.029017  0.608493  1
  Se  Se30  1  0.252846  0.529017  0.108493  1
  Se  Se31  1  0.752846  0.970983  0.391507  1
  P  P32  1  0.984220  0.404497  0.830460  1
  P  P33  1  0.484220  0.095503  0.669540  1
  P  P34  1  0.015780  0.595503  0.169540  1
  P  P35  1  0.515780  0.904497  0.330460  1
  P  P36  1  0.511481  0.080710  0.042585  1
  P  P37  1  0.011481  0.419290  0.457415  1
  P  P38  1  0.488519  0.919290  0.957414  1
  P  P39  1  0.988519  0.580710  0.542586  1
  K  K40  1  0.989932  0.743907  0.990909  1
  K  K41  1  0.489932  0.756093  0.509091  1
  K  K42  1  0.010068  0.256093  0.009091  1
  K  K43  1  0.510068  0.243907  0.490909  1
  K  K44  1  0.450592  0.658486  0.816964  1
  K  K45  1  0.950592  0.841514  0.683036  1
  K  K46  1  0.549408  0.341514  0.183036  1
  K  K47  1  0.049408  0.158486  0.316964  1
