# generated using pymatgen
data_Nb15MoO40F
_symmetry_space_group_name_H-M   'P 1'
_cell_length_a   3.91397085
_cell_length_b   11.50608286
_cell_length_c   19.07769363
_cell_angle_alpha   80.68724825
_cell_angle_beta   84.11226404
_cell_angle_gamma   80.20738009
_symmetry_Int_Tables_number   1
_chemical_formula_structural   Nb15MoO40F
_chemical_formula_sum   'Nb15 Mo1 O40 F1'
_cell_volume   832.98465666
_cell_formula_units_Z   1
loop_
 _symmetry_equiv_pos_site_id
 _symmetry_equiv_pos_as_xyz
  1  'x, y, z'
loop_
 _atom_site_type_symbol
 _atom_site_label
 _atom_site_symmetry_multiplicity
 _atom_site_fract_x
 _atom_site_fract_y
 _atom_site_fract_z
 _atom_site_occupancy
  Nb  Nb0  1  0.231679  0.650575  0.889919  1
  Nb  Nb1  1  0.772173  0.349425  0.110081  1
  Nb  Nb2  1  0.634618  0.160508  0.573533  1
  Nb  Nb3  1  0.630620  0.685455  0.036699  1
  Nb  Nb4  1  0.599677  0.427331  0.305129  1
  Nb  Nb5  1  0.506490  0.764989  0.232508  1
  Nb  Nb6  1  0.769696  0.088538  0.379737  1
  Nb  Nb7  1  0.368658  0.839492  0.426467  1
  Nb  Nb8  1  0.503987  0.235011  0.767492  1
  Nb  Nb9  1  0.352775  0.314545  0.963301  1
  Nb  Nb10  1  0.106014  0.988590  0.813608  1
  Nb  Nb11  1  0.908213  0.011410  0.186392  1
  Nb  Nb12  1  0.237971  0.911462  0.620263  1
  Nb  Nb13  1  0.503802  0.500000  0.500000  1
  Nb  Nb14  1  0.332137  0.572669  0.694871  1
  Mo  Mo15  1  0.750597  0.000000  0.000000  1
  O  O16  1  0.702615  0.114621  0.477368  1
  O  O17  1  0.296273  0.615763  0.798670  1
  O  O18  1  0.435521  0.537205  0.596473  1
  O  O19  1  0.424539  0.268847  0.874642  1
  O  O20  1  0.840957  0.035788  0.280550  1
  O  O21  1  0.428383  0.961749  0.186268  1
  O  O22  1  0.989256  0.807828  0.217466  1
  O  O23  1  0.432168  0.808837  0.325488  1
  O  O24  1  0.289305  0.337532  0.084438  1
  O  O25  1  0.436786  0.399253  0.737157  1
  O  O26  1  0.711365  0.246978  0.340530  1
  O  O27  1  0.709417  0.518312  0.064896  1
  O  O28  1  0.157293  0.964212  0.719450  1
  O  O29  1  0.710707  0.384237  0.201330  1
  O  O30  1  0.289180  0.037366  0.385790  1
  O  O31  1  0.576400  0.038251  0.813732  1
  O  O32  1  0.568028  0.731153  0.125358  1
  O  O33  1  0.848097  0.308933  0.992832  1
  O  O34  1  0.136625  0.422886  0.301803  1
  O  O35  1  0.981159  0.962977  0.078837  1
  O  O36  1  0.149208  0.119591  0.582122  1
  O  O37  1  0.022972  0.037023  0.921163  1
  O  O38  1  0.566492  0.191163  0.674512  1
  O  O39  1  0.433023  0.673328  0.462062  1
  O  O40  1  0.570527  0.870821  0.989532  1
  O  O41  1  0.294603  0.885379  0.522632  1
  O  O42  1  0.569199  0.462795  0.403527  1
  O  O43  1  0.568413  0.326672  0.537938  1
  O  O44  1  0.157946  0.830520  0.856893  1
  O  O45  1  0.149862  0.691067  0.007168  1
  O  O46  1  0.861314  0.577114  0.698197  1
  O  O47  1  0.298873  0.753022  0.659470  1
  O  O48  1  0.845360  0.169480  0.143107  1
  O  O49  1  0.573196  0.600747  0.262843  1
  O  O50  1  0.014551  0.192172  0.782534  1
  O  O51  1  0.850922  0.880409  0.417878  1
  O  O52  1  0.430880  0.129179  0.010468  1
  O  O53  1  0.712336  0.962634  0.614210  1
  O  O54  1  0.292626  0.481688  0.935104  1
  O  O55  1  0.711275  0.662468  0.915562  1
  F  F56  1  0.003242  0.500000  0.500000  1
