# generated using pymatgen
data_Li2Ca4Si4O13
_symmetry_space_group_name_H-M   'P 1'
_cell_length_a   7.22243899
_cell_length_b   8.31926872
_cell_length_c   10.58558751
_cell_angle_alpha   70.68684466
_cell_angle_beta   89.89775783
_cell_angle_gamma   77.80873794
_symmetry_Int_Tables_number   1
_chemical_formula_structural   Li2Ca4Si4O13
_chemical_formula_sum   'Li4 Ca8 Si8 O26'
_cell_volume   585.11053728
_cell_formula_units_Z   2
loop_
 _symmetry_equiv_pos_site_id
 _symmetry_equiv_pos_as_xyz
  1  'x, y, z'
loop_
 _atom_site_type_symbol
 _atom_site_label
 _atom_site_symmetry_multiplicity
 _atom_site_fract_x
 _atom_site_fract_y
 _atom_site_fract_z
 _atom_site_occupancy
  Li  Li0  1  0.749251  0.408184  0.590944  1
  Li  Li1  1  0.228218  0.578538  0.886703  1
  Li  Li2  1  0.250749  0.591816  0.409056  1
  Li  Li3  1  0.771782  0.421462  0.113297  1
  Ca  Ca4  1  0.075812  0.211118  0.401658  1
  Ca  Ca5  1  0.083318  0.195396  0.002761  1
  Ca  Ca6  1  0.924188  0.788882  0.598342  1
  Ca  Ca7  1  0.570707  0.206961  0.393285  1
  Ca  Ca8  1  0.916682  0.804604  0.997239  1
  Ca  Ca9  1  0.569586  0.197592  0.005440  1
  Ca  Ca10  1  0.429293  0.793039  0.606715  1
  Ca  Ca11  1  0.430414  0.802408  0.994560  1
  Si  Si12  1  0.637603  0.093077  0.719442  1
  Si  Si13  1  0.732949  0.573961  0.821731  1
  Si  Si14  1  0.283375  0.382822  0.696426  1
  Si  Si15  1  0.716625  0.617178  0.303574  1
  Si  Si16  1  0.267051  0.426039  0.178269  1
  Si  Si17  1  0.075096  0.083686  0.721916  1
  Si  Si18  1  0.924904  0.916314  0.278084  1
  Si  Si19  1  0.362397  0.906923  0.280558  1
  O  O20  1  0.772929  0.412447  0.398719  1
  O  O21  1  0.140597  0.272391  0.653177  1
  O  O22  1  0.284329  0.351330  0.856751  1
  O  O23  1  0.841856  0.157372  0.698116  1
  O  O24  1  0.271603  0.409702  0.339365  1
  O  O25  1  0.379814  0.009713  0.384165  1
  O  O26  1  0.134033  0.991102  0.880759  1
  O  O27  1  0.715671  0.648670  0.143249  1
  O  O28  1  0.381885  0.997398  0.122156  1
  O  O29  1  0.511267  0.666045  0.840693  1
  O  O30  1  0.097806  0.322305  0.164233  1
  O  O31  1  0.227071  0.587553  0.601281  1
  O  O32  1  0.865967  0.008898  0.119241  1
  O  O33  1  0.859403  0.727609  0.346823  1
  O  O34  1  0.488733  0.333955  0.159307  1
  O  O35  1  0.618115  0.002602  0.877844  1
  O  O36  1  0.864397  0.033456  0.373780  1
  O  O37  1  0.496316  0.294192  0.656717  1
  O  O38  1  0.620186  0.990287  0.615835  1
  O  O39  1  0.786447  0.375958  0.933728  1
  O  O40  1  0.503684  0.705808  0.343283  1
  O  O41  1  0.135603  0.966544  0.626220  1
  O  O42  1  0.728397  0.590298  0.660635  1
  O  O43  1  0.158144  0.842628  0.301884  1
  O  O44  1  0.213553  0.624042  0.066272  1
  O  O45  1  0.902194  0.677695  0.835767  1
