# generated using pymatgen
data_Te(CF4)2
_symmetry_space_group_name_H-M   'P 1'
_cell_length_a   9.18492602
_cell_length_b   9.98000260
_cell_length_c   12.29744548
_cell_angle_alpha   113.93973011
_cell_angle_beta   91.68246883
_cell_angle_gamma   89.99999960
_symmetry_Int_Tables_number   1
_chemical_formula_structural   Te(CF4)2
_chemical_formula_sum   'Te6 C12 F48'
_cell_volume   1029.74643044
_cell_formula_units_Z   6
loop_
 _symmetry_equiv_pos_site_id
 _symmetry_equiv_pos_as_xyz
  1  'x, y, z'
loop_
 _atom_site_type_symbol
 _atom_site_label
 _atom_site_symmetry_multiplicity
 _atom_site_fract_x
 _atom_site_fract_y
 _atom_site_fract_z
 _atom_site_occupancy
  Te  Te0  1  0.750000  0.065103  0.000000  1
  Te  Te1  1  0.421137  0.023207  0.667423  1
  Te  Te2  1  0.578863  0.976793  0.332577  1
  Te  Te3  1  0.078863  0.355784  0.332577  1
  Te  Te4  1  0.921137  0.644216  0.667423  1
  Te  Te5  1  0.250000  0.934897  1.000000  1
  C  C6  1  0.215024  0.994809  0.555948  1
  C  C7  1  0.130951  0.454853  0.203121  1
  C  C8  1  0.647672  0.276475  0.121059  1
  C  C9  1  0.147672  0.844584  0.121059  1
  C  C10  1  0.630951  0.748269  0.203121  1
  C  C11  1  0.852328  0.155416  0.878941  1
  C  C12  1  0.784976  0.005191  0.444052  1
  C  C13  1  0.369049  0.251731  0.796879  1
  C  C14  1  0.715024  0.561139  0.555948  1
  C  C15  1  0.869049  0.545147  0.796879  1
  C  C16  1  0.284976  0.438861  0.444052  1
  C  C17  1  0.352328  0.723525  0.878941  1
  F  F18  1  0.212123  0.190615  0.239387  1
  F  F19  1  0.482034  0.755289  0.845657  1
  F  F20  1  0.375712  0.634219  0.935717  1
  F  F21  1  0.500786  0.141257  0.581837  1
  F  F22  1  0.124288  0.698502  0.064283  1
  F  F23  1  0.269663  0.575898  0.527671  1
  F  F24  1  0.716788  0.680843  0.256146  1
  F  F25  1  0.783212  0.424697  0.743854  1
  F  F26  1  0.495417  0.328353  0.833544  1
  F  F27  1  0.231903  0.871164  0.219557  1
  F  F28  1  0.683317  0.652287  0.502152  1
  F  F29  1  0.624288  0.365781  0.064283  1
  F  F30  1  0.102368  0.062961  0.624255  1
  F  F31  1  0.064642  0.848958  0.904973  1
  F  F32  1  0.935358  0.151042  0.095027  1
  F  F33  1  0.504583  0.671647  0.166456  1
  F  F34  1  0.004583  0.494810  0.166456  1
  F  F35  1  0.769663  0.951773  0.527671  1
  F  F36  1  0.897632  0.937039  0.375745  1
  F  F37  1  0.731903  0.348393  0.219557  1
  F  F38  1  0.787877  0.809385  0.760613  1
  F  F39  1  0.875712  0.301498  0.935717  1
  F  F40  1  0.499214  0.858743  0.418163  1
  F  F41  1  0.982034  0.090368  0.845657  1
  F  F42  1  0.517966  0.244711  0.154343  1
  F  F43  1  0.183317  0.849865  0.502152  1
  F  F44  1  0.268097  0.651607  0.780443  1
  F  F45  1  0.198731  0.358624  0.108090  1
  F  F46  1  0.816683  0.150135  0.497848  1
  F  F47  1  0.301269  0.250535  0.891911  1
  F  F48  1  0.216788  0.575303  0.256146  1
  F  F49  1  0.801269  0.641376  0.891911  1
  F  F50  1  0.316683  0.347713  0.497848  1
  F  F51  1  1.000786  0.440580  0.581837  1
  F  F52  1  0.397632  0.438706  0.375745  1
  F  F53  1  0.602368  0.561294  0.624255  1
  F  F54  1  0.712123  0.048772  0.239387  1
  F  F55  1  0.768097  0.128836  0.780443  1
  F  F56  1  0.698731  0.749465  0.108090  1
  F  F57  1  0.283212  0.319157  0.743854  1
  F  F58  1  0.730337  0.424102  0.472329  1
  F  F59  1  -0.000786  0.559420  0.418163  1
  F  F60  1  0.230337  0.048227  0.472329  1
  F  F61  1  0.435358  0.943985  0.095027  1
  F  F62  1  0.564642  0.056015  0.904973  1
  F  F63  1  0.995417  0.505190  0.833544  1
  F  F64  1  0.017966  0.909632  0.154343  1
  F  F65  1  0.287877  0.951228  0.760613  1
