# generated using pymatgen
data_Li2CaTa2O7
_symmetry_space_group_name_H-M   'P 1'
_cell_length_a   3.95509870
_cell_length_b   3.95509983
_cell_length_c   9.71968860
_cell_angle_alpha   101.71734258
_cell_angle_beta   101.71733559
_cell_angle_gamma   90.11193416
_symmetry_Int_Tables_number   1
_chemical_formula_structural   Li2CaTa2O7
_chemical_formula_sum   'Li2 Ca1 Ta2 O7'
_cell_volume   145.62450154
_cell_formula_units_Z   1
loop_
 _symmetry_equiv_pos_site_id
 _symmetry_equiv_pos_as_xyz
  1  'x, y, z'
loop_
 _atom_site_type_symbol
 _atom_site_label
 _atom_site_symmetry_multiplicity
 _atom_site_fract_x
 _atom_site_fract_y
 _atom_site_fract_z
 _atom_site_occupancy
  Li  Li0  1  0.250038  0.749962  0.500000  1
  Li  Li1  1  0.749962  0.250038  0.500000  1
  Ca  Ca2  1  0.000000  0.000000  0.000000  1
  Ta  Ta3  1  0.611493  0.611493  0.222939  1
  Ta  Ta4  1  0.388507  0.388507  0.777061  1
  O  O5  1  0.099650  0.599639  0.199293  1
  O  O6  1  0.286170  0.286170  0.572376  1
  O  O7  1  0.400361  0.900350  0.800708  1
  O  O8  1  0.900350  0.400361  0.800708  1
  O  O9  1  0.713830  0.713830  0.427624  1
  O  O10  1  0.599639  0.099650  0.199292  1
  O  O11  1  0.500000  0.500000  0.000000  1
