# generated using pymatgen
data_TiHg6As4Cl7
_symmetry_space_group_name_H-M   'P 1'
_cell_length_a   12.53767102
_cell_length_b   12.53767102
_cell_length_c   12.53767102
_cell_angle_alpha   90.00000000
_cell_angle_beta   90.00000000
_cell_angle_gamma   90.00000000
_symmetry_Int_Tables_number   1
_chemical_formula_structural   TiHg6As4Cl7
_chemical_formula_sum   'Ti4 Hg24 As16 Cl28'
_cell_volume   1970.83656055
_cell_formula_units_Z   4
loop_
 _symmetry_equiv_pos_site_id
 _symmetry_equiv_pos_as_xyz
  1  'x, y, z'
loop_
 _atom_site_type_symbol
 _atom_site_label
 _atom_site_symmetry_multiplicity
 _atom_site_fract_x
 _atom_site_fract_y
 _atom_site_fract_z
 _atom_site_occupancy
  Ti  Ti0  1  0.500000  0.500000  0.500000  1
  Ti  Ti1  1  0.500000  0.000000  0.000000  1
  Ti  Ti2  1  0.000000  0.500000  0.000000  1
  Ti  Ti3  1  0.000000  0.000000  0.500000  1
  Hg  Hg4  1  0.188242  0.304376  0.453310  1
  Hg  Hg5  1  0.195624  0.546690  0.688242  1
  Hg  Hg6  1  0.046690  0.688242  0.304376  1
  Hg  Hg7  1  0.453310  0.311758  0.804376  1
  Hg  Hg8  1  0.688242  0.304376  0.046690  1
  Hg  Hg9  1  0.311758  0.804376  0.453310  1
  Hg  Hg10  1  0.304376  0.046690  0.688242  1
  Hg  Hg11  1  0.953310  0.188242  0.195624  1
  Hg  Hg12  1  0.811758  0.804376  0.046690  1
  Hg  Hg13  1  0.688242  0.195624  0.546690  1
  Hg  Hg14  1  0.811758  0.695624  0.546690  1
  Hg  Hg15  1  0.188242  0.195624  0.953310  1
  Hg  Hg16  1  0.304376  0.453310  0.188242  1
  Hg  Hg17  1  0.695624  0.953310  0.311758  1
  Hg  Hg18  1  0.453310  0.188242  0.304376  1
  Hg  Hg19  1  0.311758  0.695624  0.953310  1
  Hg  Hg20  1  0.695624  0.546690  0.811758  1
  Hg  Hg21  1  0.546690  0.811758  0.695624  1
  Hg  Hg22  1  0.804376  0.453310  0.311758  1
  Hg  Hg23  1  0.046690  0.811758  0.804376  1
  Hg  Hg24  1  0.195624  0.953310  0.188242  1
  Hg  Hg25  1  0.804376  0.046690  0.811758  1
  Hg  Hg26  1  0.546690  0.688242  0.195624  1
  Hg  Hg27  1  0.953310  0.311758  0.695624  1
  As  As28  1  0.266165  0.266165  0.266165  1
  As  As29  1  0.349707  0.650293  0.150293  1
  As  As30  1  0.733835  0.733835  0.733835  1
  As  As31  1  0.650293  0.150293  0.349707  1
  As  As32  1  0.150293  0.349707  0.650293  1
  As  As33  1  0.766165  0.233835  0.733835  1
  As  As34  1  0.733835  0.766165  0.233835  1
  As  As35  1  0.849707  0.650293  0.349707  1
  As  As36  1  0.849707  0.849707  0.849707  1
  As  As37  1  0.266165  0.233835  0.766165  1
  As  As38  1  0.650293  0.349707  0.849707  1
  As  As39  1  0.766165  0.266165  0.233835  1
  As  As40  1  0.233835  0.766165  0.266165  1
  As  As41  1  0.233835  0.733835  0.766165  1
  As  As42  1  0.349707  0.849707  0.650293  1
  As  As43  1  0.150293  0.150293  0.150293  1
  Cl  Cl44  1  0.318418  0.536780  0.455650  1
  Cl  Cl45  1  0.455650  0.318418  0.536780  1
  Cl  Cl46  1  0.500000  0.000000  0.500000  1
  Cl  Cl47  1  0.818418  0.963220  0.544350  1
  Cl  Cl48  1  0.818418  0.536780  0.044350  1
  Cl  Cl49  1  0.963220  0.955650  0.318418  1
  Cl  Cl50  1  0.000000  0.000000  0.000000  1
  Cl  Cl51  1  0.181582  0.463220  0.955650  1
  Cl  Cl52  1  0.455650  0.181582  0.036780  1
  Cl  Cl53  1  0.000000  0.500000  0.500000  1
  Cl  Cl54  1  0.544350  0.681582  0.463220  1
  Cl  Cl55  1  0.044350  0.818418  0.536780  1
  Cl  Cl56  1  0.463220  0.544350  0.681582  1
  Cl  Cl57  1  0.536780  0.455650  0.318418  1
  Cl  Cl58  1  0.544350  0.818418  0.963220  1
  Cl  Cl59  1  0.463220  0.955650  0.181582  1
  Cl  Cl60  1  0.955650  0.181582  0.463220  1
  Cl  Cl61  1  0.318418  0.963220  0.955650  1
  Cl  Cl62  1  0.536780  0.044350  0.818418  1
  Cl  Cl63  1  0.036780  0.455650  0.181582  1
  Cl  Cl64  1  0.044350  0.681582  0.036780  1
  Cl  Cl65  1  0.500000  0.500000  0.000000  1
  Cl  Cl66  1  0.036780  0.044350  0.681582  1
  Cl  Cl67  1  0.181582  0.036780  0.455650  1
  Cl  Cl68  1  0.681582  0.463220  0.544350  1
  Cl  Cl69  1  0.681582  0.036780  0.044350  1
  Cl  Cl70  1  0.963220  0.544350  0.818418  1
  Cl  Cl71  1  0.955650  0.318418  0.963220  1
