# generated using pymatgen
data_TbCuS2
_symmetry_space_group_name_H-M   'P 1'
_cell_length_a   6.37915896
_cell_length_b   6.76287486
_cell_length_c   7.02754840
_cell_angle_alpha   90.00000000
_cell_angle_beta   90.00000000
_cell_angle_gamma   97.25196964
_symmetry_Int_Tables_number   1
_chemical_formula_structural   TbCuS2
_chemical_formula_sum   'Tb4 Cu4 S8'
_cell_volume   300.75341019
_cell_formula_units_Z   4
loop_
 _symmetry_equiv_pos_site_id
 _symmetry_equiv_pos_as_xyz
  1  'x, y, z'
loop_
 _atom_site_type_symbol
 _atom_site_label
 _atom_site_symmetry_multiplicity
 _atom_site_fract_x
 _atom_site_fract_y
 _atom_site_fract_z
 _atom_site_occupancy
  S  S0  1  0.574924  0.497713  0.726563  1
  S  S1  1  0.425076  0.002287  0.226563  1
  S  S2  1  0.425076  0.502287  0.273437  1
  S  S3  1  0.574924  0.997713  0.773437  1
  S  S4  1  0.908166  0.219130  0.386590  1
  S  S5  1  0.908166  0.719130  0.113410  1
  S  S6  1  0.091834  0.780870  0.613410  1
  S  S7  1  0.091834  0.280870  0.886590  1
  Cu  Cu8  1  0.919628  0.949763  0.838595  1
  Cu  Cu9  1  0.080372  0.050237  0.161405  1
  Cu  Cu10  1  0.080372  0.550237  0.338595  1
  Cu  Cu11  1  0.919628  0.449763  0.661405  1
  Tb  Tb12  1  0.693226  0.300702  0.048049  1
  Tb  Tb13  1  0.306774  0.199298  0.548049  1
  Tb  Tb14  1  0.306774  0.699298  0.951951  1
  Tb  Tb15  1  0.693226  0.800702  0.451951  1
