# generated using pymatgen
data_Ca7(B7Rh10)2
_symmetry_space_group_name_H-M   'P 1'
_cell_length_a   5.59369443
_cell_length_b   5.62374233
_cell_length_c   20.49006471
_cell_angle_alpha   86.10752497
_cell_angle_beta   82.15475896
_cell_angle_gamma   60.17658960
_symmetry_Int_Tables_number   1
_chemical_formula_structural   Ca7(B7Rh10)2
_chemical_formula_sum   'Ca7 B14 Rh20'
_cell_volume   553.96737352
_cell_formula_units_Z   1
loop_
 _symmetry_equiv_pos_site_id
 _symmetry_equiv_pos_as_xyz
  1  'x, y, z'
loop_
 _atom_site_type_symbol
 _atom_site_label
 _atom_site_symmetry_multiplicity
 _atom_site_fract_x
 _atom_site_fract_y
 _atom_site_fract_z
 _atom_site_occupancy
  Ca  Ca0  1  0.353465  0.000000  0.293071  1
  Ca  Ca1  1  0.722199  0.000000  0.555601  1
  Ca  Ca2  1  0.277801  0.000000  0.444399  1
  Ca  Ca3  1  0.500000  0.000000  0.000000  1
  Ca  Ca4  1  0.646535  0.000000  0.706929  1
  Ca  Ca5  1  0.427061  0.000000  0.145878  1
  Ca  Ca6  1  0.572939  0.000000  0.854122  1
  B  B7  1  0.238642  0.667111  0.855605  1
  B  B8  1  0.977674  0.333201  0.711450  1
  B  B9  1  0.689124  0.333201  0.288550  1
  B  B10  1  0.022326  0.666799  0.288550  1
  B  B11  1  0.622185  0.322658  0.432973  1
  B  B12  1  0.761358  0.332889  0.144395  1
  B  B13  1  0.833673  0.332654  0.000000  1
  B  B14  1  0.944842  0.677342  0.432973  1
  B  B15  1  0.094247  0.667111  0.144395  1
  B  B16  1  0.905753  0.332889  0.855605  1
  B  B17  1  0.166327  0.667346  0.000000  1
  B  B18  1  0.055158  0.322658  0.567027  1
  B  B19  1  0.310876  0.666799  0.711450  1
  B  B20  1  0.377815  0.677342  0.567027  1
  Rh  Rh21  1  0.680269  0.500000  0.639463  1
  Rh  Rh22  1  0.891967  0.000000  0.216066  1
  Rh  Rh23  1  0.036031  0.500000  0.927937  1
  Rh  Rh24  1  0.180714  0.000000  0.638572  1
  Rh  Rh25  1  0.391708  0.500000  0.216583  1
  Rh  Rh26  1  0.108033  0.000000  0.783934  1
  Rh  Rh27  1  0.964024  0.000000  0.071952  1
  Rh  Rh28  1  0.891708  0.500000  0.216583  1
  Rh  Rh29  1  0.819731  0.500000  0.360537  1
  Rh  Rh30  1  0.463969  0.500000  0.072063  1
  Rh  Rh31  1  0.963969  0.500000  0.072063  1
  Rh  Rh32  1  0.319731  0.500000  0.360537  1
  Rh  Rh33  1  0.608292  0.500000  0.783417  1
  Rh  Rh34  1  0.750000  0.500000  0.500000  1
  Rh  Rh35  1  0.536031  0.500000  0.927937  1
  Rh  Rh36  1  0.819286  0.000000  0.361428  1
  Rh  Rh37  1  0.035976  0.000000  0.928048  1
  Rh  Rh38  1  0.108292  0.500000  0.783417  1
  Rh  Rh39  1  0.250000  0.500000  0.500000  1
  Rh  Rh40  1  0.180269  0.500000  0.639463  1
