# generated using pymatgen
data_U3O8
_symmetry_space_group_name_H-M   'P 1'
_cell_length_a   6.98435707
_cell_length_b   8.31849626
_cell_length_c   11.63237203
_cell_angle_alpha   90.00000000
_cell_angle_beta   90.08226618
_cell_angle_gamma   90.00000000
_symmetry_Int_Tables_number   1
_chemical_formula_structural   U3O8
_chemical_formula_sum   'U12 O32'
_cell_volume   675.83253572
_cell_formula_units_Z   4
loop_
 _symmetry_equiv_pos_site_id
 _symmetry_equiv_pos_as_xyz
  1  'x, y, z'
loop_
 _atom_site_type_symbol
 _atom_site_label
 _atom_site_symmetry_multiplicity
 _atom_site_fract_x
 _atom_site_fract_y
 _atom_site_fract_z
 _atom_site_occupancy
  U  U0  1  0.504311  0.250000  0.180165  1
  U  U1  1  0.010838  0.250000  0.000103  1
  U  U2  1  0.996219  0.750000  0.680245  1
  U  U3  1  0.495689  0.750000  0.819835  1
  U  U4  1  0.003781  0.250000  0.319755  1
  U  U5  1  0.989162  0.750000  0.999897  1
  U  U6  1  0.004385  0.250000  0.680148  1
  U  U7  1  0.496316  0.750000  0.180231  1
  U  U8  1  0.503684  0.250000  0.819769  1
  U  U9  1  0.489097  0.750000  0.499956  1
  U  U10  1  0.995615  0.750000  0.319852  1
  U  U11  1  0.510903  0.250000  0.500044  1
  O  O12  1  0.000989  0.999450  0.682063  1
  O  O13  1  0.527867  0.750000  0.999876  1
  O  O14  1  0.500000  0.500000  0.500000  1
  O  O15  1  0.682694  0.250000  0.655140  1
  O  O16  1  0.027432  0.750000  0.499887  1
  O  O17  1  0.817401  0.750000  0.844830  1
  O  O18  1  0.181881  0.250000  0.844798  1
  O  O19  1  0.499020  0.499804  0.818033  1
  O  O20  1  0.186611  0.750000  0.138884  1
  O  O21  1  0.314008  0.250000  0.639499  1
  O  O22  1  0.186121  0.750000  0.860572  1
  O  O23  1  0.499020  0.000196  0.818033  1
  O  O24  1  0.685992  0.750000  0.360501  1
  O  O25  1  0.000989  0.500550  0.682063  1
  O  O26  1  0.686445  0.750000  0.639051  1
  O  O27  1  0.472133  0.250000  0.000124  1
  O  O28  1  0.999011  0.499450  0.317937  1
  O  O29  1  0.813389  0.250000  0.861116  1
  O  O30  1  0.317306  0.750000  0.344860  1
  O  O31  1  0.999011  0.000550  0.317937  1
  O  O32  1  0.500980  0.500196  0.181967  1
  O  O33  1  0.313555  0.250000  0.360949  1
  O  O34  1  0.972568  0.250000  0.500113  1
  O  O35  1  0.682111  0.250000  0.344936  1
  O  O36  1  0.182599  0.250000  0.155170  1
  O  O37  1  -0.000000  0.000000  0.000000  1
  O  O38  1  0.818119  0.750000  0.155202  1
  O  O39  1  0.500980  0.999804  0.181967  1
  O  O40  1  0.317889  0.750000  0.655064  1
  O  O41  1  0.500000  0.000000  0.500000  1
  O  O42  1  0.813879  0.250000  0.139428  1
  O  O43  1  -0.000000  0.500000  0.000000  1
