# generated using pymatgen
data_PH8BrN4
_symmetry_space_group_name_H-M   'P 1'
_cell_length_a   4.41487031
_cell_length_b   9.22314670
_cell_length_c   9.22314670
_cell_angle_alpha   90.00000000
_cell_angle_beta   90.00000000
_cell_angle_gamma   90.00000000
_symmetry_Int_Tables_number   1
_chemical_formula_structural   PH8BrN4
_chemical_formula_sum   'P2 H16 Br2 N8'
_cell_volume   375.55727848
_cell_formula_units_Z   2
loop_
 _symmetry_equiv_pos_site_id
 _symmetry_equiv_pos_as_xyz
  1  'x, y, z'
loop_
 _atom_site_type_symbol
 _atom_site_label
 _atom_site_symmetry_multiplicity
 _atom_site_fract_x
 _atom_site_fract_y
 _atom_site_fract_z
 _atom_site_occupancy
  Br  Br0  1  0.000000  0.250000  0.250000  1
  Br  Br1  1  0.000000  0.750000  0.750000  1
  P  P2  1  0.500000  0.750000  0.250000  1
  P  P3  1  0.500000  0.250000  0.750000  1
  N  N4  1  -0.014122  0.447166  0.947166  1
  N  N5  1  -0.014122  0.552834  0.447166  1
  N  N6  1  -0.014122  0.947166  0.052834  1
  N  N7  1  -0.014122  0.052834  0.552834  1
  N  N8  1  1.014122  0.447166  0.552834  1
  N  N9  1  1.014122  0.052834  0.947166  1
  N  N10  1  1.014122  0.947166  0.447166  1
  N  N11  1  1.014122  0.552834  0.052834  1
  H  H12  1  0.880700  0.490236  0.857682  1
  H  H13  1  0.880700  0.642318  0.490236  1
  H  H14  1  0.880700  0.857682  0.009764  1
  H  H15  1  0.880700  0.009764  0.642318  1
  H  H16  1  0.119300  0.490236  0.642318  1
  H  H17  1  0.119300  0.009764  0.857682  1
  H  H18  1  0.119300  0.857682  0.490236  1
  H  H19  1  0.119300  0.642318  0.009764  1
  H  H20  1  0.119300  0.509764  0.142318  1
  H  H21  1  0.119300  0.357682  0.509764  1
  H  H22  1  0.119300  0.142318  0.990236  1
  H  H23  1  0.119300  0.990236  0.357682  1
  H  H24  1  0.880700  0.509764  0.357682  1
  H  H25  1  0.880700  0.990236  0.142318  1
  H  H26  1  0.880700  0.142318  0.509764  1
  H  H27  1  0.880700  0.357682  0.990236  1
