# generated using pymatgen
data_K5In(MoO4)4
_symmetry_space_group_name_H-M   'P 1'
_cell_length_a   9.67840043
_cell_length_b   9.67840112
_cell_length_c   10.71744803
_cell_angle_alpha   71.75589764
_cell_angle_beta   71.75589631
_cell_angle_gamma   79.05989197
_symmetry_Int_Tables_number   1
_chemical_formula_structural   K5In(MoO4)4
_chemical_formula_sum   'K10 In2 Mo8 O32'
_cell_volume   900.82520977
_cell_formula_units_Z   2
loop_
 _symmetry_equiv_pos_site_id
 _symmetry_equiv_pos_as_xyz
  1  'x, y, z'
loop_
 _atom_site_type_symbol
 _atom_site_label
 _atom_site_symmetry_multiplicity
 _atom_site_fract_x
 _atom_site_fract_y
 _atom_site_fract_z
 _atom_site_occupancy
  K  K0  1  0.181636  0.383000  0.563322  1
  K  K1  1  0.075761  0.340213  0.929530  1
  K  K2  1  0.383000  0.181636  0.063322  1
  K  K3  1  0.924239  0.659787  0.070470  1
  K  K4  1  0.659787  0.924239  0.570470  1
  K  K5  1  0.818364  0.617000  0.436678  1
  K  K6  1  0.340213  0.075761  0.429530  1
  K  K7  1  0.617000  0.818364  0.936678  1
  K  K8  1  0.390711  0.609289  0.750000  1
  K  K9  1  0.609289  0.390711  0.250000  1
  In  In10  1  0.115252  0.884748  0.250000  1
  In  In11  1  0.884748  0.115252  0.750000  1
  Mo  Mo12  1  0.781128  0.044420  0.132835  1
  Mo  Mo13  1  0.736925  0.468725  0.841006  1
  Mo  Mo14  1  0.468725  0.736925  0.341006  1
  Mo  Mo15  1  0.044420  0.781128  0.632835  1
  Mo  Mo16  1  0.218872  0.955580  0.867165  1
  Mo  Mo17  1  0.531275  0.263075  0.658994  1
  Mo  Mo18  1  0.263075  0.531275  0.158994  1
  Mo  Mo19  1  0.955580  0.218872  0.367165  1
  O  O20  1  0.888796  0.900656  0.232434  1
  O  O21  1  0.787174  0.153071  0.401193  1
  O  O22  1  0.664074  0.122014  0.735157  1
  O  O23  1  0.846929  0.212826  0.098807  1
  O  O24  1  0.122014  0.664074  0.235157  1
  O  O25  1  0.937970  0.407965  0.280296  1
  O  O26  1  0.384436  0.572890  0.421584  1
  O  O27  1  0.211846  0.479002  0.035076  1
  O  O28  1  0.335926  0.877986  0.264843  1
  O  O29  1  0.634838  0.701536  0.215476  1
  O  O30  1  0.006766  0.803689  0.469415  1
  O  O31  1  0.212826  0.846929  0.598807  1
  O  O32  1  0.788154  0.520998  0.964924  1
  O  O33  1  0.099344  0.111204  0.267566  1
  O  O34  1  0.572890  0.384436  0.921584  1
  O  O35  1  0.993234  0.196310  0.530585  1
  O  O36  1  0.877986  0.335926  0.764843  1
  O  O37  1  0.592035  0.062030  0.219704  1
  O  O38  1  0.062030  0.592035  0.719704  1
  O  O39  1  0.298464  0.365162  0.284524  1
  O  O40  1  0.900656  0.888796  0.732434  1
  O  O41  1  0.520998  0.788154  0.464924  1
  O  O42  1  0.111204  0.099344  0.767566  1
  O  O43  1  0.701536  0.634838  0.715476  1
  O  O44  1  0.427110  0.615564  0.078416  1
  O  O45  1  0.196310  0.993234  0.030585  1
  O  O46  1  0.407965  0.937970  0.780296  1
  O  O47  1  0.615564  0.427110  0.578416  1
  O  O48  1  0.153071  0.787174  0.901193  1
  O  O49  1  0.365162  0.298464  0.784524  1
  O  O50  1  0.479002  0.211846  0.535076  1
  O  O51  1  0.803689  0.006766  0.969415  1
