# generated using pymatgen
data_Na2Fe3(PO4)3
_symmetry_space_group_name_H-M   'P 1'
_cell_length_a   6.61256554
_cell_length_b   8.75630924
_cell_length_c   9.36426646
_cell_angle_alpha   73.11426567
_cell_angle_beta   63.76655561
_cell_angle_gamma   73.59308485
_symmetry_Int_Tables_number   1
_chemical_formula_structural   Na2Fe3(PO4)3
_chemical_formula_sum   'Na4 Fe6 P6 O24'
_cell_volume   457.83241876
_cell_formula_units_Z   2
loop_
 _symmetry_equiv_pos_site_id
 _symmetry_equiv_pos_as_xyz
  1  'x, y, z'
loop_
 _atom_site_type_symbol
 _atom_site_label
 _atom_site_symmetry_multiplicity
 _atom_site_fract_x
 _atom_site_fract_y
 _atom_site_fract_z
 _atom_site_occupancy
  Na  Na0  1  0.265918  0.984082  0.484082  1
  Na  Na1  1  0.734082  0.015918  0.515918  1
  Na  Na2  1  0.500000  0.500000  0.000000  1
  Na  Na3  1  0.000000  0.500000  0.000000  1
  Fe  Fe4  1  0.753077  0.944404  0.871732  1
  Fe  Fe5  1  0.569213  0.628268  0.555596  1
  Fe  Fe6  1  0.246923  0.055596  0.128268  1
  Fe  Fe7  1  0.019169  0.730831  0.230831  1
  Fe  Fe8  1  0.980831  0.269169  0.769169  1
  Fe  Fe9  1  0.430787  0.371732  0.444404  1
  P  P10  1  0.723206  0.112091  0.157901  1
  P  P11  1  0.006802  0.657901  0.612091  1
  P  P12  1  0.446639  0.303361  0.803361  1
  P  P13  1  0.993198  0.342099  0.387909  1
  P  P14  1  0.553361  0.696639  0.196639  1
  P  P15  1  0.276794  0.887909  0.842099  1
  O  O16  1  0.267812  0.605160  0.535619  1
  O  O17  1  0.284085  0.271072  0.982455  1
  O  O18  1  0.904277  0.518024  0.756404  1
  O  O19  1  0.408590  0.964381  0.894840  1
  O  O20  1  0.821294  0.256404  0.018024  1
  O  O21  1  0.096908  0.314540  0.519958  1
  O  O22  1  0.537612  0.517545  0.228928  1
  O  O23  1  0.941627  0.823123  0.663451  1
  O  O24  1  0.903092  0.685460  0.480042  1
  O  O25  1  0.336758  0.269092  0.698903  1
  O  O26  1  0.931406  0.980042  0.185460  1
  O  O27  1  0.428202  0.836549  0.676877  1
  O  O28  1  0.095723  0.481976  0.243596  1
  O  O29  1  0.591410  0.035619  0.105160  1
  O  O30  1  0.715915  0.728928  0.017545  1
  O  O31  1  0.068594  0.019958  0.814540  1
  O  O32  1  0.462388  0.482455  0.771072  1
  O  O33  1  0.732188  0.394840  0.464381  1
  O  O34  1  0.571798  0.163451  0.323123  1
  O  O35  1  0.663242  0.730908  0.301097  1
  O  O36  1  0.058373  0.176877  0.336549  1
  O  O37  1  0.695247  0.198903  0.769092  1
  O  O38  1  0.304753  0.801097  0.230908  1
  O  O39  1  0.178706  0.743596  0.981976  1
