# generated using pymatgen
data_Y4TiSi2(O3F2)3
_symmetry_space_group_name_H-M   'P 1'
_cell_length_a   7.12818447
_cell_length_b   9.23259554
_cell_length_c   9.23259602
_cell_angle_alpha   109.12050389
_cell_angle_beta   90.00000000
_cell_angle_gamma   90.00000000
_symmetry_Int_Tables_number   1
_chemical_formula_structural   Y4TiSi2(O3F2)3
_chemical_formula_sum   'Y8 Ti2 Si4 O18 F12'
_cell_volume   574.09141721
_cell_formula_units_Z   2
loop_
 _symmetry_equiv_pos_site_id
 _symmetry_equiv_pos_as_xyz
  1  'x, y, z'
loop_
 _atom_site_type_symbol
 _atom_site_label
 _atom_site_symmetry_multiplicity
 _atom_site_fract_x
 _atom_site_fract_y
 _atom_site_fract_z
 _atom_site_occupancy
  Y  Y0  1  0.250000  0.289491  0.582594  1
  Y  Y1  1  0.750000  0.336716  0.075629  1
  Y  Y2  1  0.250000  0.582594  0.289491  1
  Y  Y3  1  0.750000  0.710509  0.417406  1
  Y  Y4  1  0.750000  0.075629  0.336716  1
  Y  Y5  1  0.250000  0.924371  0.663284  1
  Y  Y6  1  0.750000  0.417406  0.710509  1
  Y  Y7  1  0.250000  0.663284  0.924371  1
  Ti  Ti8  1  0.500000  0.000000  0.000000  1
  Ti  Ti9  1  0.000000  0.000000  0.000000  1
  Si  Si10  1  0.250000  0.963721  0.277327  1
  Si  Si11  1  0.750000  0.036279  0.722673  1
  Si  Si12  1  0.250000  0.277327  0.963721  1
  Si  Si13  1  0.750000  0.722673  0.036279  1
  O  O14  1  0.442890  0.032312  0.221000  1
  O  O15  1  0.250000  0.465682  0.028848  1
  O  O16  1  0.750000  0.061688  0.061688  1
  O  O17  1  0.750000  0.534318  0.971152  1
  O  O18  1  0.750000  0.222928  0.805578  1
  O  O19  1  0.942890  0.967688  0.779000  1
  O  O20  1  0.750000  0.805578  0.222928  1
  O  O21  1  0.057110  0.032312  0.221000  1
  O  O22  1  0.442890  0.221000  0.032312  1
  O  O23  1  0.557110  0.779000  0.967688  1
  O  O24  1  0.057110  0.221000  0.032312  1
  O  O25  1  0.750000  0.971152  0.534318  1
  O  O26  1  0.942890  0.779000  0.967688  1
  O  O27  1  0.250000  0.028848  0.465682  1
  O  O28  1  0.250000  0.777072  0.194422  1
  O  O29  1  0.557110  0.967688  0.779000  1
  O  O30  1  0.250000  0.194422  0.777072  1
  O  O31  1  0.250000  0.938312  0.938312  1
  F  F32  1  0.938666  0.528880  0.245127  1
  F  F33  1  0.438666  0.471120  0.754873  1
  F  F34  1  0.250000  0.699065  0.699065  1
  F  F35  1  0.750000  0.583391  0.583391  1
  F  F36  1  0.750000  0.300935  0.300935  1
  F  F37  1  0.061334  0.471120  0.754873  1
  F  F38  1  0.250000  0.416609  0.416609  1
  F  F39  1  0.938666  0.245127  0.528880  1
  F  F40  1  0.061334  0.754873  0.471120  1
  F  F41  1  0.561334  0.528880  0.245127  1
  F  F42  1  0.438666  0.754873  0.471120  1
  F  F43  1  0.561334  0.245127  0.528880  1
