# generated using pymatgen
data_Ca21(Zn18Ni)2
_symmetry_space_group_name_H-M   'P 1'
_cell_length_a   15.30984496
_cell_length_b   15.30984509
_cell_length_c   15.30984533
_cell_angle_alpha   59.99999946
_cell_angle_beta   59.99999917
_cell_angle_gamma   59.99999972
_symmetry_Int_Tables_number   1
_chemical_formula_structural   Ca21(Zn18Ni)2
_chemical_formula_sum   'Ca42 Zn72 Ni4'
_cell_volume   2537.44939044
_cell_formula_units_Z   2
loop_
 _symmetry_equiv_pos_site_id
 _symmetry_equiv_pos_as_xyz
  1  'x, y, z'
loop_
 _atom_site_type_symbol
 _atom_site_label
 _atom_site_symmetry_multiplicity
 _atom_site_fract_x
 _atom_site_fract_y
 _atom_site_fract_z
 _atom_site_occupancy
  Ca  Ca0  1  0.829018  0.556994  0.556994  1
  Ca  Ca1  1  0.234244  0.628136  0.009484  1
  Ca  Ca2  1  0.781455  0.781455  0.155634  1
  Ca  Ca3  1  0.781455  0.781455  0.781455  1
  Ca  Ca4  1  0.628136  0.234244  0.628136  1
  Ca  Ca5  1  0.875000  0.875000  0.875000  1
  Ca  Ca6  1  0.781455  0.155634  0.781455  1
  Ca  Ca7  1  0.443006  0.170982  0.443006  1
  Ca  Ca8  1  0.556994  0.829018  0.556994  1
  Ca  Ca9  1  0.628136  0.009484  0.628136  1
  Ca  Ca10  1  0.371864  0.990516  0.371864  1
  Ca  Ca11  1  0.990516  0.765756  0.371864  1
  Ca  Ca12  1  0.218545  0.218545  0.218545  1
  Ca  Ca13  1  0.009484  0.628136  0.234244  1
  Ca  Ca14  1  0.765756  0.371864  0.990516  1
  Ca  Ca15  1  0.628136  0.009484  0.234244  1
  Ca  Ca16  1  0.443006  0.443006  0.443006  1
  Ca  Ca17  1  0.556994  0.556994  0.829018  1
  Ca  Ca18  1  0.170982  0.443006  0.443006  1
  Ca  Ca19  1  0.371864  0.371864  0.765756  1
  Ca  Ca20  1  0.628136  0.234244  0.009484  1
  Ca  Ca21  1  0.990516  0.371864  0.765756  1
  Ca  Ca22  1  0.765756  0.371864  0.371864  1
  Ca  Ca23  1  0.844366  0.218545  0.218545  1
  Ca  Ca24  1  0.218545  0.218545  0.844366  1
  Ca  Ca25  1  0.218545  0.844366  0.218545  1
  Ca  Ca26  1  0.155634  0.781455  0.781455  1
  Ca  Ca27  1  0.234244  0.009484  0.628136  1
  Ca  Ca28  1  0.234244  0.628136  0.628136  1
  Ca  Ca29  1  0.371864  0.765756  0.371864  1
  Ca  Ca30  1  0.628136  0.628136  0.234244  1
  Ca  Ca31  1  0.443006  0.443006  0.170982  1
  Ca  Ca32  1  0.125000  0.125000  0.125000  1
  Ca  Ca33  1  0.371864  0.990516  0.765756  1
  Ca  Ca34  1  0.628136  0.628136  0.009484  1
  Ca  Ca35  1  0.009484  0.234244  0.628136  1
  Ca  Ca36  1  0.009484  0.628136  0.628136  1
  Ca  Ca37  1  0.371864  0.765756  0.990516  1
  Ca  Ca38  1  0.990516  0.371864  0.371864  1
  Ca  Ca39  1  0.765756  0.990516  0.371864  1
  Ca  Ca40  1  0.556994  0.556994  0.556994  1
  Ca  Ca41  1  0.371864  0.371864  0.990516  1
  Zn  Zn42  1  0.630668  0.226406  0.416521  1
  Zn  Zn43  1  0.773594  0.773594  0.583479  1
  Zn  Zn44  1  0.889175  0.183754  0.889175  1
  Zn  Zn45  1  0.583479  0.369332  0.773594  1
  Zn  Zn46  1  0.889175  0.889175  0.183754  1
  Zn  Zn47  1  0.773594  0.583479  0.369332  1
  Zn  Zn48  1  0.816246  0.110825  0.110825  1
  Zn  Zn49  1  0.630668  0.226406  0.226406  1
  Zn  Zn50  1  0.007678  0.826164  0.658481  1
  Zn  Zn51  1  0.889175  0.537897  0.183754  1
  Zn  Zn52  1  0.583479  0.773594  0.773594  1
  Zn  Zn53  1  0.110825  0.462103  0.110825  1
  Zn  Zn54  1  0.537897  0.183754  0.889175  1
  Zn  Zn55  1  0.173836  0.992322  0.992322  1
  Zn  Zn56  1  0.773594  0.773594  0.369332  1
  Zn  Zn57  1  0.173836  0.992322  0.341519  1
  Zn  Zn58  1  0.537897  0.889175  0.889175  1
  Zn  Zn59  1  0.658481  0.007678  0.007678  1
  Zn  Zn60  1  0.110825  0.816246  0.110825  1
  Zn  Zn61  1  0.992322  0.341519  0.992322  1
  Zn  Zn62  1  0.369332  0.583479  0.773594  1
  Zn  Zn63  1  0.537897  0.889175  0.183754  1
  Zn  Zn64  1  0.416521  0.630668  0.226406  1
  Zn  Zn65  1  0.341519  0.173836  0.992322  1
  Zn  Zn66  1  0.992322  0.341519  0.173836  1
  Zn  Zn67  1  0.889175  0.183754  0.537897  1
  Zn  Zn68  1  0.226406  0.416521  0.630668  1
  Zn  Zn69  1  0.183754  0.537897  0.889175  1
  Zn  Zn70  1  0.992322  0.992322  0.341519  1
  Zn  Zn71  1  0.007678  0.007678  0.658481  1
  Zn  Zn72  1  0.110825  0.816246  0.462103  1
  Zn  Zn73  1  0.658481  0.826164  0.007678  1
  Zn  Zn74  1  0.110825  0.110825  0.462103  1
  Zn  Zn75  1  0.007678  0.658481  0.007678  1
  Zn  Zn76  1  0.583479  0.773594  0.369332  1
  Zn  Zn77  1  0.007678  0.826164  0.007678  1
  Zn  Zn78  1  0.816246  0.462103  0.110825  1
  Zn  Zn79  1  0.110825  0.462103  0.816246  1
  Zn  Zn80  1  0.226406  0.226406  0.630668  1
  Zn  Zn81  1  0.816246  0.110825  0.462103  1
  Zn  Zn82  1  0.226406  0.630668  0.226406  1
  Zn  Zn83  1  0.889175  0.537897  0.889175  1
  Zn  Zn84  1  0.341519  0.992322  0.173836  1
  Zn  Zn85  1  0.007678  0.658481  0.826164  1
  Zn  Zn86  1  0.226406  0.630668  0.416521  1
  Zn  Zn87  1  0.889175  0.889175  0.537897  1
  Zn  Zn88  1  0.462103  0.110825  0.816246  1
  Zn  Zn89  1  0.630668  0.416521  0.226406  1
  Zn  Zn90  1  0.007678  0.007678  0.826164  1
  Zn  Zn91  1  0.369332  0.773594  0.583479  1
  Zn  Zn92  1  0.826164  0.007678  0.658481  1
  Zn  Zn93  1  0.773594  0.583479  0.773594  1
  Zn  Zn94  1  0.416521  0.226406  0.226406  1
  Zn  Zn95  1  0.173836  0.341519  0.992322  1
  Zn  Zn96  1  0.462103  0.110825  0.110825  1
  Zn  Zn97  1  0.110825  0.110825  0.816246  1
  Zn  Zn98  1  0.226406  0.226406  0.416521  1
  Zn  Zn99  1  0.658481  0.007678  0.826164  1
  Zn  Zn100  1  0.341519  0.992322  0.992322  1
  Zn  Zn101  1  0.226406  0.416521  0.226406  1
  Zn  Zn102  1  0.826164  0.658481  0.007678  1
  Zn  Zn103  1  0.183754  0.889175  0.889175  1
  Zn  Zn104  1  0.992322  0.992322  0.173836  1
  Zn  Zn105  1  0.826164  0.007678  0.007678  1
  Zn  Zn106  1  0.992322  0.173836  0.992322  1
  Zn  Zn107  1  0.773594  0.369332  0.583479  1
  Zn  Zn108  1  0.369332  0.773594  0.773594  1
  Zn  Zn109  1  0.773594  0.369332  0.773594  1
  Zn  Zn110  1  0.416521  0.226406  0.630668  1
  Zn  Zn111  1  0.462103  0.816246  0.110825  1
  Zn  Zn112  1  0.992322  0.173836  0.341519  1
  Zn  Zn113  1  0.183754  0.889175  0.537897  1
  Ni  Ni114  1  0.500000  0.000000  0.000000  1
  Ni  Ni115  1  0.000000  0.000000  0.500000  1
  Ni  Ni116  1  0.000000  0.500000  0.000000  1
  Ni  Ni117  1  0.000000  0.000000  0.000000  1
