# generated using pymatgen
data_Tl3Bi2I9
_symmetry_space_group_name_H-M   'P 1'
_cell_length_a   8.08884971
_cell_length_b   14.80314364
_cell_length_c   21.28487917
_cell_angle_alpha   93.07996355
_cell_angle_beta   90.00000000
_cell_angle_gamma   90.00000000
_symmetry_Int_Tables_number   1
_chemical_formula_structural   Tl3Bi2I9
_chemical_formula_sum   'Tl12 Bi8 I36'
_cell_volume   2544.97854727
_cell_formula_units_Z   4
loop_
 _symmetry_equiv_pos_site_id
 _symmetry_equiv_pos_as_xyz
  1  'x, y, z'
loop_
 _atom_site_type_symbol
 _atom_site_label
 _atom_site_symmetry_multiplicity
 _atom_site_fract_x
 _atom_site_fract_y
 _atom_site_fract_z
 _atom_site_occupancy
  Tl  Tl0  1  0.960508  0.365628  0.384810  1
  Tl  Tl1  1  0.042750  0.961367  0.286041  1
  Tl  Tl2  1  0.539492  0.865628  0.884811  1
  Tl  Tl3  1  0.462296  0.799612  0.451867  1
  Tl  Tl4  1  0.037704  0.299612  0.951867  1
  Tl  Tl5  1  0.962296  0.700388  0.048133  1
  Tl  Tl6  1  0.039492  0.634372  0.615189  1
  Tl  Tl7  1  0.542750  0.538633  0.213959  1
  Tl  Tl8  1  0.537704  0.200388  0.548133  1
  Tl  Tl9  1  0.457250  0.461367  0.786041  1
  Tl  Tl10  1  0.957250  0.038633  0.713959  1
  Tl  Tl11  1  0.460508  0.134372  0.115190  1
  Bi  Bi12  1  0.997458  0.332361  0.159883  1
  Bi  Bi13  1  0.515077  0.167155  0.840555  1
  Bi  Bi14  1  0.502542  0.832361  0.659883  1
  Bi  Bi15  1  0.002542  0.667639  0.840117  1
  Bi  Bi16  1  0.484923  0.832845  0.159445  1
  Bi  Bi17  1  0.984923  0.667155  0.340555  1
  Bi  Bi18  1  0.015077  0.332845  0.659445  1
  Bi  Bi19  1  0.497458  0.167639  0.340117  1
  I  I20  1  0.821773  0.733181  0.209484  1
  I  I21  1  0.390345  0.326382  0.423956  1
  I  I22  1  0.681686  0.964543  0.583161  1
  I  I23  1  0.322438  0.100320  0.949042  1
  I  I24  1  0.677562  0.899680  0.050958  1
  I  I25  1  0.819357  0.068858  0.875910  1
  I  I26  1  0.873075  0.510918  0.739848  1
  I  I27  1  0.373075  0.989082  0.760152  1
  I  I28  1  0.827129  0.812098  0.748344  1
  I  I29  1  0.810720  0.144103  0.412911  1
  I  I30  1  0.172871  0.187902  0.251656  1
  I  I31  1  0.189280  0.855897  0.587089  1
  I  I32  1  0.180643  0.931142  0.124090  1
  I  I33  1  0.319357  0.431142  0.624090  1
  I  I34  1  0.890345  0.173618  0.076044  1
  I  I35  1  0.111513  0.161071  0.588932  1
  I  I36  1  0.609655  0.673618  0.576044  1
  I  I37  1  0.181687  0.535457  0.916839  1
  I  I38  1  0.689280  0.644103  0.912911  1
  I  I39  1  0.327129  0.687902  0.751656  1
  I  I40  1  0.888487  0.838929  0.411068  1
  I  I41  1  0.678227  0.233181  0.709484  1
  I  I42  1  0.626925  0.010918  0.239848  1
  I  I43  1  0.177562  0.600320  0.449042  1
  I  I44  1  0.680643  0.568858  0.375910  1
  I  I45  1  0.318314  0.035457  0.416839  1
  I  I46  1  0.310720  0.355897  0.087089  1
  I  I47  1  0.822438  0.399680  0.550958  1
  I  I48  1  0.388487  0.661071  0.088932  1
  I  I49  1  0.178227  0.266819  0.790516  1
  I  I50  1  0.109655  0.826382  0.923956  1
  I  I51  1  0.672871  0.312098  0.248344  1
  I  I52  1  0.611513  0.338929  0.911068  1
  I  I53  1  0.321773  0.766819  0.290516  1
  I  I54  1  0.126925  0.489082  0.260152  1
  I  I55  1  0.818314  0.464543  0.083161  1
