# generated using pymatgen
data_CsBaCr3F12
_symmetry_space_group_name_H-M   'P 1'
_cell_length_a   10.08458131
_cell_length_b   10.11237428
_cell_length_c   13.65326342
_cell_angle_alpha   78.92523698
_cell_angle_beta   68.32690989
_cell_angle_gamma   60.09087427
_symmetry_Int_Tables_number   1
_chemical_formula_structural   CsBaCr3F12
_chemical_formula_sum   'Cs4 Ba4 Cr12 F48'
_cell_volume   1121.53481376
_cell_formula_units_Z   4
loop_
 _symmetry_equiv_pos_site_id
 _symmetry_equiv_pos_as_xyz
  1  'x, y, z'
loop_
 _atom_site_type_symbol
 _atom_site_label
 _atom_site_symmetry_multiplicity
 _atom_site_fract_x
 _atom_site_fract_y
 _atom_site_fract_z
 _atom_site_occupancy
  Cs  Cs0  1  0.274495  0.258675  0.964906  1
  Cs  Cs1  1  0.501924  0.758675  0.464906  1
  Cs  Cs2  1  0.725505  0.741325  0.035094  1
  Cs  Cs3  1  0.498076  0.241325  0.535094  1
  Ba  Ba4  1  0.741301  0.256324  0.001558  1
  Ba  Ba5  1  0.000816  0.756324  0.501558  1
  Ba  Ba6  1  0.999184  0.243676  0.498442  1
  Ba  Ba7  1  0.258699  0.743676  0.998442  1
  Cr  Cr8  1  0.147407  0.673664  0.768522  1
  Cr  Cr9  1  0.847366  0.960506  0.238572  1
  Cr  Cr10  1  0.953555  0.460506  0.738572  1
  Cr  Cr11  1  0.410223  0.539538  0.271495  1
  Cr  Cr12  1  0.589777  0.460462  0.728505  1
  Cr  Cr13  1  0.852593  0.326336  0.231478  1
  Cr  Cr14  1  0.221255  0.960462  0.228505  1
  Cr  Cr15  1  0.410406  0.173664  0.268522  1
  Cr  Cr16  1  0.046445  0.539494  0.261428  1
  Cr  Cr17  1  0.152634  0.039494  0.761428  1
  Cr  Cr18  1  0.778745  0.039538  0.771495  1
  Cr  Cr19  1  0.589594  0.826336  0.731478  1
  F  F20  1  0.062529  0.456314  0.588894  1
  F  F21  1  0.180592  0.606129  0.292671  1
  F  F22  1  0.212451  0.822128  0.780426  1
  F  F23  1  0.182437  0.038322  0.615689  1
  F  F24  1  0.452187  0.327313  0.301842  1
  F  F25  1  0.079392  0.893871  0.207329  1
  F  F26  1  0.081343  0.172687  0.198158  1
  F  F27  1  0.477333  0.520986  0.120197  1
  F  F28  1  0.892263  0.956314  0.088894  1
  F  F29  1  0.112999  0.250000  0.750000  1
  F  F30  1  0.663664  0.429035  0.580372  1
  F  F31  1  0.375468  0.750000  0.250000  1
  F  F32  1  0.819408  0.393871  0.707329  1
  F  F33  1  0.117431  0.640063  0.916364  1
  F  F34  1  0.836449  0.461678  0.884311  1
  F  F35  1  0.918657  0.827313  0.801842  1
  F  F36  1  0.787549  0.177872  0.219574  1
  F  F37  1  0.097875  0.509487  0.769776  1
  F  F38  1  0.622862  0.009487  0.269776  1
  F  F39  1  0.547813  0.672687  0.698158  1
  F  F40  1  0.882569  0.359937  0.083636  1
  F  F41  1  0.489937  0.212410  0.122216  1
  F  F42  1  0.920608  0.106129  0.792671  1
  F  F43  1  0.902125  0.490513  0.230224  1
  F  F44  1  0.815006  0.677872  0.719574  1
  F  F45  1  0.673858  0.859937  0.583636  1
  F  F46  1  0.817563  0.961678  0.384311  1
  F  F47  1  0.107737  0.043686  0.911106  1
  F  F48  1  0.522667  0.479014  0.879803  1
  F  F49  1  0.824563  0.287590  0.377784  1
  F  F50  1  0.627680  0.488459  0.263953  1
  F  F51  1  0.336336  0.570965  0.419628  1
  F  F52  1  0.619909  0.988459  0.763953  1
  F  F53  1  0.326929  0.929035  0.080372  1
  F  F54  1  0.937471  0.543686  0.411106  1
  F  F55  1  0.163551  0.538322  0.115689  1
  F  F56  1  0.624532  0.250000  0.750000  1
  F  F57  1  0.118516  0.979014  0.379802  1
  F  F58  1  0.175437  0.712410  0.622216  1
  F  F59  1  0.881484  0.020986  0.620197  1
  F  F60  1  0.184994  0.322128  0.280426  1
  F  F61  1  0.326142  0.140063  0.416364  1
  F  F62  1  0.887001  0.750000  0.250000  1
  F  F63  1  0.380091  0.011541  0.236047  1
  F  F64  1  0.673071  0.070965  0.919628  1
  F  F65  1  0.510063  0.787590  0.877784  1
  F  F66  1  0.377138  0.990513  0.730224  1
  F  F67  1  0.372320  0.511541  0.736047  1
