# generated using pymatgen
data_LiAl(SiO3)2
_symmetry_space_group_name_H-M   'P 1'
_cell_length_a   5.04480752
_cell_length_b   7.70346438
_cell_length_c   8.71050899
_cell_angle_alpha   65.81071835
_cell_angle_beta   89.91279571
_cell_angle_gamma   89.41401512
_symmetry_Int_Tables_number   1
_chemical_formula_structural   LiAl(SiO3)2
_chemical_formula_sum   'Li2 Al2 Si4 O12'
_cell_volume   308.77218932
_cell_formula_units_Z   2
loop_
 _symmetry_equiv_pos_site_id
 _symmetry_equiv_pos_as_xyz
  1  'x, y, z'
loop_
 _atom_site_type_symbol
 _atom_site_label
 _atom_site_symmetry_multiplicity
 _atom_site_fract_x
 _atom_site_fract_y
 _atom_site_fract_z
 _atom_site_occupancy
  Li  Li0  1  0.638498  0.883036  0.294599  1
  Li  Li1  1  0.132448  0.084277  0.715473  1
  Al  Al2  1  0.642954  0.090514  0.896189  1
  Al  Al3  1  0.128134  0.063840  0.378860  1
  Si  Si4  1  0.689305  0.506559  0.884029  1
  Si  Si5  1  0.627985  0.928981  0.617419  1
  Si  Si6  1  0.186725  0.492529  0.101832  1
  Si  Si7  1  0.144185  0.900306  0.104792  1
  O  O8  1  0.983747  0.542894  0.942658  1
  O  O9  1  0.694244  0.331385  0.828502  1
  O  O10  1  0.811068  0.964716  0.451523  1
  O  O11  1  0.102228  0.306042  0.262701  1
  O  O12  1  0.330486  0.019878  0.557847  1
  O  O13  1  0.597126  0.699984  0.723163  1
  O  O14  1  0.826419  0.954518  0.082962  1
  O  O15  1  0.264334  0.941049  0.262034  1
  O  O16  1  0.484919  0.466386  0.040525  1
  O  O17  1  0.191190  0.674606  0.154009  1
  O  O18  1  0.302487  0.028379  0.929856  1
  O  O19  1  0.761917  0.028224  0.732829  1
