# generated using pymatgen
data_TeO2
_symmetry_space_group_name_H-M   'P 1'
_cell_length_a   4.89343197
_cell_length_b   5.04383718
_cell_length_c   7.64855567
_cell_angle_alpha   90.00000000
_cell_angle_beta   90.00000000
_cell_angle_gamma   90.00000000
_symmetry_Int_Tables_number   1
_chemical_formula_structural   TeO2
_chemical_formula_sum   'Te4 O8'
_cell_volume   188.77915844
_cell_formula_units_Z   4
loop_
 _symmetry_equiv_pos_site_id
 _symmetry_equiv_pos_as_xyz
  1  'x, y, z'
loop_
 _atom_site_type_symbol
 _atom_site_label
 _atom_site_symmetry_multiplicity
 _atom_site_fract_x
 _atom_site_fract_y
 _atom_site_fract_z
 _atom_site_occupancy
  Te  Te0  1  0.714410  0.530575  0.378185  1
  Te  Te1  1  0.285590  0.030575  0.121815  1
  Te  Te2  1  0.214410  0.969425  0.621815  1
  Te  Te3  1  0.785590  0.469425  0.878185  1
  O  O4  1  0.529450  0.133749  0.938770  1
  O  O5  1  0.029450  0.366251  0.061230  1
  O  O6  1  0.406970  0.235000  0.317644  1
  O  O7  1  0.470550  0.633749  0.561230  1
  O  O8  1  0.970550  0.866251  0.438770  1
  O  O9  1  0.093030  0.765000  0.817644  1
  O  O10  1  0.593030  0.735000  0.182356  1
  O  O11  1  0.906970  0.265000  0.682356  1
