# generated using pymatgen
data_Na3Pr14(RuO6)6
_symmetry_space_group_name_H-M   'P 1'
_cell_length_a   19.64442192
_cell_length_b   19.64442219
_cell_length_c   19.64442216
_cell_angle_alpha   29.03141180
_cell_angle_beta   29.03141040
_cell_angle_gamma   29.03141036
_symmetry_Int_Tables_number   1
_chemical_formula_structural   Na3Pr14(RuO6)6
_chemical_formula_sum   'Na6 Pr28 Ru12 O72'
_cell_volume   1579.17924499
_cell_formula_units_Z   2
loop_
 _symmetry_equiv_pos_site_id
 _symmetry_equiv_pos_as_xyz
  1  'x, y, z'
loop_
 _atom_site_type_symbol
 _atom_site_label
 _atom_site_symmetry_multiplicity
 _atom_site_fract_x
 _atom_site_fract_y
 _atom_site_fract_z
 _atom_site_occupancy
  Na  Na0  1  0.446993  0.446993  0.446993  1
  Na  Na1  1  0.250000  0.250000  0.250000  1
  Na  Na2  1  0.553007  0.553007  0.553007  1
  Na  Na3  1  0.053007  0.053007  0.053007  1
  Na  Na4  1  0.750000  0.750000  0.750000  1
  Na  Na5  1  0.946993  0.946993  0.946993  1
  Pr  Pr6  1  0.541006  0.197176  0.819467  1
  Pr  Pr7  1  0.500718  0.929534  0.220184  1
  Pr  Pr8  1  0.958994  0.680533  0.302824  1
  Pr  Pr9  1  0.458994  0.802824  0.180533  1
  Pr  Pr10  1  0.929534  0.220184  0.500718  1
  Pr  Pr11  1  0.319467  0.697176  0.041006  1
  Pr  Pr12  1  0.197176  0.819467  0.541006  1
  Pr  Pr13  1  0.499282  0.070466  0.779816  1
  Pr  Pr14  1  0.070466  0.779816  0.499282  1
  Pr  Pr15  1  0.180533  0.458994  0.802824  1
  Pr  Pr16  1  0.892306  0.892306  0.892306  1
  Pr  Pr17  1  0.720184  0.429534  0.000718  1
  Pr  Pr18  1  0.607694  0.607694  0.607694  1
  Pr  Pr19  1  0.302824  0.958994  0.680533  1
  Pr  Pr20  1  0.697176  0.041006  0.319467  1
  Pr  Pr21  1  0.279816  0.570466  0.999282  1
  Pr  Pr22  1  0.429534  0.000718  0.720184  1
  Pr  Pr23  1  0.041006  0.319467  0.697176  1
  Pr  Pr24  1  0.819467  0.541006  0.197176  1
  Pr  Pr25  1  0.570466  0.999282  0.279816  1
  Pr  Pr26  1  0.000718  0.720184  0.429534  1
  Pr  Pr27  1  0.107694  0.107694  0.107694  1
  Pr  Pr28  1  0.392306  0.392306  0.392306  1
  Pr  Pr29  1  0.680533  0.302824  0.958994  1
  Pr  Pr30  1  0.802824  0.180533  0.458994  1
  Pr  Pr31  1  0.999282  0.279816  0.570466  1
  Pr  Pr32  1  0.220184  0.500718  0.929534  1
  Pr  Pr33  1  0.779816  0.499282  0.070466  1
  Ru  Ru34  1  0.917215  0.582785  0.250000  1
  Ru  Ru35  1  0.337662  0.337662  0.337662  1
  Ru  Ru36  1  0.500000  0.500000  0.500000  1
  Ru  Ru37  1  0.162338  0.162338  0.162338  1
  Ru  Ru38  1  0.417215  0.750000  0.082785  1
  Ru  Ru39  1  0.837662  0.837662  0.837662  1
  Ru  Ru40  1  0.582785  0.250000  0.917215  1
  Ru  Ru41  1  0.750000  0.082785  0.417215  1
  Ru  Ru42  1  0.082785  0.417215  0.750000  1
  Ru  Ru43  1  0.250000  0.917215  0.582785  1
  Ru  Ru44  1  0.662338  0.662338  0.662338  1
  Ru  Ru45  1  0.000000  0.000000  0.000000  1
  O  O46  1  0.014496  0.335205  0.073441  1
  O  O47  1  0.690006  0.018726  0.753067  1
  O  O48  1  0.485504  0.426559  0.164795  1
  O  O49  1  0.718546  0.920182  0.532544  1
  O  O50  1  0.297765  0.796968  0.732247  1
  O  O51  1  0.518726  0.190006  0.253067  1
  O  O52  1  0.073441  0.014496  0.335205  1
  O  O53  1  0.481274  0.809994  0.746933  1
  O  O54  1  0.815558  0.445938  0.484258  1
  O  O55  1  0.426559  0.164795  0.485504  1
  O  O56  1  0.579818  0.781454  0.967456  1
  O  O57  1  0.796968  0.732247  0.297765  1
  O  O58  1  0.203032  0.267753  0.702235  1
  O  O59  1  0.032544  0.420182  0.218546  1
  O  O60  1  0.976393  0.149479  0.812124  1
  O  O61  1  0.945938  0.315558  0.984258  1
  O  O62  1  0.023607  0.850521  0.187876  1
  O  O63  1  0.753067  0.690006  0.018726  1
  O  O64  1  0.054062  0.684442  0.015742  1
  O  O65  1  0.164795  0.485504  0.426559  1
  O  O66  1  0.267753  0.702235  0.203032  1
  O  O67  1  0.309994  0.981274  0.246933  1
  O  O68  1  0.703032  0.202235  0.767753  1
  O  O69  1  0.335205  0.073441  0.014496  1
  O  O70  1  0.984258  0.945938  0.315558  1
  O  O71  1  0.981274  0.246933  0.309994  1
  O  O72  1  0.281454  0.079818  0.467456  1
  O  O73  1  0.079818  0.467456  0.281454  1
  O  O74  1  0.554062  0.515742  0.184442  1
  O  O75  1  0.835205  0.514496  0.573441  1
  O  O76  1  0.649479  0.476393  0.312124  1
  O  O77  1  0.781454  0.967456  0.579818  1
  O  O78  1  0.246933  0.309994  0.981274  1
  O  O79  1  0.484258  0.815558  0.445938  1
  O  O80  1  0.149479  0.812124  0.976393  1
  O  O81  1  0.515742  0.184442  0.554062  1
  O  O82  1  0.920182  0.532544  0.718546  1
  O  O83  1  0.809994  0.746933  0.481274  1
  O  O84  1  0.687876  0.350521  0.523607  1
  O  O85  1  0.015742  0.054062  0.684442  1
  O  O86  1  0.312124  0.649479  0.476393  1
  O  O87  1  0.190006  0.253067  0.518726  1
  O  O88  1  0.797765  0.232247  0.296968  1
  O  O89  1  0.445938  0.484258  0.815558  1
  O  O90  1  0.532544  0.718546  0.920182  1
  O  O91  1  0.476393  0.312124  0.649479  1
  O  O92  1  0.985504  0.664795  0.926559  1
  O  O93  1  0.514496  0.573441  0.835205  1
  O  O94  1  0.018726  0.753067  0.690006  1
  O  O95  1  0.420182  0.218546  0.032544  1
  O  O96  1  0.350521  0.523607  0.687876  1
  O  O97  1  0.523607  0.687876  0.350521  1
  O  O98  1  0.202235  0.767753  0.703032  1
  O  O99  1  0.296968  0.797765  0.232247  1
  O  O100  1  0.187876  0.023607  0.850521  1
  O  O101  1  0.664795  0.926559  0.985504  1
  O  O102  1  0.218546  0.032544  0.420182  1
  O  O103  1  0.253067  0.518726  0.190006  1
  O  O104  1  0.746933  0.481274  0.809994  1
  O  O105  1  0.573441  0.835205  0.514496  1
  O  O106  1  0.812124  0.976393  0.149479  1
  O  O107  1  0.232247  0.296968  0.797765  1
  O  O108  1  0.767753  0.703032  0.202235  1
  O  O109  1  0.467456  0.281454  0.079818  1
  O  O110  1  0.732247  0.297765  0.796968  1
  O  O111  1  0.926559  0.985504  0.664795  1
  O  O112  1  0.315558  0.984258  0.945938  1
  O  O113  1  0.684442  0.015742  0.054062  1
  O  O114  1  0.967456  0.579818  0.781454  1
  O  O115  1  0.184442  0.554062  0.515742  1
  O  O116  1  0.850521  0.187876  0.023607  1
  O  O117  1  0.702235  0.203032  0.267753  1
