# generated using pymatgen
data_Sb(OF3)2
_symmetry_space_group_name_H-M   'P 1'
_cell_length_a   8.79236601
_cell_length_b   8.79236652
_cell_length_c   8.79236628
_cell_angle_alpha   109.47121781
_cell_angle_beta   109.47121897
_cell_angle_gamma   109.47122440
_symmetry_Int_Tables_number   1
_chemical_formula_structural   Sb(OF3)2
_chemical_formula_sum   'Sb4 O8 F24'
_cell_volume   523.23336246
_cell_formula_units_Z   4
loop_
 _symmetry_equiv_pos_site_id
 _symmetry_equiv_pos_as_xyz
  1  'x, y, z'
loop_
 _atom_site_type_symbol
 _atom_site_label
 _atom_site_symmetry_multiplicity
 _atom_site_fract_x
 _atom_site_fract_y
 _atom_site_fract_z
 _atom_site_occupancy
  O  O0  1  0.619155  0.619155  0.619155  1
  O  O1  1  0.000000  0.880845  0.500000  1
  O  O2  1  0.500000  1.000000  0.880845  1
  O  O3  1  0.880845  0.500000  0.000000  1
  O  O4  1  0.380845  0.380845  0.380845  1
  O  O5  1  1.000000  0.119155  0.500000  1
  O  O6  1  0.500000  0.000000  0.119155  1
  O  O7  1  0.119155  0.500000  1.000000  1
  Sb  Sb8  1  0.000000  0.000000  0.000000  1
  Sb  Sb9  1  0.000000  0.500000  0.500000  1
  Sb  Sb10  1  0.500000  0.000000  0.500000  1
  Sb  Sb11  1  0.500000  0.500000  0.000000  1
  F  F12  1  0.252159  0.077355  0.050557  1
  F  F13  1  0.201601  0.449443  0.526797  1
  F  F14  1  0.674804  0.973203  0.422645  1
  F  F15  1  0.298399  0.825196  0.247841  1
  F  F16  1  0.449443  0.526797  0.201601  1
  F  F17  1  0.422645  0.674804  0.973203  1
  F  F18  1  0.825196  0.247841  0.298399  1
  F  F19  1  0.050557  0.252159  0.077355  1
  F  F20  1  0.077355  0.050557  0.252159  1
  F  F21  1  0.526797  0.201601  0.449443  1
  F  F22  1  0.973203  0.422645  0.674804  1
  F  F23  1  0.247841  0.298399  0.825196  1
  F  F24  1  0.747841  0.922645  0.949443  1
  F  F25  1  0.798399  0.550557  0.473203  1
  F  F26  1  0.325196  0.026797  0.577355  1
  F  F27  1  0.701601  0.174804  0.752159  1
  F  F28  1  0.550557  0.473203  0.798399  1
  F  F29  1  0.577355  0.325196  0.026797  1
  F  F30  1  0.174804  0.752159  0.701601  1
  F  F31  1  0.949443  0.747841  0.922645  1
  F  F32  1  0.922645  0.949443  0.747841  1
  F  F33  1  0.473203  0.798399  0.550557  1
  F  F34  1  0.026797  0.577355  0.325196  1
  F  F35  1  0.752159  0.701601  0.174804  1
