# generated using pymatgen
data_TlW3Br7
_symmetry_space_group_name_H-M   'P 1'
_cell_length_a   14.45101151
_cell_length_b   14.41460532
_cell_length_c   14.12943717
_cell_angle_alpha   90.00000000
_cell_angle_beta   90.00000000
_cell_angle_gamma   90.00000000
_symmetry_Int_Tables_number   1
_chemical_formula_structural   TlW3Br7
_chemical_formula_sum   'Tl8 W24 Br56'
_cell_volume   2943.24127438
_cell_formula_units_Z   8
loop_
 _symmetry_equiv_pos_site_id
 _symmetry_equiv_pos_as_xyz
  1  'x, y, z'
loop_
 _atom_site_type_symbol
 _atom_site_label
 _atom_site_symmetry_multiplicity
 _atom_site_fract_x
 _atom_site_fract_y
 _atom_site_fract_z
 _atom_site_occupancy
  Br  Br0  1  0.047694  0.611831  0.305840  1
  Br  Br1  1  0.047694  0.888169  0.194160  1
  Br  Br2  1  0.071623  0.593801  0.793828  1
  Br  Br3  1  0.071623  0.906199  0.706172  1
  Br  Br4  1  0.097314  0.210186  0.575427  1
  Br  Br5  1  0.097314  0.289814  0.924573  1
  Br  Br6  1  0.107826  0.691210  0.550930  1
  Br  Br7  1  0.107826  0.808790  0.949070  1
  Br  Br8  1  0.131330  0.370803  0.367414  1
  Br  Br9  1  0.131330  0.129197  0.132586  1
  Br  Br10  1  0.191172  0.047055  0.888474  1
  Br  Br11  1  0.191172  0.452945  0.611526  1
  Br  Br12  1  0.210955  0.576487  0.097034  1
  Br  Br13  1  0.210955  0.923513  0.402966  1
  Br  Br14  1  0.289045  0.576487  0.402966  1
  Br  Br15  1  0.289045  0.923513  0.097034  1
  Br  Br16  1  0.308828  0.047055  0.611526  1
  Br  Br17  1  0.308828  0.452945  0.888474  1
  Br  Br18  1  0.368670  0.129197  0.367414  1
  Br  Br19  1  0.368670  0.370803  0.132586  1
  Br  Br20  1  0.392174  0.691210  0.949070  1
  Br  Br21  1  0.392174  0.808790  0.550930  1
  Br  Br22  1  0.402686  0.210186  0.924573  1
  Br  Br23  1  0.402686  0.289814  0.575427  1
  Br  Br24  1  0.428377  0.593801  0.706172  1
  Br  Br25  1  0.428377  0.906199  0.793828  1
  Br  Br26  1  0.452306  0.611831  0.194160  1
  Br  Br27  1  0.452306  0.888169  0.305840  1
  Br  Br28  1  0.547694  0.111831  0.694160  1
  Br  Br29  1  0.547694  0.388169  0.805840  1
  Br  Br30  1  0.571623  0.093801  0.206172  1
  Br  Br31  1  0.571623  0.406199  0.293828  1
  Br  Br32  1  0.597314  0.710186  0.424573  1
  Br  Br33  1  0.597314  0.789814  0.075427  1
  Br  Br34  1  0.607826  0.191210  0.449070  1
  Br  Br35  1  0.607826  0.308790  0.050930  1
  Br  Br36  1  0.631330  0.629197  0.867414  1
  Br  Br37  1  0.631330  0.870803  0.632586  1
  Br  Br38  1  0.691172  0.547055  0.111526  1
  Br  Br39  1  0.691172  0.952945  0.388474  1
  Br  Br40  1  0.710955  0.076487  0.902966  1
  Br  Br41  1  0.710955  0.423513  0.597034  1
  Br  Br42  1  0.789045  0.076487  0.597034  1
  Br  Br43  1  0.789045  0.423513  0.902966  1
  Br  Br44  1  0.808828  0.547055  0.388474  1
  Br  Br45  1  0.808828  0.952945  0.111526  1
  Br  Br46  1  0.868670  0.870803  0.867414  1
  Br  Br47  1  0.868670  0.629197  0.632586  1
  Br  Br48  1  0.892174  0.191210  0.050930  1
  Br  Br49  1  0.892174  0.308790  0.449070  1
  Br  Br50  1  0.902686  0.710186  0.075427  1
  Br  Br51  1  0.902686  0.789814  0.424573  1
  Br  Br52  1  0.928377  0.093801  0.293828  1
  Br  Br53  1  0.928377  0.406199  0.206172  1
  Br  Br54  1  0.952306  0.111831  0.805840  1
  Br  Br55  1  0.952306  0.388169  0.694160  1
  Tl  Tl56  1  0.250000  0.250000  0.750000  1
  Tl  Tl57  1  0.250000  0.750000  0.250000  1
  Tl  Tl58  1  0.500000  0.500000  0.500000  1
  Tl  Tl59  1  0.500000  0.000000  0.000000  1
  Tl  Tl60  1  0.750000  0.250000  0.750000  1
  Tl  Tl61  1  0.750000  0.750000  0.250000  1
  Tl  Tl62  1  0.000000  0.000000  0.500000  1
  Tl  Tl63  1  0.000000  0.500000  0.000000  1
  W  W64  1  0.029713  0.540410  0.622483  1
  W  W65  1  0.029713  0.959590  0.877517  1
  W  W66  1  0.041327  0.379871  0.530524  1
  W  W67  1  0.041327  0.120129  0.969476  1
  W  W68  1  0.119586  0.531619  0.458657  1
  W  W69  1  0.119586  0.968381  0.041343  1
  W  W70  1  0.380414  0.968381  0.458657  1
  W  W71  1  0.380414  0.531619  0.041343  1
  W  W72  1  0.458673  0.379871  0.969476  1
  W  W73  1  0.458673  0.120129  0.530524  1
  W  W74  1  0.470287  0.540410  0.877517  1
  W  W75  1  0.470287  0.959590  0.622483  1
  W  W76  1  0.529713  0.040410  0.377517  1
  W  W77  1  0.529713  0.459590  0.122483  1
  W  W78  1  0.541327  0.879871  0.469476  1
  W  W79  1  0.541327  0.620129  0.030524  1
  W  W80  1  0.619586  0.468381  0.958657  1
  W  W81  1  0.619586  0.031619  0.541343  1
  W  W82  1  0.880414  0.031619  0.958657  1
  W  W83  1  0.880414  0.468381  0.541343  1
  W  W84  1  0.958673  0.620129  0.469476  1
  W  W85  1  0.958673  0.879871  0.030524  1
  W  W86  1  0.970287  0.040410  0.122483  1
  W  W87  1  0.970287  0.459590  0.377517  1
