# generated using pymatgen
data_SbS4N4Cl5
_symmetry_space_group_name_H-M   'P 1'
_cell_length_a   7.36302385
_cell_length_b   13.08195870
_cell_length_c   15.46682530
_cell_angle_alpha   90.00000000
_cell_angle_beta   99.69205000
_cell_angle_gamma   90.00000000
_symmetry_Int_Tables_number   1
_chemical_formula_structural   SbS4N4Cl5
_chemical_formula_sum   'Sb4 S16 N16 Cl20'
_cell_volume   1468.54325330
_cell_formula_units_Z   4
loop_
 _symmetry_equiv_pos_site_id
 _symmetry_equiv_pos_as_xyz
  1  'x, y, z'
loop_
 _atom_site_type_symbol
 _atom_site_label
 _atom_site_symmetry_multiplicity
 _atom_site_fract_x
 _atom_site_fract_y
 _atom_site_fract_z
 _atom_site_occupancy
  Sb  Sb0  1  0.071713  0.785845  0.901857  1
  Sb  Sb1  1  0.928287  0.214155  0.098143  1
  Sb  Sb2  1  0.428287  0.285845  0.598143  1
  Sb  Sb3  1  0.571713  0.714155  0.401857  1
  S  S4  1  0.672950  0.006746  0.141539  1
  S  S5  1  0.550815  0.511737  0.703676  1
  S  S6  1  0.327050  0.993254  0.858461  1
  S  S7  1  0.949185  0.011737  0.796324  1
  S  S8  1  0.449185  0.488263  0.296324  1
  S  S9  1  0.604272  0.087486  0.312751  1
  S  S10  1  0.172950  0.493254  0.641539  1
  S  S11  1  0.104272  0.412514  0.812751  1
  S  S12  1  0.050815  0.988263  0.203676  1
  S  S13  1  0.508324  0.430968  0.878805  1
  S  S14  1  0.008324  0.069032  0.378805  1
  S  S15  1  0.991676  0.930968  0.621195  1
  S  S16  1  0.895728  0.587486  0.187249  1
  S  S17  1  0.395728  0.912514  0.687249  1
  S  S18  1  0.491676  0.569032  0.121195  1
  S  S19  1  0.827050  0.506746  0.358461  1
  N  N20  1  0.087786  0.007699  0.306914  1
  N  N21  1  0.879910  0.061114  0.153294  1
  N  N22  1  0.379910  0.438886  0.653294  1
  N  N23  1  0.429021  0.967753  0.778043  1
  N  N24  1  0.120090  0.938886  0.846706  1
  N  N25  1  0.912214  0.992301  0.693086  1
  N  N26  1  0.620090  0.561114  0.346706  1
  N  N27  1  0.192208  0.882686  0.642463  1
  N  N28  1  0.587786  0.492301  0.806914  1
  N  N29  1  0.412214  0.507699  0.193086  1
  N  N30  1  0.692208  0.617314  0.142463  1
  N  N31  1  0.929021  0.532247  0.278043  1
  N  N32  1  0.807792  0.117314  0.357537  1
  N  N33  1  0.070979  0.467753  0.721957  1
  N  N34  1  0.570979  0.032247  0.221957  1
  N  N35  1  0.307792  0.382686  0.857537  1
  Cl  Cl36  1  0.979311  0.376860  0.035918  1
  Cl  Cl37  1  0.678300  0.362973  0.539726  1
  Cl  Cl38  1  0.363274  0.752162  0.267635  1
  Cl  Cl39  1  0.136726  0.252162  0.232365  1
  Cl  Cl40  1  0.327509  0.720050  0.838891  1
  Cl  Cl41  1  0.479311  0.123140  0.535918  1
  Cl  Cl42  1  0.863274  0.747838  0.767635  1
  Cl  Cl43  1  0.821700  0.862973  0.960274  1
  Cl  Cl44  1  0.713512  0.163729  0.969680  1
  Cl  Cl45  1  0.520689  0.876860  0.464082  1
  Cl  Cl46  1  0.178300  0.137027  0.039726  1
  Cl  Cl47  1  0.020689  0.623140  0.964082  1
  Cl  Cl48  1  0.786488  0.663729  0.530320  1
  Cl  Cl49  1  0.321700  0.637027  0.460274  1
  Cl  Cl50  1  0.672491  0.279950  0.161109  1
  Cl  Cl51  1  0.172491  0.220050  0.661109  1
  Cl  Cl52  1  0.213512  0.336271  0.469680  1
  Cl  Cl53  1  0.286488  0.836271  0.030320  1
  Cl  Cl54  1  0.827509  0.779950  0.338891  1
  Cl  Cl55  1  0.636726  0.247838  0.732365  1
