# generated using pymatgen
data_Cr5Ge3
_symmetry_space_group_name_H-M   'P 1'
_cell_length_a   4.71666493
_cell_length_b   7.00038447
_cell_length_c   7.00038483
_cell_angle_alpha   83.48332992
_cell_angle_beta   70.31272290
_cell_angle_gamma   70.31273027
_symmetry_Int_Tables_number   1
_chemical_formula_structural   Cr5Ge3
_chemical_formula_sum   'Cr10 Ge6'
_cell_volume   204.90915494
_cell_formula_units_Z   2
loop_
 _symmetry_equiv_pos_site_id
 _symmetry_equiv_pos_as_xyz
  1  'x, y, z'
loop_
 _atom_site_type_symbol
 _atom_site_label
 _atom_site_symmetry_multiplicity
 _atom_site_fract_x
 _atom_site_fract_y
 _atom_site_fract_z
 _atom_site_occupancy
  Cr  Cr0  1  0.578210  0.686694  0.156885  1
  Cr  Cr1  1  0.735095  0.843115  0.686694  1
  Cr  Cr2  1  0.421790  0.313306  0.843115  1
  Cr  Cr3  1  0.250000  0.500000  0.500000  1
  Cr  Cr4  1  0.921790  0.843115  0.313306  1
  Cr  Cr5  1  0.764905  0.313306  0.156885  1
  Cr  Cr6  1  0.264905  0.156885  0.313306  1
  Cr  Cr7  1  0.078210  0.156885  0.686694  1
  Cr  Cr8  1  0.235095  0.686694  0.843115  1
  Cr  Cr9  1  0.750000  0.500000  0.500000  1
  Ge  Ge10  1  0.166610  0.500000  0.166780  1
  Ge  Ge11  1  0.250000  0.000000  0.000000  1
  Ge  Ge12  1  0.750000  0.000000  0.000000  1
  Ge  Ge13  1  0.666610  0.166780  0.500000  1
  Ge  Ge14  1  0.333390  0.833220  0.500000  1
  Ge  Ge15  1  0.833390  0.500000  0.833220  1
