# generated using pymatgen
data_CeP5O14
_symmetry_space_group_name_H-M   'P 1'
_cell_length_a   7.32101765
_cell_length_b   9.02073781
_cell_length_c   9.35473950
_cell_angle_alpha   82.21147214
_cell_angle_beta   77.27610572
_cell_angle_gamma   69.88418495
_symmetry_Int_Tables_number   1
_chemical_formula_structural   CeP5O14
_chemical_formula_sum   'Ce2 P10 O28'
_cell_volume   564.65830687
_cell_formula_units_Z   2
loop_
 _symmetry_equiv_pos_site_id
 _symmetry_equiv_pos_as_xyz
  1  'x, y, z'
loop_
 _atom_site_type_symbol
 _atom_site_label
 _atom_site_symmetry_multiplicity
 _atom_site_fract_x
 _atom_site_fract_y
 _atom_site_fract_z
 _atom_site_occupancy
  Ce  Ce0  1  0.996776  0.999256  0.000125  1
  Ce  Ce1  1  0.464383  0.505984  0.465707  1
  P  P2  1  0.431708  0.052618  0.127271  1
  P  P3  1  0.259942  0.400551  0.155706  1
  P  P4  1  0.847693  0.620853  0.148718  1
  P  P5  1  0.371379  0.588469  0.875814  1
  P  P6  1  0.798223  0.466179  0.908097  1
  P  P7  1  0.882720  0.604954  0.600277  1
  P  P8  1  0.788183  0.940758  0.678131  1
  P  P9  1  0.894287  0.118063  0.401710  1
  P  P10  1  0.361761  0.120394  0.673286  1
  P  P11  1  0.314481  0.956270  0.434919  1
  O  O12  1  0.260749  0.227405  0.147707  1
  O  O13  1  0.327803  0.954522  0.084058  1
  O  O14  1  0.621902  0.069956  0.044721  1
  O  O15  1  0.033473  0.486322  0.210714  1
  O  O16  1  0.312023  0.450814  0.987604  1
  O  O17  1  0.386771  0.418820  0.250412  1
  O  O18  1  0.890461  0.566887  0.979312  1
  O  O19  1  0.881455  0.776080  0.134780  1
  O  O20  1  0.664344  0.592018  0.232741  1
  O  O21  1  0.575569  0.578864  0.922696  1
  O  O22  1  0.229289  0.747153  0.912404  1
  O  O23  1  0.410535  0.530314  0.726869  1
  O  O24  1  0.895323  0.473445  0.740790  1
  O  O25  1  0.828521  0.302474  0.971001  1
  O  O26  1  0.787516  0.765684  0.694988  1
  O  O27  1  0.088713  0.588325  0.524592  1
  O  O28  1  0.728201  0.601817  0.522128  1
  O  O29  1  0.568495  0.043484  0.735944  1
  O  O30  1  0.832582  0.975129  0.505241  1
  O  O31  1  0.923848  0.969882  0.758438  1
  O  O32  1  0.107992  0.094602  0.443663  1
  O  O33  1  0.919836  0.078189  0.248171  1
  O  O34  1  0.762037  0.274461  0.454717  1
  O  O35  1  0.392826  0.973375  0.572878  1
  O  O36  1  0.200709  0.121904  0.801924  1
  O  O37  1  0.366606  0.263469  0.575030  1
  O  O38  1  0.458113  0.007594  0.300565  1
  O  O39  1  0.305271  0.795761  0.432942  1
