# generated using pymatgen
data_SiO2
_symmetry_space_group_name_H-M   'P 1'
_cell_length_a   8.60862158
_cell_length_b   15.21959319
_cell_length_c   15.21959323
_cell_angle_alpha   101.31730725
_cell_angle_beta   90.00000000
_cell_angle_gamma   90.00000000
_symmetry_Int_Tables_number   1
_chemical_formula_structural   SiO2
_chemical_formula_sum   'Si32 O64'
_cell_volume   1955.29303661
_cell_formula_units_Z   32
loop_
 _symmetry_equiv_pos_site_id
 _symmetry_equiv_pos_as_xyz
  1  'x, y, z'
loop_
 _atom_site_type_symbol
 _atom_site_label
 _atom_site_symmetry_multiplicity
 _atom_site_fract_x
 _atom_site_fract_y
 _atom_site_fract_z
 _atom_site_occupancy
  Si  Si0  1  0.932840  0.243646  0.756354  1
  Si  Si1  1  0.432840  0.756354  0.243646  1
  Si  Si2  1  0.564484  0.882172  0.117828  1
  Si  Si3  1  0.064846  0.131075  0.585517  1
  Si  Si4  1  0.435154  0.414483  0.868925  1
  Si  Si5  1  0.936913  0.921541  0.793044  1
  Si  Si6  1  0.435154  0.131075  0.585517  1
  Si  Si7  1  0.935154  0.585517  0.131075  1
  Si  Si8  1  0.563861  0.603409  0.931250  1
  Si  Si9  1  0.564846  0.868925  0.414483  1
  Si  Si10  1  0.436913  0.078459  0.206956  1
  Si  Si11  1  0.936139  0.603409  0.931250  1
  Si  Si12  1  0.064846  0.414483  0.868925  1
  Si  Si13  1  0.436139  0.396591  0.068750  1
  Si  Si14  1  0.063861  0.931250  0.603409  1
  Si  Si15  1  0.936913  0.206956  0.078459  1
  Si  Si16  1  0.563087  0.206956  0.078459  1
  Si  Si17  1  0.936139  0.068750  0.396591  1
  Si  Si18  1  0.935516  0.882172  0.117828  1
  Si  Si19  1  0.563087  0.921541  0.793044  1
  Si  Si20  1  0.564846  0.585517  0.131075  1
  Si  Si21  1  0.063861  0.396591  0.068750  1
  Si  Si22  1  0.067160  0.756354  0.243646  1
  Si  Si23  1  0.436139  0.931250  0.603409  1
  Si  Si24  1  0.435516  0.117828  0.882172  1
  Si  Si25  1  0.064484  0.117828  0.882172  1
  Si  Si26  1  0.935154  0.868925  0.414483  1
  Si  Si27  1  0.563861  0.068750  0.396591  1
  Si  Si28  1  0.567160  0.243646  0.756354  1
  Si  Si29  1  0.063087  0.793044  0.921541  1
  Si  Si30  1  0.063087  0.078459  0.206956  1
  Si  Si31  1  0.436913  0.793044  0.921541  1
  O  O32  1  0.511448  0.610948  0.035824  1
  O  O33  1  0.522050  0.868379  0.518482  1
  O  O34  1  0.488552  0.035824  0.610948  1
  O  O35  1  0.022050  0.518482  0.868379  1
  O  O36  1  0.988552  0.610948  0.035824  1
  O  O37  1  0.485267  0.977995  0.157562  1
  O  O38  1  0.977950  0.481518  0.131621  1
  O  O39  1  0.485915  0.306241  0.102516  1
  O  O40  1  0.985915  0.693759  0.897484  1
  O  O41  1  0.488552  0.389052  0.964176  1
  O  O42  1  0.014085  0.306241  0.102516  1
  O  O43  1  0.750000  0.894964  0.105036  1
  O  O44  1  0.972921  0.212192  0.650211  1
  O  O45  1  0.485915  0.897484  0.693759  1
  O  O46  1  0.477950  0.131621  0.481518  1
  O  O47  1  0.962117  0.813863  0.186137  1
  O  O48  1  0.000000  0.849789  0.849789  1
  O  O49  1  0.250000  0.773377  0.226623  1
  O  O50  1  0.472921  0.787808  0.349789  1
  O  O51  1  0.750000  0.588876  0.922414  1
  O  O52  1  0.511448  0.964176  0.389052  1
  O  O53  1  0.027079  0.650211  0.212192  1
  O  O54  1  0.014085  0.897484  0.693759  1
  O  O55  1  0.750000  0.854337  0.399141  1
  O  O56  1  0.537883  0.813863  0.186137  1
  O  O57  1  0.037883  0.186137  0.813863  1
  O  O58  1  0.250000  0.784301  0.914863  1
  O  O59  1  0.750000  0.215699  0.085137  1
  O  O60  1  0.250000  0.105036  0.894964  1
  O  O61  1  0.500000  0.849789  0.849789  1
  O  O62  1  0.750000  0.600859  0.145663  1
  O  O63  1  0.985267  0.022005  0.842438  1
  O  O64  1  0.972921  0.349789  0.787808  1
  O  O65  1  0.022050  0.131621  0.481518  1
  O  O66  1  0.011448  0.389052  0.964176  1
  O  O67  1  0.250000  0.922414  0.588876  1
  O  O68  1  0.477950  0.518482  0.868379  1
  O  O69  1  0.527079  0.212192  0.650211  1
  O  O70  1  0.000000  0.150211  0.150211  1
  O  O71  1  0.250000  0.085137  0.215699  1
  O  O72  1  0.750000  0.226623  0.773377  1
  O  O73  1  0.514733  0.022005  0.842438  1
  O  O74  1  0.750000  0.914863  0.784301  1
  O  O75  1  0.985915  0.102516  0.306241  1
  O  O76  1  0.522050  0.481518  0.131621  1
  O  O77  1  0.500000  0.150211  0.150211  1
  O  O78  1  0.014733  0.842438  0.022005  1
  O  O79  1  0.514085  0.102516  0.306241  1
  O  O80  1  0.988552  0.964176  0.389052  1
  O  O81  1  0.514733  0.157562  0.977995  1
  O  O82  1  0.527079  0.349789  0.787808  1
  O  O83  1  0.014733  0.977995  0.157562  1
  O  O84  1  0.985267  0.157562  0.977995  1
  O  O85  1  0.011448  0.035824  0.610948  1
  O  O86  1  0.514085  0.693759  0.897484  1
  O  O87  1  0.250000  0.145663  0.600859  1
  O  O88  1  0.462117  0.186137  0.813863  1
  O  O89  1  0.485267  0.842438  0.022005  1
  O  O90  1  0.750000  0.077586  0.411124  1
  O  O91  1  0.027079  0.787808  0.349789  1
  O  O92  1  0.250000  0.399141  0.854337  1
  O  O93  1  0.977950  0.868379  0.518482  1
  O  O94  1  0.472921  0.650211  0.212192  1
  O  O95  1  0.250000  0.411124  0.077586  1
