# generated using pymatgen
data_Rb2Sb8O13
_symmetry_space_group_name_H-M   'P 1'
_cell_length_a   7.69723902
_cell_length_b   14.36175703
_cell_length_c   17.34654836
_cell_angle_alpha   90.00000000
_cell_angle_beta   90.00000000
_cell_angle_gamma   90.14902089
_symmetry_Int_Tables_number   1
_chemical_formula_structural   Rb2Sb8O13
_chemical_formula_sum   'Rb8 Sb32 O52'
_cell_volume   1917.58290930
_cell_formula_units_Z   4
loop_
 _symmetry_equiv_pos_site_id
 _symmetry_equiv_pos_as_xyz
  1  'x, y, z'
loop_
 _atom_site_type_symbol
 _atom_site_label
 _atom_site_symmetry_multiplicity
 _atom_site_fract_x
 _atom_site_fract_y
 _atom_site_fract_z
 _atom_site_occupancy
  Rb  Rb0  1  0.530612  0.193023  0.750000  1
  Rb  Rb1  1  0.538640  0.319965  0.250000  1
  Rb  Rb2  1  0.976490  0.533486  0.750000  1
  Rb  Rb3  1  0.044308  0.031581  0.750000  1
  Rb  Rb4  1  0.955692  0.968419  0.250000  1
  Rb  Rb5  1  0.469388  0.806977  0.250000  1
  Rb  Rb6  1  0.023510  0.466514  0.250000  1
  Rb  Rb7  1  0.461360  0.680035  0.750000  1
  Sb  Sb8  1  0.521545  0.924775  0.861931  1
  Sb  Sb9  1  0.478455  0.075225  0.361931  1
  Sb  Sb10  1  0.016300  0.210001  0.114590  1
  Sb  Sb11  1  0.271236  0.122347  0.939076  1
  Sb  Sb12  1  0.728764  0.877653  0.439076  1
  Sb  Sb13  1  0.016300  0.210001  0.385410  1
  Sb  Sb14  1  0.330843  0.365830  0.446768  1
  Sb  Sb15  1  0.983700  0.789999  0.614590  1
  Sb  Sb16  1  0.983700  0.789999  0.885410  1
  Sb  Sb17  1  0.330843  0.365830  0.053232  1
  Sb  Sb18  1  0.478455  0.075225  0.138069  1
  Sb  Sb19  1  0.271236  0.122347  0.560924  1
  Sb  Sb20  1  0.169007  0.917852  0.440986  1
  Sb  Sb21  1  0.763611  0.412841  0.450162  1
  Sb  Sb22  1  0.006267  0.713584  0.362255  1
  Sb  Sb23  1  0.521545  0.924775  0.638069  1
  Sb  Sb24  1  0.993733  0.286416  0.637745  1
  Sb  Sb25  1  0.830993  0.082148  0.940986  1
  Sb  Sb26  1  0.513625  0.434571  0.636164  1
  Sb  Sb27  1  0.006267  0.713584  0.137745  1
  Sb  Sb28  1  0.236389  0.587159  0.549838  1
  Sb  Sb29  1  0.669157  0.634170  0.553232  1
  Sb  Sb30  1  0.486375  0.565429  0.363836  1
  Sb  Sb31  1  0.169007  0.917852  0.059014  1
  Sb  Sb32  1  0.763611  0.412841  0.049838  1
  Sb  Sb33  1  0.669157  0.634170  0.946768  1
  Sb  Sb34  1  0.236389  0.587159  0.950162  1
  Sb  Sb35  1  0.513625  0.434571  0.863836  1
  Sb  Sb36  1  0.486375  0.565429  0.136164  1
  Sb  Sb37  1  0.728764  0.877653  0.060924  1
  Sb  Sb38  1  0.830993  0.082148  0.559014  1
  Sb  Sb39  1  0.993733  0.286416  0.862255  1
  O  O40  1  0.919370  0.338836  0.377872  1
  O  O41  1  0.426328  0.679600  0.931716  1
  O  O42  1  0.740637  0.744234  0.623760  1
  O  O43  1  0.919370  0.338836  0.122128  1
  O  O44  1  0.259363  0.255766  0.123760  1
  O  O45  1  0.288530  0.504940  0.640675  1
  O  O46  1  0.666786  0.548226  0.855181  1
  O  O47  1  0.573672  0.320400  0.068284  1
  O  O48  1  0.762747  0.974363  0.635685  1
  O  O49  1  0.666786  0.548226  0.644819  1
  O  O50  1  0.162121  0.824999  0.146506  1
  O  O51  1  0.762747  0.974363  0.864315  1
  O  O52  1  0.586179  0.948051  0.359083  1
  O  O53  1  0.478885  0.590248  0.250000  1
  O  O54  1  0.288530  0.504940  0.859325  1
  O  O55  1  0.013148  0.196717  -0.000355  1
  O  O56  1  0.740637  0.744234  0.876240  1
  O  O57  1  0.426328  0.679600  0.568284  1
  O  O58  1  0.018358  0.681861  0.250000  1
  O  O59  1  0.521115  0.409752  0.750000  1
  O  O60  1  0.711470  0.495060  0.140675  1
  O  O61  1  0.500000  0.500000  0.000000  1
  O  O62  1  0.333214  0.451774  0.144819  1
  O  O63  1  0.413821  0.051949  0.640917  1
  O  O64  1  0.214954  0.213628  0.855387  1
  O  O65  1  0.072236  0.034317  0.920262  1
  O  O66  1  0.927764  0.965683  0.079738  1
  O  O67  1  0.080630  0.661164  0.877872  1
  O  O68  1  0.986852  0.803283  0.499645  1
  O  O69  1  0.501155  0.105014  0.250000  1
  O  O70  1  0.237253  0.025637  0.364315  1
  O  O71  1  0.711470  0.495060  0.359325  1
  O  O72  1  0.013148  0.196717  0.500355  1
  O  O73  1  0.498845  0.894986  0.750000  1
  O  O74  1  0.837879  0.175001  0.646506  1
  O  O75  1  0.333214  0.451774  0.355181  1
  O  O76  1  0.500000  0.500000  0.500000  1
  O  O77  1  0.837879  0.175001  0.853494  1
  O  O78  1  0.162121  0.824999  0.353494  1
  O  O79  1  0.927764  0.965683  0.420262  1
  O  O80  1  0.981642  0.318139  0.750000  1
  O  O81  1  0.986852  0.803283  1.000355  1
  O  O82  1  0.080630  0.661164  0.622128  1
  O  O83  1  0.586179  0.948051  0.140917  1
  O  O84  1  0.259363  0.255766  0.376240  1
  O  O85  1  0.573672  0.320400  0.431716  1
  O  O86  1  0.237253  0.025637  0.135685  1
  O  O87  1  0.785046  0.786372  0.355387  1
  O  O88  1  0.785046  0.786372  0.144613  1
  O  O89  1  0.072236  0.034317  0.579738  1
  O  O90  1  0.214954  0.213628  0.644613  1
  O  O91  1  0.413821  0.051949  0.859083  1
