# generated using pymatgen
data_Ca9In(PO4)7
_symmetry_space_group_name_H-M   'P 1'
_cell_length_a   13.93474435
_cell_length_b   13.93474486
_cell_length_c   13.93474527
_cell_angle_alpha   44.30900235
_cell_angle_beta   44.30900017
_cell_angle_gamma   44.30900248
_symmetry_Int_Tables_number   1
_chemical_formula_structural   Ca9In(PO4)7
_chemical_formula_sum   'Ca18 In2 P14 O56'
_cell_volume   1199.94108041
_cell_formula_units_Z   2
loop_
 _symmetry_equiv_pos_site_id
 _symmetry_equiv_pos_as_xyz
  1  'x, y, z'
loop_
 _atom_site_type_symbol
 _atom_site_label
 _atom_site_symmetry_multiplicity
 _atom_site_fract_x
 _atom_site_fract_y
 _atom_site_fract_z
 _atom_site_occupancy
  Ca  Ca0  1  0.855642  0.431932  0.406767  1
  Ca  Ca1  1  0.577599  0.152256  0.564082  1
  Ca  Ca2  1  0.431932  0.406767  0.855642  1
  Ca  Ca3  1  0.564082  0.577599  0.152256  1
  Ca  Ca4  1  0.931932  0.355642  0.906767  1
  Ca  Ca5  1  0.355642  0.906767  0.931932  1
  Ca  Ca6  1  0.471889  0.050269  0.453182  1
  Ca  Ca7  1  0.453182  0.471889  0.050269  1
  Ca  Ca8  1  0.971889  0.953182  0.550269  1
  Ca  Ca9  1  0.406767  0.855642  0.431932  1
  Ca  Ca10  1  0.953182  0.550269  0.971889  1
  Ca  Ca11  1  0.550269  0.971889  0.953182  1
  Ca  Ca12  1  0.906767  0.931932  0.355642  1
  Ca  Ca13  1  0.077599  0.064082  0.652256  1
  Ca  Ca14  1  0.152256  0.564082  0.577599  1
  Ca  Ca15  1  0.064082  0.652256  0.077599  1
  Ca  Ca16  1  0.652256  0.077599  0.064082  1
  Ca  Ca17  1  0.050269  0.453182  0.471889  1
  In  In18  1  0.999477  0.999477  0.999477  1
  In  In19  1  0.499477  0.499477  0.499477  1
  P  P20  1  0.768932  0.768932  0.768932  1
  P  P21  1  0.268932  0.268932  0.268932  1
  P  P22  1  0.220648  0.186737  0.685217  1
  P  P23  1  0.819917  0.308577  0.274402  1
  P  P24  1  0.274402  0.819917  0.308577  1
  P  P25  1  0.308577  0.274402  0.819917  1
  P  P26  1  0.686737  0.720648  0.185217  1
  P  P27  1  0.685217  0.220648  0.186737  1
  P  P28  1  0.774402  0.808577  0.319917  1
  P  P29  1  0.720648  0.185217  0.686737  1
  P  P30  1  0.185217  0.686737  0.720648  1
  P  P31  1  0.808577  0.319917  0.774402  1
  P  P32  1  0.319917  0.774402  0.808577  1
  P  P33  1  0.186737  0.685217  0.220648  1
  O  O34  1  0.392804  0.770872  0.856718  1
  O  O35  1  0.270872  0.892804  0.356718  1
  O  O36  1  0.668578  0.684431  0.118576  1
  O  O37  1  0.110369  0.391904  0.266127  1
  O  O38  1  0.838814  0.388273  0.110769  1
  O  O39  1  0.139559  0.868579  0.875806  1
  O  O40  1  0.368579  0.639559  0.375806  1
  O  O41  1  0.144318  0.595417  0.892361  1
  O  O42  1  0.610769  0.888273  0.338814  1
  O  O43  1  0.356718  0.270872  0.892804  1
  O  O44  1  0.266127  0.110369  0.391904  1
  O  O45  1  0.391904  0.266127  0.110369  1
  O  O46  1  0.892804  0.356718  0.270872  1
  O  O47  1  0.184431  0.168578  0.618576  1
  O  O48  1  0.129718  0.856160  0.662421  1
  O  O49  1  0.618576  0.184431  0.168578  1
  O  O50  1  0.635813  0.363824  0.617942  1
  O  O51  1  0.617942  0.635813  0.363824  1
  O  O52  1  0.863824  0.135813  0.117942  1
  O  O53  1  0.856160  0.662421  0.129718  1
  O  O54  1  0.356160  0.629718  0.162421  1
  O  O55  1  0.856718  0.392804  0.770872  1
  O  O56  1  0.610369  0.766127  0.891904  1
  O  O57  1  0.117942  0.863824  0.135813  1
  O  O58  1  0.891904  0.610369  0.766127  1
  O  O59  1  0.872567  0.136293  0.350623  1
  O  O60  1  0.118576  0.668578  0.684431  1
  O  O61  1  0.168578  0.618576  0.184431  1
  O  O62  1  0.392361  0.095417  0.644318  1
  O  O63  1  0.162421  0.356160  0.629718  1
  O  O64  1  0.375806  0.368579  0.639559  1
  O  O65  1  0.135813  0.117942  0.863824  1
  O  O66  1  0.136293  0.350623  0.872567  1
  O  O67  1  0.766127  0.891904  0.610369  1
  O  O68  1  0.888273  0.338814  0.610769  1
  O  O69  1  0.662421  0.129718  0.856160  1
  O  O70  1  0.639559  0.375806  0.368579  1
  O  O71  1  0.850623  0.636293  0.372567  1
  O  O72  1  0.363824  0.617942  0.635813  1
  O  O73  1  0.372567  0.850623  0.636293  1
  O  O74  1  0.095417  0.644318  0.392361  1
  O  O75  1  0.350623  0.872567  0.136293  1
  O  O76  1  0.810337  0.810337  0.810337  1
  O  O77  1  0.338814  0.610769  0.888273  1
  O  O78  1  0.310337  0.310337  0.310337  1
  O  O79  1  0.644318  0.392361  0.095417  1
  O  O80  1  0.629718  0.162421  0.356160  1
  O  O81  1  0.595417  0.892361  0.144318  1
  O  O82  1  0.770872  0.856718  0.392804  1
  O  O83  1  0.892361  0.144318  0.595417  1
  O  O84  1  0.110769  0.838814  0.388273  1
  O  O85  1  0.388273  0.110769  0.838814  1
  O  O86  1  0.875806  0.139559  0.868579  1
  O  O87  1  0.868579  0.875806  0.139559  1
  O  O88  1  0.636293  0.372567  0.850623  1
  O  O89  1  0.684431  0.118576  0.668578  1
