# generated using pymatgen
data_RbB3O5
_symmetry_space_group_name_H-M   'P 1'
_cell_length_a   5.50282263
_cell_length_b   8.34060586
_cell_length_c   10.39062251
_cell_angle_alpha   90.00000000
_cell_angle_beta   90.00000000
_cell_angle_gamma   90.00000000
_symmetry_Int_Tables_number   1
_chemical_formula_structural   RbB3O5
_chemical_formula_sum   'Rb4 B12 O20'
_cell_volume   476.89709913
_cell_formula_units_Z   4
loop_
 _symmetry_equiv_pos_site_id
 _symmetry_equiv_pos_as_xyz
  1  'x, y, z'
loop_
 _atom_site_type_symbol
 _atom_site_label
 _atom_site_symmetry_multiplicity
 _atom_site_fract_x
 _atom_site_fract_y
 _atom_site_fract_z
 _atom_site_occupancy
  Rb  Rb0  1  0.503920  0.205288  0.862394  1
  Rb  Rb1  1  0.496080  0.705287  0.637606  1
  Rb  Rb2  1  0.996080  0.794713  0.362394  1
  Rb  Rb3  1  0.003920  0.294712  0.137606  1
  B  B4  1  0.038953  0.060498  0.688753  1
  B  B5  1  0.717315  0.117299  0.535585  1
  B  B6  1  0.782685  0.882701  0.035585  1
  B  B7  1  0.961047  0.560498  0.811247  1
  B  B8  1  0.082083  0.845739  0.853591  1
  B  B9  1  0.538953  0.439502  0.311247  1
  B  B10  1  0.282685  0.617299  0.964415  1
  B  B11  1  0.582083  0.654261  0.146409  1
  B  B12  1  0.917917  0.345739  0.646409  1
  B  B13  1  0.417917  0.154261  0.353591  1
  B  B14  1  0.461047  0.939502  0.188753  1
  B  B15  1  0.217315  0.382701  0.464415  1
  O  O16  1  0.213900  0.226396  0.425263  1
  O  O17  1  0.713900  0.273604  0.574737  1
  O  O18  1  0.366011  0.495864  0.399899  1
  O  O19  1  0.575074  0.055952  0.439882  1
  O  O20  1  0.684634  0.545566  0.244951  1
  O  O21  1  0.924926  0.944048  0.939882  1
  O  O22  1  0.065238  0.220308  0.711106  1
  O  O23  1  0.315366  0.045566  0.255049  1
  O  O24  1  0.866011  0.004136  0.600101  1
  O  O25  1  0.133989  0.504136  0.899899  1
  O  O26  1  0.075074  0.444048  0.560118  1
  O  O27  1  0.424926  0.555952  0.060118  1
  O  O28  1  0.184634  0.954434  0.755049  1
  O  O29  1  0.934762  0.720308  0.788894  1
  O  O30  1  0.434762  0.779692  0.211106  1
  O  O31  1  0.633989  0.995864  0.100101  1
  O  O32  1  0.565238  0.279692  0.288894  1
  O  O33  1  0.815366  0.454434  0.744951  1
  O  O34  1  0.786100  0.726396  0.074737  1
  O  O35  1  0.286100  0.773604  0.925263  1
