# generated using pymatgen
data_Na17Al5O16
_symmetry_space_group_name_H-M   'P 1'
_cell_length_a   6.02937776
_cell_length_b   6.03477408
_cell_length_c   16.89021297
_cell_angle_alpha   84.92359020
_cell_angle_beta   79.71833516
_cell_angle_gamma   60.28113656
_symmetry_Int_Tables_number   1
_chemical_formula_structural   Na17Al5O16
_chemical_formula_sum   'Na17 Al5 O16'
_cell_volume   525.16070363
_cell_formula_units_Z   1
loop_
 _symmetry_equiv_pos_site_id
 _symmetry_equiv_pos_as_xyz
  1  'x, y, z'
loop_
 _atom_site_type_symbol
 _atom_site_label
 _atom_site_symmetry_multiplicity
 _atom_site_fract_x
 _atom_site_fract_y
 _atom_site_fract_z
 _atom_site_occupancy
  Na  Na0  1  0.212354  0.949265  0.458528  1
  Na  Na1  1  0.089942  0.806065  0.823131  1
  Na  Na2  1  0.670882  0.949265  0.541472  1
  Na  Na3  1  0.330543  0.942742  0.275791  1
  Na  Na4  1  0.582490  0.388620  0.907994  1
  Na  Na5  1  0.913074  0.806065  0.176869  1
  Na  Na6  1  0.820326  0.536334  0.352505  1
  Na  Na7  1  0.398834  0.413690  0.274583  1
  Na  Na8  1  0.673417  0.413690  0.725417  1
  Na  Na9  1  0.515818  0.920762  0.907930  1
  Na  Na10  1  0.172831  0.536334  0.647495  1
  Na  Na11  1  0.777709  0.376005  0.550333  1
  Na  Na12  1  0.606334  0.942742  0.724209  1
  Na  Na13  1  0.423748  0.920762  0.092070  1
  Na  Na14  1  0.490483  0.388620  0.092006  1
  Na  Na15  1  0.328042  0.376005  0.449667  1
  Na  Na16  1  0.000957  0.512371  0.000000  1
  Al  Al17  1  0.822331  0.008413  0.360480  1
  Al  Al18  1  0.182811  0.008413  0.639520  1
  Al  Al19  1  0.913062  0.324375  0.180529  1
  Al  Al20  1  0.093591  0.324375  0.819471  1
  Al  Al21  1  0.004342  0.996070  1.000000  1
  O  O22  1  0.721846  0.977183  0.000000  1
  O  O23  1  0.777400  0.231998  0.432304  1
  O  O24  1  0.132570  0.121474  0.740946  1
  O  O25  1  0.959470  0.175207  0.086552  1
  O  O26  1  0.813684  0.622879  0.813538  1
  O  O27  1  0.046022  0.175207  0.913448  1
  O  O28  1  0.289864  0.699211  1.000000  1
  O  O29  1  0.475391  0.711945  0.627720  1
  O  O30  1  0.536090  0.984920  0.370691  1
  O  O31  1  0.103111  0.711945  0.372280  1
  O  O32  1  0.627222  0.622879  0.186462  1
  O  O33  1  0.192934  0.341888  0.186541  1
  O  O34  1  0.209704  0.231998  0.567696  1
  O  O35  1  0.379475  0.341888  0.813459  1
  O  O36  1  0.873516  0.121474  0.259054  1
  O  O37  1  0.906781  0.984920  0.629309  1
