# generated using pymatgen
data_CdI2
_symmetry_space_group_name_H-M   'P 1'
_cell_length_a   4.33910658
_cell_length_b   4.33910685
_cell_length_c   79.46546046
_cell_angle_alpha   90.00000000
_cell_angle_beta   90.00000000
_cell_angle_gamma   119.99999794
_symmetry_Int_Tables_number   1
_chemical_formula_structural   CdI2
_chemical_formula_sum   'Cd10 I20'
_cell_volume   1295.71565909
_cell_formula_units_Z   10
loop_
 _symmetry_equiv_pos_site_id
 _symmetry_equiv_pos_as_xyz
  1  'x, y, z'
loop_
 _atom_site_type_symbol
 _atom_site_label
 _atom_site_symmetry_multiplicity
 _atom_site_fract_x
 _atom_site_fract_y
 _atom_site_fract_z
 _atom_site_occupancy
  Cd  Cd0  1  0.666667  0.333333  0.525014  1
  Cd  Cd1  1  0.666667  0.333333  0.325003  1
  Cd  Cd2  1  0.666667  0.333333  0.024992  1
  Cd  Cd3  1  0.666667  0.333333  0.225027  1
  Cd  Cd4  1  0.666667  0.333333  0.625054  1
  Cd  Cd5  1  0.666667  0.333333  0.425014  1
  Cd  Cd6  1  0.000000  0.000000  0.724919  1
  Cd  Cd7  1  0.000000  0.000000  0.824931  1
  Cd  Cd8  1  0.666667  0.333333  0.125049  1
  Cd  Cd9  1  0.666667  0.333333  0.924995  1
  I  I10  1  0.000000  0.000000  0.103434  1
  I  I11  1  0.333333  0.666667  0.446634  1
  I  I12  1  0.333333  0.666667  0.346628  1
  I  I13  1  0.000000  0.000000  0.303400  1
  I  I14  1  0.333333  0.666667  0.946606  1
  I  I15  1  0.000000  0.000000  0.603429  1
  I  I16  1  0.666667  0.333333  0.703291  1
  I  I17  1  0.000000  0.000000  0.403412  1
  I  I18  1  0.000000  0.000000  0.203442  1
  I  I19  1  0.666667  0.333333  0.803362  1
  I  I20  1  0.000000  0.000000  0.903381  1
  I  I21  1  0.333333  0.666667  0.046606  1
  I  I22  1  0.000000  0.000000  0.003375  1
  I  I23  1  0.333333  0.666667  0.546633  1
  I  I24  1  0.333333  0.666667  0.846504  1
  I  I25  1  0.333333  0.666667  0.246623  1
  I  I26  1  0.000000  0.000000  0.503406  1
  I  I27  1  0.333333  0.666667  0.146665  1
  I  I28  1  0.333333  0.666667  0.646658  1
  I  I29  1  0.333333  0.666667  0.746511  1
