# generated using pymatgen
data_Y4Si5Rh9
_symmetry_space_group_name_H-M   'P 1'
_cell_length_a   11.69719840
_cell_length_b   11.69719834
_cell_length_c   11.69719797
_cell_angle_alpha   27.44526024
_cell_angle_beta   27.44526077
_cell_angle_gamma   27.44526101
_symmetry_Int_Tables_number   1
_chemical_formula_structural   Y4Si5Rh9
_chemical_formula_sum   'Y4 Si5 Rh9'
_cell_volume   300.06054200
_cell_formula_units_Z   1
loop_
 _symmetry_equiv_pos_site_id
 _symmetry_equiv_pos_as_xyz
  1  'x, y, z'
loop_
 _atom_site_type_symbol
 _atom_site_label
 _atom_site_symmetry_multiplicity
 _atom_site_fract_x
 _atom_site_fract_y
 _atom_site_fract_z
 _atom_site_occupancy
  Y  Y0  1  0.948773  0.948773  0.948773  1
  Y  Y1  1  0.851155  0.851155  0.851155  1
  Y  Y2  1  0.148845  0.148845  0.148845  1
  Y  Y3  1  0.051227  0.051227  0.051227  1
  Si  Si4  1  0.278357  0.278357  0.278357  1
  Si  Si5  1  0.500000  0.500000  0.500000  1
  Si  Si6  1  0.388243  0.388243  0.388243  1
  Si  Si7  1  0.721643  0.721643  0.721643  1
  Si  Si8  1  0.611757  0.611757  0.611757  1
  Rh  Rh9  1  0.608251  0.608251  0.108478  1
  Rh  Rh10  1  0.391749  0.891522  0.391749  1
  Rh  Rh11  1  0.000000  0.500000  0.500000  1
  Rh  Rh12  1  0.891522  0.391749  0.391749  1
  Rh  Rh13  1  0.500000  0.500000  0.000000  1
  Rh  Rh14  1  0.608251  0.108478  0.608251  1
  Rh  Rh15  1  0.500000  0.000000  0.500000  1
  Rh  Rh16  1  0.391749  0.391749  0.891522  1
  Rh  Rh17  1  0.108478  0.608251  0.608251  1
