# generated using pymatgen
data_Li3Cr2(PO4)3
_symmetry_space_group_name_H-M   'P 1'
_cell_length_a   8.67199700
_cell_length_b   12.20580200
_cell_length_c   8.72764945
_cell_angle_alpha   90.00000000
_cell_angle_beta   90.00000000
_cell_angle_gamma   89.94945845
_symmetry_Int_Tables_number   1
_chemical_formula_structural   Li3Cr2(PO4)3
_chemical_formula_sum   'Li12 Cr8 P12 O48'
_cell_volume   923.80980018
_cell_formula_units_Z   4
loop_
 _symmetry_equiv_pos_site_id
 _symmetry_equiv_pos_as_xyz
  1  'x, y, z'
loop_
 _atom_site_type_symbol
 _atom_site_label
 _atom_site_symmetry_multiplicity
 _atom_site_fract_x
 _atom_site_fract_y
 _atom_site_fract_z
 _atom_site_occupancy
  Cr  Cr0  1  0.243079  0.611102  0.537370  1
  Cr  Cr1  1  0.247038  0.113071  0.459115  1
  Cr  Cr2  1  0.252962  0.386929  0.959115  1
  Cr  Cr3  1  0.256921  0.888898  0.037370  1
  Cr  Cr4  1  0.743079  0.111102  0.962630  1
  Cr  Cr5  1  0.747038  0.613071  0.040885  1
  Cr  Cr6  1  0.752962  0.886929  0.540885  1
  Cr  Cr7  1  0.756921  0.388898  0.462630  1
  Li  Li8  1  0.054491  0.712777  0.071466  1
  Li  Li9  1  0.193101  0.814260  0.731315  1
  Li  Li10  1  0.225623  0.180943  0.772118  1
  Li  Li11  1  0.274377  0.319057  0.272118  1
  Li  Li12  1  0.306899  0.685740  0.231315  1
  Li  Li13  1  0.445509  0.787223  0.571466  1
  Li  Li14  1  0.554491  0.212777  0.428534  1
  Li  Li15  1  0.693101  0.314260  0.768685  1
  Li  Li16  1  0.725623  0.680943  0.727882  1
  Li  Li17  1  0.774377  0.819057  0.227882  1
  Li  Li18  1  0.806899  0.185740  0.268685  1
  Li  Li19  1  0.945509  0.287223  0.928534  1
  O  O20  1  0.049553  0.421307  0.859205  1
  O  O21  1  0.054656  0.568964  0.645753  1
  O  O22  1  0.072033  0.161178  0.600636  1
  O  O23  1  0.070296  0.838076  0.908740  1
  O  O24  1  0.147023  0.421278  0.156837  1
  O  O25  1  0.154381  0.970313  0.424567  1
  O  O26  1  0.154310  0.581470  0.333536  1
  O  O27  1  0.157878  0.031396  0.055313  1
  O  O28  1  0.160245  0.179132  0.262751  1
  O  O29  1  0.157275  0.816060  0.228014  1
  O  O30  1  0.169400  0.229368  0.977687  1
  O  O31  1  0.186558  0.777875  0.513852  1
  O  O32  1  0.313442  0.722125  0.013852  1
  O  O33  1  0.330600  0.270632  0.477687  1
  O  O34  1  0.342725  0.683940  0.728014  1
  O  O35  1  0.339755  0.320868  0.762751  1
  O  O36  1  0.342122  0.468604  0.555313  1
  O  O37  1  0.345690  0.918530  0.833536  1
  O  O38  1  0.345619  0.529687  0.924567  1
  O  O39  1  0.352977  0.078722  0.656837  1
  O  O40  1  0.427967  0.338822  0.100636  1
  O  O41  1  0.429704  0.661924  0.408741  1
  O  O42  1  0.450447  0.078693  0.359205  1
  O  O43  1  0.445344  0.931036  0.145753  1
  O  O44  1  0.554656  0.068964  0.854247  1
  O  O45  1  0.549553  0.921307  0.640795  1
  O  O46  1  0.570296  0.338076  0.591260  1
  O  O47  1  0.572033  0.661178  0.899364  1
  O  O48  1  0.647023  0.921278  0.343163  1
  O  O49  1  0.654381  0.470313  0.075433  1
  O  O50  1  0.654310  0.081470  0.166464  1
  O  O51  1  0.657878  0.531396  0.444687  1
  O  O52  1  0.660245  0.679132  0.237249  1
  O  O53  1  0.657275  0.316060  0.271986  1
  O  O54  1  0.669400  0.729368  0.522313  1
  O  O55  1  0.686558  0.277875  0.986148  1
  O  O56  1  0.813442  0.222125  0.486148  1
  O  O57  1  0.830600  0.770632  0.022313  1
  O  O58  1  0.842725  0.183940  0.771986  1
  O  O59  1  0.839755  0.820868  0.737249  1
  O  O60  1  0.842122  0.968604  0.944687  1
  O  O61  1  0.845690  0.418530  0.666464  1
  O  O62  1  0.845619  0.029687  0.575433  1
  O  O63  1  0.852977  0.578722  0.843163  1
  O  O64  1  0.929704  0.161924  0.091259  1
  O  O65  1  0.927967  0.838822  0.399364  1
  O  O66  1  0.945344  0.431036  0.354247  1
  O  O67  1  0.950447  0.578693  0.140795  1
  P  P68  1  0.043109  0.501863  0.248306  1
  P  P69  1  0.108809  0.145607  0.100170  1
  P  P70  1  0.105064  0.853441  0.392428  1
  P  P71  1  0.391191  0.354393  0.600170  1
  P  P72  1  0.394936  0.646559  0.892428  1
  P  P73  1  0.456891  0.998137  0.748306  1
  P  P74  1  0.543109  0.001863  0.251694  1
  P  P75  1  0.605064  0.353441  0.107572  1
  P  P76  1  0.608809  0.645607  0.399830  1
  P  P77  1  0.894936  0.146559  0.607572  1
  P  P78  1  0.891191  0.854393  0.899830  1
  P  P79  1  0.956891  0.498137  0.751694  1
