# generated using pymatgen
data_K3Cr(HO)6
_symmetry_space_group_name_H-M   'P 1'
_cell_length_a   7.33470412
_cell_length_b   7.33470310
_cell_length_c   7.33470312
_cell_angle_alpha   95.98466222
_cell_angle_beta   95.98466139
_cell_angle_gamma   95.98465628
_symmetry_Int_Tables_number   1
_chemical_formula_structural   K3Cr(HO)6
_chemical_formula_sum   'K6 Cr2 H12 O12'
_cell_volume   387.64898524
_cell_formula_units_Z   2
loop_
 _symmetry_equiv_pos_site_id
 _symmetry_equiv_pos_as_xyz
  1  'x, y, z'
loop_
 _atom_site_type_symbol
 _atom_site_label
 _atom_site_symmetry_multiplicity
 _atom_site_fract_x
 _atom_site_fract_y
 _atom_site_fract_z
 _atom_site_occupancy
  Cr  Cr0  1  0.000000  0.000000  0.000000  1
  Cr  Cr1  1  0.500000  0.500000  0.500000  1
  K  K2  1  0.630913  0.869087  0.250000  1
  K  K3  1  0.250000  0.630913  0.869087  1
  K  K4  1  0.869087  0.250000  0.630913  1
  K  K5  1  0.369087  0.130913  0.750000  1
  K  K6  1  0.750000  0.369087  0.130913  1
  K  K7  1  0.130913  0.750000  0.369087  1
  O  O8  1  0.402966  0.541626  0.236629  1
  O  O9  1  0.236629  0.402966  0.541626  1
  O  O10  1  0.541626  0.236629  0.402966  1
  O  O11  1  0.958374  0.097034  0.263371  1
  O  O12  1  0.263371  0.958374  0.097034  1
  O  O13  1  0.097034  0.263371  0.958374  1
  O  O14  1  0.597034  0.458374  0.763371  1
  O  O15  1  0.763371  0.597034  0.458374  1
  O  O16  1  0.458374  0.763371  0.597034  1
  O  O17  1  0.041626  0.902966  0.736629  1
  O  O18  1  0.736629  0.041626  0.902966  1
  O  O19  1  0.902966  0.736629  0.041626  1
  H  H20  1  0.619909  0.582099  0.829843  1
  H  H21  1  0.829843  0.619909  0.582099  1
  H  H22  1  0.582099  0.829843  0.619909  1
  H  H23  1  0.917901  0.880091  0.670157  1
  H  H24  1  0.670157  0.917901  0.880091  1
  H  H25  1  0.880091  0.670157  0.917901  1
  H  H26  1  0.380091  0.417901  0.170157  1
  H  H27  1  0.170157  0.380091  0.417901  1
  H  H28  1  0.417901  0.170157  0.380091  1
  H  H29  1  0.082099  0.119909  0.329843  1
  H  H30  1  0.329843  0.082099  0.119909  1
  H  H31  1  0.119909  0.329843  0.082099  1
