# generated using pymatgen
data_Rb2BeH4(SO5)2
_symmetry_space_group_name_H-M   'P 1'
_cell_length_a   7.53370497
_cell_length_b   11.50453854
_cell_length_c   12.04303205
_cell_angle_alpha   90.00000000
_cell_angle_beta   90.00000000
_cell_angle_gamma   96.42896003
_symmetry_Int_Tables_number   1
_chemical_formula_structural   Rb2BeH4(SO5)2
_chemical_formula_sum   'Rb8 Be4 H16 S8 O40'
_cell_volume   1037.22732209
_cell_formula_units_Z   4
loop_
 _symmetry_equiv_pos_site_id
 _symmetry_equiv_pos_as_xyz
  1  'x, y, z'
loop_
 _atom_site_type_symbol
 _atom_site_label
 _atom_site_symmetry_multiplicity
 _atom_site_fract_x
 _atom_site_fract_y
 _atom_site_fract_z
 _atom_site_occupancy
  S  S0  1  0.260074  0.127318  0.054721  1
  S  S1  1  0.239926  0.872682  0.554721  1
  S  S2  1  0.739926  0.872682  0.945279  1
  S  S3  1  0.760074  0.127318  0.445279  1
  S  S4  1  0.160541  0.634078  0.107298  1
  S  S5  1  0.339459  0.365922  0.607298  1
  S  S6  1  0.839459  0.365922  0.892702  1
  S  S7  1  0.660541  0.634078  0.392702  1
  Rb  Rb8  1  0.011351  0.908324  0.238319  1
  Rb  Rb9  1  0.488649  0.091676  0.738319  1
  Rb  Rb10  1  0.988649  0.091676  0.761681  1
  Rb  Rb11  1  0.511351  0.908324  0.261681  1
  Rb  Rb12  1  0.665688  0.605516  0.102003  1
  Rb  Rb13  1  0.834312  0.394484  0.602003  1
  Rb  Rb14  1  0.334312  0.394484  0.897997  1
  Rb  Rb15  1  0.165688  0.605516  0.397997  1
  Be  Be16  1  0.924536  0.232263  0.080341  1
  Be  Be17  1  0.575464  0.767737  0.580341  1
  Be  Be18  1  0.075464  0.767737  0.919659  1
  Be  Be19  1  0.424536  0.232263  0.419659  1
  O  O20  1  0.262389  0.140630  0.933213  1
  O  O21  1  0.237611  0.859370  0.433213  1
  O  O22  1  0.737611  0.859370  0.066787  1
  O  O23  1  0.762389  0.140630  0.566787  1
  O  O24  1  0.298410  0.007501  0.086947  1
  O  O25  1  0.201590  0.992499  0.586947  1
  O  O26  1  0.701590  0.992499  0.913053  1
  O  O27  1  0.798410  0.007501  0.413053  1
  O  O28  1  0.393415  0.216923  0.107383  1
  O  O29  1  0.106585  0.783077  0.607383  1
  O  O30  1  0.606585  0.783077  0.892617  1
  O  O31  1  0.893415  0.216923  0.392617  1
  O  O32  1  0.075954  0.141700  0.100635  1
  O  O33  1  0.424046  0.858300  0.600635  1
  O  O34  1  0.924046  0.858300  0.899365  1
  O  O35  1  0.575954  0.141700  0.399365  1
  O  O36  1  0.291331  0.580738  0.039131  1
  O  O37  1  0.208669  0.419262  0.539131  1
  O  O38  1  0.708669  0.419262  0.960869  1
  O  O39  1  0.791331  0.580738  0.460869  1
  O  O40  1  0.248308  0.723969  0.183288  1
  O  O41  1  0.251692  0.276031  0.683288  1
  O  O42  1  0.751692  0.276031  0.816712  1
  O  O43  1  0.748308  0.723969  0.316712  1
  O  O44  1  0.043366  0.545767  0.172042  1
  O  O45  1  0.456634  0.454233  0.672042  1
  O  O46  1  0.956634  0.454233  0.827958  1
  O  O47  1  0.543366  0.545767  0.327958  1
  O  O48  1  0.033893  0.693710  0.031391  1
  O  O49  1  0.466107  0.306290  0.531391  1
  O  O50  1  0.966107  0.306290  0.968609  1
  O  O51  1  0.533893  0.693710  0.468609  1
  O  O52  1  0.915024  0.321632  0.185909  1
  O  O53  1  0.584976  0.678368  0.685909  1
  O  O54  1  0.084976  0.678368  0.814091  1
  O  O55  1  0.415024  0.321632  0.314091  1
  O  O56  1  0.730677  0.147417  0.081105  1
  O  O57  1  0.769323  0.852583  0.581105  1
  O  O58  1  0.269323  0.852583  0.918895  1
  O  O59  1  0.230677  0.147417  0.418895  1
  H  H60  1  0.972178  0.404548  0.180533  1
  H  H61  1  0.527822  0.595452  0.680533  1
  H  H62  1  0.027822  0.595452  0.819467  1
  H  H63  1  0.472178  0.404548  0.319467  1
  H  H64  1  0.907061  0.291606  0.263282  1
  H  H65  1  0.592939  0.708394  0.763282  1
  H  H66  1  0.092939  0.708394  0.736718  1
  H  H67  1  0.407061  0.291606  0.236718  1
  H  H68  1  0.615308  0.181621  0.089790  1
  H  H69  1  0.884692  0.818379  0.589790  1
  H  H70  1  0.384692  0.818379  0.910210  1
  H  H71  1  0.115308  0.181621  0.410210  1
  H  H72  1  0.714589  0.087453  0.020100  1
  H  H73  1  0.785411  0.912547  0.520100  1
  H  H74  1  0.285411  0.912547  0.979900  1
  H  H75  1  0.214589  0.087453  0.479900  1
