# generated using pymatgen
data_CrHg3(SO2)2
_symmetry_space_group_name_H-M   'P 1'
_cell_length_a   7.72470264
_cell_length_b   7.71703993
_cell_length_c   15.33175083
_cell_angle_alpha   90.00000000
_cell_angle_beta   90.00000000
_cell_angle_gamma   119.46277162
_symmetry_Int_Tables_number   1
_chemical_formula_structural   CrHg3(SO2)2
_chemical_formula_sum   'Cr4 Hg12 S8 O16'
_cell_volume   795.75720224
_cell_formula_units_Z   4
loop_
 _symmetry_equiv_pos_site_id
 _symmetry_equiv_pos_as_xyz
  1  'x, y, z'
loop_
 _atom_site_type_symbol
 _atom_site_label
 _atom_site_symmetry_multiplicity
 _atom_site_fract_x
 _atom_site_fract_y
 _atom_site_fract_z
 _atom_site_occupancy
  Cr  Cr0  1  0.605025  0.379110  0.597536  1
  Cr  Cr1  1  0.894975  0.620890  0.097536  1
  Cr  Cr2  1  0.394975  0.620890  0.402464  1
  Cr  Cr3  1  0.105025  0.379110  0.902464  1
  Hg  Hg4  1  0.579192  0.889374  0.637112  1
  Hg  Hg5  1  0.920808  0.110626  0.137112  1
  Hg  Hg6  1  0.870376  0.171839  0.455849  1
  Hg  Hg7  1  0.391293  0.599267  0.163808  1
  Hg  Hg8  1  0.629624  0.828161  0.955849  1
  Hg  Hg9  1  0.891293  0.599267  0.336192  1
  Hg  Hg10  1  0.420808  0.110626  0.362888  1
  Hg  Hg11  1  0.370376  0.171839  0.044151  1
  Hg  Hg12  1  0.108707  0.400733  0.663808  1
  Hg  Hg13  1  0.079192  0.889374  0.862888  1
  Hg  Hg14  1  0.608707  0.400733  0.836192  1
  Hg  Hg15  1  0.129624  0.828161  0.544151  1
  S  S16  1  0.070755  0.931746  0.399953  1
  S  S17  1  0.429245  0.068254  0.899953  1
  S  S18  1  0.262430  0.242415  0.183316  1
  S  S19  1  0.762430  0.242415  0.316684  1
  S  S20  1  0.237570  0.757585  0.683316  1
  S  S21  1  0.737570  0.757585  0.816684  1
  S  S22  1  0.929245  0.068254  0.600047  1
  S  S23  1  0.570755  0.931746  0.100047  1
  O  O24  1  0.542988  0.825056  0.460234  1
  O  O25  1  0.824610  0.689844  0.189340  1
  O  O26  1  0.989403  0.505512  0.875246  1
  O  O27  1  0.489403  0.505512  0.624754  1
  O  O28  1  0.010597  0.494488  0.124754  1
  O  O29  1  0.510597  0.494488  0.375246  1
  O  O30  1  0.693703  0.482998  0.037179  1
  O  O31  1  0.193703  0.482998  0.462821  1
  O  O32  1  0.806297  0.517002  0.537179  1
  O  O33  1  0.306297  0.517002  0.962821  1
  O  O34  1  0.324610  0.689844  0.310660  1
  O  O35  1  0.175390  0.310156  0.810660  1
  O  O36  1  0.675390  0.310156  0.689340  1
  O  O37  1  0.042988  0.825056  0.039766  1
  O  O38  1  0.457012  0.174944  0.539766  1
  O  O39  1  0.957012  0.174944  0.960234  1
