# generated using pymatgen
data_K2SmP2S7
_symmetry_space_group_name_H-M   'P 1'
_cell_length_a   6.78220229
_cell_length_b   9.05142592
_cell_length_c   11.95970908
_cell_angle_alpha   96.75882166
_cell_angle_beta   106.46676303
_cell_angle_gamma   90.00158460
_symmetry_Int_Tables_number   1
_chemical_formula_structural   K2SmP2S7
_chemical_formula_sum   'K4 Sm2 P4 S14'
_cell_volume   698.75359775
_cell_formula_units_Z   2
loop_
 _symmetry_equiv_pos_site_id
 _symmetry_equiv_pos_as_xyz
  1  'x, y, z'
loop_
 _atom_site_type_symbol
 _atom_site_label
 _atom_site_symmetry_multiplicity
 _atom_site_fract_x
 _atom_site_fract_y
 _atom_site_fract_z
 _atom_site_occupancy
  K  K0  1  0.428398  0.697727  0.115015  1
  K  K1  1  0.182327  0.879338  0.628332  1
  K  K2  1  0.313195  0.302249  0.884995  1
  K  K3  1  0.554545  0.120643  0.371562  1
  Sm  Sm4  1  0.049794  0.533402  0.320734  1
  Sm  Sm5  1  0.729014  0.466619  0.679269  1
  P  P6  1  0.577603  0.707263  0.455465  1
  P  P7  1  0.122199  0.292765  0.544562  1
  P  P8  1  0.885454  0.387005  0.030267  1
  P  P9  1  0.855152  0.612960  0.969738  1
  S  S10  1  0.809372  0.243313  0.881836  1
  S  S11  1  0.505730  0.481043  0.428680  1
  S  S12  1  0.077087  0.518989  0.571320  1
  S  S13  1  0.925312  0.195201  0.619171  1
  S  S14  1  0.927434  0.756665  0.118164  1
  S  S15  1  0.412290  0.230681  0.629309  1
  S  S16  1  0.052693  0.616374  0.868569  1
  S  S17  1  0.783058  0.769336  0.370744  1
  S  S18  1  0.682368  0.769414  0.632002  1
  S  S19  1  0.184166  0.383612  0.131396  1
  S  S20  1  0.698545  0.388272  0.137255  1
  S  S21  1  0.050396  0.230599  0.368022  1
  S  S22  1  0.561274  0.611675  0.862775  1
  S  S23  1  0.306195  0.804855  0.380820  1
