# generated using pymatgen
data_Dy3CuSiS7
_symmetry_space_group_name_H-M   'P 1'
_cell_length_a   9.88713374
_cell_length_b   9.88713365
_cell_length_c   5.70317130
_cell_angle_alpha   90.00000000
_cell_angle_beta   90.00000000
_cell_angle_gamma   120.00000034
_symmetry_Int_Tables_number   1
_chemical_formula_structural   Dy3CuSiS7
_chemical_formula_sum   'Dy6 Si2 Cu2 S14'
_cell_volume   482.82289959
_cell_formula_units_Z   2
loop_
 _symmetry_equiv_pos_site_id
 _symmetry_equiv_pos_as_xyz
  1  'x, y, z'
loop_
 _atom_site_type_symbol
 _atom_site_label
 _atom_site_symmetry_multiplicity
 _atom_site_fract_x
 _atom_site_fract_y
 _atom_site_fract_z
 _atom_site_occupancy
  Dy  Dy0  1  0.130762  0.357323  0.745560  1
  Dy  Dy1  1  0.642677  0.773439  0.745560  1
  Dy  Dy2  1  0.773439  0.130762  0.245559  1
  Dy  Dy3  1  0.357323  0.226561  0.245559  1
  Dy  Dy4  1  0.226561  0.869238  0.745560  1
  Dy  Dy5  1  0.869238  0.642677  0.245559  1
  Si  Si6  1  0.666667  0.333333  0.834073  1
  Cu  Cu7  1  0.000000  0.000000  0.701520  1
  Si  Si8  1  0.333333  0.666667  0.334074  1
  Cu  Cu9  1  0.000000  0.000000  0.201440  1
  S  S10  1  0.666667  0.333333  0.463400  1
  S  S11  1  0.904136  0.741543  0.718563  1
  S  S12  1  0.162591  0.904136  0.218564  1
  S  S13  1  0.837408  0.095864  0.718563  1
  S  S14  1  0.894203  0.417812  0.983325  1
  S  S15  1  0.741545  0.837409  0.218564  1
  S  S16  1  0.258457  0.162592  0.718563  1
  S  S17  1  0.105797  0.582188  0.483327  1
  S  S18  1  0.476391  0.894203  0.483327  1
  S  S19  1  0.582188  0.476391  0.983325  1
  S  S20  1  0.333333  0.666667  0.963401  1
  S  S21  1  0.095864  0.258455  0.218564  1
  S  S22  1  0.417812  0.523609  0.483327  1
  S  S23  1  0.523609  0.105797  0.983325  1
