# generated using pymatgen
data_Ti2CuS4
_symmetry_space_group_name_H-M   'P 1'
_cell_length_a   12.29626749
_cell_length_b   12.29626720
_cell_length_c   12.29626738
_cell_angle_alpha   33.21663546
_cell_angle_beta   33.21663757
_cell_angle_gamma   33.21663633
_symmetry_Int_Tables_number   1
_chemical_formula_structural   Ti2CuS4
_chemical_formula_sum   'Ti8 Cu4 S16'
_cell_volume   496.67748864
_cell_formula_units_Z   4
loop_
 _symmetry_equiv_pos_site_id
 _symmetry_equiv_pos_as_xyz
  1  'x, y, z'
loop_
 _atom_site_type_symbol
 _atom_site_label
 _atom_site_symmetry_multiplicity
 _atom_site_fract_x
 _atom_site_fract_y
 _atom_site_fract_z
 _atom_site_occupancy
  Ti  Ti0  1  0.916838  0.419824  0.916838  1
  Ti  Ti1  1  0.083162  0.083162  0.580176  1
  Ti  Ti2  1  0.500000  0.500000  0.500000  1
  Ti  Ti3  1  0.916838  0.916838  0.419824  1
  Ti  Ti4  1  0.580176  0.083162  0.083162  1
  Ti  Ti5  1  0.083162  0.580176  0.083162  1
  Ti  Ti6  1  0.419824  0.916838  0.916838  1
  Ti  Ti7  1  -0.000000  -0.000000  0.000000  1
  Cu  Cu8  1  0.187905  0.187905  0.187905  1
  Cu  Cu9  1  0.354224  0.354224  0.354224  1
  Cu  Cu10  1  0.645776  0.645776  0.645776  1
  Cu  Cu11  1  0.812095  0.812095  0.812095  1
  S  S12  1  0.384884  0.384884  0.862095  1
  S  S13  1  0.201632  0.201632  0.723834  1
  S  S14  1  0.798368  0.798368  0.276166  1
  S  S15  1  0.876600  0.876600  0.876600  1
  S  S16  1  0.137905  0.615116  0.615116  1
  S  S17  1  0.615116  0.137905  0.615116  1
  S  S18  1  0.798368  0.276166  0.798368  1
  S  S19  1  0.276166  0.798368  0.798368  1
  S  S20  1  0.384884  0.862095  0.384884  1
  S  S21  1  0.723834  0.201632  0.201632  1
  S  S22  1  0.201632  0.723834  0.201632  1
  S  S23  1  0.615116  0.615116  0.137905  1
  S  S24  1  0.289082  0.289082  0.289082  1
  S  S25  1  0.710918  0.710918  0.710918  1
  S  S26  1  0.862095  0.384884  0.384884  1
  S  S27  1  0.123400  0.123400  0.123400  1
