# generated using pymatgen
data_Na2SrNd2Ti5O15
_symmetry_space_group_name_H-M   'P 1'
_cell_length_a   5.56900385
_cell_length_b   5.49777605
_cell_length_c   38.67305646
_cell_angle_alpha   90.00000000
_cell_angle_beta   90.00000000
_cell_angle_gamma   89.70993999
_symmetry_Int_Tables_number   1
_chemical_formula_structural   Na2SrNd2Ti5O15
_chemical_formula_sum   'Na8 Sr4 Nd8 Ti20 O60'
_cell_volume   1184.04305406
_cell_formula_units_Z   4
loop_
 _symmetry_equiv_pos_site_id
 _symmetry_equiv_pos_as_xyz
  1  'x, y, z'
loop_
 _atom_site_type_symbol
 _atom_site_label
 _atom_site_symmetry_multiplicity
 _atom_site_fract_x
 _atom_site_fract_y
 _atom_site_fract_z
 _atom_site_occupancy
  Na  Na0  1  0.520272  -0.004503  0.650000  1
  Na  Na1  1  0.522433  -0.004111  0.451238  1
  Na  Na2  1  0.522433  -0.004111  0.848762  1
  Na  Na3  1  0.974244  0.503716  0.150000  1
  Na  Na4  1  0.978429  0.496677  0.550618  1
  Na  Na5  1  0.978429  0.496677  0.749382  1
  Na  Na6  1  0.976349  0.500736  0.351307  1
  Na  Na7  1  0.976349  0.500736  0.948693  1
  Nd  Nd8  1  0.055553  0.486613  0.451202  1
  Nd  Nd9  1  0.054872  0.487387  0.650000  1
  Nd  Nd10  1  0.055553  0.486613  0.848798  1
  Nd  Nd11  1  0.453382  0.991836  0.351769  1
  Nd  Nd12  1  0.461942  -0.004289  0.150000  1
  Nd  Nd13  1  0.444234  0.987449  0.550652  1
  Nd  Nd14  1  0.444234  0.987449  0.749348  1
  Nd  Nd15  1  0.453382  0.991836  0.948231  1
  O  O16  1  0.998807  0.951690  0.049250  1
  O  O17  1  0.998807  0.951690  0.250750  1
  O  O18  1  0.985281  0.925916  0.451081  1
  O  O19  1  0.984098  0.926053  0.650000  1
  O  O20  1  0.985281  0.925916  0.848919  1
  O  O21  1  0.245793  0.740815  0.194207  1
  O  O22  1  0.245793  0.740815  0.105793  1
  O  O23  1  0.242245  0.739337  0.307680  1
  O  O24  1  0.214192  0.727990  0.507848  1
  O  O25  1  0.213676  0.728070  0.593296  1
  O  O26  1  0.213676  0.728070  0.706704  1
  O  O27  1  0.217999  0.728435  0.394530  1
  O  O28  1  0.214192  0.727990  0.792152  1
  O  O29  1  0.242245  0.739337  0.992320  1
  O  O30  1  0.217999  0.728435  0.905470  1
  O  O31  1  0.276474  0.231321  0.095198  1
  O  O32  1  0.275346  0.231793  0.296697  1
  O  O33  1  0.275346  0.231793  0.003303  1
  O  O34  1  0.289568  0.228534  0.493879  1
  O  O35  1  0.289016  0.228313  0.692788  1
  O  O36  1  0.276474  0.231321  0.204802  1
  O  O37  1  0.291339  0.227599  0.408290  1
  O  O38  1  0.291339  0.227599  0.891710  1
  O  O39  1  0.289016  0.228313  0.607212  1
  O  O40  1  0.289568  0.228534  0.806121  1
  O  O41  1  0.514954  0.429985  0.351841  1
  O  O42  1  0.510612  0.433899  0.150000  1
  O  O43  1  0.518274  0.425847  0.550542  1
  O  O44  1  0.518274  0.425847  0.749458  1
  O  O45  1  0.514954  0.429985  0.948159  1
  O  O46  1  0.503455  0.544130  0.049233  1
  O  O47  1  0.503455  0.544130  0.250767  1
  O  O48  1  0.484919  0.571655  0.650000  1
  O  O49  1  0.486380  0.571779  0.451107  1
  O  O50  1  0.486380  0.571779  0.848893  1
  O  O51  1  0.728999  0.778428  0.106918  1
  O  O52  1  0.728999  0.778428  0.193082  1
  O  O53  1  0.725981  0.780226  0.308531  1
  O  O54  1  0.710734  0.798827  0.393322  1
  O  O55  1  0.707263  0.798873  0.508868  1
  O  O56  1  0.706907  0.798780  0.592318  1
  O  O57  1  0.706907  0.798780  0.707682  1
  O  O58  1  0.707263  0.798873  0.791132  1
  O  O59  1  0.725981  0.780226  0.991469  1
  O  O60  1  0.710734  0.798827  0.906678  1
  O  O61  1  0.770543  0.266607  0.094836  1
  O  O62  1  0.769355  0.267699  0.004185  1
  O  O63  1  0.770543  0.266607  0.205164  1
  O  O64  1  0.769355  0.267699  0.295815  1
  O  O65  1  0.797640  0.299250  0.409018  1
  O  O66  1  0.795235  0.298638  0.691701  1
  O  O67  1  0.795773  0.298547  0.492804  1
  O  O68  1  0.795235  0.298638  0.608299  1
  O  O69  1  0.797640  0.299250  0.890982  1
  O  O70  1  0.795773  0.298547  0.807196  1
  O  O71  1  0.023721  0.056871  0.150000  1
  O  O72  1  0.019867  0.066154  0.351600  1
  O  O73  1  0.015630  0.072106  0.550545  1
  O  O74  1  0.015630  0.072106  0.749455  1
  O  O75  1  0.019867  0.066154  0.948400  1
  Sr  Sr76  1  0.008080  0.493482  0.049174  1
  Sr  Sr77  1  0.008080  0.493482  0.250826  1
  Sr  Sr78  1  0.502506  0.998112  0.049089  1
  Sr  Sr79  1  0.502506  0.998112  0.250911  1
  Ti  Ti80  1  -0.019584  0.000930  0.997543  1
  Ti  Ti81  1  -0.016146  0.000125  0.199687  1
  Ti  Ti82  1  0.989361  -0.018689  0.401135  1
  Ti  Ti83  1  -0.019584  0.000930  0.302457  1
  Ti  Ti84  1  0.984326  -0.018542  0.501716  1
  Ti  Ti85  1  0.984326  -0.018542  0.798284  1
  Ti  Ti86  1  0.984029  -0.018586  0.599705  1
  Ti  Ti87  1  0.984029  -0.018586  0.700295  1
  Ti  Ti88  1  0.989361  -0.018689  0.898865  1
  Ti  Ti89  1  0.490559  0.494664  0.100046  1
  Ti  Ti90  1  0.489373  0.492458  0.302282  1
  Ti  Ti91  1  0.514041  0.480849  0.500474  1
  Ti  Ti92  1  0.515333  0.483715  0.897576  1
  Ti  Ti93  1  0.489373  0.492458  0.997718  1
  Ti  Ti94  1  0.513678  0.481200  0.699018  1
  Ti  Ti95  1  0.490559  0.494664  0.199954  1
  Ti  Ti96  1  0.513678  0.481200  0.600982  1
  Ti  Ti97  1  0.515333  0.483715  0.402424  1
  Ti  Ti98  1  0.514041  0.480849  0.799526  1
  Ti  Ti99  1  -0.016146  0.000125  0.100313  1
