# generated using pymatgen
data_K2Mn2(SO4)3
_symmetry_space_group_name_H-M   'P 1'
_cell_length_a   10.22437599
_cell_length_b   10.23606248
_cell_length_c   10.27934599
_cell_angle_alpha   90.00000000
_cell_angle_beta   90.00000000
_cell_angle_gamma   90.00000000
_symmetry_Int_Tables_number   1
_chemical_formula_structural   K2Mn2(SO4)3
_chemical_formula_sum   'K8 Mn8 S12 O48'
_cell_volume   1075.80912598
_cell_formula_units_Z   4
loop_
 _symmetry_equiv_pos_site_id
 _symmetry_equiv_pos_as_xyz
  1  'x, y, z'
loop_
 _atom_site_type_symbol
 _atom_site_label
 _atom_site_symmetry_multiplicity
 _atom_site_fract_x
 _atom_site_fract_y
 _atom_site_fract_z
 _atom_site_occupancy
  K  K0  1  0.690543  0.171992  0.312961  1
  K  K1  1  0.809457  0.828008  0.812961  1
  K  K2  1  0.441081  0.962566  0.557097  1
  K  K3  1  0.941081  0.537434  0.442903  1
  K  K4  1  0.190543  0.328008  0.687039  1
  K  K5  1  0.058919  0.037434  0.057097  1
  K  K6  1  0.309457  0.671992  0.187039  1
  K  K7  1  0.558919  0.462566  0.942903  1
  Mn  Mn8  1  0.662624  0.813616  0.154290  1
  Mn  Mn9  1  0.337376  0.313616  0.345710  1
  Mn  Mn10  1  0.580853  0.608517  0.594530  1
  Mn  Mn11  1  0.837376  0.186384  0.654290  1
  Mn  Mn12  1  0.419147  0.108517  0.905470  1
  Mn  Mn13  1  0.162624  0.686384  0.845710  1
  Mn  Mn14  1  0.919147  0.391483  0.094530  1
  Mn  Mn15  1  0.080853  0.891483  0.405470  1
  S  S16  1  0.630824  0.502957  0.287295  1
  S  S17  1  0.261719  0.616625  0.513324  1
  S  S18  1  0.973393  0.711555  0.128057  1
  S  S19  1  0.869176  0.497043  0.787295  1
  S  S20  1  0.026607  0.211555  0.371943  1
  S  S21  1  0.738281  0.116625  0.986676  1
  S  S22  1  0.761719  0.883375  0.486676  1
  S  S23  1  0.526607  0.288445  0.628057  1
  S  S24  1  0.473393  0.788445  0.871943  1
  S  S25  1  0.369176  0.002957  0.212705  1
  S  S26  1  0.130824  0.997043  0.712705  1
  S  S27  1  0.238281  0.383375  0.013324  1
  O  O28  1  0.331881  0.301838  0.936642  1
  O  O29  1  0.998506  0.073952  0.332084  1
  O  O30  1  0.069682  0.754203  0.027754  1
  O  O31  1  0.976506  0.593637  0.801454  1
  O  O32  1  0.162059  0.221189  0.424282  1
  O  O33  1  0.753299  0.018964  0.539856  1
  O  O34  1  0.176350  0.951274  0.582361  1
  O  O35  1  0.337941  0.778811  0.924282  1
  O  O36  1  0.222402  0.612711  0.652531  1
  O  O37  1  0.430318  0.245797  0.527754  1
  O  O38  1  0.987146  0.799115  0.241595  1
  O  O39  1  0.512854  0.200885  0.741595  1
  O  O40  1  0.668119  0.801838  0.563358  1
  O  O41  1  0.569682  0.745797  0.972246  1
  O  O42  1  0.582580  0.616271  0.209518  1
  O  O43  1  0.246701  0.518964  0.960144  1
  O  O44  1  0.722402  0.887289  0.347469  1
  O  O45  1  0.103888  0.329796  0.995546  1
  O  O46  1  0.168119  0.698162  0.436642  1
  O  O47  1  0.001494  0.573952  0.167916  1
  O  O48  1  0.501494  0.926048  0.832084  1
  O  O49  1  0.242311  0.062273  0.779254  1
  O  O50  1  0.777598  0.112711  0.847469  1
  O  O51  1  0.023494  0.093637  0.698546  1
  O  O52  1  0.417420  0.116271  0.290482  1
  O  O53  1  0.082580  0.883729  0.790482  1
  O  O54  1  0.523494  0.406363  0.301454  1
  O  O55  1  0.823650  0.451274  0.917639  1
  O  O56  1  0.396112  0.670204  0.495546  1
  O  O57  1  0.277598  0.387289  0.152531  1
  O  O58  1  0.930318  0.254203  0.472246  1
  O  O59  1  0.896112  0.829796  0.504454  1
  O  O60  1  0.498506  0.426048  0.667916  1
  O  O61  1  0.746701  0.981036  0.039856  1
  O  O62  1  0.676350  0.548726  0.417639  1
  O  O63  1  0.012854  0.299115  0.258405  1
  O  O64  1  0.323650  0.048726  0.082361  1
  O  O65  1  0.257689  0.937727  0.279254  1
  O  O66  1  0.757689  0.562273  0.720746  1
  O  O67  1  0.603888  0.170204  0.004454  1
  O  O68  1  0.831881  0.198162  0.063358  1
  O  O69  1  0.253299  0.481036  0.460144  1
  O  O70  1  0.487146  0.700885  0.758405  1
  O  O71  1  0.917420  0.383729  0.709518  1
  O  O72  1  0.837941  0.721189  0.075718  1
  O  O73  1  0.476506  0.906363  0.198546  1
  O  O74  1  0.742311  0.437727  0.220746  1
  O  O75  1  0.662059  0.278811  0.575718  1
