# generated using pymatgen
data_KBaYSi2O7
_symmetry_space_group_name_H-M   'P 1'
_cell_length_a   5.78733309
_cell_length_b   9.88554138
_cell_length_c   13.26453528
_cell_angle_alpha   104.61482724
_cell_angle_beta   90.00000000
_cell_angle_gamma   90.00000000
_symmetry_Int_Tables_number   1
_chemical_formula_structural   KBaYSi2O7
_chemical_formula_sum   'K4 Ba4 Y4 Si8 O28'
_cell_volume   734.32200486
_cell_formula_units_Z   4
loop_
 _symmetry_equiv_pos_site_id
 _symmetry_equiv_pos_as_xyz
  1  'x, y, z'
loop_
 _atom_site_type_symbol
 _atom_site_label
 _atom_site_symmetry_multiplicity
 _atom_site_fract_x
 _atom_site_fract_y
 _atom_site_fract_z
 _atom_site_occupancy
  K  K0  1  0.236138  0.631804  0.638306  1
  K  K1  1  0.736138  0.868196  0.861694  1
  K  K2  1  0.263862  0.131804  0.138306  1
  K  K3  1  0.763862  0.368196  0.361694  1
  Ba  Ba4  1  0.730986  0.136843  0.671693  1
  Ba  Ba5  1  0.769014  0.636843  0.171693  1
  Ba  Ba6  1  0.269014  0.863157  0.328307  1
  Ba  Ba7  1  0.230986  0.363157  0.828307  1
  Y  Y8  1  0.759520  0.239325  0.978807  1
  Y  Y9  1  0.240480  0.760675  0.021193  1
  Y  Y10  1  0.740480  0.739325  0.478807  1
  Y  Y11  1  0.259520  0.260675  0.521193  1
  Si  Si12  1  0.771659  0.052139  0.378619  1
  Si  Si13  1  0.255031  0.525014  0.353907  1
  Si  Si14  1  0.744969  0.474986  0.646093  1
  Si  Si15  1  0.244969  0.025014  0.853907  1
  Si  Si16  1  0.228341  0.947861  0.621381  1
  Si  Si17  1  0.271659  0.447861  0.121381  1
  Si  Si18  1  0.755031  0.974986  0.146093  1
  Si  Si19  1  0.728341  0.552139  0.878619  1
  O  O20  1  0.000698  0.892737  0.150868  1
  O  O21  1  0.757690  0.881669  0.362022  1
  O  O22  1  0.535010  0.390997  0.092103  1
  O  O23  1  0.239726  0.926686  0.935473  1
  O  O24  1  0.257690  0.618331  0.137978  1
  O  O25  1  0.464990  0.609003  0.907897  1
  O  O26  1  0.499302  0.392737  0.650868  1
  O  O27  1  0.203108  0.414496  0.236348  1
  O  O28  1  0.419478  0.862643  0.539402  1
  O  O29  1  0.739726  0.573314  0.564527  1
  O  O30  1  0.296892  0.914496  0.736348  1
  O  O31  1  0.500698  0.607263  0.349132  1
  O  O32  1  0.703108  0.085504  0.263652  1
  O  O33  1  0.919478  0.637357  0.960598  1
  O  O34  1  0.538446  0.863396  0.126926  1
  O  O35  1  0.038446  0.636604  0.373074  1
  O  O36  1  0.964990  0.890997  0.592103  1
  O  O37  1  0.035010  0.109003  0.407897  1
  O  O38  1  0.080522  0.362643  0.039402  1
  O  O39  1  0.461554  0.136604  0.873074  1
  O  O40  1  0.796892  0.585504  0.763652  1
  O  O41  1  0.961554  0.363396  0.626926  1
  O  O42  1  0.999302  0.107263  0.849132  1
  O  O43  1  0.580522  0.137357  0.460598  1
  O  O44  1  0.742310  0.381669  0.862022  1
  O  O45  1  0.242310  0.118331  0.637978  1
  O  O46  1  0.260274  0.426686  0.435473  1
  O  O47  1  0.760274  0.073314  0.064527  1
