# generated using pymatgen
data_SrBiIO2
_symmetry_space_group_name_H-M   'P 1'
_cell_length_a   5.82327017
_cell_length_b   5.95006435
_cell_length_c   7.54492975
_cell_angle_alpha   113.22356633
_cell_angle_beta   89.99991864
_cell_angle_gamma   90.00000708
_symmetry_Int_Tables_number   1
_chemical_formula_structural   SrBiIO2
_chemical_formula_sum   'Sr2 Bi2 I2 O4'
_cell_volume   240.24074329
_cell_formula_units_Z   2
loop_
 _symmetry_equiv_pos_site_id
 _symmetry_equiv_pos_as_xyz
  1  'x, y, z'
loop_
 _atom_site_type_symbol
 _atom_site_label
 _atom_site_symmetry_multiplicity
 _atom_site_fract_x
 _atom_site_fract_y
 _atom_site_fract_z
 _atom_site_occupancy
  Bi  Bi0  1  0.250000  0.927249  0.854343  1
  O  O1  1  0.499987  0.767345  0.999989  1
  Bi  Bi2  1  0.749999  0.072751  0.145658  1
  Sr  Sr3  1  0.249999  0.593011  0.186000  1
  Sr  Sr4  1  0.750003  0.406987  0.813999  1
  O  O5  1  0.000012  0.767345  0.999989  1
  I  I6  1  0.250000  0.255167  0.510351  1
  I  I7  1  0.750000  0.744834  0.489649  1
  O  O8  1  0.999987  0.232655  0.000012  1
  O  O9  1  0.500012  0.232655  0.000011  1
