# generated using pymatgen
data_BaCu3O4
_symmetry_space_group_name_H-M   'P 1'
_cell_length_a   5.32346106
_cell_length_b   5.64736416
_cell_length_c   6.18588115
_cell_angle_alpha   117.30280936
_cell_angle_beta   90.00000000
_cell_angle_gamma   90.00000000
_symmetry_Int_Tables_number   1
_chemical_formula_structural   BaCu3O4
_chemical_formula_sum   'Ba1 Cu3 O4'
_cell_volume   165.25141456
_cell_formula_units_Z   1
loop_
 _symmetry_equiv_pos_site_id
 _symmetry_equiv_pos_as_xyz
  1  'x, y, z'
loop_
 _atom_site_type_symbol
 _atom_site_label
 _atom_site_symmetry_multiplicity
 _atom_site_fract_x
 _atom_site_fract_y
 _atom_site_fract_z
 _atom_site_occupancy
  O  O0  1  0.500000  0.642035  0.732579  1
  O  O1  1  0.500000  0.357965  0.267421  1
  Cu  Cu2  1  0.500000  0.266149  0.532699  1
  Cu  Cu3  1  0.500000  0.733851  0.467301  1
  Ba  Ba4  1  0.000000  0.000000  0.000000  1
  O  O5  1  0.500000  0.908180  0.266777  1
  O  O6  1  0.500000  0.091820  0.733223  1
  Cu  Cu7  1  0.500000  0.000000  0.000000  1
