# generated using pymatgen
data_Nd3Sb5Pd6
_symmetry_space_group_name_H-M   'P 1'
_cell_length_a   4.49444650
_cell_length_b   10.12623490
_cell_length_c   13.59179318
_cell_angle_alpha   90.00000000
_cell_angle_beta   90.00000000
_cell_angle_gamma   90.00000000
_symmetry_Int_Tables_number   1
_chemical_formula_structural   Nd3Sb5Pd6
_chemical_formula_sum   'Nd6 Sb10 Pd12'
_cell_volume   618.58725834
_cell_formula_units_Z   2
loop_
 _symmetry_equiv_pos_site_id
 _symmetry_equiv_pos_as_xyz
  1  'x, y, z'
loop_
 _atom_site_type_symbol
 _atom_site_label
 _atom_site_symmetry_multiplicity
 _atom_site_fract_x
 _atom_site_fract_y
 _atom_site_fract_z
 _atom_site_occupancy
  Nd  Nd0  1  0.250000  0.756602  0.250000  1
  Nd  Nd1  1  0.750000  0.243398  0.750000  1
  Nd  Nd2  1  0.250000  0.754951  0.573512  1
  Nd  Nd3  1  0.750000  0.245049  0.426488  1
  Nd  Nd4  1  0.250000  0.754951  0.926488  1
  Nd  Nd5  1  0.750000  0.245049  0.073512  1
  Pd  Pd6  1  0.250000  0.009732  0.409954  1
  Pd  Pd7  1  0.750000  0.990268  0.590046  1
  Pd  Pd8  1  0.250000  0.009732  0.090046  1
  Pd  Pd9  1  0.750000  0.990268  0.909954  1
  Pd  Pd10  1  0.750000  0.018547  0.250000  1
  Pd  Pd11  1  0.250000  0.981453  0.750000  1
  Pd  Pd12  1  0.250000  0.397332  0.567762  1
  Pd  Pd13  1  0.750000  0.602668  0.432238  1
  Pd  Pd14  1  0.250000  0.397332  0.932238  1
  Pd  Pd15  1  0.750000  0.602668  0.067762  1
  Pd  Pd16  1  0.750000  0.472466  0.250000  1
  Pd  Pd17  1  0.250000  0.527534  0.750000  1
  Sb  Sb18  1  0.250000  0.476181  0.376367  1
  Sb  Sb19  1  0.750000  0.523819  0.623633  1
  Sb  Sb20  1  0.250000  0.476181  0.123633  1
  Sb  Sb21  1  0.750000  0.523819  0.876367  1
  Sb  Sb22  1  0.250000  0.137234  0.587295  1
  Sb  Sb23  1  0.750000  0.862766  0.412705  1
  Sb  Sb24  1  0.250000  0.137234  0.912705  1
  Sb  Sb25  1  0.750000  0.862766  0.087295  1
  Sb  Sb26  1  0.250000  0.173124  0.250000  1
  Sb  Sb27  1  0.750000  0.826876  0.750000  1
