# generated using pymatgen
data_ZnSeO3
_symmetry_space_group_name_H-M   'P 1'
_cell_length_a   6.35154401
_cell_length_b   7.51649983
_cell_length_c   12.07678820
_cell_angle_alpha   90.00000000
_cell_angle_beta   90.00000000
_cell_angle_gamma   90.00000000
_symmetry_Int_Tables_number   1
_chemical_formula_structural   ZnSeO3
_chemical_formula_sum   'Zn8 Se8 O24'
_cell_volume   576.56252825
_cell_formula_units_Z   8
loop_
 _symmetry_equiv_pos_site_id
 _symmetry_equiv_pos_as_xyz
  1  'x, y, z'
loop_
 _atom_site_type_symbol
 _atom_site_label
 _atom_site_symmetry_multiplicity
 _atom_site_fract_x
 _atom_site_fract_y
 _atom_site_fract_z
 _atom_site_occupancy
  O  O0  1  0.014913  0.656328  0.093580  1
  O  O1  1  0.514913  0.343672  0.406420  1
  O  O2  1  0.485087  0.156328  0.906420  1
  O  O3  1  0.985087  0.843672  0.593580  1
  O  O4  1  0.985087  0.343672  0.906420  1
  O  O5  1  0.485087  0.656328  0.593580  1
  O  O6  1  0.514913  0.843672  0.093580  1
  O  O7  1  0.014913  0.156328  0.406420  1
  O  O8  1  0.657811  0.472832  0.065381  1
  O  O9  1  0.157811  0.527168  0.434619  1
  O  O10  1  0.842189  0.972832  0.934619  1
  O  O11  1  0.342189  0.027168  0.565381  1
  O  O12  1  0.342189  0.527168  0.934619  1
  O  O13  1  0.842189  0.472832  0.565381  1
  O  O14  1  0.157811  0.027168  0.065381  1
  O  O15  1  0.657811  0.972832  0.434619  1
  O  O16  1  0.796821  0.034251  0.230993  1
  O  O17  1  0.296821  0.965749  0.269007  1
  O  O18  1  0.703179  0.534251  0.769007  1
  O  O19  1  0.203179  0.465749  0.730993  1
  O  O20  1  0.203179  0.965749  0.769007  1
  O  O21  1  0.703179  0.034251  0.730993  1
  O  O22  1  0.296821  0.465749  0.230993  1
  O  O23  1  0.796821  0.534251  0.269007  1
  Zn  Zn24  1  0.865928  0.391098  0.405023  1
  Zn  Zn25  1  0.365928  0.608902  0.094977  1
  Zn  Zn26  1  0.634072  0.891098  0.594977  1
  Zn  Zn27  1  0.134072  0.108902  0.905023  1
  Zn  Zn28  1  0.134072  0.608902  0.594977  1
  Zn  Zn29  1  0.634072  0.391098  0.905023  1
  Zn  Zn30  1  0.365928  0.108902  0.405023  1
  Zn  Zn31  1  0.865928  0.891098  0.094977  1
  Se  Se32  1  0.889211  0.962314  0.357067  1
  Se  Se33  1  0.389211  0.037686  0.142933  1
  Se  Se34  1  0.610789  0.462314  0.642933  1
  Se  Se35  1  0.110789  0.537686  0.857067  1
  Se  Se36  1  0.110789  0.037686  0.642933  1
  Se  Se37  1  0.610789  0.962314  0.857067  1
  Se  Se38  1  0.389211  0.537686  0.357067  1
  Se  Se39  1  0.889211  0.462314  0.142933  1
