# generated using pymatgen
data_CdI2
_symmetry_space_group_name_H-M   'P 1'
_cell_length_a   4.33596672
_cell_length_b   4.33596699
_cell_length_c   68.61868777
_cell_angle_alpha   90.00000000
_cell_angle_beta   90.00000000
_cell_angle_gamma   119.99999795
_symmetry_Int_Tables_number   1
_chemical_formula_structural   CdI2
_chemical_formula_sum   'Cd9 I18'
_cell_volume   1117.23609079
_cell_formula_units_Z   9
loop_
 _symmetry_equiv_pos_site_id
 _symmetry_equiv_pos_as_xyz
  1  'x, y, z'
loop_
 _atom_site_type_symbol
 _atom_site_label
 _atom_site_symmetry_multiplicity
 _atom_site_fract_x
 _atom_site_fract_y
 _atom_site_fract_z
 _atom_site_occupancy
  Cd  Cd0  1  0.666667  0.333333  0.136196  1
  Cd  Cd1  1  0.666667  0.333333  0.360128  1
  Cd  Cd2  1  0.000000  0.000000  0.801986  1
  Cd  Cd3  1  0.333333  0.666667  0.691479  1
  Cd  Cd4  1  0.333333  0.666667  0.912698  1
  Cd  Cd5  1  0.333333  0.666667  0.025822  1
  Cd  Cd6  1  0.333333  0.666667  0.470765  1
  Cd  Cd7  1  0.333333  0.666667  0.246564  1
  Cd  Cd8  1  0.000000  0.000000  0.581116  1
  I  I9  1  0.000000  0.000000  0.111220  1
  I  I10  1  0.666667  0.333333  0.827078  1
  I  I11  1  0.333333  0.666667  0.161134  1
  I  I12  1  0.333333  0.666667  0.385187  1
  I  I13  1  0.666667  0.333333  0.271540  1
  I  I14  1  0.666667  0.333333  0.716585  1
  I  I15  1  0.666667  0.333333  0.050787  1
  I  I16  1  0.000000  0.000000  0.334899  1
  I  I17  1  0.666667  0.333333  0.606192  1
  I  I18  1  0.333333  0.666667  0.555936  1
  I  I19  1  0.666667  0.333333  0.937801  1
  I  I20  1  0.000000  0.000000  0.000779  1
  I  I21  1  0.000000  0.000000  0.666271  1
  I  I22  1  0.000000  0.000000  0.445559  1
  I  I23  1  0.333333  0.666667  0.776814  1
  I  I24  1  0.000000  0.000000  0.887531  1
  I  I25  1  0.666667  0.333333  0.495858  1
  I  I26  1  0.000000  0.000000  0.221574  1
