# generated using pymatgen
data_Ce4C2Br5
_symmetry_space_group_name_H-M   'P 1'
_cell_length_a   3.92396808
_cell_length_b   8.21974140
_cell_length_c   10.15751055
_cell_angle_alpha   113.86545464
_cell_angle_beta   101.14480489
_cell_angle_gamma   89.99458192
_symmetry_Int_Tables_number   1
_chemical_formula_structural   Ce4C2Br5
_chemical_formula_sum   'Ce4 C2 Br5'
_cell_volume   292.84217445
_cell_formula_units_Z   1
loop_
 _symmetry_equiv_pos_site_id
 _symmetry_equiv_pos_as_xyz
  1  'x, y, z'
loop_
 _atom_site_type_symbol
 _atom_site_label
 _atom_site_symmetry_multiplicity
 _atom_site_fract_x
 _atom_site_fract_y
 _atom_site_fract_z
 _atom_site_occupancy
  Ce  Ce0  1  0.336015  0.336194  0.672330  1
  Ce  Ce1  1  0.663985  0.663806  0.327670  1
  Ce  Ce2  1  1.000023  0.300729  0.000018  1
  Ce  Ce3  1  -0.000023  0.699271  0.999982  1
  C  C4  1  0.538929  0.538966  0.077876  1
  C  C5  1  0.461071  0.461034  0.922124  1
  Br  Br6  1  0.835145  0.613167  0.670871  1
  Br  Br7  1  0.500000  0.000000  0.000000  1
  Br  Br8  1  0.835399  0.057845  0.670924  1
  Br  Br9  1  0.164601  0.942155  0.329076  1
  Br  Br10  1  0.164855  0.386833  0.329129  1
