# generated using pymatgen
data_Mg3B(HO2)3
_symmetry_space_group_name_H-M   'P 1'
_cell_length_a   9.10351337
_cell_length_b   9.10351301
_cell_length_c   3.20046393
_cell_angle_alpha   90.00000000
_cell_angle_beta   90.00000000
_cell_angle_gamma   120.00000135
_symmetry_Int_Tables_number   1
_chemical_formula_structural   Mg3B(HO2)3
_chemical_formula_sum   'Mg6 B2 H6 O12'
_cell_volume   229.70032737
_cell_formula_units_Z   2
loop_
 _symmetry_equiv_pos_site_id
 _symmetry_equiv_pos_as_xyz
  1  'x, y, z'
loop_
 _atom_site_type_symbol
 _atom_site_label
 _atom_site_symmetry_multiplicity
 _atom_site_fract_x
 _atom_site_fract_y
 _atom_site_fract_z
 _atom_site_occupancy
  Mg  Mg0  1  0.967330  0.623944  0.250000  1
  Mg  Mg1  1  0.623944  0.656614  0.750000  1
  Mg  Mg2  1  0.376056  0.343386  0.250000  1
  Mg  Mg3  1  0.032670  0.376056  0.750000  1
  Mg  Mg4  1  0.343386  0.967330  0.750000  1
  Mg  Mg5  1  0.656614  0.032670  0.250000  1
  B  B6  1  0.666667  0.333333  0.750000  1
  B  B7  1  0.333333  0.666667  0.250000  1
  H  H8  1  0.995216  0.166220  0.250000  1
  H  H9  1  0.833780  0.828996  0.250000  1
  H  H10  1  0.166220  0.171004  0.750000  1
  H  H11  1  0.828996  0.995216  0.750000  1
  H  H12  1  0.171004  0.004784  0.250000  1
  H  H13  1  0.004784  0.833780  0.750000  1
  O  O14  1  0.555941  0.398434  0.750000  1
  O  O15  1  0.398434  0.842494  0.250000  1
  O  O16  1  0.707943  0.913877  0.750000  1
  O  O17  1  0.913877  0.205934  0.250000  1
  O  O18  1  0.601566  0.157506  0.750000  1
  O  O19  1  0.842494  0.444059  0.750000  1
  O  O20  1  0.205934  0.292057  0.750000  1
  O  O21  1  0.157506  0.555941  0.250000  1
  O  O22  1  0.086123  0.794066  0.750000  1
  O  O23  1  0.292057  0.086123  0.250000  1
  O  O24  1  0.444059  0.601566  0.250000  1
  O  O25  1  0.794066  0.707943  0.250000  1
