# generated using pymatgen
data_BaLiZr2F11
_symmetry_space_group_name_H-M   'P 1'
_cell_length_a   8.21993446
_cell_length_b   8.21993443
_cell_length_c   8.21993363
_cell_angle_alpha   91.65120046
_cell_angle_beta   119.05130302
_cell_angle_gamma   119.05130267
_symmetry_Int_Tables_number   1
_chemical_formula_structural   BaLiZr2F11
_chemical_formula_sum   'Ba2 Li2 Zr4 F22'
_cell_volume   398.17891780
_cell_formula_units_Z   2
loop_
 _symmetry_equiv_pos_site_id
 _symmetry_equiv_pos_as_xyz
  1  'x, y, z'
loop_
 _atom_site_type_symbol
 _atom_site_label
 _atom_site_symmetry_multiplicity
 _atom_site_fract_x
 _atom_site_fract_y
 _atom_site_fract_z
 _atom_site_occupancy
  Ba  Ba0  1  0.000000  0.806756  0.806756  1
  Ba  Ba1  1  1.000000  0.193244  0.193244  1
  Li  Li2  1  0.500000  0.750000  0.250000  1
  Li  Li3  1  0.500000  0.250000  0.750000  1
  Zr  Zr4  1  0.851556  0.215021  0.636535  1
  Zr  Zr5  1  0.421515  0.636535  0.784979  1
  Zr  Zr6  1  0.148444  0.784979  0.363465  1
  Zr  Zr7  1  0.578485  0.363465  0.215021  1
  F  F8  1  0.132465  0.322916  0.600753  1
  F  F9  1  0.692790  0.878806  0.813984  1
  F  F10  1  0.563887  0.511488  0.725773  1
  F  F11  1  0.214285  0.052400  0.488512  1
  F  F12  1  0.722162  0.190451  0.322916  1
  F  F13  1  0.277838  0.600753  0.468288  1
  F  F14  1  0.214285  0.725773  0.161886  1
  F  F15  1  0.132465  0.531712  0.809549  1
  F  F16  1  0.785715  0.274227  0.838114  1
  F  F17  1  0.935178  0.813984  0.121194  1
  F  F18  1  0.500000  0.000000  0.500000  1
  F  F19  1  0.064822  0.186016  0.878806  1
  F  F20  1  0.436113  0.488512  0.274227  1
  F  F21  1  0.277838  0.809549  0.677084  1
  F  F22  1  0.867535  0.468288  0.190451  1
  F  F23  1  0.867535  0.677084  0.399247  1
  F  F24  1  0.722162  0.399247  0.531712  1
  F  F25  1  0.785715  0.947600  0.511488  1
  F  F26  1  0.500000  0.500000  0.000000  1
  F  F27  1  0.563887  0.838114  0.052400  1
  F  F28  1  0.307210  0.121194  0.186016  1
  F  F29  1  0.436113  0.161886  0.947600  1
