# generated using pymatgen
data_Ba2Cu4Te4Cl4O11
_symmetry_space_group_name_H-M   'P 1'
_cell_length_a   9.38941892
_cell_length_b   9.40654177
_cell_length_c   12.38219651
_cell_angle_alpha   110.91210921
_cell_angle_beta   98.36328954
_cell_angle_gamma   108.20505749
_symmetry_Int_Tables_number   1
_chemical_formula_structural   Ba2Cu4Te4Cl4O11
_chemical_formula_sum   'Ba4 Cu8 Te8 Cl8 O22'
_cell_volume   928.86713470
_cell_formula_units_Z   2
loop_
 _symmetry_equiv_pos_site_id
 _symmetry_equiv_pos_as_xyz
  1  'x, y, z'
loop_
 _atom_site_type_symbol
 _atom_site_label
 _atom_site_symmetry_multiplicity
 _atom_site_fract_x
 _atom_site_fract_y
 _atom_site_fract_z
 _atom_site_occupancy
  Ba  Ba0  1  0.521408  0.784020  0.558231  1
  Ba  Ba1  1  0.981220  0.719752  0.448803  1
  Ba  Ba2  1  0.478592  0.215980  0.441769  1
  Ba  Ba3  1  0.018780  0.280248  0.551197  1
  Cu  Cu4  1  0.690577  0.554299  0.017369  1
  Cu  Cu5  1  0.309423  0.445701  0.982631  1
  Cu  Cu6  1  0.314064  0.100592  0.670702  1
  Cu  Cu7  1  0.767229  0.905532  0.984971  1
  Cu  Cu8  1  0.232771  0.094468  0.015029  1
  Cu  Cu9  1  0.187595  0.400641  0.329398  1
  Cu  Cu10  1  0.812405  0.599359  0.670602  1
  Cu  Cu11  1  0.685936  0.899408  0.329298  1
  Te  Te12  1  0.781761  0.221421  0.241213  1
  Te  Te13  1  0.728587  0.254805  0.738848  1
  Te  Te14  1  0.271413  0.745195  0.261152  1
  Te  Te15  1  0.218239  0.778579  0.758787  1
  Te  Te16  1  0.974367  0.024751  0.757913  1
  Te  Te17  1  0.025633  0.975249  0.242087  1
  Te  Te18  1  0.448501  0.523531  0.736385  1
  Te  Te19  1  0.551499  0.476469  0.263615  1
  Cl  Cl20  1  0.837623  0.685553  0.918492  1
  Cl  Cl21  1  0.162377  0.314447  0.081508  1
  Cl  Cl22  1  0.371704  0.039299  0.141555  1
  Cl  Cl23  1  0.129399  0.462863  0.847528  1
  Cl  Cl24  1  0.628296  0.960701  0.858445  1
  Cl  Cl25  1  0.870601  0.537137  0.152472  1
  Cl  Cl26  1  0.530725  0.699358  0.082627  1
  Cl  Cl27  1  0.469275  0.300642  0.917373  1
  O  O28  1  0.872752  0.049661  0.161870  1
  O  O29  1  0.087505  0.054715  0.646437  1
  O  O30  1  0.228653  0.635576  0.362474  1
  O  O31  1  0.806181  0.092570  0.655037  1
  O  O32  1  0.193819  0.907430  0.344963  1
  O  O33  1  0.329226  0.295082  0.634467  1
  O  O34  1  0.912495  0.945285  0.353563  1
  O  O35  1  0.771347  0.364424  0.637526  1
  O  O36  1  0.978879  0.381482  0.352908  1
  O  O37  1  0.165740  0.195739  0.349871  1
  O  O38  1  0.308293  0.589875  0.654592  1
  O  O39  1  0.416804  0.452087  0.362251  1
  O  O40  1  0.127248  0.950339  0.838130  1
  O  O41  1  0.583196  0.547913  0.637749  1
  O  O42  1  0.021121  0.618518  0.647092  1
  O  O43  1  0.834260  0.804261  0.650129  1
  O  O44  1  0.691707  0.410125  0.345408  1
  O  O45  1  0.722855  0.128676  0.349928  1
  O  O46  1  0.480120  0.884937  0.359736  1
  O  O47  1  0.670774  0.704918  0.365533  1
  O  O48  1  0.519880  0.115063  0.640264  1
  O  O49  1  0.277145  0.871324  0.650072  1
