# generated using pymatgen
data_Ba3SmIr2O9
_symmetry_space_group_name_H-M   'P 1'
_cell_length_a   6.96312873
_cell_length_b   6.96312937
_cell_length_c   15.30163432
_cell_angle_alpha   90.00000000
_cell_angle_beta   90.00000000
_cell_angle_gamma   119.99999692
_symmetry_Int_Tables_number   1
_chemical_formula_structural   Ba3SmIr2O9
_chemical_formula_sum   'Ba6 Sm2 Ir4 O18'
_cell_volume   642.50624367
_cell_formula_units_Z   2
loop_
 _symmetry_equiv_pos_site_id
 _symmetry_equiv_pos_as_xyz
  1  'x, y, z'
loop_
 _atom_site_type_symbol
 _atom_site_label
 _atom_site_symmetry_multiplicity
 _atom_site_fract_x
 _atom_site_fract_y
 _atom_site_fract_z
 _atom_site_occupancy
  Ba  Ba0  1  0.000000  0.000000  0.250000  1
  Ba  Ba1  1  0.000000  0.000000  0.750000  1
  Ba  Ba2  1  0.333333  0.666667  0.882381  1
  Ba  Ba3  1  0.666667  0.333333  0.382381  1
  Ba  Ba4  1  0.666667  0.333333  0.117619  1
  Ba  Ba5  1  0.333333  0.666667  0.617619  1
  Ir  Ir6  1  0.333333  0.666667  0.161590  1
  Ir  Ir7  1  0.666667  0.333333  0.661590  1
  Ir  Ir8  1  0.666667  0.333333  0.838410  1
  Ir  Ir9  1  0.333333  0.666667  0.338410  1
  Sm  Sm10  1  0.000000  0.000000  0.000000  1
  Sm  Sm11  1  0.000000  0.000000  0.500000  1
  O  O12  1  0.452964  0.905928  0.250000  1
  O  O13  1  0.547036  0.452964  0.750000  1
  O  O14  1  0.905928  0.452964  0.750000  1
  O  O15  1  0.094072  0.547036  0.250000  1
  O  O16  1  0.452964  0.547036  0.250000  1
  O  O17  1  0.547036  0.094072  0.750000  1
  O  O18  1  0.863212  0.726424  0.393911  1
  O  O19  1  0.136788  0.863212  0.893911  1
  O  O20  1  0.726424  0.863212  0.893911  1
  O  O21  1  0.273576  0.136788  0.393911  1
  O  O22  1  0.863212  0.136788  0.393911  1
  O  O23  1  0.136788  0.273576  0.606089  1
  O  O24  1  0.136788  0.863212  0.606089  1
  O  O25  1  0.136788  0.273576  0.893911  1
  O  O26  1  0.726424  0.863212  0.606089  1
  O  O27  1  0.273576  0.136788  0.106089  1
  O  O28  1  0.863212  0.726424  0.106089  1
  O  O29  1  0.863212  0.136788  0.106089  1
