# generated using pymatgen
data_SrLi2Nb2O7
_symmetry_space_group_name_H-M   'P 1'
_cell_length_a   4.01301609
_cell_length_b   4.01301774
_cell_length_c   9.63655466
_cell_angle_alpha   102.01565168
_cell_angle_beta   102.01565885
_cell_angle_gamma   90.00458878
_symmetry_Int_Tables_number   1
_chemical_formula_structural   SrLi2Nb2O7
_chemical_formula_sum   'Sr1 Li2 Nb2 O7'
_cell_volume   148.31132903
_cell_formula_units_Z   1
loop_
 _symmetry_equiv_pos_site_id
 _symmetry_equiv_pos_as_xyz
  1  'x, y, z'
loop_
 _atom_site_type_symbol
 _atom_site_label
 _atom_site_symmetry_multiplicity
 _atom_site_fract_x
 _atom_site_fract_y
 _atom_site_fract_z
 _atom_site_occupancy
  Sr  Sr0  1  0.000000  0.000000  0.000000  1
  Li  Li1  1  0.250101  0.749899  0.500000  1
  Li  Li2  1  0.749899  0.250101  0.500000  1
  Nb  Nb3  1  0.384365  0.384365  0.768870  1
  Nb  Nb4  1  0.615635  0.615635  0.231130  1
  O  O5  1  0.105431  0.605431  0.210791  1
  O  O6  1  0.605431  0.105431  0.210791  1
  O  O7  1  0.718788  0.718787  0.437539  1
  O  O8  1  0.394569  0.894569  0.789209  1
  O  O9  1  0.281212  0.281213  0.562461  1
  O  O10  1  0.500000  0.500000  0.000000  1
  O  O11  1  0.894569  0.394569  0.789209  1
