# generated using pymatgen
data_S5N2(O2F)4
_symmetry_space_group_name_H-M   'P 1'
_cell_length_a   6.89680761
_cell_length_b   13.12015545
_cell_length_c   13.99979579
_cell_angle_alpha   91.40429651
_cell_angle_beta   90.00000000
_cell_angle_gamma   90.00000000
_symmetry_Int_Tables_number   1
_chemical_formula_structural   S5N2(O2F)4
_chemical_formula_sum   'S20 N8 O32 F16'
_cell_volume   1266.42167561
_cell_formula_units_Z   4
loop_
 _symmetry_equiv_pos_site_id
 _symmetry_equiv_pos_as_xyz
  1  'x, y, z'
loop_
 _atom_site_type_symbol
 _atom_site_label
 _atom_site_symmetry_multiplicity
 _atom_site_fract_x
 _atom_site_fract_y
 _atom_site_fract_z
 _atom_site_occupancy
  S  S0  1  0.865651  0.359766  0.275995  1
  S  S1  1  0.719987  0.640299  0.509335  1
  S  S2  1  0.682842  0.137005  0.795376  1
  S  S3  1  0.280013  0.359701  0.490665  1
  S  S4  1  0.780013  0.640299  0.009335  1
  S  S5  1  0.634349  0.359766  0.775995  1
  S  S6  1  0.182842  0.862995  0.704624  1
  S  S7  1  0.736668  0.863639  0.993994  1
  S  S8  1  0.219987  0.359701  0.990665  1
  S  S9  1  0.236668  0.136361  0.506006  1
  S  S10  1  0.365651  0.640234  0.224005  1
  S  S11  1  0.263332  0.136361  0.006006  1
  S  S12  1  0.290439  0.229797  0.815688  1
  S  S13  1  0.209561  0.229797  0.315688  1
  S  S14  1  0.790439  0.770203  0.684312  1
  S  S15  1  0.709561  0.770203  0.184312  1
  S  S16  1  0.134349  0.640234  0.724005  1
  S  S17  1  0.763332  0.863639  0.493994  1
  S  S18  1  0.317158  0.862995  0.204624  1
  S  S19  1  0.817158  0.137005  0.295376  1
  N  N20  1  0.758099  0.758611  0.564643  1
  N  N21  1  0.258099  0.241389  0.935357  1
  N  N22  1  0.468608  0.757925  0.203584  1
  N  N23  1  0.741901  0.758611  0.064643  1
  N  N24  1  0.031392  0.757925  0.703584  1
  N  N25  1  0.531392  0.242075  0.796416  1
  N  N26  1  0.968608  0.242075  0.296416  1
  N  N27  1  0.241901  0.241389  0.435357  1
  O  O28  1  0.329781  0.161459  0.594128  1
  O  O29  1  0.852889  0.160305  0.849240  1
  O  O30  1  0.834511  0.632359  0.425185  1
  O  O31  1  0.184005  0.656611  0.269556  1
  O  O32  1  0.647111  0.160305  0.349240  1
  O  O33  1  0.779914  0.951129  0.051396  1
  O  O34  1  0.829781  0.838541  0.905872  1
  O  O35  1  0.815995  0.343389  0.730444  1
  O  O36  1  0.352889  0.839695  0.650760  1
  O  O37  1  0.720086  0.951129  0.551396  1
  O  O38  1  0.315995  0.656611  0.769556  1
  O  O39  1  0.334511  0.367641  0.074815  1
  O  O40  1  0.684005  0.343389  0.230444  1
  O  O41  1  0.434924  0.949937  0.189679  1
  O  O42  1  0.783405  0.567464  0.082612  1
  O  O43  1  0.670219  0.838541  0.405872  1
  O  O44  1  0.486101  0.425038  0.743441  1
  O  O45  1  0.013899  0.425038  0.243441  1
  O  O46  1  0.934924  0.050063  0.310321  1
  O  O47  1  0.165489  0.367641  0.574815  1
  O  O48  1  0.170219  0.161459  0.094128  1
  O  O49  1  0.716595  0.567464  0.582612  1
  O  O50  1  0.279914  0.048871  0.448604  1
  O  O51  1  0.065076  0.949937  0.689679  1
  O  O52  1  0.665489  0.632359  0.925185  1
  O  O53  1  0.147111  0.839695  0.150760  1
  O  O54  1  0.986101  0.574962  0.756559  1
  O  O55  1  0.216595  0.432536  0.917388  1
  O  O56  1  0.283405  0.432536  0.417388  1
  O  O57  1  0.220086  0.048871  0.948604  1
  O  O58  1  0.565076  0.050063  0.810321  1
  O  O59  1  0.513899  0.574962  0.256559  1
  F  F60  1  0.501632  0.656570  0.476936  1
  F  F61  1  0.757665  0.135123  0.186634  1
  F  F62  1  0.510006  0.865801  0.973036  1
  F  F63  1  0.821553  0.392197  0.384252  1
  F  F64  1  0.257665  0.864877  0.313366  1
  F  F65  1  0.989994  0.865801  0.473036  1
  F  F66  1  0.242335  0.864877  0.813366  1
  F  F67  1  0.742335  0.135123  0.686634  1
  F  F68  1  0.678447  0.392197  0.884252  1
  F  F69  1  0.178447  0.607803  0.615748  1
  F  F70  1  0.321553  0.607803  0.115748  1
  F  F71  1  -0.001632  0.656570  0.976936  1
  F  F72  1  1.001632  0.343430  0.023064  1
  F  F73  1  0.489994  0.134199  0.026964  1
  F  F74  1  0.010006  0.134199  0.526964  1
  F  F75  1  0.498368  0.343430  0.523064  1
