# generated using pymatgen
data_TiZn(BiO3)2
_symmetry_space_group_name_H-M   'P 1'
_cell_length_a   4.99544504
_cell_length_b   5.30076226
_cell_length_c   5.30075888
_cell_angle_alpha   90.00000000
_cell_angle_beta   90.00000000
_cell_angle_gamma   90.00013690
_symmetry_Int_Tables_number   1
_chemical_formula_structural   TiZn(BiO3)2
_chemical_formula_sum   'Ti1 Zn1 Bi2 O6'
_cell_volume   140.36232755
_cell_formula_units_Z   1
loop_
 _symmetry_equiv_pos_site_id
 _symmetry_equiv_pos_as_xyz
  1  'x, y, z'
loop_
 _atom_site_type_symbol
 _atom_site_label
 _atom_site_symmetry_multiplicity
 _atom_site_fract_x
 _atom_site_fract_y
 _atom_site_fract_z
 _atom_site_occupancy
  Ti  Ti0  1  0.585933  0.500001  0.500000  1
  O  O1  1  0.727170  0.742853  0.742853  1
  O  O2  1  0.727170  0.742853  0.257147  1
  O  O3  1  0.170802  0.000000  0.000000  1
  Zn  Zn4  1  0.552913  1.000000  0.000000  1
  Bi  Bi5  1  1.000147  -0.000000  0.500000  1
  O  O6  1  0.228377  0.500001  0.500000  1
  O  O7  1  0.727171  0.257146  0.257147  1
  O  O8  1  0.727171  0.257146  0.742853  1
  Bi  Bi9  1  1.000147  0.499999  0.000000  1
