# generated using pymatgen
data_LiEu2CBr3N2
_symmetry_space_group_name_H-M   'P 1'
_cell_length_a   10.33667814
_cell_length_b   10.33667772
_cell_length_c   10.33667773
_cell_angle_alpha   59.99999995
_cell_angle_beta   60.00000126
_cell_angle_gamma   59.99999953
_symmetry_Int_Tables_number   1
_chemical_formula_structural   LiEu2CBr3N2
_chemical_formula_sum   'Li4 Eu8 C4 Br12 N8'
_cell_volume   780.95848970
_cell_formula_units_Z   4
loop_
 _symmetry_equiv_pos_site_id
 _symmetry_equiv_pos_as_xyz
  1  'x, y, z'
loop_
 _atom_site_type_symbol
 _atom_site_label
 _atom_site_symmetry_multiplicity
 _atom_site_fract_x
 _atom_site_fract_y
 _atom_site_fract_z
 _atom_site_occupancy
  Eu  Eu0  1  0.163994  0.778669  0.778669  1
  Eu  Eu1  1  0.221331  0.221331  0.836006  1
  Eu  Eu2  1  0.836006  0.221331  0.221331  1
  Eu  Eu3  1  0.778669  0.163994  0.778669  1
  Eu  Eu4  1  0.221331  0.836006  0.221331  1
  Eu  Eu5  1  0.778669  0.778669  0.778669  1
  Eu  Eu6  1  0.778669  0.778669  0.163994  1
  Eu  Eu7  1  0.221331  0.221331  0.221331  1
  Li  Li8  1  0.500000  0.500000  0.500000  1
  Li  Li9  1  0.000000  0.500000  0.500000  1
  Li  Li10  1  0.500000  0.000000  0.500000  1
  Li  Li11  1  0.500000  0.500000  0.000000  1
  C  C12  1  0.500000  0.000000  0.000000  1
  C  C13  1  0.000000  0.000000  0.000000  1
  C  C14  1  0.000000  0.000000  0.500000  1
  C  C15  1  0.000000  0.500000  0.000000  1
  Br  Br16  1  0.177527  0.572473  0.177527  1
  Br  Br17  1  0.572473  0.177527  0.177527  1
  Br  Br18  1  0.822473  0.427527  0.822473  1
  Br  Br19  1  0.427527  0.427527  0.822473  1
  Br  Br20  1  0.572473  0.177527  0.572473  1
  Br  Br21  1  0.427527  0.822473  0.822473  1
  Br  Br22  1  0.822473  0.427527  0.427527  1
  Br  Br23  1  0.177527  0.177527  0.572473  1
  Br  Br24  1  0.822473  0.822473  0.427527  1
  Br  Br25  1  0.572473  0.572473  0.177527  1
  Br  Br26  1  0.427527  0.822473  0.427527  1
  Br  Br27  1  0.177527  0.572473  0.572473  1
  N  N28  1  0.048790  0.048790  0.353630  1
  N  N29  1  0.951210  0.951210  0.646370  1
  N  N30  1  0.048790  0.353630  0.048790  1
  N  N31  1  0.048790  0.048790  0.048790  1
  N  N32  1  0.951210  0.951210  0.951210  1
  N  N33  1  0.951210  0.646370  0.951210  1
  N  N34  1  0.646370  0.951210  0.951210  1
  N  N35  1  0.353630  0.048790  0.048790  1
