# generated using pymatgen
data_CrCu(PS3)2
_symmetry_space_group_name_H-M   'P 1'
_cell_length_a   5.97288485
_cell_length_b   10.35354090
_cell_length_c   14.02621550
_cell_angle_alpha   90.00000000
_cell_angle_beta   99.02496626
_cell_angle_gamma   90.00000000
_symmetry_Int_Tables_number   1
_chemical_formula_structural   CrCu(PS3)2
_chemical_formula_sum   'Cr4 Cu4 P8 S24'
_cell_volume   856.65008900
_cell_formula_units_Z   4
loop_
 _symmetry_equiv_pos_site_id
 _symmetry_equiv_pos_as_xyz
  1  'x, y, z'
loop_
 _atom_site_type_symbol
 _atom_site_label
 _atom_site_symmetry_multiplicity
 _atom_site_fract_x
 _atom_site_fract_y
 _atom_site_fract_z
 _atom_site_occupancy
  Cr  Cr0  1  0.764201  0.669176  0.754763  1
  Cr  Cr1  1  0.270915  0.169079  0.757503  1
  Cr  Cr2  1  0.264201  0.330824  0.254763  1
  Cr  Cr3  1  0.770915  0.830921  0.257503  1
  Cu  Cu4  1  0.302662  0.502400  0.856396  1
  Cu  Cu5  1  0.731003  0.002258  0.652882  1
  Cu  Cu6  1  0.231003  0.997742  0.152882  1
  Cu  Cu7  1  0.802662  0.497600  0.356396  1
  P  P8  1  0.244606  0.833060  0.675326  1
  P  P9  1  0.731112  0.339217  0.679321  1
  P  P10  1  0.804060  0.160592  0.332961  1
  P  P11  1  0.744606  0.166940  0.175326  1
  P  P12  1  0.290347  0.666992  0.336922  1
  P  P13  1  0.231112  0.660783  0.179321  1
  P  P14  1  0.304060  0.839408  0.832961  1
  P  P15  1  0.790347  0.333008  0.836922  1
  S  S16  1  0.390989  0.321707  0.643393  1
  S  S17  1  0.869574  0.507088  0.643110  1
  S  S18  1  0.420497  0.816468  0.139715  1
  S  S19  1  0.890989  0.678293  0.143393  1
  S  S20  1  0.120906  0.823687  0.373660  1
  S  S21  1  0.665834  0.992746  0.369352  1
  S  S22  1  0.369574  0.492912  0.143110  1
  S  S23  1  0.920497  0.183532  0.639715  1
  S  S24  1  0.140258  0.313537  0.876776  1
  S  S25  1  0.894846  0.813185  0.635133  1
  S  S26  1  0.394846  0.186815  0.135133  1
  S  S27  1  0.114718  0.683548  0.872337  1
  S  S28  1  0.855676  0.986276  0.135217  1
  S  S29  1  0.913993  0.323761  0.138789  1
  S  S30  1  0.355676  0.013724  0.635217  1
  S  S31  1  0.620906  0.176313  0.873660  1
  S  S32  1  0.413993  0.676239  0.638789  1
  S  S33  1  0.165834  0.007254  0.869352  1
  S  S34  1  0.178591  0.486287  0.376662  1
  S  S35  1  0.144210  0.178084  0.368781  1
  S  S36  1  0.644210  0.821916  0.868781  1
  S  S37  1  0.614718  0.316452  0.372337  1
  S  S38  1  0.640258  0.686463  0.376776  1
  S  S39  1  0.678591  0.513713  0.876662  1
