# generated using pymatgen
data_Cs2U2O7
_symmetry_space_group_name_H-M   'P 1'
_cell_length_a   4.35941545
_cell_length_b   7.71132557
_cell_length_c   7.62749098
_cell_angle_alpha   112.24073951
_cell_angle_beta   106.60338861
_cell_angle_gamma   90.00370068
_symmetry_Int_Tables_number   1
_chemical_formula_structural   Cs2U2O7
_chemical_formula_sum   'Cs2 U2 O7'
_cell_volume   225.74111452
_cell_formula_units_Z   1
loop_
 _symmetry_equiv_pos_site_id
 _symmetry_equiv_pos_as_xyz
  1  'x, y, z'
loop_
 _atom_site_type_symbol
 _atom_site_label
 _atom_site_symmetry_multiplicity
 _atom_site_fract_x
 _atom_site_fract_y
 _atom_site_fract_z
 _atom_site_occupancy
  O  O0  1  0.199188  0.257897  0.398208  1
  U  U1  1  0.852604  0.007426  0.705233  1
  O  O2  1  0.691168  0.996440  0.382369  1
  Cs  Cs3  1  0.603791  0.417795  0.207443  1
  O  O4  1  0.911081  0.272582  0.822232  1
  O  O5  1  -0.000010  -0.000004  -0.000014  1
  Cs  Cs6  1  0.396227  0.582250  0.792571  1
  O  O7  1  0.308837  0.003551  0.617645  1
  U  U8  1  0.147386  0.992545  0.294753  1
  O  O9  1  0.088914  0.727398  0.177761  1
  O  O10  1  0.800815  0.742120  0.601799  1
