# generated using pymatgen
data_Tl2Cu(SO3)2
_symmetry_space_group_name_H-M   'P 1'
_cell_length_a   5.22337893
_cell_length_b   5.60275019
_cell_length_c   7.49856507
_cell_angle_alpha   92.99234855
_cell_angle_beta   110.38040175
_cell_angle_gamma   117.79832413
_symmetry_Int_Tables_number   1
_chemical_formula_structural   Tl2Cu(SO3)2
_chemical_formula_sum   'Tl2 Cu1 S2 O6'
_cell_volume   175.77017064
_cell_formula_units_Z   1
loop_
 _symmetry_equiv_pos_site_id
 _symmetry_equiv_pos_as_xyz
  1  'x, y, z'
loop_
 _atom_site_type_symbol
 _atom_site_label
 _atom_site_symmetry_multiplicity
 _atom_site_fract_x
 _atom_site_fract_y
 _atom_site_fract_z
 _atom_site_occupancy
  O  O0  1  0.936654  0.655921  0.717256  1
  O  O1  1  0.939798  0.220200  0.686482  1
  S  S2  1  0.273355  0.651205  0.395816  1
  O  O3  1  0.063172  0.344120  0.282303  1
  O  O4  1  0.533227  0.780350  0.313896  1
  Tl  Tl5  1  0.576211  0.779113  0.873609  1
  O  O6  1  0.467062  0.219845  0.686344  1
  O  O7  1  0.060415  0.780019  0.313661  1
  Cu  Cu8  1  -0.000027  0.999600  0.500360  1
  Tl  Tl9  1  0.423513  0.220858  0.126157  1
  S  S10  1  0.726619  0.348769  0.604117  1
