# generated using pymatgen
data_Ce5(SiN3)3
_symmetry_space_group_name_H-M   'P 1'
_cell_length_a   7.71810468
_cell_length_b   7.71810556
_cell_length_c   15.74858626
_cell_angle_alpha   90.00000000
_cell_angle_beta   90.00000000
_cell_angle_gamma   93.61945711
_symmetry_Int_Tables_number   1
_chemical_formula_structural   Ce5(SiN3)3
_chemical_formula_sum   'Ce20 Si12 N36'
_cell_volume   936.25860153
_cell_formula_units_Z   4
loop_
 _symmetry_equiv_pos_site_id
 _symmetry_equiv_pos_as_xyz
  1  'x, y, z'
loop_
 _atom_site_type_symbol
 _atom_site_label
 _atom_site_symmetry_multiplicity
 _atom_site_fract_x
 _atom_site_fract_y
 _atom_site_fract_z
 _atom_site_occupancy
  Ce  Ce0  1  0.014781  0.985219  0.661428  1
  Ce  Ce1  1  0.994296  0.005704  0.888151  1
  Ce  Ce2  1  0.985219  0.014781  0.338572  1
  Ce  Ce3  1  0.704774  0.704774  0.000000  1
  Ce  Ce4  1  0.955718  0.468632  0.627936  1
  Ce  Ce5  1  0.795226  0.795226  0.500000  1
  Ce  Ce6  1  0.514781  0.485219  0.838572  1
  Ce  Ce7  1  0.505704  0.494296  0.388151  1
  Ce  Ce8  1  0.295226  0.295226  0.000000  1
  Ce  Ce9  1  0.485219  0.514781  0.161428  1
  Ce  Ce10  1  0.544282  0.031368  0.127936  1
  Ce  Ce11  1  0.494296  0.505704  0.611849  1
  Ce  Ce12  1  0.031368  0.544282  0.872064  1
  Ce  Ce13  1  0.468632  0.955718  0.372064  1
  Ce  Ce14  1  0.204774  0.204774  0.500000  1
  Ce  Ce15  1  0.968632  0.455718  0.127936  1
  Ce  Ce16  1  0.005704  0.994296  0.111849  1
  Ce  Ce17  1  0.044282  0.531368  0.372064  1
  Ce  Ce18  1  0.531368  0.044282  0.627936  1
  Ce  Ce19  1  0.455718  0.968632  0.872064  1
  Si  Si20  1  0.726814  0.273186  0.273059  1
  Si  Si21  1  0.273186  0.726814  0.726941  1
  Si  Si22  1  0.760417  0.239583  0.983947  1
  Si  Si23  1  0.715954  0.784046  0.750000  1
  Si  Si24  1  0.239583  0.760417  0.016053  1
  Si  Si25  1  0.260417  0.739583  0.516053  1
  Si  Si26  1  0.739583  0.260417  0.483947  1
  Si  Si27  1  0.773186  0.226814  0.773059  1
  Si  Si28  1  0.215954  0.284046  0.750000  1
  Si  Si29  1  0.784046  0.715954  0.250000  1
  Si  Si30  1  0.284046  0.215954  0.250000  1
  Si  Si31  1  0.226814  0.773186  0.226941  1
  N  N32  1  0.987598  0.277981  0.998614  1
  N  N33  1  0.743459  0.006917  0.758401  1
  N  N34  1  0.635806  0.364194  0.050282  1
  N  N35  1  0.303739  0.226248  0.846707  1
  N  N36  1  0.656053  0.343947  0.702854  1
  N  N37  1  0.273752  0.196261  0.653293  1
  N  N38  1  0.196261  0.273752  0.346707  1
  N  N39  1  0.343947  0.656053  0.297146  1
  N  N40  1  0.722019  0.012402  0.998614  1
  N  N41  1  0.156053  0.843947  0.797146  1
  N  N42  1  0.256541  0.993083  0.241599  1
  N  N43  1  0.722623  0.277377  0.876487  1
  N  N44  1  0.277377  0.722623  0.123513  1
  N  N45  1  0.803739  0.726248  0.653293  1
  N  N46  1  0.006917  0.743459  0.241599  1
  N  N47  1  0.135806  0.864194  0.449718  1
  N  N48  1  0.696261  0.773752  0.153293  1
  N  N49  1  0.506917  0.243459  0.258401  1
  N  N50  1  0.012402  0.722019  0.001386  1
  N  N51  1  0.777377  0.222623  0.376487  1
  N  N52  1  0.493083  0.756541  0.741599  1
  N  N53  1  0.726248  0.803739  0.346707  1
  N  N54  1  0.512402  0.222019  0.498614  1
  N  N55  1  0.756541  0.493083  0.258401  1
  N  N56  1  0.226248  0.303739  0.153293  1
  N  N57  1  0.364194  0.635806  0.949718  1
  N  N58  1  0.243459  0.506917  0.741599  1
  N  N59  1  0.222019  0.512402  0.501386  1
  N  N60  1  0.277981  0.987598  0.001386  1
  N  N61  1  0.773752  0.696261  0.846707  1
  N  N62  1  0.993083  0.256541  0.758401  1
  N  N63  1  0.843947  0.156053  0.202854  1
  N  N64  1  0.777981  0.487598  0.498614  1
  N  N65  1  0.487598  0.777981  0.501386  1
  N  N66  1  0.222623  0.777377  0.623513  1
  N  N67  1  0.864194  0.135806  0.550282  1
