# generated using pymatgen
data_CIClF4
_symmetry_space_group_name_H-M   'P 1'
_cell_length_a   5.23568716
_cell_length_b   5.23568753
_cell_length_c   20.69882294
_cell_angle_alpha   90.00000000
_cell_angle_beta   90.00000000
_cell_angle_gamma   91.16125653
_symmetry_Int_Tables_number   1
_chemical_formula_structural   CIClF4
_chemical_formula_sum   'C4 I4 Cl4 F16'
_cell_volume   567.28833382
_cell_formula_units_Z   4
loop_
 _symmetry_equiv_pos_site_id
 _symmetry_equiv_pos_as_xyz
  1  'x, y, z'
loop_
 _atom_site_type_symbol
 _atom_site_label
 _atom_site_symmetry_multiplicity
 _atom_site_fract_x
 _atom_site_fract_y
 _atom_site_fract_z
 _atom_site_occupancy
  C  C0  1  0.281945  0.718055  0.420693  1
  C  C1  1  0.781945  0.218055  0.079307  1
  C  C2  1  0.718055  0.281945  0.579307  1
  C  C3  1  0.218055  0.781945  0.920693  1
  I  I4  1  0.655684  0.344316  0.685675  1
  I  I5  1  0.844316  0.155684  0.185675  1
  I  I6  1  0.344316  0.655684  0.314325  1
  I  I7  1  0.155684  0.844316  0.814325  1
  Cl  Cl8  1  0.156408  0.843592  0.149206  1
  Cl  Cl9  1  0.656408  0.343592  0.350794  1
  Cl  Cl10  1  0.343592  0.656408  0.649206  1
  Cl  Cl11  1  0.843592  0.156408  0.850794  1
  F  F12  1  0.394792  0.605208  0.929410  1
  F  F13  1  0.894792  0.105208  0.570590  1
  F  F14  1  0.605208  0.394792  0.070590  1
  F  F15  1  0.105208  0.894792  0.429410  1
  F  F16  1  0.204424  0.496630  0.447618  1
  F  F17  1  0.295576  0.003370  0.947618  1
  F  F18  1  0.003370  0.295576  0.052382  1
  F  F19  1  0.496630  0.204424  0.552382  1
  F  F20  1  0.996630  0.704424  0.947618  1
  F  F21  1  0.928926  0.071074  0.697598  1
  F  F22  1  0.503370  0.795576  0.447618  1
  F  F23  1  0.571074  0.428926  0.197598  1
  F  F24  1  0.071074  0.928926  0.302402  1
  F  F25  1  0.795576  0.503370  0.552382  1
  F  F26  1  0.428926  0.571074  0.802402  1
  F  F27  1  0.704424  0.996630  0.052382  1
