# generated using pymatgen
data_Li7VN4
_symmetry_space_group_name_H-M   'P 1'
_cell_length_a   4.89458720
_cell_length_b   6.77831310
_cell_length_c   6.77831310
_cell_angle_alpha   90.00000000
_cell_angle_beta   90.00000000
_cell_angle_gamma   90.00000000
_symmetry_Int_Tables_number   1
_chemical_formula_structural   Li7VN4
_chemical_formula_sum   'Li14 V2 N8'
_cell_volume   224.88439560
_cell_formula_units_Z   2
loop_
 _symmetry_equiv_pos_site_id
 _symmetry_equiv_pos_as_xyz
  1  'x, y, z'
loop_
 _atom_site_type_symbol
 _atom_site_label
 _atom_site_symmetry_multiplicity
 _atom_site_fract_x
 _atom_site_fract_y
 _atom_site_fract_z
 _atom_site_occupancy
  Li  Li0  1  0.837242  0.750000  0.750000  1
  Li  Li1  1  0.250000  0.513406  0.486594  1
  Li  Li2  1  0.162758  0.250000  0.250000  1
  Li  Li3  1  0.250000  0.986594  0.013406  1
  Li  Li4  1  0.750000  0.486594  0.513406  1
  Li  Li5  1  0.250000  0.750000  0.250000  1
  Li  Li6  1  0.337242  0.750000  0.750000  1
  Li  Li7  1  0.750000  0.486594  0.986594  1
  Li  Li8  1  0.750000  0.013406  0.513406  1
  Li  Li9  1  0.250000  0.986594  0.486594  1
  Li  Li10  1  0.250000  0.513406  0.013406  1
  Li  Li11  1  0.750000  0.013406  0.986594  1
  Li  Li12  1  0.662758  0.250000  0.250000  1
  Li  Li13  1  0.750000  0.250000  0.750000  1
  V  V14  1  0.750000  0.750000  0.250000  1
  V  V15  1  0.250000  0.250000  0.750000  1
  N  N16  1  0.961729  0.974960  0.250000  1
  N  N17  1  0.461729  0.250000  0.525040  1
  N  N18  1  0.038271  0.025040  0.750000  1
  N  N19  1  0.961729  0.525040  0.250000  1
  N  N20  1  0.038271  0.474960  0.750000  1
  N  N21  1  0.538271  0.750000  0.025040  1
  N  N22  1  0.461729  0.250000  0.974960  1
  N  N23  1  0.538271  0.750000  0.474960  1
