# generated using pymatgen
data_MgH12SeO9
_symmetry_space_group_name_H-M   'P 1'
_cell_length_a   5.99897014
_cell_length_b   5.99897011
_cell_length_c   5.99896971
_cell_angle_alpha   96.86554323
_cell_angle_beta   96.86554321
_cell_angle_gamma   96.86554834
_symmetry_Int_Tables_number   1
_chemical_formula_structural   MgH12SeO9
_chemical_formula_sum   'Mg1 H12 Se1 O9'
_cell_volume   210.83330471
_cell_formula_units_Z   1
loop_
 _symmetry_equiv_pos_site_id
 _symmetry_equiv_pos_as_xyz
  1  'x, y, z'
loop_
 _atom_site_type_symbol
 _atom_site_label
 _atom_site_symmetry_multiplicity
 _atom_site_fract_x
 _atom_site_fract_y
 _atom_site_fract_z
 _atom_site_occupancy
  Mg  Mg0  1  0.006007  0.006007  0.006007  1
  Se  Se1  1  0.523371  0.523371  0.523371  1
  O  O2  1  0.576278  0.491485  0.243840  1
  O  O3  1  0.243840  0.576278  0.491485  1
  O  O4  1  0.491485  0.243840  0.576278  1
  O  O5  1  0.685327  0.881349  0.072630  1
  O  O6  1  0.072630  0.685327  0.881349  1
  O  O7  1  0.881349  0.072630  0.685327  1
  O  O8  1  0.342762  0.144975  0.964037  1
  O  O9  1  0.964037  0.342762  0.144975  1
  O  O10  1  0.144975  0.964037  0.342762  1
  H  H11  1  0.549024  0.956194  0.039315  1
  H  H12  1  0.039315  0.549024  0.956194  1
  H  H13  1  0.956194  0.039315  0.549024  1
  H  H14  1  0.638994  0.739396  0.136867  1
  H  H15  1  0.136867  0.638994  0.739396  1
  H  H16  1  0.739396  0.136867  0.638994  1
  H  H17  1  0.417026  0.282161  0.074644  1
  H  H18  1  0.074644  0.417026  0.282161  1
  H  H19  1  0.282161  0.074644  0.417026  1
  H  H20  1  0.382509  0.183176  0.813832  1
  H  H21  1  0.813832  0.382509  0.183176  1
  H  H22  1  0.183176  0.813832  0.382509  1
