# generated using pymatgen
data_ErMoClO4
_symmetry_space_group_name_H-M   'P 1'
_cell_length_a   6.27942065
_cell_length_b   6.27942107
_cell_length_c   6.89275652
_cell_angle_alpha   75.84562275
_cell_angle_beta   75.84562177
_cell_angle_gamma   70.69723706
_symmetry_Int_Tables_number   1
_chemical_formula_structural   ErMoClO4
_chemical_formula_sum   'Er2 Mo2 Cl2 O8'
_cell_volume   244.71114012
_cell_formula_units_Z   2
loop_
 _symmetry_equiv_pos_site_id
 _symmetry_equiv_pos_as_xyz
  1  'x, y, z'
loop_
 _atom_site_type_symbol
 _atom_site_label
 _atom_site_symmetry_multiplicity
 _atom_site_fract_x
 _atom_site_fract_y
 _atom_site_fract_z
 _atom_site_occupancy
  Er  Er0  1  0.221552  0.221552  0.887711  1
  Er  Er1  1  0.778448  0.778448  0.112289  1
  Mo  Mo2  1  0.637772  0.637772  0.730882  1
  Mo  Mo3  1  0.362228  0.362228  0.269118  1
  Cl  Cl4  1  0.010168  0.010168  0.232499  1
  Cl  Cl5  1  0.989832  0.989832  0.767501  1
  O  O6  1  0.508260  0.892562  0.846440  1
  O  O7  1  0.491740  0.107438  0.153560  1
  O  O8  1  0.107438  0.491740  0.153560  1
  O  O9  1  0.544228  0.544228  0.200697  1
  O  O10  1  0.293333  0.293333  0.537195  1
  O  O11  1  0.892562  0.508260  0.846440  1
  O  O12  1  0.706667  0.706667  0.462805  1
  O  O13  1  0.455772  0.455772  0.799303  1
