# generated using pymatgen
data_Ag3SNO3
_symmetry_space_group_name_H-M   'P 1'
_cell_length_a   8.04734106
_cell_length_b   8.04734106
_cell_length_c   8.04734106
_cell_angle_alpha   90.00000000
_cell_angle_beta   90.00000000
_cell_angle_gamma   90.00000000
_symmetry_Int_Tables_number   1
_chemical_formula_structural   Ag3SNO3
_chemical_formula_sum   'Ag12 S4 N4 O12'
_cell_volume   521.14337784
_cell_formula_units_Z   4
loop_
 _symmetry_equiv_pos_site_id
 _symmetry_equiv_pos_as_xyz
  1  'x, y, z'
loop_
 _atom_site_type_symbol
 _atom_site_label
 _atom_site_symmetry_multiplicity
 _atom_site_fract_x
 _atom_site_fract_y
 _atom_site_fract_z
 _atom_site_occupancy
  Ag  Ag0  1  0.315672  0.980520  0.358120  1
  Ag  Ag1  1  0.480520  0.141880  0.684328  1
  Ag  Ag2  1  0.019480  0.858120  0.184328  1
  Ag  Ag3  1  0.815672  0.519480  0.641880  1
  Ag  Ag4  1  0.358120  0.315672  0.980520  1
  Ag  Ag5  1  0.519480  0.641880  0.815672  1
  Ag  Ag6  1  0.684328  0.480520  0.141880  1
  Ag  Ag7  1  0.141880  0.684328  0.480520  1
  Ag  Ag8  1  0.641880  0.815672  0.519480  1
  Ag  Ag9  1  0.980520  0.358120  0.315672  1
  Ag  Ag10  1  0.858120  0.184328  0.019480  1
  Ag  Ag11  1  0.184328  0.019480  0.858120  1
  S  S12  1  0.856830  0.643170  0.356830  1
  S  S13  1  0.143170  0.143170  0.143170  1
  S  S14  1  0.643170  0.356830  0.856830  1
  S  S15  1  0.356830  0.856830  0.643170  1
  N  N16  1  0.079273  0.579273  0.920727  1
  N  N17  1  0.920727  0.079273  0.579273  1
  N  N18  1  0.420727  0.420727  0.420727  1
  N  N19  1  0.579273  0.920727  0.079273  1
  O  O20  1  0.691110  0.921319  0.967788  1
  O  O21  1  0.467788  0.808890  0.078681  1
  O  O22  1  0.078681  0.467788  0.808890  1
  O  O23  1  0.921319  0.967788  0.691110  1
  O  O24  1  0.032212  0.191110  0.578681  1
  O  O25  1  0.967788  0.691110  0.921319  1
  O  O26  1  0.308890  0.421319  0.532212  1
  O  O27  1  0.578681  0.032212  0.191110  1
  O  O28  1  0.191110  0.578681  0.032212  1
  O  O29  1  0.808890  0.078681  0.467788  1
  O  O30  1  0.532212  0.308890  0.421319  1
  O  O31  1  0.421319  0.532212  0.308890  1
