# generated using pymatgen
data_Cd(BiO2)2
_symmetry_space_group_name_H-M   'P 1'
_cell_length_a   9.51093184
_cell_length_b   11.45048246
_cell_length_c   11.45048282
_cell_angle_alpha   80.06796235
_cell_angle_beta   65.46134326
_cell_angle_gamma   65.46134517
_symmetry_Int_Tables_number   1
_chemical_formula_structural   Cd(BiO2)2
_chemical_formula_sum   'Cd8 Bi16 O32'
_cell_volume   1031.92746699
_cell_formula_units_Z   8
loop_
 _symmetry_equiv_pos_site_id
 _symmetry_equiv_pos_as_xyz
  1  'x, y, z'
loop_
 _atom_site_type_symbol
 _atom_site_label
 _atom_site_symmetry_multiplicity
 _atom_site_fract_x
 _atom_site_fract_y
 _atom_site_fract_z
 _atom_site_occupancy
  Bi  Bi0  1  0.032970  0.250000  0.434059  1
  Bi  Bi1  1  0.967030  0.065941  0.250000  1
  Bi  Bi2  1  0.282970  0.434059  0.250000  1
  Bi  Bi3  1  0.717030  0.250000  0.065941  1
  Bi  Bi4  1  0.967030  0.750000  0.565941  1
  Bi  Bi5  1  0.032970  0.934059  0.750000  1
  Bi  Bi6  1  0.717030  0.565941  0.750000  1
  Bi  Bi7  1  0.282970  0.750000  0.934059  1
  Bi  Bi8  1  0.223727  0.108975  0.891025  1
  Bi  Bi9  1  0.614752  0.608975  0.108975  1
  Bi  Bi10  1  0.332702  0.891025  0.391025  1
  Bi  Bi11  1  0.223727  0.391025  0.608975  1
  Bi  Bi12  1  0.667298  0.108975  0.608975  1
  Bi  Bi13  1  0.385248  0.391025  0.891025  1
  Bi  Bi14  1  0.776273  0.608975  0.391025  1
  Bi  Bi15  1  0.776273  0.891025  0.108975  1
  Cd  Cd16  1  0.390667  0.609333  0.609333  1
  Cd  Cd17  1  0.500000  0.890667  0.609333  1
  Cd  Cd18  1  0.000000  0.609333  0.890667  1
  Cd  Cd19  1  0.609333  0.890667  0.890667  1
  Cd  Cd20  1  0.609333  0.390667  0.390667  1
  Cd  Cd21  1  0.500000  0.109333  0.390667  1
  Cd  Cd22  1  1.000000  0.390667  0.109333  1
  Cd  Cd23  1  0.390667  0.109333  0.109333  1
  O  O24  1  0.270312  0.899247  0.793003  1
  O  O25  1  0.563316  0.706997  0.899247  1
  O  O26  1  0.169559  0.793003  0.600753  1
  O  O27  1  0.962562  0.600753  0.706997  1
  O  O28  1  0.830441  0.899247  0.706997  1
  O  O29  1  0.436684  0.600753  0.793003  1
  O  O30  1  0.729688  0.706997  0.600753  1
  O  O31  1  0.037438  0.793003  0.899247  1
  O  O32  1  0.729688  0.100753  0.206997  1
  O  O33  1  0.436684  0.293003  0.100753  1
  O  O34  1  0.830441  0.206997  0.399247  1
  O  O35  1  0.037438  0.399247  0.293003  1
  O  O36  1  0.169559  0.100753  0.293003  1
  O  O37  1  0.563316  0.399247  0.206997  1
  O  O38  1  0.270312  0.293003  0.399247  1
  O  O39  1  0.962562  0.206997  0.100753  1
  O  O40  1  0.686661  0.020944  0.979056  1
  O  O41  1  0.165717  0.520944  0.020944  1
  O  O42  1  0.707606  0.979056  0.479056  1
  O  O43  1  0.686661  0.479056  0.520944  1
  O  O44  1  0.292394  0.020944  0.520944  1
  O  O45  1  0.834283  0.479056  0.979056  1
  O  O46  1  0.313339  0.520944  0.479056  1
  O  O47  1  0.313339  0.979056  0.020944  1
  O  O48  1  0.267977  0.250000  0.964046  1
  O  O49  1  0.732023  0.535954  0.250000  1
  O  O50  1  0.517977  0.964046  0.250000  1
  O  O51  1  0.482023  0.250000  0.535954  1
  O  O52  1  0.732023  0.750000  0.035954  1
  O  O53  1  0.267977  0.464046  0.750000  1
  O  O54  1  0.482023  0.035954  0.750000  1
  O  O55  1  0.517977  0.750000  0.464046  1
