# generated using pymatgen
data_CsNaB4H12O13
_symmetry_space_group_name_H-M   'P 1'
_cell_length_a   8.25072241
_cell_length_b   11.54508884
_cell_length_c   13.25605487
_cell_angle_alpha   90.00000000
_cell_angle_beta   92.41553904
_cell_angle_gamma   90.00000000
_symmetry_Int_Tables_number   1
_chemical_formula_structural   CsNaB4H12O13
_chemical_formula_sum   'Cs4 Na4 B16 H48 O52'
_cell_volume   1261.58779423
_cell_formula_units_Z   4
loop_
 _symmetry_equiv_pos_site_id
 _symmetry_equiv_pos_as_xyz
  1  'x, y, z'
loop_
 _atom_site_type_symbol
 _atom_site_label
 _atom_site_symmetry_multiplicity
 _atom_site_fract_x
 _atom_site_fract_y
 _atom_site_fract_z
 _atom_site_occupancy
  Cs  Cs0  1  0.958239  0.610502  0.368289  1
  Cs  Cs1  1  0.041761  0.110502  0.131711  1
  Cs  Cs2  1  0.041761  0.389498  0.631711  1
  Cs  Cs3  1  0.958239  0.889498  0.868289  1
  Na  Na4  1  0.861707  0.911710  0.537133  1
  Na  Na5  1  0.138294  0.411710  0.962867  1
  Na  Na6  1  0.138294  0.088290  0.462867  1
  Na  Na7  1  0.861707  0.588290  0.037133  1
  O  O8  1  0.727081  0.341175  0.342935  1
  O  O9  1  0.272919  0.841175  0.157065  1
  O  O10  1  0.272919  0.658825  0.657065  1
  O  O11  1  0.727081  0.158825  0.842935  1
  O  O12  1  0.565742  0.181197  0.275262  1
  O  O13  1  0.434258  0.681197  0.224738  1
  O  O14  1  0.434258  0.818803  0.724738  1
  O  O15  1  0.565742  0.318803  0.775262  1
  O  O16  1  0.307292  0.273807  0.301137  1
  O  O17  1  0.692708  0.773807  0.198863  1
  O  O18  1  0.692708  0.726193  0.698863  1
  O  O19  1  0.307292  0.226193  0.801137  1
  O  O20  1  0.471092  0.419384  0.391155  1
  O  O21  1  0.528908  0.919384  0.108845  1
  O  O22  1  0.528908  0.580616  0.608845  1
  O  O23  1  0.471092  0.080616  0.891155  1
  O  O24  1  0.513646  0.376735  0.213771  1
  O  O25  1  0.486354  0.876735  0.286229  1
  O  O26  1  0.486354  0.623265  0.786229  1
  O  O27  1  0.513646  0.123265  0.713771  1
  O  O28  1  0.714482  0.444773  0.495301  1
  O  O29  1  0.285518  0.944773  0.004699  1
  O  O30  1  0.285518  0.555227  0.504699  1
  O  O31  1  0.714482  0.055227  0.995301  1
  O  O32  1  0.766186  0.281907  0.173883  1
  O  O33  1  0.233814  0.781907  0.326117  1
  O  O34  1  0.233814  0.718093  0.826117  1
  O  O35  1  0.766186  0.218093  0.673883  1
  O  O36  1  0.327651  0.072865  0.318439  1
  O  O37  1  0.672349  0.572865  0.181561  1
  O  O38  1  0.672349  0.927135  0.681561  1
  O  O39  1  0.327651  0.427135  0.818439  1
  O  O40  1  0.264130  0.473044  0.263306  1
  O  O41  1  0.735870  0.973044  0.236694  1
  O  O42  1  0.735870  0.526956  0.736694  1
  O  O43  1  0.264130  0.026956  0.763306  1
  O  O44  1  0.666286  0.783332  0.450962  1
  O  O45  1  0.333714  0.283332  0.049038  1
  O  O46  1  0.333714  0.216668  0.549038  1
  O  O47  1  0.666286  0.716668  0.950962  1
  O  O48  1  0.971895  0.730724  0.589413  1
  O  O49  1  0.028105  0.230724  0.910587  1
  O  O50  1  0.028105  0.269276  0.410587  1
  O  O51  1  0.971895  0.769276  0.089413  1
  O  O52  1  0.986374  0.938140  0.376151  1
  O  O53  1  0.013626  0.438140  0.123849  1
  O  O54  1  0.013626  0.061860  0.623849  1
  O  O55  1  0.986374  0.561860  0.876151  1
  O  O56  1  0.678118  0.076393  0.470469  1
  O  O57  1  0.321882  0.576393  0.029531  1
  O  O58  1  0.321882  0.923607  0.529531  1
  O  O59  1  0.678118  0.423607  0.970469  1
  B  B60  1  0.635452  0.401829  0.409583  1
  B  B61  1  0.364548  0.901829  0.090417  1
  B  B62  1  0.364548  0.598171  0.590417  1
  B  B63  1  0.635452  0.098171  0.909583  1
  B  B64  1  0.643600  0.296611  0.248867  1
  B  B65  1  0.356400  0.796611  0.251133  1
  B  B66  1  0.356400  0.703389  0.751133  1
  B  B67  1  0.643600  0.203389  0.748867  1
  B  B68  1  0.403406  0.176060  0.297400  1
  B  B69  1  0.596594  0.676060  0.202600  1
  B  B70  1  0.596594  0.823940  0.702600  1
  B  B71  1  0.403406  0.323940  0.797400  1
  B  B72  1  0.387094  0.387696  0.289865  1
  B  B73  1  0.612906  0.887696  0.210135  1
  B  B74  1  0.612906  0.612304  0.710135  1
  B  B75  1  0.387094  0.112304  0.789865  1
  H  H76  1  0.643403  0.491664  0.539095  1
  H  H77  1  0.356597  0.991664  0.960905  1
  H  H78  1  0.356597  0.508336  0.460905  1
  H  H79  1  0.643403  0.008336  0.039095  1
  H  H80  1  0.716953  0.290297  0.106143  1
  H  H81  1  0.283047  0.790297  0.393857  1
  H  H82  1  0.283047  0.709703  0.893857  1
  H  H83  1  0.716953  0.209702  0.606143  1
  H  H84  1  0.393257  0.000294  0.308374  1
  H  H85  1  0.606743  0.500294  0.191626  1
  H  H86  1  0.606743  0.999706  0.691626  1
  H  H87  1  0.393257  0.499706  0.808374  1
  H  H88  1  0.315995  0.549225  0.254211  1
  H  H89  1  0.684005  0.049225  0.245789  1
  H  H90  1  0.684005  0.450775  0.745789  1
  H  H91  1  0.315995  0.950775  0.754211  1
  H  H92  1  0.591282  0.810714  0.395291  1
  H  H93  1  0.408718  0.310714  0.104709  1
  H  H94  1  0.408718  0.189286  0.604709  1
  H  H95  1  0.591282  0.689286  0.895291  1
  H  H96  1  0.606866  0.728784  0.491740  1
  H  H97  1  0.393134  0.228784  0.008260  1
  H  H98  1  0.393134  0.271216  0.508260  1
  H  H99  1  0.606866  0.771216  0.991740  1
  H  H100  1  0.884970  0.715334  0.636714  1
  H  H101  1  0.115030  0.215334  0.863286  1
  H  H102  1  0.115030  0.284666  0.363286  1
  H  H103  1  0.884970  0.784666  0.136714  1
  H  H104  1  0.076830  0.705265  0.621271  1
  H  H105  1  0.923170  0.205265  0.878729  1
  H  H106  1  0.923170  0.294735  0.378729  1
  H  H107  1  0.076830  0.794735  0.121271  1
  H  H108  1  0.895037  0.945834  0.324716  1
  H  H109  1  0.104963  0.445834  0.175284  1
  H  H110  1  0.104963  0.054166  0.675284  1
  H  H111  1  0.895037  0.554166  0.824716  1
  H  H112  1  0.069931  0.887618  0.347528  1
  H  H113  1  0.930069  0.387618  0.152472  1
  H  H114  1  0.930069  0.112382  0.652472  1
  H  H115  1  0.069931  0.612382  0.847528  1
  H  H116  1  0.674354  0.122842  0.408220  1
  H  H117  1  0.325646  0.622842  0.091780  1
  H  H118  1  0.325646  0.877158  0.591780  1
  H  H119  1  0.674354  0.377158  0.908220  1
  H  H120  1  0.602293  0.013836  0.453343  1
  H  H121  1  0.397707  0.513836  0.046657  1
  H  H122  1  0.397707  0.986164  0.546657  1
  H  H123  1  0.602293  0.486164  0.953343  1
