# generated using pymatgen
data_Cr(PO3)3
_symmetry_space_group_name_H-M   'P 1'
_cell_length_a   6.53741010
_cell_length_b   7.41150184
_cell_length_c   8.41914840
_cell_angle_alpha   73.79979116
_cell_angle_beta   67.15456276
_cell_angle_gamma   63.83029361
_symmetry_Int_Tables_number   1
_chemical_formula_structural   Cr(PO3)3
_chemical_formula_sum   'Cr2 P6 O18'
_cell_volume   334.51372154
_cell_formula_units_Z   2
loop_
 _symmetry_equiv_pos_site_id
 _symmetry_equiv_pos_as_xyz
  1  'x, y, z'
loop_
 _atom_site_type_symbol
 _atom_site_label
 _atom_site_symmetry_multiplicity
 _atom_site_fract_x
 _atom_site_fract_y
 _atom_site_fract_z
 _atom_site_occupancy
  Cr  Cr0  1  0.000000  0.500000  0.000000  1
  Cr  Cr1  1  0.500000  0.000000  0.500000  1
  P  P2  1  0.207874  0.450326  0.322854  1
  P  P3  1  0.981054  0.049674  0.177146  1
  P  P4  1  0.018946  0.950326  0.822854  1
  P  P5  1  0.548412  0.250000  0.750000  1
  P  P6  1  0.451588  0.750000  0.250000  1
  P  P7  1  0.792126  0.549674  0.677146  1
  O  O8  1  0.889865  0.453334  0.827730  1
  O  O9  1  0.671075  0.698679  0.095356  1
  O  O10  1  0.252724  0.934336  0.176023  1
  O  O11  1  0.534889  0.198679  0.595356  1
  O  O12  1  0.636916  0.434336  0.676023  1
  O  O13  1  0.110135  0.546666  0.172270  1
  O  O14  1  0.829071  0.953334  0.327730  1
  O  O15  1  0.912686  0.273573  0.167241  1
  O  O16  1  0.363084  0.565664  0.323977  1
  O  O17  1  0.747276  0.065664  0.823977  1
  O  O18  1  0.465111  0.801321  0.404644  1
  O  O19  1  0.087314  0.726427  0.832759  1
  O  O20  1  0.170929  0.046666  0.672270  1
  O  O21  1  0.328925  0.301321  0.904644  1
  O  O22  1  0.646500  0.773573  0.667241  1
  O  O23  1  0.000000  0.000000  0.000000  1
  O  O24  1  0.000000  0.500000  0.500000  1
  O  O25  1  0.353500  0.226427  0.332759  1
