# generated using pymatgen
data_LuMn2O5
_symmetry_space_group_name_H-M   'P 1'
_cell_length_a   5.76345928
_cell_length_b   7.22961523
_cell_length_c   8.46658491
_cell_angle_alpha   90.00000000
_cell_angle_beta   90.00000000
_cell_angle_gamma   90.00000000
_symmetry_Int_Tables_number   1
_chemical_formula_structural   LuMn2O5
_chemical_formula_sum   'Lu4 Mn8 O20'
_cell_volume   352.78221403
_cell_formula_units_Z   4
loop_
 _symmetry_equiv_pos_site_id
 _symmetry_equiv_pos_as_xyz
  1  'x, y, z'
loop_
 _atom_site_type_symbol
 _atom_site_label
 _atom_site_symmetry_multiplicity
 _atom_site_fract_x
 _atom_site_fract_y
 _atom_site_fract_z
 _atom_site_occupancy
  Lu  Lu0  1  0.000000  0.136884  0.169387  1
  Lu  Lu1  1  0.000000  0.863116  0.830613  1
  Lu  Lu2  1  0.000000  0.636884  0.330613  1
  Lu  Lu3  1  0.000000  0.363116  0.669387  1
  Mn  Mn4  1  0.251965  0.000000  0.500000  1
  Mn  Mn5  1  0.748035  0.500000  0.000000  1
  Mn  Mn6  1  0.748035  0.000000  0.500000  1
  Mn  Mn7  1  0.251965  0.500000  0.000000  1
  Mn  Mn8  1  0.500000  0.412839  0.347031  1
  Mn  Mn9  1  0.500000  0.587161  0.652969  1
  Mn  Mn10  1  0.500000  0.912839  0.152969  1
  Mn  Mn11  1  0.500000  0.087161  0.847031  1
  O  O12  1  0.266054  0.000000  0.000000  1
  O  O13  1  0.733946  0.500000  0.500000  1
  O  O14  1  0.733946  0.000000  0.000000  1
  O  O15  1  0.266054  0.500000  0.500000  1
  O  O16  1  0.000000  0.166104  0.439435  1
  O  O17  1  0.000000  0.833896  0.560565  1
  O  O18  1  0.000000  0.666104  0.060565  1
  O  O19  1  0.000000  0.333896  0.939435  1
  O  O20  1  0.500000  0.149733  0.426484  1
  O  O21  1  0.500000  0.850267  0.573516  1
  O  O22  1  0.500000  0.649733  0.073516  1
  O  O23  1  0.500000  0.350267  0.926484  1
  O  O24  1  0.236305  0.387980  0.206791  1
  O  O25  1  0.236305  0.612020  0.793209  1
  O  O26  1  0.763695  0.887980  0.293209  1
  O  O27  1  0.763695  0.112020  0.706791  1
  O  O28  1  0.763695  0.612020  0.793209  1
  O  O29  1  0.763695  0.387980  0.206791  1
  O  O30  1  0.236305  0.112020  0.706791  1
  O  O31  1  0.236305  0.887980  0.293209  1
