# generated using pymatgen
data_Rb6U5V2O23
_symmetry_space_group_name_H-M   'P 1'
_cell_length_a   7.24106489
_cell_length_b   14.55621166
_cell_length_c   25.23777743
_cell_angle_alpha   90.00000000
_cell_angle_beta   90.29128282
_cell_angle_gamma   90.00000000
_symmetry_Int_Tables_number   1
_chemical_formula_structural   Rb6U5V2O23
_chemical_formula_sum   'Rb24 U20 V8 O92'
_cell_volume   2660.08978325
_cell_formula_units_Z   4
loop_
 _symmetry_equiv_pos_site_id
 _symmetry_equiv_pos_as_xyz
  1  'x, y, z'
loop_
 _atom_site_type_symbol
 _atom_site_label
 _atom_site_symmetry_multiplicity
 _atom_site_fract_x
 _atom_site_fract_y
 _atom_site_fract_z
 _atom_site_occupancy
  Rb  Rb0  1  0.501397  0.625233  0.745450  1
  Rb  Rb1  1  0.991188  0.403441  0.166911  1
  Rb  Rb2  1  0.508812  0.903441  0.333089  1
  Rb  Rb3  1  0.984490  0.557009  0.653820  1
  Rb  Rb4  1  0.494524  0.531967  0.919025  1
  Rb  Rb5  1  0.015510  0.442991  0.346180  1
  Rb  Rb6  1  0.005476  0.031967  0.580975  1
  Rb  Rb7  1  0.008812  0.596559  0.833089  1
  Rb  Rb8  1  0.484490  0.942991  0.153820  1
  Rb  Rb9  1  0.003135  0.056105  0.923603  1
  Rb  Rb10  1  0.503135  0.443895  0.423603  1
  Rb  Rb11  1  0.996865  0.943895  0.076397  1
  Rb  Rb12  1  0.500000  0.000000  0.500000  1
  Rb  Rb13  1  0.515510  0.057009  0.846180  1
  Rb  Rb14  1  0.994524  0.968033  0.419025  1
  Rb  Rb15  1  0.000000  0.500000  0.500000  1
  Rb  Rb16  1  0.500000  0.000000  0.000000  1
  Rb  Rb17  1  0.001397  0.874767  0.245450  1
  Rb  Rb18  1  0.491188  0.096559  0.666911  1
  Rb  Rb19  1  0.498603  0.374767  0.254550  1
  Rb  Rb20  1  0.505476  0.468033  0.080975  1
  Rb  Rb21  1  0.000000  0.500000  0.000000  1
  Rb  Rb22  1  0.496865  0.556105  0.576397  1
  Rb  Rb23  1  0.998603  0.125233  0.754550  1
  U  U24  1  0.325278  0.270303  0.543349  1
  U  U25  1  0.833243  0.226405  0.462970  1
  U  U26  1  0.333243  0.273595  0.962970  1
  U  U27  1  0.676948  0.812906  0.619340  1
  U  U28  1  0.174722  0.770303  0.956651  1
  U  U29  1  0.184837  0.830629  0.680052  1
  U  U30  1  0.681141  0.801537  0.896134  1
  U  U31  1  0.825278  0.229697  0.043349  1
  U  U32  1  0.181141  0.698463  0.396135  1
  U  U33  1  0.176948  0.687094  0.119340  1
  U  U34  1  0.323052  0.187094  0.380660  1
  U  U35  1  0.674722  0.729697  0.456651  1
  U  U36  1  0.315163  0.330629  0.819948  1
  U  U37  1  0.666757  0.726405  0.037030  1
  U  U38  1  0.823052  0.312906  0.880660  1
  U  U39  1  0.166757  0.773595  0.537030  1
  U  U40  1  0.318859  0.198463  0.103865  1
  U  U41  1  0.684837  0.669371  0.180052  1
  U  U42  1  0.818859  0.301537  0.603866  1
  U  U43  1  0.815163  0.169371  0.319948  1
  V  V44  1  0.824905  0.139082  0.165163  1
  V  V45  1  0.813656  0.387630  0.756456  1
  V  V46  1  0.324905  0.360918  0.665163  1
  V  V47  1  0.186344  0.612370  0.243544  1
  V  V48  1  0.175095  0.860918  0.834837  1
  V  V49  1  0.313656  0.112370  0.256456  1
  V  V50  1  0.675095  0.639082  0.334837  1
  V  V51  1  0.686344  0.887630  0.743544  1
  O  O52  1  0.313453  0.458842  0.823768  1
  O  O53  1  0.670382  0.605578  0.476925  1
  O  O54  1  0.637250  0.192375  0.395540  1
  O  O55  1  0.686547  0.541158  0.176232  1
  O  O56  1  0.504148  0.846131  0.701985  1
  O  O57  1  0.329618  0.394422  0.523075  1
  O  O58  1  0.004148  0.653869  0.201985  1
  O  O59  1  0.818042  0.189857  0.858329  1
  O  O60  1  0.305607  0.313079  0.727490  1
  O  O61  1  0.194393  0.813079  0.772510  1
  O  O62  1  0.870729  0.847633  0.704628  1
  O  O63  1  0.505359  0.316083  0.892957  1
  O  O64  1  0.359413  0.737400  0.469712  1
  O  O65  1  0.313675  0.225828  0.462684  1
  O  O66  1  0.370729  0.652367  0.204628  1
  O  O67  1  0.181958  0.810143  0.141671  1
  O  O68  1  0.332103  0.061122  0.396114  1
  O  O69  1  0.681958  0.689857  0.641671  1
  O  O70  1  0.994641  0.816083  0.607043  1
  O  O71  1  0.156269  0.650238  0.559073  1
  O  O72  1  0.135539  0.331576  0.623943  1
  O  O73  1  0.849433  0.024044  0.169788  1
  O  O74  1  0.176169  0.648727  0.931564  1
  O  O75  1  0.690637  0.795972  0.187075  1
  O  O76  1  0.694393  0.686921  0.272510  1
  O  O77  1  0.499101  0.691855  0.374590  1
  O  O78  1  0.362750  0.807625  0.604460  1
  O  O79  1  0.315780  0.995997  0.252633  1
  O  O80  1  0.671562  0.681033  0.871292  1
  O  O81  1  0.328438  0.318967  0.128708  1
  O  O82  1  0.828438  0.181033  0.628708  1
  O  O83  1  0.802972  0.425389  0.584980  1
  O  O84  1  0.309363  0.204029  0.812925  1
  O  O85  1  0.129271  0.152367  0.295372  1
  O  O86  1  0.992776  0.735883  0.466199  1
  O  O87  1  0.492776  0.764117  0.966199  1
  O  O88  1  0.684220  0.004003  0.747367  1
  O  O89  1  0.640587  0.262600  0.530288  1
  O  O90  1  0.813453  0.041158  0.323768  1
  O  O91  1  0.302972  0.074611  0.084980  1
  O  O92  1  0.823831  0.351273  0.068436  1
  O  O93  1  0.829618  0.105578  0.023075  1
  O  O94  1  0.500899  0.308145  0.625410  1
  O  O95  1  0.995852  0.346131  0.798015  1
  O  O96  1  0.697028  0.925389  0.915020  1
  O  O97  1  0.150567  0.975956  0.830212  1
  O  O98  1  0.186325  0.725828  0.037316  1
  O  O99  1  0.179926  0.658884  0.306757  1
  O  O100  1  0.820074  0.341116  0.693243  1
  O  O101  1  0.656269  0.849762  0.059073  1
  O  O102  1  0.494641  0.683917  0.107043  1
  O  O103  1  0.813675  0.274172  0.962684  1
  O  O104  1  0.190637  0.704028  0.687075  1
  O  O105  1  0.667897  0.938878  0.603886  1
  O  O106  1  0.679926  0.841116  0.806757  1
  O  O107  1  0.805607  0.186921  0.227490  1
  O  O108  1  0.495852  0.153869  0.298015  1
  O  O109  1  0.331001  0.396938  0.985501  1
  O  O110  1  0.186547  0.958842  0.676232  1
  O  O111  1  0.650567  0.524044  0.330212  1
  O  O112  1  0.170382  0.894422  0.976925  1
  O  O113  1  0.862750  0.692375  0.104460  1
  O  O114  1  0.000899  0.191855  0.125410  1
  O  O115  1  0.167897  0.561122  0.103886  1
  O  O116  1  0.815780  0.504003  0.752633  1
  O  O117  1  0.859413  0.762600  0.969712  1
  O  O118  1  0.832103  0.438878  0.896114  1
  O  O119  1  0.999101  0.808145  0.874590  1
  O  O120  1  0.843731  0.349762  0.440927  1
  O  O121  1  0.184220  0.495997  0.247367  1
  O  O122  1  0.809363  0.295971  0.312925  1
  O  O123  1  0.197028  0.574611  0.415020  1
  O  O124  1  0.686325  0.774172  0.537316  1
  O  O125  1  0.318042  0.310143  0.358329  1
  O  O126  1  0.635539  0.168424  0.123943  1
  O  O127  1  0.629271  0.347633  0.795372  1
  O  O128  1  0.320074  0.158884  0.193243  1
  O  O129  1  0.168999  0.896938  0.514499  1
  O  O130  1  0.005359  0.183917  0.392957  1
  O  O131  1  0.137250  0.307625  0.895540  1
  O  O132  1  0.323831  0.148727  0.568436  1
  O  O133  1  0.140587  0.237400  0.030288  1
  O  O134  1  0.676169  0.851273  0.431564  1
  O  O135  1  0.007224  0.264117  0.533801  1
  O  O136  1  0.364461  0.831576  0.876057  1
  O  O137  1  0.349433  0.475956  0.669788  1
  O  O138  1  0.864461  0.668424  0.376057  1
  O  O139  1  0.343731  0.150238  0.940927  1
  O  O140  1  0.507224  0.235883  0.033801  1
  O  O141  1  0.831001  0.103062  0.485501  1
  O  O142  1  0.171562  0.818967  0.371292  1
  O  O143  1  0.668999  0.603062  0.014499  1
