# generated using pymatgen
data_BaCu(SeO3)2
_symmetry_space_group_name_H-M   'P 1'
_cell_length_a   5.41531735
_cell_length_b   9.02833657
_cell_length_c   13.43441973
_cell_angle_alpha   90.00000000
_cell_angle_beta   90.00000000
_cell_angle_gamma   90.34235941
_symmetry_Int_Tables_number   1
_chemical_formula_structural   BaCu(SeO3)2
_chemical_formula_sum   'Ba4 Cu4 Se8 O24'
_cell_volume   656.81462352
_cell_formula_units_Z   4
loop_
 _symmetry_equiv_pos_site_id
 _symmetry_equiv_pos_as_xyz
  1  'x, y, z'
loop_
 _atom_site_type_symbol
 _atom_site_label
 _atom_site_symmetry_multiplicity
 _atom_site_fract_x
 _atom_site_fract_y
 _atom_site_fract_z
 _atom_site_occupancy
  Ba  Ba0  1  0.730122  0.690934  0.201293  1
  Ba  Ba1  1  0.730122  0.190934  0.298707  1
  Ba  Ba2  1  0.269878  0.809066  0.701293  1
  Ba  Ba3  1  0.269878  0.309066  0.798707  1
  Cu  Cu4  1  0.274168  0.900373  0.367131  1
  Cu  Cu5  1  0.725832  0.099627  0.632869  1
  Cu  Cu6  1  0.725832  0.599627  0.867131  1
  Cu  Cu7  1  0.274168  0.400373  0.132869  1
  Se  Se8  1  0.187882  0.709057  0.991239  1
  Se  Se9  1  0.235633  0.535103  0.362004  1
  Se  Se10  1  0.812118  0.790943  0.491239  1
  Se  Se11  1  0.235633  0.035103  0.137996  1
  Se  Se12  1  0.764367  0.964897  0.862004  1
  Se  Se13  1  0.812118  0.290943  0.008761  1
  Se  Se14  1  0.187882  0.209057  0.508761  1
  Se  Se15  1  0.764367  0.464897  0.637996  1
  O  O16  1  0.280130  0.623917  0.884597  1
  O  O17  1  0.220566  0.708636  0.304269  1
  O  O18  1  0.719870  0.376083  0.115403  1
  O  O19  1  0.220566  0.208636  0.195731  1
  O  O20  1  0.869824  0.172410  0.504556  1
  O  O21  1  0.055521  0.528281  0.659758  1
  O  O22  1  0.130176  0.827590  0.495444  1
  O  O23  1  0.293360  0.608692  0.093783  1
  O  O24  1  0.055521  0.028281  0.840242  1
  O  O25  1  0.130176  0.327590  0.004556  1
  O  O26  1  0.706640  0.891308  0.593783  1
  O  O27  1  0.582941  0.549222  0.729151  1
  O  O28  1  0.582941  0.049222  0.770849  1
  O  O29  1  0.779434  0.291364  0.695731  1
  O  O30  1  0.706640  0.391308  0.906217  1
  O  O31  1  0.944479  0.471719  0.340242  1
  O  O32  1  0.719870  0.876083  0.384597  1
  O  O33  1  0.417059  0.450778  0.270849  1
  O  O34  1  0.869824  0.672410  0.995444  1
  O  O35  1  0.280130  0.123917  0.615403  1
  O  O36  1  0.293360  0.108692  0.406217  1
  O  O37  1  0.779434  0.791364  0.804269  1
  O  O38  1  0.417059  0.950778  0.229151  1
  O  O39  1  0.944479  0.971719  0.159758  1
