# generated using pymatgen
data_BaNaFe2F9
_symmetry_space_group_name_H-M   'P 1'
_cell_length_a   5.58282237
_cell_length_b   7.44508326
_cell_length_c   17.76703514
_cell_angle_alpha   90.00000000
_cell_angle_beta   90.00000000
_cell_angle_gamma   92.29455421
_symmetry_Int_Tables_number   1
_chemical_formula_structural   BaNaFe2F9
_chemical_formula_sum   'Ba4 Na4 Fe8 F36'
_cell_volume   737.88719785
_cell_formula_units_Z   4
loop_
 _symmetry_equiv_pos_site_id
 _symmetry_equiv_pos_as_xyz
  1  'x, y, z'
loop_
 _atom_site_type_symbol
 _atom_site_label
 _atom_site_symmetry_multiplicity
 _atom_site_fract_x
 _atom_site_fract_y
 _atom_site_fract_z
 _atom_site_occupancy
  F  F0  1  0.078656  0.904154  0.068329  1
  F  F1  1  0.421344  0.595846  0.568329  1
  F  F2  1  0.921344  0.095846  0.931671  1
  F  F3  1  0.578656  0.404154  0.431671  1
  F  F4  1  0.321221  0.931210  0.206871  1
  F  F5  1  0.178779  0.568790  0.706871  1
  F  F6  1  0.678779  0.068790  0.793129  1
  F  F7  1  0.821221  0.431210  0.293129  1
  F  F8  1  0.743998  0.739843  0.468880  1
  F  F9  1  0.756002  0.760157  0.968880  1
  F  F10  1  0.256002  0.260157  0.531120  1
  F  F11  1  0.243998  0.239843  0.031120  1
  F  F12  1  0.502964  0.697435  0.334237  1
  F  F13  1  0.997036  0.802565  0.834237  1
  F  F14  1  0.497036  0.302565  0.665763  1
  F  F15  1  0.002964  0.197435  0.165763  1
  F  F16  1  0.955028  0.141535  0.419130  1
  F  F17  1  0.544972  0.358465  0.919130  1
  F  F18  1  0.044972  0.858465  0.580870  1
  F  F19  1  0.455028  0.641535  0.080870  1
  F  F20  1  0.412629  0.997389  0.923650  1
  F  F21  1  0.087371  0.502611  0.423650  1
  F  F22  1  0.587371  0.002611  0.076350  1
  F  F23  1  0.912629  0.497389  0.576350  1
  F  F24  1  0.293142  0.285532  0.311937  1
  F  F25  1  0.206858  0.214468  0.811937  1
  F  F26  1  0.706858  0.714468  0.688063  1
  F  F27  1  0.793142  0.785532  0.188063  1
  F  F28  1  0.063740  0.445119  0.917121  1
  F  F29  1  0.436260  0.054881  0.417121  1
  F  F30  1  0.936260  0.554881  0.082879  1
  F  F31  1  0.563740  0.945119  0.582879  1
  F  F32  1  0.486292  0.276464  0.164516  1
  F  F33  1  0.013708  0.223536  0.664516  1
  F  F34  1  0.513708  0.723536  0.835484  1
  F  F35  1  0.986292  0.776464  0.335484  1
  Na  Na36  1  0.763225  0.297009  0.037189  1
  Na  Na37  1  0.736775  0.202991  0.537189  1
  Na  Na38  1  0.263225  0.797009  0.462811  1
  Na  Na39  1  0.236775  0.702991  0.962811  1
  Fe  Fe40  1  0.257093  0.270124  0.418675  1
  Fe  Fe41  1  0.722267  0.910273  0.876706  1
  Fe  Fe42  1  0.277733  0.089727  0.123294  1
  Fe  Fe43  1  0.222267  0.410273  0.623294  1
  Fe  Fe44  1  0.757093  0.770124  0.081325  1
  Fe  Fe45  1  0.742907  0.729876  0.581325  1
  Fe  Fe46  1  0.777733  0.589727  0.376706  1
  Fe  Fe47  1  0.242907  0.229876  0.918675  1
  Ba  Ba48  1  0.716822  0.063940  0.286210  1
  Ba  Ba49  1  0.783178  0.436060  0.786210  1
  Ba  Ba50  1  0.283178  0.936060  0.713790  1
  Ba  Ba51  1  0.216822  0.563940  0.213790  1
