# generated using pymatgen
data_LiUP(H4O5)2
_symmetry_space_group_name_H-M   'P 1'
_cell_length_a   6.98057368
_cell_length_b   6.98057368
_cell_length_c   9.26482900
_cell_angle_alpha   90.00000000
_cell_angle_beta   90.00000000
_cell_angle_gamma   90.00000000
_symmetry_Int_Tables_number   1
_chemical_formula_structural   LiUP(H4O5)2
_chemical_formula_sum   'Li2 U2 P2 H16 O20'
_cell_volume   451.46037592
_cell_formula_units_Z   2
loop_
 _symmetry_equiv_pos_site_id
 _symmetry_equiv_pos_as_xyz
  1  'x, y, z'
loop_
 _atom_site_type_symbol
 _atom_site_label
 _atom_site_symmetry_multiplicity
 _atom_site_fract_x
 _atom_site_fract_y
 _atom_site_fract_z
 _atom_site_occupancy
  Li  Li0  1  0.750000  0.250000  0.500000  1
  Li  Li1  1  0.250000  0.750000  0.500000  1
  U  U2  1  0.250000  0.250000  0.098689  1
  U  U3  1  0.750000  0.750000  0.901311  1
  P  P4  1  0.750000  0.250000  0.000000  1
  P  P5  1  0.250000  0.750000  0.000000  1
  H  H6  1  0.338253  0.580222  0.728852  1
  H  H7  1  0.920263  0.603932  0.379746  1
  H  H8  1  0.396068  0.420263  0.620254  1
  H  H9  1  0.661747  0.419778  0.271148  1
  H  H10  1  0.896068  0.920263  0.379746  1
  H  H11  1  0.919778  0.338253  0.728852  1
  H  H12  1  0.580222  0.161747  0.728852  1
  H  H13  1  0.420263  0.103932  0.620254  1
  H  H14  1  0.161747  0.919778  0.728852  1
  H  H15  1  0.603932  0.579737  0.379746  1
  H  H16  1  0.079737  0.396068  0.620254  1
  H  H17  1  0.080222  0.661747  0.271148  1
  H  H18  1  0.838253  0.080222  0.271148  1
  H  H19  1  0.419778  0.838253  0.271148  1
  H  H20  1  0.103932  0.079737  0.620254  1
  H  H21  1  0.579737  0.896068  0.379746  1
  O  O22  1  0.203310  0.578246  0.100641  1
  O  O23  1  0.250000  0.250000  0.903252  1
  O  O24  1  0.921754  0.203310  0.100641  1
  O  O25  1  0.296690  0.921754  0.100641  1
  O  O26  1  0.191256  0.968393  0.631044  1
  O  O27  1  0.421754  0.703310  0.899359  1
  O  O28  1  0.531607  0.191256  0.631044  1
  O  O29  1  0.750000  0.750000  0.096748  1
  O  O30  1  0.308744  0.531607  0.631044  1
  O  O31  1  0.968393  0.308744  0.631044  1
  O  O32  1  0.578246  0.296690  0.100641  1
  O  O33  1  0.750000  0.750000  0.705492  1
  O  O34  1  0.250000  0.250000  0.294508  1
  O  O35  1  0.468393  0.808744  0.368956  1
  O  O36  1  0.691256  0.468393  0.368956  1
  O  O37  1  0.031607  0.691256  0.368956  1
  O  O38  1  0.078246  0.796690  0.899359  1
  O  O39  1  0.808744  0.031607  0.368956  1
  O  O40  1  0.703310  0.078246  0.899359  1
  O  O41  1  0.796690  0.421754  0.899359  1
