# generated using pymatgen
data_BaIrO3
_symmetry_space_group_name_H-M   'P 1'
_cell_length_a   5.82307159
_cell_length_b   5.87308499
_cell_length_c   15.19920752
_cell_angle_alpha   79.03864447
_cell_angle_beta   78.95509646
_cell_angle_gamma   60.28262685
_symmetry_Int_Tables_number   1
_chemical_formula_structural   BaIrO3
_chemical_formula_sum   'Ba6 Ir6 O18'
_cell_volume   440.30715292
_cell_formula_units_Z   6
loop_
 _symmetry_equiv_pos_site_id
 _symmetry_equiv_pos_as_xyz
  1  'x, y, z'
loop_
 _atom_site_type_symbol
 _atom_site_label
 _atom_site_symmetry_multiplicity
 _atom_site_fract_x
 _atom_site_fract_y
 _atom_site_fract_z
 _atom_site_occupancy
  Ba  Ba0  1  0.220011  0.309495  0.250486  1
  Ba  Ba1  1  0.779988  0.690505  0.749514  1
  Ba  Ba2  1  0.628759  0.668098  0.074351  1
  Ba  Ba3  1  0.371241  0.331902  0.925649  1
  Ba  Ba4  1  0.849466  0.878742  0.422352  1
  Ba  Ba5  1  0.150534  0.121258  0.577648  1
  Ir  Ir6  1  0.912860  0.998003  0.176298  1
  Ir  Ir7  1  0.087140  0.001997  0.823702  1
  Ir  Ir8  1  0.000000  0.000000  0.000000  1
  Ir  Ir9  1  0.529663  0.615772  0.324924  1
  Ir  Ir10  1  0.470337  0.384228  0.675076  1
  Ir  Ir11  1  0.500000  0.500000  0.500000  1
  O  O12  1  0.704425  0.363097  0.227997  1
  O  O13  1  0.295575  0.636903  0.772003  1
  O  O14  1  0.688929  0.858382  0.263631  1
  O  O15  1  0.810879  0.141600  0.736378  1
  O  O16  1  0.311071  0.141618  0.736369  1
  O  O17  1  0.189121  0.858400  0.263622  1
  O  O18  1  0.104190  0.690900  0.100756  1
  O  O19  1  0.895810  0.309100  0.899244  1
  O  O20  1  0.646287  0.152860  0.082535  1
  O  O21  1  0.881678  0.847123  0.917466  1
  O  O22  1  0.353713  0.847140  0.917465  1
  O  O23  1  0.118322  0.152877  0.082534  1
  O  O24  1  0.365911  0.401350  0.405064  1
  O  O25  1  0.172335  0.598695  0.594936  1
  O  O26  1  0.634089  0.598650  0.594936  1
  O  O27  1  0.827665  0.401305  0.405064  1
  O  O28  1  0.355670  0.863030  0.425700  1
  O  O29  1  0.644330  0.136970  0.574300  1
