# generated using pymatgen
data_AsS6N5F6
_symmetry_space_group_name_H-M   'P 1'
_cell_length_a   12.68852132
_cell_length_b   12.68852166
_cell_length_c   17.26017212
_cell_angle_alpha   84.59565792
_cell_angle_beta   84.59565776
_cell_angle_gamma   89.28129333
_symmetry_Int_Tables_number   1
_chemical_formula_structural   AsS6N5F6
_chemical_formula_sum   'As8 S48 N40 F48'
_cell_volume   2754.19412002
_cell_formula_units_Z   8
loop_
 _symmetry_equiv_pos_site_id
 _symmetry_equiv_pos_as_xyz
  1  'x, y, z'
loop_
 _atom_site_type_symbol
 _atom_site_label
 _atom_site_symmetry_multiplicity
 _atom_site_fract_x
 _atom_site_fract_y
 _atom_site_fract_z
 _atom_site_occupancy
  As  As0  1  0.243771  0.919355  0.058742  1
  As  As1  1  0.421672  0.236234  0.564734  1
  As  As2  1  0.756229  0.080645  0.941258  1
  As  As3  1  0.763766  0.578328  0.935266  1
  As  As4  1  0.236234  0.421672  0.064734  1
  As  As5  1  0.080645  0.756229  0.441258  1
  As  As6  1  0.919355  0.243771  0.558742  1
  As  As7  1  0.578328  0.763766  0.435266  1
  S  S8  1  0.689730  0.531820  0.278925  1
  S  S9  1  0.212999  0.537178  0.284958  1
  S  S10  1  0.340424  0.056744  0.387732  1
  S  S11  1  0.056744  0.340424  0.887732  1
  S  S12  1  0.842505  0.806386  0.095342  1
  S  S13  1  0.309113  0.847222  0.603271  1
  S  S14  1  0.847222  0.309113  0.103271  1
  S  S15  1  0.057250  0.842154  0.892137  1
  S  S16  1  0.806386  0.842505  0.595342  1
  S  S17  1  0.942750  0.157846  0.107863  1
  S  S18  1  0.468180  0.310270  0.221075  1
  S  S19  1  0.659747  0.530433  0.599624  1
  S  S20  1  0.659576  0.943256  0.612268  1
  S  S21  1  0.530433  0.659747  0.099624  1
  S  S22  1  0.531820  0.689730  0.778925  1
  S  S23  1  0.527192  0.163753  0.117428  1
  S  S24  1  0.163753  0.527192  0.617428  1
  S  S25  1  0.472808  0.836247  0.882572  1
  S  S26  1  0.719456  0.024730  0.273511  1
  S  S27  1  0.787001  0.462822  0.715042  1
  S  S28  1  0.836247  0.472808  0.382572  1
  S  S29  1  0.373390  0.191137  0.904992  1
  S  S30  1  0.469567  0.340253  0.900376  1
  S  S31  1  0.029708  0.197601  0.781034  1
  S  S32  1  0.943256  0.659576  0.112268  1
  S  S33  1  0.157495  0.193614  0.904658  1
  S  S34  1  0.369118  0.689891  0.900163  1
  S  S35  1  0.193614  0.157495  0.404658  1
  S  S36  1  0.537178  0.212999  0.784958  1
  S  S37  1  0.975270  0.280544  0.226489  1
  S  S38  1  0.808863  0.626610  0.595008  1
  S  S39  1  0.802399  0.970292  0.718966  1
  S  S40  1  0.310109  0.630882  0.599837  1
  S  S41  1  0.626610  0.808863  0.095008  1
  S  S42  1  0.310270  0.468180  0.721075  1
  S  S43  1  0.197601  0.029708  0.281034  1
  S  S44  1  0.462822  0.787001  0.215042  1
  S  S45  1  0.970292  0.802399  0.218966  1
  S  S46  1  0.280544  0.975270  0.726489  1
  S  S47  1  0.024730  0.719456  0.773511  1
  S  S48  1  0.630882  0.310109  0.099837  1
  S  S49  1  0.191137  0.373390  0.404992  1
  S  S50  1  0.157846  0.942750  0.607863  1
  S  S51  1  0.689891  0.369118  0.400163  1
  S  S52  1  0.340253  0.469567  0.400376  1
  S  S53  1  0.842154  0.057250  0.392137  1
  S  S54  1  0.152778  0.690887  0.896729  1
  S  S55  1  0.690887  0.152778  0.396729  1
  N  N56  1  0.765815  0.728750  0.641470  1
  N  N57  1  0.267917  0.731705  0.852704  1
  N  N58  1  0.310913  0.009923  0.309421  1
  N  N59  1  0.902409  0.867865  0.157133  1
  N  N60  1  0.732083  0.268295  0.147296  1
  N  N61  1  0.357524  0.909120  0.670312  1
  N  N62  1  0.321511  0.541634  0.321282  1
  N  N63  1  0.860860  0.545149  0.659525  1
  N  N64  1  0.268295  0.732083  0.647296  1
  N  N65  1  0.990890  0.172641  0.188881  1
  N  N66  1  0.090880  0.642476  0.829688  1
  N  N67  1  0.271250  0.234185  0.858530  1
  N  N68  1  0.552880  0.373403  0.160127  1
  N  N69  1  0.990077  0.689087  0.190579  1
  N  N70  1  0.909120  0.357524  0.170312  1
  N  N71  1  0.097591  0.132135  0.842867  1
  N  N72  1  0.132135  0.097591  0.342867  1
  N  N73  1  0.458008  0.196228  0.194149  1
  N  N74  1  0.642476  0.090880  0.329688  1
  N  N75  1  0.541634  0.321511  0.821282  1
  N  N76  1  0.009923  0.310913  0.809421  1
  N  N77  1  0.626597  0.447120  0.339873  1
  N  N78  1  0.172641  0.990890  0.688881  1
  N  N79  1  0.139140  0.454851  0.340475  1
  N  N80  1  0.541992  0.803772  0.805851  1
  N  N81  1  0.373403  0.552880  0.660127  1
  N  N82  1  0.009110  0.827359  0.811119  1
  N  N83  1  0.447120  0.626597  0.839873  1
  N  N84  1  0.458366  0.678489  0.178718  1
  N  N85  1  0.196228  0.458008  0.694149  1
  N  N86  1  0.454851  0.139140  0.840475  1
  N  N87  1  0.827359  0.009110  0.311119  1
  N  N88  1  0.545149  0.860860  0.159525  1
  N  N89  1  0.678489  0.458366  0.678718  1
  N  N90  1  0.234185  0.271250  0.358530  1
  N  N91  1  0.803772  0.541992  0.305851  1
  N  N92  1  0.728750  0.765815  0.141470  1
  N  N93  1  0.867865  0.902409  0.657133  1
  N  N94  1  0.689087  0.990077  0.690579  1
  N  N95  1  0.731705  0.267917  0.352704  1
  F  F96  1  0.984767  0.668147  0.417151  1
  F  F97  1  0.255716  0.973766  0.959253  1
  F  F98  1  0.868017  0.660182  0.958116  1
  F  F99  1  0.997185  0.865768  0.420094  1
  F  F100  1  0.744284  0.026234  0.040746  1
  F  F101  1  0.155811  0.821325  0.033713  1
  F  F102  1  0.647323  0.166593  0.964205  1
  F  F103  1  0.634148  0.780234  0.336703  1
  F  F104  1  0.143799  0.522422  0.086418  1
  F  F105  1  0.821325  0.155811  0.533713  1
  F  F106  1  0.331853  0.015233  0.082849  1
  F  F107  1  0.671068  0.681017  0.957820  1
  F  F108  1  0.252756  0.473892  0.964818  1
  F  F109  1  0.522422  0.143799  0.586418  1
  F  F110  1  0.352677  0.833407  0.035795  1
  F  F111  1  0.668147  0.984767  0.917151  1
  F  F112  1  0.477578  0.856201  0.413582  1
  F  F113  1  0.499070  0.658577  0.413752  1
  F  F114  1  0.138726  0.767641  0.343274  1
  F  F115  1  0.339818  0.131983  0.541884  1
  F  F116  1  0.780234  0.634148  0.836703  1
  F  F117  1  0.861274  0.232359  0.656726  1
  F  F118  1  0.856201  0.477578  0.913582  1
  F  F119  1  0.166593  0.647323  0.464205  1
  F  F120  1  0.660182  0.868017  0.458116  1
  F  F121  1  0.767641  0.138726  0.843274  1
  F  F122  1  0.865768  0.997185  0.920094  1
  F  F123  1  0.318983  0.328932  0.542180  1
  F  F124  1  0.473892  0.252756  0.464818  1
  F  F125  1  0.002815  0.134232  0.579906  1
  F  F126  1  0.681017  0.671068  0.457820  1
  F  F127  1  0.973766  0.255716  0.459253  1
  F  F128  1  0.526108  0.747244  0.535182  1
  F  F129  1  0.015233  0.331853  0.582849  1
  F  F130  1  0.178675  0.844189  0.466287  1
  F  F131  1  0.131983  0.339818  0.041884  1
  F  F132  1  0.341423  0.500930  0.086248  1
  F  F133  1  0.747244  0.526108  0.035182  1
  F  F134  1  0.658577  0.499070  0.913752  1
  F  F135  1  0.219766  0.365852  0.163297  1
  F  F136  1  0.134232  0.002815  0.079906  1
  F  F137  1  0.365852  0.219766  0.663297  1
  F  F138  1  0.500930  0.341423  0.586248  1
  F  F139  1  0.833407  0.352677  0.535795  1
  F  F140  1  0.844189  0.178675  0.966287  1
  F  F141  1  0.328932  0.318983  0.042180  1
  F  F142  1  0.026234  0.744284  0.540747  1
  F  F143  1  0.232359  0.861274  0.156726  1
