# generated using pymatgen
data_Li7NiN4
_symmetry_space_group_name_H-M   'P 1'
_cell_length_a   9.62189848
_cell_length_b   9.62189848
_cell_length_c   9.62189848
_cell_angle_alpha   90.00000000
_cell_angle_beta   90.00000000
_cell_angle_gamma   90.00000000
_symmetry_Int_Tables_number   1
_chemical_formula_structural   Li7NiN4
_chemical_formula_sum   'Li56 Ni8 N32'
_cell_volume   890.80431310
_cell_formula_units_Z   8
loop_
 _symmetry_equiv_pos_site_id
 _symmetry_equiv_pos_as_xyz
  1  'x, y, z'
loop_
 _atom_site_type_symbol
 _atom_site_label
 _atom_site_symmetry_multiplicity
 _atom_site_fract_x
 _atom_site_fract_y
 _atom_site_fract_z
 _atom_site_occupancy
  Li  Li0  1  0.500000  0.759646  0.500000  1
  Li  Li1  1  0.758530  0.006379  0.248402  1
  Li  Li2  1  0.244349  0.755651  0.755651  1
  Li  Li3  1  0.000000  0.740354  -0.000000  1
  Li  Li4  1  0.241470  0.993621  0.248402  1
  Li  Li5  1  0.755651  0.755651  0.244349  1
  Li  Li6  1  0.000000  -0.000000  0.740354  1
  Li  Li7  1  0.506379  0.741470  0.251598  1
  Li  Li8  1  0.500000  0.240354  0.500000  1
  Li  Li9  1  0.258530  0.251598  0.493621  1
  Li  Li10  1  0.500000  -0.000000  0.500000  1
  Li  Li11  1  0.748402  0.493621  0.741470  1
  Li  Li12  1  0.759646  0.500000  0.500000  1
  Li  Li13  1  0.258530  0.748402  0.506379  1
  Li  Li14  1  0.244349  0.244349  0.244349  1
  Li  Li15  1  0.000000  0.259646  -0.000000  1
  Li  Li16  1  0.255651  0.744349  0.255651  1
  Li  Li17  1  0.250000  -0.000000  0.500000  1
  Li  Li18  1  0.500000  0.500000  -0.000000  1
  Li  Li19  1  0.255651  0.255651  0.744349  1
  Li  Li20  1  0.500000  0.500000  0.240354  1
  Li  Li21  1  0.251598  0.506379  0.741470  1
  Li  Li22  1  0.740354  -0.000000  -0.000000  1
  Li  Li23  1  0.744349  0.744349  0.744349  1
  Li  Li24  1  0.000000  0.500000  0.750000  1
  Li  Li25  1  0.748402  0.506379  0.258530  1
  Li  Li26  1  0.000000  0.500000  0.500000  1
  Li  Li27  1  0.000000  0.500000  -0.000000  1
  Li  Li28  1  0.006379  0.248402  0.758530  1
  Li  Li29  1  0.000000  -0.000000  0.259646  1
  Li  Li30  1  0.755651  0.244349  0.755651  1
  Li  Li31  1  0.248402  0.758530  0.006379  1
  Li  Li32  1  0.241470  0.006379  0.751598  1
  Li  Li33  1  0.500000  0.750000  -0.000000  1
  Li  Li34  1  0.744349  0.255651  0.255651  1
  Li  Li35  1  0.500000  0.250000  -0.000000  1
  Li  Li36  1  0.251598  0.493621  0.258530  1
  Li  Li37  1  0.248402  0.241470  0.993621  1
  Li  Li38  1  0.493621  0.258530  0.251598  1
  Li  Li39  1  0.758530  0.993621  0.751598  1
  Li  Li40  1  0.993621  0.751598  0.758530  1
  Li  Li41  1  0.751598  0.758530  0.993621  1
  Li  Li42  1  0.741470  0.251598  0.506379  1
  Li  Li43  1  0.006379  0.751598  0.241470  1
  Li  Li44  1  0.500000  0.500000  0.759646  1
  Li  Li45  1  0.000000  -0.000000  0.500000  1
  Li  Li46  1  0.500000  -0.000000  -0.000000  1
  Li  Li47  1  0.493621  0.741470  0.748402  1
  Li  Li48  1  0.751598  0.241470  0.006379  1
  Li  Li49  1  0.240354  0.500000  0.500000  1
  Li  Li50  1  0.750000  -0.000000  0.500000  1
  Li  Li51  1  0.259646  -0.000000  -0.000000  1
  Li  Li52  1  0.000000  0.500000  0.250000  1
  Li  Li53  1  0.993621  0.248402  0.241470  1
  Li  Li54  1  0.506379  0.258530  0.748402  1
  Li  Li55  1  0.741470  0.748402  0.493621  1
  Ni  Ni56  1  0.500000  0.500000  0.500000  1
  Ni  Ni57  1  0.000000  -0.000000  -0.000000  1
  Ni  Ni58  1  0.500000  -0.000000  0.750000  1
  Ni  Ni59  1  0.250000  0.500000  -0.000000  1
  Ni  Ni60  1  0.500000  -0.000000  0.250000  1
  Ni  Ni61  1  0.000000  0.750000  0.500000  1
  Ni  Ni62  1  0.000000  0.250000  0.500000  1
  Ni  Ni63  1  0.750000  0.500000  -0.000000  1
  N  N64  1  0.859199  0.387433  0.118940  1
  N  N65  1  0.140801  0.387433  0.881060  1
  N  N66  1  0.112349  0.112349  0.112349  1
  N  N67  1  0.612349  0.387651  0.387651  1
  N  N68  1  0.618940  0.112567  0.640801  1
  N  N69  1  0.112567  0.640801  0.618940  1
  N  N70  1  0.881060  0.140801  0.387433  1
  N  N71  1  0.881060  0.859199  0.612567  1
  N  N72  1  0.387651  0.612349  0.387651  1
  N  N73  1  0.887651  0.887651  0.112349  1
  N  N74  1  0.381060  0.887433  0.640801  1
  N  N75  1  0.612349  0.612349  0.612349  1
  N  N76  1  0.859199  0.612567  0.881060  1
  N  N77  1  0.381060  0.112567  0.359199  1
  N  N78  1  0.887433  0.359199  0.618940  1
  N  N79  1  0.112349  0.887651  0.887651  1
  N  N80  1  0.387433  0.118940  0.859199  1
  N  N81  1  0.640801  0.618940  0.112567  1
  N  N82  1  0.640801  0.381060  0.887433  1
  N  N83  1  0.118940  0.859199  0.387433  1
  N  N84  1  0.887651  0.112349  0.887651  1
  N  N85  1  0.618940  0.887433  0.359199  1
  N  N86  1  0.118940  0.140801  0.612567  1
  N  N87  1  0.887433  0.640801  0.381060  1
  N  N88  1  0.359199  0.618940  0.887433  1
  N  N89  1  0.612567  0.118940  0.140801  1
  N  N90  1  0.140801  0.612567  0.118940  1
  N  N91  1  0.387651  0.387651  0.612349  1
  N  N92  1  0.612567  0.881060  0.859199  1
  N  N93  1  0.359199  0.381060  0.112567  1
  N  N94  1  0.387433  0.881060  0.140801  1
  N  N95  1  0.112567  0.359199  0.381060  1
