# generated using pymatgen
data_EuZr6(PO4)9
_symmetry_space_group_name_H-M   'P 1'
_cell_length_a   8.97278190
_cell_length_b   8.97278182
_cell_length_c   23.12320076
_cell_angle_alpha   90.00000000
_cell_angle_beta   90.00000000
_cell_angle_gamma   120.00000028
_symmetry_Int_Tables_number   1
_chemical_formula_structural   EuZr6(PO4)9
_chemical_formula_sum   'Eu2 Zr12 P18 O72'
_cell_volume   1612.25153727
_cell_formula_units_Z   2
loop_
 _symmetry_equiv_pos_site_id
 _symmetry_equiv_pos_as_xyz
  1  'x, y, z'
loop_
 _atom_site_type_symbol
 _atom_site_label
 _atom_site_symmetry_multiplicity
 _atom_site_fract_x
 _atom_site_fract_y
 _atom_site_fract_z
 _atom_site_occupancy
  Eu  Eu0  1  0.000000  0.000000  0.500000  1
  Eu  Eu1  1  0.000000  0.000000  0.000000  1
  Zr  Zr2  1  0.666667  0.333333  0.971459  1
  Zr  Zr3  1  0.000000  0.000000  0.149282  1
  Zr  Zr4  1  0.333333  0.666667  0.311305  1
  Zr  Zr5  1  0.666667  0.333333  0.471459  1
  Zr  Zr6  1  0.666667  0.333333  0.688695  1
  Zr  Zr7  1  0.666667  0.333333  0.188695  1
  Zr  Zr8  1  0.333333  0.666667  0.528541  1
  Zr  Zr9  1  0.333333  0.666667  0.811305  1
  Zr  Zr10  1  0.000000  0.000000  0.649282  1
  Zr  Zr11  1  0.000000  0.000000  0.850718  1
  Zr  Zr12  1  0.333333  0.666667  0.028541  1
  Zr  Zr13  1  0.000000  0.000000  0.350718  1
  P  P14  1  0.709606  0.709606  0.250000  1
  P  P15  1  0.053600  0.376244  0.919959  1
  P  P16  1  0.946400  0.623756  0.080041  1
  P  P17  1  0.709606  0.000000  0.750000  1
  P  P18  1  0.677356  0.623756  0.580041  1
  P  P19  1  0.322644  0.946400  0.919959  1
  P  P20  1  0.290394  0.000000  0.250000  1
  P  P21  1  0.677356  0.053600  0.080041  1
  P  P22  1  0.376244  0.053600  0.580041  1
  P  P23  1  0.623756  0.946400  0.419959  1
  P  P24  1  0.322644  0.376244  0.419959  1
  P  P25  1  0.053600  0.677356  0.419959  1
  P  P26  1  0.946400  0.322644  0.580041  1
  P  P27  1  0.376244  0.322644  0.080041  1
  P  P28  1  0.290394  0.290394  0.750000  1
  P  P29  1  0.623756  0.677356  0.919959  1
  P  P30  1  1.000000  0.290394  0.250000  1
  P  P31  1  0.000000  0.709606  0.750000  1
  O  O32  1  0.328422  0.854354  0.865113  1
  O  O33  1  0.841111  0.307712  0.240379  1
  O  O34  1  0.460284  0.299672  0.025349  1
  O  O35  1  0.160612  0.460284  0.974651  1
  O  O36  1  0.969993  0.796212  0.803598  1
  O  O37  1  0.161690  0.188393  0.417642  1
  O  O38  1  0.811607  0.838310  0.917642  1
  O  O39  1  0.158889  0.692288  0.759621  1
  O  O40  1  0.854354  0.328422  0.634887  1
  O  O41  1  0.539716  0.700328  0.974651  1
  O  O42  1  0.796212  0.826218  0.196402  1
  O  O43  1  0.838310  0.026703  0.082358  1
  O  O44  1  0.299672  0.839388  0.974651  1
  O  O45  1  0.361145  0.875318  0.576094  1
  O  O46  1  0.854354  0.525932  0.134887  1
  O  O47  1  0.203788  0.173782  0.803598  1
  O  O48  1  0.361145  0.485827  0.076094  1
  O  O49  1  0.328422  0.474068  0.365113  1
  O  O50  1  0.307712  0.466601  0.759621  1
  O  O51  1  0.466601  0.158889  0.240379  1
  O  O52  1  0.525932  0.854354  0.365113  1
  O  O53  1  0.514173  0.875318  0.076094  1
  O  O54  1  0.466601  0.307712  0.740379  1
  O  O55  1  0.525932  0.671578  0.865113  1
  O  O56  1  0.700328  0.539716  0.525349  1
  O  O57  1  0.161690  0.973297  0.917642  1
  O  O58  1  0.145646  0.671578  0.365113  1
  O  O59  1  0.514173  0.638855  0.576094  1
  O  O60  1  0.203788  0.030007  0.303598  1
  O  O61  1  0.875318  0.361145  0.923906  1
  O  O62  1  0.700328  0.160612  0.025349  1
  O  O63  1  0.638855  0.514173  0.923906  1
  O  O64  1  0.826218  0.796212  0.303598  1
  O  O65  1  0.638855  0.124682  0.423906  1
  O  O66  1  0.533399  0.692288  0.259621  1
  O  O67  1  0.841111  0.533399  0.740379  1
  O  O68  1  0.188393  0.161690  0.082358  1
  O  O69  1  0.973297  0.161690  0.582358  1
  O  O70  1  0.796212  0.969993  0.696402  1
  O  O71  1  0.026703  0.188393  0.917642  1
  O  O72  1  0.485827  0.361145  0.423906  1
  O  O73  1  0.474068  0.145646  0.634887  1
  O  O74  1  0.124682  0.638855  0.076094  1
  O  O75  1  0.811607  0.973297  0.417642  1
  O  O76  1  0.188393  0.026703  0.582358  1
  O  O77  1  0.474068  0.328422  0.134887  1
  O  O78  1  0.485827  0.124682  0.923906  1
  O  O79  1  0.173782  0.969993  0.196402  1
  O  O80  1  0.533399  0.841111  0.759621  1
  O  O81  1  0.692288  0.533399  0.240379  1
  O  O82  1  0.973297  0.811607  0.082358  1
  O  O83  1  0.030007  0.203788  0.196402  1
  O  O84  1  0.160612  0.700328  0.474651  1
  O  O85  1  0.124682  0.485827  0.576094  1
  O  O86  1  0.145646  0.474068  0.865113  1
  O  O87  1  0.692288  0.158889  0.740379  1
  O  O88  1  0.969993  0.173782  0.303598  1
  O  O89  1  0.671578  0.145646  0.134887  1
  O  O90  1  0.839388  0.299672  0.525349  1
  O  O91  1  0.839388  0.539716  0.025349  1
  O  O92  1  0.173782  0.203788  0.696402  1
  O  O93  1  0.875318  0.514173  0.423906  1
  O  O94  1  0.826218  0.030007  0.803598  1
  O  O95  1  0.030007  0.826218  0.696402  1
  O  O96  1  0.307712  0.841111  0.259621  1
  O  O97  1  0.299672  0.460284  0.474651  1
  O  O98  1  0.026703  0.838310  0.417642  1
  O  O99  1  0.539716  0.839388  0.474651  1
  O  O100  1  0.671578  0.525932  0.634887  1
  O  O101  1  0.158889  0.466601  0.259621  1
  O  O102  1  0.838310  0.811607  0.582358  1
  O  O103  1  0.460284  0.160612  0.525349  1
