# generated using pymatgen
data_Na3Cr2(PS4)3
_symmetry_space_group_name_H-M   'P 1'
_cell_length_a   9.85716139
_cell_length_b   11.44242031
_cell_length_c   17.56846695
_cell_angle_alpha   90.00000000
_cell_angle_beta   94.48296472
_cell_angle_gamma   90.00000000
_symmetry_Int_Tables_number   1
_chemical_formula_structural   Na3Cr2(PS4)3
_chemical_formula_sum   'Na12 Cr8 P12 S48'
_cell_volume   1975.48128657
_cell_formula_units_Z   4
loop_
 _symmetry_equiv_pos_site_id
 _symmetry_equiv_pos_as_xyz
  1  'x, y, z'
loop_
 _atom_site_type_symbol
 _atom_site_label
 _atom_site_symmetry_multiplicity
 _atom_site_fract_x
 _atom_site_fract_y
 _atom_site_fract_z
 _atom_site_occupancy
  Na  Na0  1  0.003826  0.124279  0.204999  1
  Na  Na1  1  0.996174  0.875721  0.795001  1
  Na  Na2  1  0.503826  0.375721  0.704999  1
  Na  Na3  1  0.540392  0.082856  0.853356  1
  Na  Na4  1  0.496174  0.624279  0.295001  1
  Na  Na5  1  0.261120  0.082631  0.550049  1
  Na  Na6  1  0.238880  0.582631  0.949951  1
  Na  Na7  1  0.761120  0.417369  0.050049  1
  Na  Na8  1  0.459608  0.917144  0.146644  1
  Na  Na9  1  0.738880  0.917369  0.449950  1
  Na  Na10  1  0.959608  0.582856  0.646644  1
  Na  Na11  1  0.040392  0.417144  0.353356  1
  Cr  Cr12  1  0.572404  0.732208  0.788320  1
  Cr  Cr13  1  0.103062  0.220288  0.899768  1
  Cr  Cr14  1  0.927596  0.232208  0.711680  1
  Cr  Cr15  1  0.072404  0.767792  0.288320  1
  Cr  Cr16  1  0.603062  0.279712  0.399768  1
  Cr  Cr17  1  0.427596  0.267792  0.211680  1
  Cr  Cr18  1  0.396938  0.720288  0.600232  1
  Cr  Cr19  1  0.896938  0.779712  0.100232  1
  P  P20  1  0.778833  0.865973  0.250875  1
  P  P21  1  0.227295  0.738628  0.445826  1
  P  P22  1  0.305151  0.184225  0.363453  1
  P  P23  1  0.278833  0.634027  0.750875  1
  P  P24  1  0.194849  0.684225  0.136547  1
  P  P25  1  0.805151  0.315775  0.863453  1
  P  P26  1  0.221167  0.134027  0.749125  1
  P  P27  1  0.727295  0.761372  0.945826  1
  P  P28  1  0.694849  0.815775  0.636547  1
  P  P29  1  0.772705  0.261372  0.554174  1
  P  P30  1  0.272705  0.238628  0.054174  1
  P  P31  1  0.721167  0.365973  0.249125  1
  S  S32  1  0.271108  0.553901  0.645281  1
  S  S33  1  0.297328  0.107504  0.256658  1
  S  S34  1  0.098966  0.637713  0.797498  1
  S  S35  1  0.643986  0.199562  0.274177  1
  S  S36  1  0.297833  0.323760  0.953169  1
  S  S37  1  0.384531  0.350412  0.337012  1
  S  S38  1  0.127192  0.190754  0.409756  1
  S  S39  1  0.797833  0.176240  0.453169  1
  S  S40  1  0.228892  0.053901  0.854719  1
  S  S41  1  0.202167  0.823760  0.546831  1
  S  S42  1  0.565673  0.435145  0.178059  1
  S  S43  1  0.434327  0.564855  0.821941  1
  S  S44  1  0.202672  0.607504  0.243342  1
  S  S45  1  0.615469  0.649588  0.662988  1
  S  S46  1  0.728892  0.446099  0.354719  1
  S  S47  1  0.901034  0.362287  0.202502  1
  S  S48  1  0.884531  0.149588  0.837012  1
  S  S49  1  0.143986  0.300438  0.774177  1
  S  S50  1  0.702672  0.892496  0.743342  1
  S  S51  1  0.401034  0.137713  0.702502  1
  S  S52  1  0.702167  0.676240  0.046831  1
  S  S53  1  0.065673  0.064855  0.678059  1
  S  S54  1  0.797328  0.392496  0.756658  1
  S  S55  1  0.771108  0.946099  0.145281  1
  S  S56  1  0.538034  0.880727  0.565453  1
  S  S57  1  0.547883  0.840170  0.904285  1
  S  S58  1  0.356014  0.800438  0.725823  1
  S  S59  1  0.961966  0.380727  0.934547  1
  S  S60  1  0.115598  0.126165  0.023891  1
  S  S61  1  0.856014  0.699562  0.225823  1
  S  S62  1  0.952117  0.340170  0.595715  1
  S  S63  1  0.115469  0.850412  0.162988  1
  S  S64  1  0.047883  0.659830  0.404285  1
  S  S65  1  0.372808  0.690754  0.090244  1
  S  S66  1  0.872808  0.809246  0.590244  1
  S  S67  1  0.598966  0.862287  0.297498  1
  S  S68  1  0.627192  0.309246  0.909756  1
  S  S69  1  0.734526  0.149557  0.640686  1
  S  S70  1  0.884402  0.873835  0.976109  1
  S  S71  1  0.461966  0.119273  0.434547  1
  S  S72  1  0.615598  0.373835  0.523891  1
  S  S73  1  0.265474  0.850443  0.359314  1
  S  S74  1  0.234526  0.350443  0.140686  1
  S  S75  1  0.038034  0.619273  0.065453  1
  S  S76  1  0.452117  0.159830  0.095715  1
  S  S77  1  0.934327  0.935145  0.321941  1
  S  S78  1  0.765474  0.649557  0.859314  1
  S  S79  1  0.384402  0.626165  0.476109  1
