# generated using pymatgen
data_Sc4Si7Ni12
_symmetry_space_group_name_H-M   'P 1'
_cell_length_a   8.00166483
_cell_length_b   11.56454634
_cell_length_c   11.56454621
_cell_angle_alpha   63.86550483
_cell_angle_beta   69.75979150
_cell_angle_gamma   69.75979115
_symmetry_Int_Tables_number   1
_chemical_formula_structural   Sc4Si7Ni12
_chemical_formula_sum   'Sc12 Si21 Ni36'
_cell_volume   877.27634929
_cell_formula_units_Z   3
loop_
 _symmetry_equiv_pos_site_id
 _symmetry_equiv_pos_as_xyz
  1  'x, y, z'
loop_
 _atom_site_type_symbol
 _atom_site_label
 _atom_site_symmetry_multiplicity
 _atom_site_fract_x
 _atom_site_fract_y
 _atom_site_fract_z
 _atom_site_occupancy
  Sc  Sc0  1  0.690966  0.809034  0.809034  1
  Sc  Sc1  1  0.309034  0.190966  0.190966  1
  Sc  Sc2  1  0.714498  0.469452  0.101553  1
  Sc  Sc3  1  0.129182  0.370818  0.370818  1
  Sc  Sc4  1  0.285502  0.530548  0.898447  1
  Sc  Sc5  1  0.870818  0.629182  0.629182  1
  Sc  Sc6  1  0.795833  0.181403  0.818597  1
  Sc  Sc7  1  0.285502  0.898447  0.530548  1
  Sc  Sc8  1  0.204167  0.818597  0.181403  1
  Sc  Sc9  1  0.714498  0.101553  0.469452  1
  Sc  Sc10  1  0.204167  0.181403  0.818597  1
  Sc  Sc11  1  0.795833  0.818597  0.181403  1
  Si  Si12  1  0.845994  0.331524  0.331524  1
  Si  Si13  1  0.767617  0.500000  0.500000  1
  Si  Si14  1  0.415087  0.676793  0.010335  1
  Si  Si15  1  0.500000  0.674102  0.325898  1
  Si  Si16  1  0.116584  0.166303  0.600529  1
  Si  Si17  1  0.490958  0.331524  0.331524  1
  Si  Si18  1  0.415087  0.010335  0.676793  1
  Si  Si19  1  0.116584  0.600529  0.166303  1
  Si  Si20  1  0.102216  0.323207  0.989665  1
  Si  Si21  1  0.883416  0.399471  0.833697  1
  Si  Si22  1  0.154006  0.668476  0.668476  1
  Si  Si23  1  0.232383  0.500000  0.500000  1
  Si  Si24  1  0.897784  0.676793  0.010335  1
  Si  Si25  1  0.000000  0.000000  0.000000  1
  Si  Si26  1  0.584912  0.323207  0.989665  1
  Si  Si27  1  0.102216  0.989665  0.323207  1
  Si  Si28  1  0.883416  0.833697  0.399471  1
  Si  Si29  1  0.509042  0.668476  0.668476  1
  Si  Si30  1  0.584912  0.989665  0.323207  1
  Si  Si31  1  0.897784  0.010335  0.676793  1
  Si  Si32  1  0.500000  0.325898  0.674102  1
  Ni  Ni33  1  0.807625  0.268404  0.563555  1
  Ni  Ni34  1  0.639585  0.436445  0.731596  1
  Ni  Ni35  1  0.112773  0.986829  0.787625  1
  Ni  Ni36  1  0.887227  0.212375  0.013171  1
  Ni  Ni37  1  0.639585  0.731596  0.436445  1
  Ni  Ni38  1  0.192375  0.436445  0.731596  1
  Ni  Ni39  1  0.957750  0.209804  0.209804  1
  Ni  Ni40  1  0.807625  0.563555  0.268404  1
  Ni  Ni41  1  0.622643  0.209804  0.209804  1
  Ni  Ni42  1  1.000000  0.618341  0.381659  1
  Ni  Ni43  1  0.887227  0.013171  0.212375  1
  Ni  Ni44  1  0.580469  0.095302  0.743760  1
  Ni  Ni45  1  0.645451  0.074685  0.074685  1
  Ni  Ni46  1  0.431211  0.568789  0.568789  1
  Ni  Ni47  1  0.047746  0.126081  0.438247  1
  Ni  Ni48  1  0.360415  0.268404  0.563555  1
  Ni  Ni49  1  0.000000  0.381659  0.618341  1
  Ni  Ni50  1  0.419531  0.904698  0.256240  1
  Ni  Ni51  1  0.042250  0.790196  0.790196  1
  Ni  Ni52  1  0.112773  0.787625  0.986829  1
  Ni  Ni53  1  0.047746  0.438247  0.126081  1
  Ni  Ni54  1  0.419531  0.256240  0.904698  1
  Ni  Ni55  1  0.387926  0.438247  0.126081  1
  Ni  Ni56  1  0.377357  0.790196  0.790196  1
  Ni  Ni57  1  0.568789  0.431211  0.431211  1
  Ni  Ni58  1  0.612074  0.873919  0.561753  1
  Ni  Ni59  1  0.354549  0.925315  0.925315  1
  Ni  Ni60  1  0.360415  0.563555  0.268404  1
  Ni  Ni61  1  0.612074  0.561753  0.873919  1
  Ni  Ni62  1  0.952254  0.561753  0.873919  1
  Ni  Ni63  1  0.192375  0.731596  0.436445  1
  Ni  Ni64  1  0.387926  0.126081  0.438247  1
  Ni  Ni65  1  0.205179  0.074685  0.074685  1
  Ni  Ni66  1  0.952254  0.873919  0.561753  1
  Ni  Ni67  1  0.580469  0.743760  0.095302  1
  Ni  Ni68  1  0.794821  0.925315  0.925315  1
