# generated using pymatgen
data_CdHgC4(SeN)4
_symmetry_space_group_name_H-M   'P 1'
_cell_length_a   4.86143013
_cell_length_b   8.72212625
_cell_length_c   8.72212637
_cell_angle_alpha   85.54565987
_cell_angle_beta   73.81834312
_cell_angle_gamma   73.81833604
_symmetry_Int_Tables_number   1
_chemical_formula_structural   CdHgC4(SeN)4
_chemical_formula_sum   'Cd1 Hg1 Se4 C4 N4'
_cell_volume   341.11252275
_cell_formula_units_Z   1
loop_
 _symmetry_equiv_pos_site_id
 _symmetry_equiv_pos_as_xyz
  1  'x, y, z'
loop_
 _atom_site_type_symbol
 _atom_site_label
 _atom_site_symmetry_multiplicity
 _atom_site_fract_x
 _atom_site_fract_y
 _atom_site_fract_z
 _atom_site_occupancy
  Hg  Hg0  1  0.000000  0.000000  0.000000  1
  Cd  Cd1  1  0.750000  0.500000  0.500000  1
  Se  Se2  1  0.434496  0.028326  0.730331  1
  Se  Se3  1  0.835173  0.730331  0.971674  1
  Se  Se4  1  0.537178  0.269669  0.028326  1
  Se  Se5  1  0.193153  0.971674  0.269669  1
  N  N6  1  0.055411  0.302154  0.591069  1
  N  N7  1  0.353521  0.591069  0.697846  1
  N  N8  1  0.642435  0.408931  0.302154  1
  N  N9  1  0.948633  0.697846  0.408931  1
  C  C10  1  0.200297  0.193977  0.647706  1
  C  C11  1  0.151997  0.647706  0.806023  1
  C  C12  1  0.605726  0.352294  0.193977  1
  C  C13  1  0.041980  0.806023  0.352294  1
