# generated using pymatgen
data_Cu2H10C6S3N4
_symmetry_space_group_name_H-M   'P 1'
_cell_length_a   5.82795501
_cell_length_b   7.62109019
_cell_length_c   30.59924841
_cell_angle_alpha   90.00000000
_cell_angle_beta   90.00000000
_cell_angle_gamma   112.30692588
_symmetry_Int_Tables_number   1
_chemical_formula_structural   Cu2H10C6S3N4
_chemical_formula_sum   'Cu8 H40 C24 S12 N16'
_cell_volume   1257.36886551
_cell_formula_units_Z   4
loop_
 _symmetry_equiv_pos_site_id
 _symmetry_equiv_pos_as_xyz
  1  'x, y, z'
loop_
 _atom_site_type_symbol
 _atom_site_label
 _atom_site_symmetry_multiplicity
 _atom_site_fract_x
 _atom_site_fract_y
 _atom_site_fract_z
 _atom_site_occupancy
  Cu  Cu0  1  0.808593  0.988305  0.286220  1
  Cu  Cu1  1  0.842089  0.416680  0.040236  1
  Cu  Cu2  1  0.691407  0.511695  0.786220  1
  Cu  Cu3  1  0.657911  0.083320  0.540236  1
  Cu  Cu4  1  0.308593  0.488305  0.213780  1
  Cu  Cu5  1  0.191407  0.011695  0.713780  1
  Cu  Cu6  1  0.342089  0.916680  0.459764  1
  Cu  Cu7  1  0.157911  0.583320  0.959764  1
  H  H8  1  0.680793  0.504026  0.345704  1
  H  H9  1  0.794995  0.213616  0.862818  1
  H  H10  1  0.180793  0.004026  0.154296  1
  H  H11  1  0.365147  0.089358  0.830456  1
  H  H12  1  0.924445  0.694597  0.592351  1
  H  H13  1  0.075555  0.305403  0.407649  1
  H  H14  1  0.134853  0.410642  0.330456  1
  H  H15  1  0.476143  0.938693  0.053207  1
  H  H16  1  0.023857  0.561307  0.553207  1
  H  H17  1  0.869300  0.069648  0.902327  1
  H  H18  1  0.819207  0.995974  0.845704  1
  H  H19  1  0.784154  0.036611  0.074350  1
  H  H20  1  0.705005  0.286384  0.362818  1
  H  H21  1  0.284154  0.536611  0.425650  1
  H  H22  1  0.424445  0.194597  0.907649  1
  H  H23  1  0.865147  0.589358  0.669544  1
  H  H24  1  0.205005  0.786384  0.137182  1
  H  H25  1  0.575555  0.805403  0.092351  1
  H  H26  1  0.523857  0.061307  0.946793  1
  H  H27  1  0.971775  0.326373  0.609268  1
  H  H28  1  0.715846  0.463389  0.574350  1
  H  H29  1  0.412521  0.877818  0.815599  1
  H  H30  1  0.912521  0.377818  0.684401  1
  H  H31  1  0.976143  0.438693  0.446793  1
  H  H32  1  0.319207  0.495974  0.654296  1
  H  H33  1  0.587479  0.122182  0.184401  1
  H  H34  1  0.528225  0.173627  0.109268  1
  H  H35  1  0.650579  0.359958  0.651523  1
  H  H36  1  0.294995  0.713616  0.637182  1
  H  H37  1  0.150579  0.859958  0.848477  1
  H  H38  1  0.369300  0.569648  0.597673  1
  H  H39  1  0.634853  0.910642  0.169544  1
  H  H40  1  0.471775  0.826373  0.890732  1
  H  H41  1  0.215845  0.963389  0.925650  1
  H  H42  1  0.130700  0.930352  0.097673  1
  H  H43  1  0.849421  0.140042  0.151523  1
  H  H44  1  0.630700  0.430352  0.402327  1
  H  H45  1  0.028225  0.673627  0.390732  1
  H  H46  1  0.349421  0.640042  0.348477  1
  H  H47  1  0.087479  0.622182  0.315599  1
  C  C48  1  0.124729  0.393146  0.763517  1
  C  C49  1  0.303325  0.284603  0.010670  1
  C  C50  1  0.844261  0.446623  0.658975  1
  C  C51  1  0.734690  0.431836  0.372415  1
  C  C52  1  0.375271  0.106854  0.263517  1
  C  C53  1  0.624729  0.893146  0.736483  1
  C  C54  1  0.803325  0.784603  0.489330  1
  C  C55  1  0.287959  0.060733  0.613007  1
  C  C56  1  0.344261  0.946623  0.841025  1
  C  C57  1  0.408454  0.052787  0.918059  1
  C  C58  1  0.908454  0.552787  0.581941  1
  C  C59  1  0.155739  0.553377  0.341025  1
  C  C60  1  0.655739  0.053377  0.158975  1
  C  C61  1  0.196675  0.215397  0.510670  1
  C  C62  1  0.787959  0.560733  0.886993  1
  C  C63  1  0.591546  0.947213  0.081941  1
  C  C64  1  0.265310  0.568164  0.627585  1
  C  C65  1  0.212041  0.439267  0.113007  1
  C  C66  1  0.765310  0.068164  0.872415  1
  C  C67  1  0.234690  0.931836  0.127585  1
  C  C68  1  0.696675  0.715397  0.989330  1
  C  C69  1  0.875271  0.606854  0.236483  1
  C  C70  1  0.712041  0.939267  0.386993  1
  C  C71  1  0.091546  0.447213  0.418059  1
  S  S72  1  0.148776  0.162745  0.244045  1
  S  S73  1  0.949542  0.961069  0.355375  1
  S  S74  1  0.040287  0.264465  0.987424  1
  S  S75  1  0.540287  0.764465  0.512576  1
  S  S76  1  0.050458  0.038931  0.644625  1
  S  S77  1  0.550458  0.538931  0.855375  1
  S  S78  1  0.449542  0.461069  0.144625  1
  S  S79  1  0.851224  0.837255  0.755955  1
  S  S80  1  0.351224  0.337255  0.744045  1
  S  S81  1  0.648776  0.662745  0.255955  1
  S  S82  1  0.459713  0.235535  0.487424  1
  S  S83  1  0.959713  0.735535  0.012576  1
  N  N84  1  0.994799  0.802062  0.472844  1
  N  N85  1  0.995384  0.463444  0.618553  1
  N  N86  1  0.504616  0.036556  0.118553  1
  N  N87  1  0.005201  0.197938  0.527156  1
  N  N88  1  0.456307  0.073742  0.589766  1
  N  N89  1  0.956307  0.573742  0.910234  1
  N  N90  1  0.960877  0.433749  0.776841  1
  N  N91  1  0.043693  0.426258  0.089766  1
  N  N92  1  0.539123  0.066251  0.276841  1
  N  N93  1  0.495384  0.963444  0.881447  1
  N  N94  1  0.039123  0.566251  0.223159  1
  N  N95  1  0.543693  0.926258  0.410234  1
  N  N96  1  0.004616  0.536556  0.381447  1
  N  N97  1  0.494799  0.302062  0.027156  1
  N  N98  1  0.460877  0.933749  0.723159  1
  N  N99  1  0.505201  0.697938  0.972844  1
