# generated using pymatgen
data_SiO2
_symmetry_space_group_name_H-M   'P 1'
_cell_length_a   4.52143725
_cell_length_b   8.27191336
_cell_length_c   9.47530032
_cell_angle_alpha   90.00000000
_cell_angle_beta   90.00000000
_cell_angle_gamma   90.00000000
_symmetry_Int_Tables_number   1
_chemical_formula_structural   SiO2
_chemical_formula_sum   'Si8 O16'
_cell_volume   354.38511217
_cell_formula_units_Z   8
loop_
 _symmetry_equiv_pos_site_id
 _symmetry_equiv_pos_as_xyz
  1  'x, y, z'
loop_
 _atom_site_type_symbol
 _atom_site_label
 _atom_site_symmetry_multiplicity
 _atom_site_fract_x
 _atom_site_fract_y
 _atom_site_fract_z
 _atom_site_occupancy
  Si  Si0  1  0.451642  0.415622  0.348997  1
  Si  Si1  1  0.951642  0.584378  0.848997  1
  Si  Si2  1  0.451642  0.084378  0.151003  1
  Si  Si3  1  0.548358  0.915622  0.848997  1
  Si  Si4  1  0.548358  0.584378  0.651003  1
  Si  Si5  1  0.048358  0.415622  0.151003  1
  Si  Si6  1  0.048358  0.084378  0.348997  1
  Si  Si7  1  0.951642  0.915622  0.651003  1
  O  O8  1  0.750000  0.466467  0.750000  1
  O  O9  1  0.750000  0.398535  0.250000  1
  O  O10  1  0.250000  0.533533  0.250000  1
  O  O11  1  0.250000  0.601465  0.750000  1
  O  O12  1  0.750000  0.750000  0.613426  1
  O  O13  1  0.750000  0.101465  0.250000  1
  O  O14  1  0.250000  0.250000  0.386574  1
  O  O15  1  0.250000  0.898535  0.750000  1
  O  O16  1  0.250000  0.966467  0.250000  1
  O  O17  1  0.750000  0.750000  0.886574  1
  O  O18  1  0.500000  0.500000  0.500000  1
  O  O19  1  0.750000  0.033533  0.750000  1
  O  O20  1  0.500000  0.000000  0.000000  1
  O  O21  1  0.250000  0.250000  0.113426  1
  O  O22  1  0.000000  0.000000  0.500000  1
  O  O23  1  0.000000  0.500000  0.000000  1
