# generated using pymatgen
data_Na2Pr4Cl9O2
_symmetry_space_group_name_H-M   'P 1'
_cell_length_a   8.30739506
_cell_length_b   9.39062126
_cell_length_c   11.57029909
_cell_angle_alpha   90.00000000
_cell_angle_beta   90.00000000
_cell_angle_gamma   106.89761065
_symmetry_Int_Tables_number   1
_chemical_formula_structural   Na2Pr4Cl9O2
_chemical_formula_sum   'Na4 Pr8 Cl18 O4'
_cell_volume   863.64767643
_cell_formula_units_Z   2
loop_
 _symmetry_equiv_pos_site_id
 _symmetry_equiv_pos_as_xyz
  1  'x, y, z'
loop_
 _atom_site_type_symbol
 _atom_site_label
 _atom_site_symmetry_multiplicity
 _atom_site_fract_x
 _atom_site_fract_y
 _atom_site_fract_z
 _atom_site_occupancy
  Na  Na0  1  0.229022  0.433018  0.984728  1
  Na  Na1  1  0.770978  0.566982  0.484728  1
  Na  Na2  1  0.770978  0.566982  0.015272  1
  Na  Na3  1  0.229022  0.433018  0.515272  1
  Pr  Pr4  1  0.389280  0.164617  0.750000  1
  Pr  Pr5  1  0.278686  0.952289  0.046334  1
  Pr  Pr6  1  0.278686  0.952289  0.453666  1
  Pr  Pr7  1  0.721314  0.047711  0.546334  1
  Pr  Pr8  1  0.610720  0.835383  0.250000  1
  Pr  Pr9  1  0.721314  0.047711  0.953666  1
  Pr  Pr10  1  0.371325  0.780955  0.750000  1
  Pr  Pr11  1  0.628675  0.219045  0.250000  1
  Cl  Cl12  1  0.900125  0.315309  0.080957  1
  Cl  Cl13  1  0.107252  0.123354  0.906503  1
  Cl  Cl14  1  0.739173  0.862835  0.750000  1
  Cl  Cl15  1  0.500710  0.298873  0.997035  1
  Cl  Cl16  1  0.892748  0.876646  0.093497  1
  Cl  Cl17  1  0.099875  0.684691  0.919043  1
  Cl  Cl18  1  0.499290  0.701127  0.497035  1
  Cl  Cl19  1  0.330969  0.461147  0.750000  1
  Cl  Cl20  1  0.892748  0.876646  0.406503  1
  Cl  Cl21  1  0.240800  0.753191  0.250000  1
  Cl  Cl22  1  0.499290  0.701127  0.002965  1
  Cl  Cl23  1  0.260827  0.137165  0.250000  1
  Cl  Cl24  1  0.099875  0.684691  0.580957  1
  Cl  Cl25  1  0.759200  0.246809  0.750000  1
  Cl  Cl26  1  0.669031  0.538853  0.250000  1
  Cl  Cl27  1  0.500710  0.298873  0.502965  1
  Cl  Cl28  1  0.107252  0.123354  0.593497  1
  Cl  Cl29  1  0.900125  0.315309  0.419043  1
  O  O30  1  0.447942  0.986355  0.619480  1
  O  O31  1  0.552058  0.013645  0.380520  1
  O  O32  1  0.447942  0.986355  0.880520  1
  O  O33  1  0.552058  0.013645  0.119480  1
