# generated using pymatgen
data_BaLi2SiO4
_symmetry_space_group_name_H-M   'P 1'
_cell_length_a   8.20276791
_cell_length_b   8.20276774
_cell_length_c   10.78100694
_cell_angle_alpha   90.00000000
_cell_angle_beta   90.00000000
_cell_angle_gamma   120.00000064
_symmetry_Int_Tables_number   1
_chemical_formula_structural   BaLi2SiO4
_chemical_formula_sum   'Ba6 Li12 Si6 O24'
_cell_volume   628.21860356
_cell_formula_units_Z   6
loop_
 _symmetry_equiv_pos_site_id
 _symmetry_equiv_pos_as_xyz
  1  'x, y, z'
loop_
 _atom_site_type_symbol
 _atom_site_label
 _atom_site_symmetry_multiplicity
 _atom_site_fract_x
 _atom_site_fract_y
 _atom_site_fract_z
 _atom_site_occupancy
  Ba  Ba0  1  0.430909  0.000000  0.726100  1
  Ba  Ba1  1  0.569091  0.000000  0.226100  1
  Ba  Ba2  1  0.430909  0.430909  0.226100  1
  Ba  Ba3  1  1.000000  0.569091  0.226100  1
  Ba  Ba4  1  0.000000  0.430909  0.726100  1
  Ba  Ba5  1  0.569091  0.569091  0.726100  1
  Li  Li6  1  0.224442  0.000000  0.079415  1
  Li  Li7  1  0.733025  0.000000  0.940819  1
  Li  Li8  1  0.000000  0.224442  0.079415  1
  Li  Li9  1  1.000000  0.733025  0.940819  1
  Li  Li10  1  0.775558  0.000000  0.579415  1
  Li  Li11  1  0.733025  0.733025  0.440819  1
  Li  Li12  1  1.000000  0.775558  0.579415  1
  Li  Li13  1  0.224442  0.224442  0.579415  1
  Li  Li14  1  0.000000  0.266975  0.440819  1
  Li  Li15  1  0.266975  0.000000  0.440819  1
  Li  Li16  1  0.266975  0.266975  0.940819  1
  Li  Li17  1  0.775558  0.775558  0.079415  1
  Si  Si18  1  0.666667  0.333333  0.982305  1
  Si  Si19  1  0.333333  0.666667  0.982305  1
  Si  Si20  1  0.000000  0.000000  0.311664  1
  Si  Si21  1  0.666667  0.333333  0.482305  1
  Si  Si22  1  0.000000  0.000000  0.811664  1
  Si  Si23  1  0.333333  0.666667  0.482305  1
  O  O24  1  0.192183  0.000000  0.265107  1
  O  O25  1  0.333333  0.666667  0.329528  1
  O  O26  1  0.192183  0.192183  0.765107  1
  O  O27  1  0.807817  0.000000  0.765107  1
  O  O28  1  0.774882  0.221891  0.033523  1
  O  O29  1  0.221891  0.447009  0.533523  1
  O  O30  1  0.447009  0.221891  0.533523  1
  O  O31  1  0.666667  0.333333  0.829528  1
  O  O32  1  0.000000  0.000000  0.969099  1
  O  O33  1  0.774882  0.552991  0.533523  1
  O  O34  1  0.225118  0.778109  0.533523  1
  O  O35  1  0.447009  0.225118  0.033523  1
  O  O36  1  0.778109  0.552991  0.033523  1
  O  O37  1  0.000000  0.807817  0.765107  1
  O  O38  1  0.221891  0.774882  0.033523  1
  O  O39  1  0.225118  0.447009  0.033523  1
  O  O40  1  1.000000  0.192183  0.265107  1
  O  O41  1  0.552991  0.774882  0.533523  1
  O  O42  1  0.807817  0.807817  0.265107  1
  O  O43  1  0.000000  0.000000  0.469099  1
  O  O44  1  0.778109  0.225118  0.533523  1
  O  O45  1  0.333333  0.666667  0.829528  1
  O  O46  1  0.666667  0.333333  0.329528  1
  O  O47  1  0.552991  0.778109  0.033523  1
