# generated using pymatgen
data_K4CO4
_symmetry_space_group_name_H-M   'P 1'
_cell_length_a   5.86101863
_cell_length_b   5.86100803
_cell_length_c   5.70076567
_cell_angle_alpha   98.83788028
_cell_angle_beta   98.83836697
_cell_angle_gamma   112.82479003
_symmetry_Int_Tables_number   1
_chemical_formula_structural   K4CO4
_chemical_formula_sum   'K4 C1 O4'
_cell_volume   173.39452104
_cell_formula_units_Z   1
loop_
 _symmetry_equiv_pos_site_id
 _symmetry_equiv_pos_as_xyz
  1  'x, y, z'
loop_
 _atom_site_type_symbol
 _atom_site_label
 _atom_site_symmetry_multiplicity
 _atom_site_fract_x
 _atom_site_fract_y
 _atom_site_fract_z
 _atom_site_occupancy
  C  C0  1  0.988554  0.988555  0.544327  1
  K  K1  1  0.330131  0.330131  0.249221  1
  O  O2  1  0.129348  0.129349  0.791057  1
  K  K3  1  0.797301  0.797300  0.041742  1
  O  O4  1  0.767192  0.767192  0.553978  1
  K  K5  1  0.128215  0.594605  0.686172  1
  O  O6  1  0.147817  0.909697  0.418212  1
  O  O7  1  0.909695  0.147817  0.418209  1
  K  K8  1  0.594607  0.128215  0.686171  1
