# generated using pymatgen
data_La2GaN3
_symmetry_space_group_name_H-M   'P 1'
_cell_length_a   5.74238857
_cell_length_b   6.19517811
_cell_length_c   12.00902596
_cell_angle_alpha   88.35353006
_cell_angle_beta   86.44562001
_cell_angle_gamma   62.38963829
_symmetry_Int_Tables_number   1
_chemical_formula_structural   La2GaN3
_chemical_formula_sum   'La8 Ga4 N12'
_cell_volume   377.84212711
_cell_formula_units_Z   4
loop_
 _symmetry_equiv_pos_site_id
 _symmetry_equiv_pos_as_xyz
  1  'x, y, z'
loop_
 _atom_site_type_symbol
 _atom_site_label
 _atom_site_symmetry_multiplicity
 _atom_site_fract_x
 _atom_site_fract_y
 _atom_site_fract_z
 _atom_site_occupancy
  La  La0  1  0.553290  0.413881  0.849255  1
  La  La1  1  0.032830  0.413881  0.650745  1
  La  La2  1  0.867599  0.788441  0.925257  1
  La  La3  1  0.343960  0.788441  0.574743  1
  La  La4  1  0.446710  0.586119  0.150745  1
  La  La5  1  0.656040  0.211559  0.425257  1
  La  La6  1  0.967170  0.586119  0.349255  1
  La  La7  1  0.132401  0.211559  0.074743  1
  Ga  Ga8  1  0.728179  0.003328  0.662458  1
  Ga  Ga9  1  0.268493  0.003328  0.837542  1
  Ga  Ga10  1  0.731507  0.996672  0.162458  1
  Ga  Ga11  1  0.271821  0.996672  0.337542  1
  N  N12  1  0.319144  0.798928  0.972987  1
  N  N13  1  0.008428  0.983145  0.250000  1
  N  N14  1  0.991572  0.016855  0.750000  1
  N  N15  1  0.600436  0.799128  0.750000  1
  N  N16  1  0.399564  0.200872  0.250000  1
  N  N17  1  0.881928  0.798928  0.527013  1
  N  N18  1  0.680856  0.201072  0.027013  1
  N  N19  1  0.504702  0.642648  0.370422  1
  N  N20  1  0.147350  0.357352  0.870422  1
  N  N21  1  0.495298  0.357352  0.629578  1
  N  N22  1  0.118072  0.201072  0.472987  1
  N  N23  1  0.852650  0.642648  0.129578  1
