# generated using pymatgen
data_LiCo5(P2O7)4
_symmetry_space_group_name_H-M   'P 1'
_cell_length_a   12.41098250
_cell_length_b   9.18492398
_cell_length_c   10.58225512
_cell_angle_alpha   63.68377811
_cell_angle_beta   85.08452924
_cell_angle_gamma   72.90927106
_symmetry_Int_Tables_number   1
_chemical_formula_structural   LiCo5(P2O7)4
_chemical_formula_sum   'Li2 Co10 P16 O56'
_cell_volume   1032.14118393
_cell_formula_units_Z   2
loop_
 _symmetry_equiv_pos_site_id
 _symmetry_equiv_pos_as_xyz
  1  'x, y, z'
loop_
 _atom_site_type_symbol
 _atom_site_label
 _atom_site_symmetry_multiplicity
 _atom_site_fract_x
 _atom_site_fract_y
 _atom_site_fract_z
 _atom_site_occupancy
  Li  Li0  1  0.250000  0.500000  0.500000  1
  Li  Li1  1  0.750000  0.500000  0.500000  1
  Co  Co2  1  0.508088  0.826464  0.985055  1
  Co  Co3  1  0.356243  0.889308  0.719879  1
  Co  Co4  1  0.314102  0.502324  0.755153  1
  Co  Co5  1  0.685363  0.496845  0.241630  1
  Co  Co6  1  0.637997  0.090828  0.286846  1
  Co  Co7  1  0.862003  0.909172  0.713154  1
  Co  Co8  1  0.185898  0.497676  0.244847  1
  Co  Co9  1  0.143757  0.110692  0.280121  1
  Co  Co10  1  0.814637  0.503155  0.758370  1
  Co  Co11  1  0.991912  0.173536  0.014945  1
  P  P12  1  0.538145  0.802520  0.287443  1
  P  P13  1  0.444730  0.445458  0.199768  1
  P  P14  1  0.449503  0.172476  0.706619  1
  P  P15  1  0.650946  0.188739  0.536326  1
  P  P16  1  0.849054  0.811261  0.463674  1
  P  P17  1  0.943164  0.441587  0.202760  1
  P  P18  1  0.292828  0.688492  0.960607  1
  P  P19  1  0.050497  0.827524  0.293381  1
  P  P20  1  0.348195  0.803796  0.465115  1
  P  P21  1  0.556836  0.558413  0.797240  1
  P  P22  1  0.151805  0.196204  0.534885  1
  P  P23  1  0.786392  0.698387  0.952272  1
  P  P24  1  0.207172  0.311508  0.039393  1
  P  P25  1  0.713608  0.301613  0.047728  1
  P  P26  1  0.055270  0.554542  0.800232  1
  P  P27  1  0.961855  0.197480  0.712557  1
  O  O28  1  0.688401  0.345068  0.439796  1
  O  O29  1  0.773766  0.684828  0.813724  1
  O  O30  1  0.725598  0.079900  0.673105  1
  O  O31  1  0.340764  0.483005  0.281821  1
  O  O32  1  0.525886  0.547537  0.193123  1
  O  O33  1  0.396101  0.524413  0.038110  1
  O  O34  1  0.152299  0.674786  0.307308  1
  O  O35  1  0.163171  0.153229  0.078047  1
  O  O36  1  0.309095  0.329250  0.951263  1
  O  O37  1  0.659037  0.539107  0.707469  1
  O  O38  1  0.457900  0.710488  0.408277  1
  O  O39  1  0.190905  0.670750  0.048737  1
  O  O40  1  0.947772  0.064041  0.674723  1
  O  O41  1  0.472870  0.481702  0.771017  1
  O  O42  1  0.417994  0.072654  0.638381  1
  O  O43  1  0.103899  0.475587  0.961890  1
  O  O44  1  0.818720  0.320253  0.956289  1
  O  O45  1  0.890368  0.544247  0.041901  1
  O  O46  1  0.965892  0.735952  0.405335  1
  O  O47  1  0.027130  0.518298  0.228983  1
  O  O48  1  0.811599  0.654932  0.560204  1
  O  O49  1  0.865472  0.918778  0.532004  1
  O  O50  1  0.336829  0.846771  0.921953  1
  O  O51  1  0.840963  0.460893  0.292531  1
  O  O52  1  0.681280  0.679747  0.043711  1
  O  O53  1  0.683969  0.136780  0.092007  1
  O  O54  1  0.774402  0.920100  0.326895  1
  O  O55  1  0.114207  0.117812  0.451727  1
  O  O56  1  0.159236  0.516995  0.718179  1
  O  O57  1  0.534108  0.264048  0.594665  1
  O  O58  1  0.001675  0.739836  0.762045  1
  O  O59  1  0.507849  0.058124  0.851945  1
  O  O60  1  0.992151  0.941876  0.148055  1
  O  O61  1  0.650755  0.662943  0.311977  1
  O  O62  1  0.082006  0.927346  0.361619  1
  O  O63  1  0.283929  0.948393  0.328342  1
  O  O64  1  0.994882  0.263394  0.205784  1
  O  O65  1  0.634528  0.081222  0.467996  1
  O  O66  1  0.347701  0.325214  0.692692  1
  O  O67  1  0.816031  0.863220  0.907993  1
  O  O68  1  0.023141  0.124984  0.855165  1
  O  O69  1  0.849245  0.337057  0.688023  1
  O  O70  1  0.552228  0.935960  0.325277  1
  O  O71  1  0.505118  0.736606  0.794216  1
  O  O72  1  0.385793  0.882188  0.548273  1
  O  O73  1  0.726234  0.315172  0.186276  1
  O  O74  1  0.294469  0.662102  0.554311  1
  O  O75  1  0.042100  0.289512  0.591723  1
  O  O76  1  0.205531  0.337898  0.445689  1
  O  O77  1  0.476859  0.875016  0.144835  1
  O  O78  1  0.609632  0.455753  0.958099  1
  O  O79  1  0.216071  0.051607  0.671658  1
  O  O80  1  0.974114  0.452463  0.806877  1
  O  O81  1  0.218850  0.300347  0.190873  1
  O  O82  1  0.498325  0.260164  0.237955  1
  O  O83  1  0.281150  0.699653  0.809127  1
