# generated using pymatgen
data_NbTe4
_symmetry_space_group_name_H-M   'P 1'
_cell_length_a   13.25104310
_cell_length_b   13.25104310
_cell_length_c   20.98175049
_cell_angle_alpha   90.00000000
_cell_angle_beta   90.00000000
_cell_angle_gamma   90.00000000
_symmetry_Int_Tables_number   1
_chemical_formula_structural   NbTe4
_chemical_formula_sum   'Nb24 Te96'
_cell_volume   3684.18857392
_cell_formula_units_Z   24
loop_
 _symmetry_equiv_pos_site_id
 _symmetry_equiv_pos_as_xyz
  1  'x, y, z'
loop_
 _atom_site_type_symbol
 _atom_site_label
 _atom_site_symmetry_multiplicity
 _atom_site_fract_x
 _atom_site_fract_y
 _atom_site_fract_z
 _atom_site_occupancy
  Nb  Nb0  1  0.500000  0.500000  0.260457  1
  Nb  Nb1  1  0.500000  0.000000  0.579943  1
  Nb  Nb2  1  0.000000  0.500000  0.733491  1
  Nb  Nb3  1  0.500000  0.500000  0.566618  1
  Nb  Nb4  1  0.000000  0.000000  0.748839  1
  Nb  Nb5  1  0.000000  0.000000  0.595583  1
  Nb  Nb6  1  0.000000  0.500000  0.232669  1
  Nb  Nb7  1  0.500000  0.500000  0.913207  1
  Nb  Nb8  1  0.500000  0.000000  0.733491  1
  Nb  Nb9  1  0.500000  0.000000  0.232669  1
  Nb  Nb10  1  0.000000  0.000000  0.400457  1
  Nb  Nb11  1  0.000000  0.000000  0.900661  1
  Nb  Nb12  1  0.000000  0.500000  0.926956  1
  Nb  Nb13  1  0.500000  0.500000  0.761340  1
  Nb  Nb14  1  0.000000  0.000000  0.095508  1
  Nb  Nb15  1  0.000000  0.500000  0.579943  1
  Nb  Nb16  1  0.000000  0.500000  0.079573  1
  Nb  Nb17  1  0.500000  0.000000  0.926956  1
  Nb  Nb18  1  0.500000  0.500000  0.412609  1
  Nb  Nb19  1  0.000000  0.000000  0.248675  1
  Nb  Nb20  1  0.500000  0.000000  0.079573  1
  Nb  Nb21  1  0.000000  0.500000  0.426648  1
  Nb  Nb22  1  0.500000  0.000000  0.426648  1
  Nb  Nb23  1  0.500000  0.500000  0.066641  1
  Te  Te24  1  0.937815  0.152994  0.498228  1
  Te  Te25  1  0.559320  0.844681  0.831027  1
  Te  Te26  1  0.844681  0.440680  0.831027  1
  Te  Te27  1  0.345056  0.059297  0.329067  1
  Te  Te28  1  0.076275  0.336379  0.160699  1
  Te  Te29  1  0.652904  0.563966  0.163013  1
  Te  Te30  1  0.421664  0.837029  0.998973  1
  Te  Te31  1  0.578183  0.337218  0.833443  1
  Te  Te32  1  0.923649  0.336574  0.661307  1
  Te  Te33  1  0.073417  0.336164  0.499754  1
  Te  Te34  1  0.155319  0.559320  0.831027  1
  Te  Te35  1  0.152994  0.062185  0.498228  1
  Te  Te36  1  0.923725  0.663621  0.160699  1
  Te  Te37  1  0.937552  0.847041  0.998293  1
  Te  Te38  1  0.578264  0.662602  0.332632  1
  Te  Te39  1  0.835479  0.571529  0.660363  1
  Te  Te40  1  0.335856  0.073331  0.999712  1
  Te  Te41  1  0.559105  0.155288  0.330248  1
  Te  Te42  1  0.567868  0.666854  0.994074  1
  Te  Te43  1  0.833719  0.930155  0.167686  1
  Te  Te44  1  0.652526  0.435957  0.663532  1
  Te  Te45  1  0.162663  0.578278  0.498935  1
  Te  Te46  1  0.847041  0.062448  0.998293  1
  Te  Te47  1  0.337398  0.578264  0.332632  1
  Te  Te48  1  0.062448  0.152959  0.998293  1
  Te  Te49  1  0.571831  0.835423  0.159765  1
  Te  Te50  1  0.563966  0.347096  0.163013  1
  Te  Te51  1  0.847006  0.937815  0.498228  1
  Te  Te52  1  0.837337  0.421722  0.498935  1
  Te  Te53  1  0.336574  0.076351  0.661307  1
  Te  Te54  1  0.921866  0.837075  0.328405  1
  Te  Te55  1  0.436034  0.652904  0.163013  1
  Te  Te56  1  0.164521  0.428471  0.660363  1
  Te  Te57  1  0.940535  0.655138  0.829671  1
  Te  Te58  1  0.428169  0.164577  0.159765  1
  Te  Te59  1  0.930155  0.166281  0.167686  1
  Te  Te60  1  0.666854  0.432132  0.994074  1
  Te  Te61  1  0.664144  0.926669  0.999712  1
  Te  Te62  1  0.663621  0.076275  0.160699  1
  Te  Te63  1  0.564043  0.652526  0.663532  1
  Te  Te64  1  0.344862  0.940535  0.829671  1
  Te  Te65  1  0.435957  0.347474  0.663532  1
  Te  Te66  1  0.421722  0.162663  0.498935  1
  Te  Te67  1  0.347096  0.436034  0.163013  1
  Te  Te68  1  0.835423  0.428169  0.159765  1
  Te  Te69  1  0.440680  0.155319  0.831027  1
  Te  Te70  1  0.567666  0.333330  0.493795  1
  Te  Te71  1  0.336379  0.923725  0.160699  1
  Te  Te72  1  0.654944  0.940703  0.329067  1
  Te  Te73  1  0.663426  0.923649  0.661307  1
  Te  Te74  1  0.926669  0.335856  0.999712  1
  Te  Te75  1  0.930256  0.833686  0.667832  1
  Te  Te76  1  0.837029  0.578336  0.998973  1
  Te  Te77  1  0.940703  0.345056  0.329067  1
  Te  Te78  1  0.152959  0.937552  0.998293  1
  Te  Te79  1  0.833686  0.069744  0.667832  1
  Te  Te80  1  0.333146  0.567868  0.994074  1
  Te  Te81  1  0.162940  0.078033  0.828632  1
  Te  Te82  1  0.837060  0.921967  0.828632  1
  Te  Te83  1  0.069845  0.833719  0.167686  1
  Te  Te84  1  0.162925  0.921866  0.328405  1
  Te  Te85  1  0.164577  0.571831  0.159765  1
  Te  Te86  1  0.662782  0.578183  0.833443  1
  Te  Te87  1  0.666670  0.567666  0.493795  1
  Te  Te88  1  0.166314  0.930256  0.667832  1
  Te  Te89  1  0.347474  0.564043  0.663532  1
  Te  Te90  1  0.162971  0.421664  0.998973  1
  Te  Te91  1  0.421817  0.662782  0.833443  1
  Te  Te92  1  0.069744  0.166314  0.667832  1
  Te  Te93  1  0.076351  0.663426  0.661307  1
  Te  Te94  1  0.078033  0.837060  0.828632  1
  Te  Te95  1  0.432132  0.333146  0.994074  1
  Te  Te96  1  0.059465  0.344862  0.829671  1
  Te  Te97  1  0.059297  0.654944  0.329067  1
  Te  Te98  1  0.333330  0.432334  0.493795  1
  Te  Te99  1  0.336164  0.926583  0.499754  1
  Te  Te100  1  0.921967  0.162940  0.828632  1
  Te  Te101  1  0.073331  0.664144  0.999712  1
  Te  Te102  1  0.166281  0.069845  0.167686  1
  Te  Te103  1  0.578336  0.162971  0.998973  1
  Te  Te104  1  0.655138  0.059465  0.829671  1
  Te  Te105  1  0.926583  0.663836  0.499754  1
  Te  Te106  1  0.062185  0.847006  0.498228  1
  Te  Te107  1  0.428471  0.835479  0.660363  1
  Te  Te108  1  0.432334  0.666670  0.493795  1
  Te  Te109  1  0.155288  0.440895  0.330248  1
  Te  Te110  1  0.662602  0.421736  0.332632  1
  Te  Te111  1  0.571529  0.164521  0.660363  1
  Te  Te112  1  0.337218  0.421817  0.833443  1
  Te  Te113  1  0.078134  0.162925  0.328405  1
  Te  Te114  1  0.837075  0.078134  0.328405  1
  Te  Te115  1  0.440895  0.844712  0.330248  1
  Te  Te116  1  0.578278  0.837337  0.498935  1
  Te  Te117  1  0.663836  0.073417  0.499754  1
  Te  Te118  1  0.844712  0.559105  0.330248  1
  Te  Te119  1  0.421736  0.337398  0.332632  1
