# generated using pymatgen
data_InBi2Se4Br
_symmetry_space_group_name_H-M   'P 1'
_cell_length_a   4.17206329
_cell_length_b   10.83216438
_cell_length_c   11.93111200
_cell_angle_alpha   65.50188238
_cell_angle_beta   79.93067582
_cell_angle_gamma   78.89675417
_symmetry_Int_Tables_number   1
_chemical_formula_structural   InBi2Se4Br
_chemical_formula_sum   'In2 Bi4 Se8 Br2'
_cell_volume   478.73934364
_cell_formula_units_Z   2
loop_
 _symmetry_equiv_pos_site_id
 _symmetry_equiv_pos_as_xyz
  1  'x, y, z'
loop_
 _atom_site_type_symbol
 _atom_site_label
 _atom_site_symmetry_multiplicity
 _atom_site_fract_x
 _atom_site_fract_y
 _atom_site_fract_z
 _atom_site_occupancy
  In  In0  1  0.162910  0.111428  0.562751  1
  In  In1  1  0.837090  0.888572  0.437249  1
  Bi  Bi2  1  0.797341  0.308396  0.096922  1
  Bi  Bi3  1  0.202659  0.691604  0.903078  1
  Bi  Bi4  1  0.549505  0.672127  0.228863  1
  Bi  Bi5  1  0.450495  0.327873  0.771137  1
  Se  Se6  1  0.039081  0.143539  0.778299  1
  Se  Se7  1  0.821928  0.499737  0.856408  1
  Se  Se8  1  0.285259  0.081236  0.348246  1
  Se  Se9  1  0.403524  0.170146  0.022807  1
  Se  Se10  1  0.596476  0.829854  0.977193  1
  Se  Se11  1  0.178072  0.500263  0.143592  1
  Se  Se12  1  0.960919  0.856461  0.221701  1
  Se  Se13  1  0.714741  0.918764  0.651754  1
  Br  Br14  1  0.602088  0.325658  0.470166  1
  Br  Br15  1  0.397912  0.674342  0.529834  1
