# generated using pymatgen
data_Ho2Ti3Si4
_symmetry_space_group_name_H-M   'P 1'
_cell_length_a   7.03980918
_cell_length_b   7.03980918
_cell_length_c   12.93214241
_cell_angle_alpha   90.00000000
_cell_angle_beta   90.00000000
_cell_angle_gamma   90.00000000
_symmetry_Int_Tables_number   1
_chemical_formula_structural   Ho2Ti3Si4
_chemical_formula_sum   'Ho8 Ti12 Si16'
_cell_volume   640.90292436
_cell_formula_units_Z   4
loop_
 _symmetry_equiv_pos_site_id
 _symmetry_equiv_pos_as_xyz
  1  'x, y, z'
loop_
 _atom_site_type_symbol
 _atom_site_label
 _atom_site_symmetry_multiplicity
 _atom_site_fract_x
 _atom_site_fract_y
 _atom_site_fract_z
 _atom_site_occupancy
  Ho  Ho0  1  0.341165  0.002619  0.466310  1
  Ho  Ho1  1  0.497381  0.841165  0.716310  1
  Ho  Ho2  1  0.502618  0.158835  0.216310  1
  Ho  Ho3  1  0.841165  0.497381  0.283690  1
  Ho  Ho4  1  0.158835  0.502618  0.783690  1
  Ho  Ho5  1  0.658835  0.997382  0.966310  1
  Ho  Ho6  1  0.002619  0.341165  0.533690  1
  Ho  Ho7  1  0.997382  0.658835  0.033690  1
  Ti  Ti8  1  0.327346  0.327346  0.000000  1
  Ti  Ti9  1  0.172654  0.827346  0.250000  1
  Ti  Ti10  1  0.827346  0.172654  0.750000  1
  Ti  Ti11  1  0.672654  0.672654  0.500000  1
  Ti  Ti12  1  0.151385  0.006997  0.876077  1
  Ti  Ti13  1  0.493003  0.651385  0.126077  1
  Ti  Ti14  1  0.506997  0.348615  0.626077  1
  Ti  Ti15  1  0.651385  0.493003  0.873923  1
  Ti  Ti16  1  0.348615  0.506997  0.373923  1
  Ti  Ti17  1  0.848615  0.993003  0.376077  1
  Ti  Ti18  1  0.006997  0.151385  0.123923  1
  Ti  Ti19  1  0.993003  0.848615  0.623923  1
  Si  Si20  1  0.202693  0.132117  0.684229  1
  Si  Si21  1  0.367883  0.702693  0.934229  1
  Si  Si22  1  0.632117  0.297307  0.434229  1
  Si  Si23  1  0.702693  0.367883  0.065771  1
  Si  Si24  1  0.297307  0.632117  0.565771  1
  Si  Si25  1  0.797307  0.867883  0.184229  1
  Si  Si26  1  0.132117  0.202693  0.315771  1
  Si  Si27  1  0.867883  0.797307  0.815771  1
  Si  Si28  1  0.290870  0.953106  0.064654  1
  Si  Si29  1  0.546894  0.790870  0.314654  1
  Si  Si30  1  0.453105  0.209130  0.814654  1
  Si  Si31  1  0.790870  0.546894  0.685346  1
  Si  Si32  1  0.209130  0.453105  0.185346  1
  Si  Si33  1  0.709130  0.046894  0.564654  1
  Si  Si34  1  0.953106  0.290870  0.935346  1
  Si  Si35  1  0.046894  0.709130  0.435346  1
