# generated using pymatgen
data_Ag3AsS3
_symmetry_space_group_name_H-M   'P 1'
_cell_length_a   6.40899416
_cell_length_b   6.88608465
_cell_length_c   16.47310931
_cell_angle_alpha   85.28417158
_cell_angle_beta   78.78278999
_cell_angle_gamma   62.26658693
_symmetry_Int_Tables_number   1
_chemical_formula_structural   Ag3AsS3
_chemical_formula_sum   'Ag12 As4 S12'
_cell_volume   631.16737653
_cell_formula_units_Z   4
loop_
 _symmetry_equiv_pos_site_id
 _symmetry_equiv_pos_as_xyz
  1  'x, y, z'
loop_
 _atom_site_type_symbol
 _atom_site_label
 _atom_site_symmetry_multiplicity
 _atom_site_fract_x
 _atom_site_fract_y
 _atom_site_fract_z
 _atom_site_occupancy
  Ag  Ag0  1  0.889685  0.940599  0.215375  1
  Ag  Ag1  1  0.545659  0.559401  0.284625  1
  Ag  Ag2  1  0.182411  0.416169  0.134259  1
  Ag  Ag3  1  0.817589  0.583831  0.865742  1
  Ag  Ag4  1  0.051175  0.807539  0.937615  1
  Ag  Ag5  1  0.703671  0.307539  0.437615  1
  Ag  Ag6  1  0.110315  0.059401  0.784625  1
  Ag  Ag7  1  0.296329  0.692461  0.562385  1
  Ag  Ag8  1  0.232839  0.083831  0.365741  1
  Ag  Ag9  1  0.948825  0.192461  0.062385  1
  Ag  Ag10  1  0.454341  0.440599  0.715375  1
  Ag  Ag11  1  0.767161  0.916169  0.634258  1
  As  As12  1  0.517788  0.784545  0.071990  1
  As  As13  1  0.874323  0.715455  0.428010  1
  As  As14  1  0.125677  0.284545  0.571990  1
  As  As15  1  0.482212  0.215455  0.928010  1
  S  S16  1  0.239925  0.723509  0.414203  1
  S  S17  1  0.252492  0.030416  0.173291  1
  S  S18  1  0.662758  0.028273  0.359212  1
  S  S19  1  0.550243  0.471727  0.140788  1
  S  S20  1  0.956199  0.469584  0.326709  1
  S  S21  1  0.337242  0.971727  0.640788  1
  S  S22  1  0.449757  0.528273  0.859212  1
  S  S23  1  0.747508  0.969584  0.826709  1
  S  S24  1  0.122363  0.223509  0.914203  1
  S  S25  1  0.877637  0.776491  0.085797  1
  S  S26  1  0.760075  0.276491  0.585797  1
  S  S27  1  0.043801  0.530416  0.673291  1
