# generated using pymatgen
data_NaLuP2O7
_symmetry_space_group_name_H-M   'P 1'
_cell_length_a   5.41513880
_cell_length_b   9.07779308
_cell_length_c   12.86705678
_cell_angle_alpha   103.12775886
_cell_angle_beta   90.00000000
_cell_angle_gamma   90.00000000
_symmetry_Int_Tables_number   1
_chemical_formula_structural   NaLuP2O7
_chemical_formula_sum   'Na4 Lu4 P8 O28'
_cell_volume   615.98241367
_cell_formula_units_Z   4
loop_
 _symmetry_equiv_pos_site_id
 _symmetry_equiv_pos_as_xyz
  1  'x, y, z'
loop_
 _atom_site_type_symbol
 _atom_site_label
 _atom_site_symmetry_multiplicity
 _atom_site_fract_x
 _atom_site_fract_y
 _atom_site_fract_z
 _atom_site_occupancy
  Na  Na0  1  0.228126  0.636942  0.191935  1
  Na  Na1  1  0.771874  0.363058  0.808065  1
  Na  Na2  1  0.271874  0.136942  0.691935  1
  Na  Na3  1  0.728126  0.863058  0.308065  1
  Lu  Lu4  1  0.737384  0.269927  0.525504  1
  Lu  Lu5  1  0.237384  0.230073  0.974496  1
  Lu  Lu6  1  0.262616  0.730073  0.474496  1
  Lu  Lu7  1  0.762616  0.769927  0.025504  1
  P  P8  1  0.750020  0.026321  0.847600  1
  P  P9  1  0.278087  0.569264  0.883029  1
  P  P10  1  0.249980  0.973679  0.152400  1
  P  P11  1  0.721913  0.430736  0.116971  1
  P  P12  1  0.778087  0.930736  0.616971  1
  P  P13  1  0.250020  0.473679  0.652400  1
  P  P14  1  0.749980  0.526321  0.347600  1
  P  P15  1  0.221913  0.069264  0.383029  1
  O  O16  1  0.533925  0.139411  0.855036  1
  O  O17  1  0.888277  0.319409  0.042932  1
  O  O18  1  0.223489  0.597511  0.764772  1
  O  O19  1  0.762178  0.435601  0.432692  1
  O  O20  1  0.946499  0.098562  0.407978  1
  O  O21  1  0.290433  0.903104  0.376169  1
  O  O22  1  0.002578  0.892461  0.157468  1
  O  O23  1  0.709567  0.096896  0.623831  1
  O  O24  1  0.997422  0.107539  0.842532  1
  O  O25  1  0.237822  0.564399  0.567308  1
  O  O26  1  0.723489  0.902489  0.735228  1
  O  O27  1  0.388277  0.180591  0.457068  1
  O  O28  1  0.276511  0.097511  0.264772  1
  O  O29  1  0.446499  0.401438  0.092022  1
  O  O30  1  0.776511  0.402489  0.235228  1
  O  O31  1  0.053501  0.901438  0.592022  1
  O  O32  1  0.611723  0.819409  0.542932  1
  O  O33  1  0.466075  0.860589  0.144964  1
  O  O34  1  0.497422  0.392461  0.657468  1
  O  O35  1  0.553501  0.598562  0.907978  1
  O  O36  1  0.790433  0.596896  0.123831  1
  O  O37  1  0.033925  0.360589  0.644964  1
  O  O38  1  0.262178  0.064399  0.067308  1
  O  O39  1  0.737822  0.935601  0.932692  1
  O  O40  1  0.111723  0.680591  0.957068  1
  O  O41  1  0.966075  0.639411  0.355036  1
  O  O42  1  0.502578  0.607539  0.342532  1
  O  O43  1  0.209567  0.403104  0.876169  1
