# generated using pymatgen
data_KLa(PO3)4
_symmetry_space_group_name_H-M   'P 1'
_cell_length_a   7.40810786
_cell_length_b   8.19082401
_cell_length_c   8.65512388
_cell_angle_alpha   90.00000000
_cell_angle_beta   90.00000000
_cell_angle_gamma   91.99361876
_symmetry_Int_Tables_number   1
_chemical_formula_structural   KLa(PO3)4
_chemical_formula_sum   'K2 La2 P8 O24'
_cell_volume   524.86211382
_cell_formula_units_Z   2
loop_
 _symmetry_equiv_pos_site_id
 _symmetry_equiv_pos_as_xyz
  1  'x, y, z'
loop_
 _atom_site_type_symbol
 _atom_site_label
 _atom_site_symmetry_multiplicity
 _atom_site_fract_x
 _atom_site_fract_y
 _atom_site_fract_z
 _atom_site_occupancy
  La  La0  1  0.234503  0.242244  0.248101  1
  La  La1  1  0.765497  0.757756  0.748101  1
  K  K2  1  0.727074  0.281289  0.055301  1
  K  K3  1  0.272926  0.718711  0.555301  1
  P  P4  1  0.896255  0.892782  0.323976  1
  P  P5  1  0.103745  0.107218  0.823976  1
  P  P6  1  0.566109  0.900398  0.124586  1
  P  P7  1  0.433891  0.099602  0.624586  1
  P  P8  1  0.623586  0.394141  0.495285  1
  P  P9  1  0.376414  0.605859  0.995285  1
  P  P10  1  0.998153  0.619070  0.100764  1
  P  P11  1  0.001847  0.380930  0.600764  1
  O  O12  1  0.914818  0.822192  0.482741  1
  O  O13  1  0.085182  0.177808  0.982741  1
  O  O14  1  0.686465  0.868359  0.277100  1
  O  O15  1  0.313535  0.131641  0.777100  1
  O  O16  1  0.007555  0.783049  0.203203  1
  O  O17  1  0.992445  0.216951  0.703203  1
  O  O18  1  0.831583  0.612091  0.001690  1
  O  O19  1  0.168417  0.387909  0.501690  1
  O  O20  1  0.316865  0.075135  0.484458  1
  O  O21  1  0.683135  0.924865  0.984458  1
  O  O22  1  0.439689  0.035661  0.158146  1
  O  O23  1  0.560311  0.964339  0.658146  1
  O  O24  1  0.030053  0.472778  0.200702  1
  O  O25  1  0.969947  0.527222  0.700702  1
  O  O26  1  0.167858  0.656013  0.988156  1
  O  O27  1  0.832142  0.343987  0.488156  1
  O  O28  1  0.453909  0.728386  0.128775  1
  O  O29  1  0.546091  0.271614  0.628775  1
  O  O30  1  0.541068  0.348683  0.342429  1
  O  O31  1  0.458932  0.651317  0.842429  1
  O  O32  1  0.960000  0.066133  0.293421  1
  O  O33  1  0.040000  0.933867  0.793421  1
  O  O34  1  0.389634  0.434605  0.054367  1
  O  O35  1  0.610366  0.565395  0.554367  1
