# generated using pymatgen
data_Zr2(Co7B2)3
_symmetry_space_group_name_H-M   'P 1'
_cell_length_a   7.48408280
_cell_length_b   7.48408283
_cell_length_c   7.48408312
_cell_angle_alpha   60.00000313
_cell_angle_beta   60.00000302
_cell_angle_gamma   59.99999957
_symmetry_Int_Tables_number   1
_chemical_formula_structural   Zr2(Co7B2)3
_chemical_formula_sum   'Zr2 Co21 B6'
_cell_volume   296.41541993
_cell_formula_units_Z   1
loop_
 _symmetry_equiv_pos_site_id
 _symmetry_equiv_pos_as_xyz
  1  'x, y, z'
loop_
 _atom_site_type_symbol
 _atom_site_label
 _atom_site_symmetry_multiplicity
 _atom_site_fract_x
 _atom_site_fract_y
 _atom_site_fract_z
 _atom_site_occupancy
  Co  Co0  1  0.000000  0.000000  0.000000  1
  Co  Co1  1  0.385931  0.385931  0.385931  1
  Co  Co2  1  0.614069  0.614069  0.157794  1
  Co  Co3  1  0.157794  0.614069  0.614069  1
  Co  Co4  1  0.614069  0.157794  0.614069  1
  Co  Co5  1  0.842206  0.385931  0.385931  1
  Co  Co6  1  0.385931  0.842206  0.385931  1
  Co  Co7  1  0.385931  0.385931  0.842206  1
  Co  Co8  1  0.614069  0.614069  0.614069  1
  Co  Co9  1  0.337004  1.000000  0.000000  1
  Co  Co10  1  0.000000  0.000000  0.337004  1
  Co  Co11  1  0.337004  0.662996  1.000000  1
  Co  Co12  1  1.000000  0.337004  0.662996  1
  Co  Co13  1  0.000000  0.662996  0.337004  1
  Co  Co14  1  1.000000  0.337004  0.000000  1
  Co  Co15  1  0.337004  1.000000  0.662996  1
  Co  Co16  1  0.662996  0.337004  0.000000  1
  Co  Co17  1  0.000000  0.662996  1.000000  1
  Co  Co18  1  0.662996  0.000000  0.337004  1
  Co  Co19  1  1.000000  1.000000  0.662996  1
  Co  Co20  1  0.662996  0.000000  1.000000  1
  Zr  Zr21  1  0.250000  0.250000  0.250000  1
  Zr  Zr22  1  0.750000  0.750000  0.750000  1
  B  B23  1  0.726450  0.273550  0.273550  1
  B  B24  1  0.726450  0.726450  0.273550  1
  B  B25  1  0.273550  0.273550  0.726450  1
  B  B26  1  0.726450  0.273550  0.726450  1
  B  B27  1  0.273550  0.726450  0.273550  1
  B  B28  1  0.273550  0.726450  0.726450  1
