# generated using pymatgen
data_InSb2Se4Br
_symmetry_space_group_name_H-M   'P 1'
_cell_length_a   4.05921615
_cell_length_b   10.85267565
_cell_length_c   11.96643904
_cell_angle_alpha   65.84054059
_cell_angle_beta   80.25424016
_cell_angle_gamma   79.20643368
_symmetry_Int_Tables_number   1
_chemical_formula_structural   InSb2Se4Br
_chemical_formula_sum   'In2 Sb4 Se8 Br2'
_cell_volume   469.94799265
_cell_formula_units_Z   2
loop_
 _symmetry_equiv_pos_site_id
 _symmetry_equiv_pos_as_xyz
  1  'x, y, z'
loop_
 _atom_site_type_symbol
 _atom_site_label
 _atom_site_symmetry_multiplicity
 _atom_site_fract_x
 _atom_site_fract_y
 _atom_site_fract_z
 _atom_site_occupancy
  In  In0  1  0.663298  0.112708  0.560082  1
  In  In1  1  0.336702  0.887292  0.439918  1
  Sb  Sb2  1  0.704311  0.682001  0.909662  1
  Sb  Sb3  1  0.295689  0.317999  0.090339  1
  Sb  Sb4  1  0.049536  0.682078  0.219267  1
  Sb  Sb5  1  0.950464  0.317922  0.780733  1
  Se  Se6  1  0.099544  0.823297  0.977490  1
  Se  Se7  1  0.680338  0.501409  0.139014  1
  Se  Se8  1  0.319662  0.498591  0.860986  1
  Se  Se9  1  0.462918  0.856161  0.217741  1
  Se  Se10  1  0.211650  0.922693  0.654181  1
  Se  Se11  1  0.537082  0.143839  0.782259  1
  Se  Se12  1  0.788350  0.077307  0.345819  1
  Se  Se13  1  0.900456  0.176703  0.022510  1
  Br  Br14  1  0.103836  0.321057  0.471786  1
  Br  Br15  1  0.896164  0.678943  0.528214  1
