# generated using pymatgen
data_Nd2Ta2Cl2O7
_symmetry_space_group_name_H-M   'P 1'
_cell_length_a   3.95485101
_cell_length_b   6.95337190
_cell_length_c   8.02760528
_cell_angle_alpha   113.03552307
_cell_angle_beta   104.25850771
_cell_angle_gamma   89.99940637
_symmetry_Int_Tables_number   1
_chemical_formula_structural   Nd2Ta2Cl2O7
_chemical_formula_sum   'Nd2 Ta2 Cl2 O7'
_cell_volume   195.74215271
_cell_formula_units_Z   1
loop_
 _symmetry_equiv_pos_site_id
 _symmetry_equiv_pos_as_xyz
  1  'x, y, z'
loop_
 _atom_site_type_symbol
 _atom_site_label
 _atom_site_symmetry_multiplicity
 _atom_site_fract_x
 _atom_site_fract_y
 _atom_site_fract_z
 _atom_site_occupancy
  Nd  Nd0  1  0.307437  0.835554  0.615100  1
  Nd  Nd1  1  0.692563  0.164446  0.384900  1
  Ta  Ta2  1  0.965312  0.200833  0.930714  1
  Ta  Ta3  1  0.034688  0.799167  0.069286  1
  Cl  Cl4  1  0.678902  0.565540  0.357806  1
  Cl  Cl5  1  0.321098  0.434460  0.642194  1
  O  O6  1  0.454518  0.163125  0.909128  1
  O  O7  1  0.545482  0.836875  0.090872  1
  O  O8  1  0.918874  0.846861  0.837762  1
  O  O9  1  0.000000  0.500000  0.000000  1
  O  O10  1  0.825241  0.069018  0.650563  1
  O  O11  1  0.081126  0.153139  0.162238  1
  O  O12  1  0.174759  0.930982  0.349437  1
