# generated using pymatgen
data_SiO2
_symmetry_space_group_name_H-M   'P 1'
_cell_length_a   7.49645018
_cell_length_b   19.60776162
_cell_length_c   19.60776162
_cell_angle_alpha   90.00000000
_cell_angle_beta   90.00000000
_cell_angle_gamma   90.00000000
_symmetry_Int_Tables_number   1
_chemical_formula_structural   SiO2
_chemical_formula_sum   'Si48 O96'
_cell_volume   2882.11758898
_cell_formula_units_Z   48
loop_
 _symmetry_equiv_pos_site_id
 _symmetry_equiv_pos_as_xyz
  1  'x, y, z'
loop_
 _atom_site_type_symbol
 _atom_site_label
 _atom_site_symmetry_multiplicity
 _atom_site_fract_x
 _atom_site_fract_y
 _atom_site_fract_z
 _atom_site_occupancy
  Si  Si0  1  0.157253  0.244349  0.643306  1
  Si  Si1  1  0.789745  0.419038  0.191979  1
  Si  Si2  1  0.789745  0.191979  0.580962  1
  Si  Si3  1  0.343815  0.143231  0.744425  1
  Si  Si4  1  0.711302  0.692004  0.919041  1
  Si  Si5  1  0.343815  0.856769  0.255575  1
  Si  Si6  1  0.343815  0.744425  0.856769  1
  Si  Si7  1  -0.000094  0.920211  0.192429  1
  Si  Si8  1  -0.000094  0.807571  0.920211  1
  Si  Si9  1  0.157253  0.643306  0.244349  1
  Si  Si10  1  -0.000094  0.079789  0.192429  1
  Si  Si11  1  -0.000094  0.192429  0.079789  1
  Si  Si12  1  0.711302  0.080959  0.307996  1
  Si  Si13  1  0.501026  0.579790  0.692438  1
  Si  Si14  1  0.501026  0.420210  0.692438  1
  Si  Si15  1  0.343815  0.255575  0.143231  1
  Si  Si16  1  0.501026  0.579790  0.307562  1
  Si  Si17  1  0.157253  0.755651  0.356694  1
  Si  Si18  1  0.157253  0.356694  0.244349  1
  Si  Si19  1  0.711302  0.080959  0.692004  1
  Si  Si20  1  0.789745  0.808021  0.419038  1
  Si  Si21  1  0.157253  0.356694  0.755651  1
  Si  Si22  1  0.501026  0.307562  0.579790  1
  Si  Si23  1  0.501026  0.420210  0.307562  1
  Si  Si24  1  0.711302  0.307996  0.080959  1
  Si  Si25  1  0.157253  0.755651  0.643306  1
  Si  Si26  1  0.157253  0.643306  0.755651  1
  Si  Si27  1  0.789745  0.580962  0.808021  1
  Si  Si28  1  0.711302  0.919041  0.307996  1
  Si  Si29  1  0.343815  0.744425  0.143231  1
  Si  Si30  1  0.157253  0.244349  0.356694  1
  Si  Si31  1  0.789745  0.419038  0.808021  1
  Si  Si32  1  0.501026  0.307562  0.420210  1
  Si  Si33  1  0.501026  0.692438  0.579790  1
  Si  Si34  1  0.789745  0.580962  0.191979  1
  Si  Si35  1  0.711302  0.307996  0.919041  1
  Si  Si36  1  0.711302  0.919041  0.692004  1
  Si  Si37  1  -0.000094  0.807571  0.079789  1
  Si  Si38  1  0.789745  0.808021  0.580962  1
  Si  Si39  1  0.343815  0.143231  0.255575  1
  Si  Si40  1  0.711302  0.692004  0.080959  1
  Si  Si41  1  -0.000094  0.920211  0.807571  1
  Si  Si42  1  0.343815  0.255575  0.856769  1
  Si  Si43  1  -0.000094  0.192429  0.920211  1
  Si  Si44  1  0.501026  0.692438  0.420210  1
  Si  Si45  1  0.343815  0.856769  0.744425  1
  Si  Si46  1  -0.000094  0.079789  0.807571  1
  Si  Si47  1  0.789745  0.191979  0.419038  1
  O  O48  1  0.750396  0.121465  0.378530  1
  O  O49  1  0.750396  0.121465  0.621470  1
  O  O50  1  0.972977  0.000000  0.173400  1
  O  O51  1  0.860154  0.897130  0.748397  1
  O  O52  1  0.092994  0.702329  0.297671  1
  O  O53  1  0.250570  0.321994  0.177939  1
  O  O54  1  0.640951  0.751581  0.397207  1
  O  O55  1  0.860154  0.251603  0.897130  1
  O  O56  1  0.297861  0.718930  0.408027  1
  O  O57  1  0.640951  0.602793  0.751581  1
  O  O58  1  0.514181  0.901034  0.720700  1
  O  O59  1  0.961639  0.124243  0.875757  1
  O  O60  1  0.860154  0.748397  0.102870  1
  O  O61  1  0.297861  0.408027  0.281070  1
  O  O62  1  0.527731  0.500000  0.673359  1
  O  O63  1  0.860154  0.748397  0.897130  1
  O  O64  1  0.092994  0.297671  0.297671  1
  O  O65  1  0.527731  0.500000  0.326641  1
  O  O66  1  0.723014  0.676189  0.000000  1
  O  O67  1  0.778281  0.500000  0.176144  1
  O  O68  1  0.986872  0.400944  0.220610  1
  O  O69  1  0.250570  0.678006  0.177939  1
  O  O70  1  0.250570  0.822061  0.678006  1
  O  O71  1  0.297861  0.591973  0.281070  1
  O  O72  1  0.986872  0.220610  0.400944  1
  O  O73  1  0.539276  0.624266  0.375734  1
  O  O74  1  0.203146  0.091913  0.781132  1
  O  O75  1  0.860154  0.102870  0.251603  1
  O  O76  1  0.203146  0.091913  0.218868  1
  O  O77  1  0.778281  0.176144  0.500000  1
  O  O78  1  0.750396  0.878535  0.378530  1
  O  O79  1  0.297861  0.591973  0.718930  1
  O  O80  1  0.640951  0.248419  0.602793  1
  O  O81  1  0.723014  0.000000  0.676189  1
  O  O82  1  0.972977  0.000000  0.826600  1
  O  O83  1  0.986872  0.779390  0.400944  1
  O  O84  1  0.408075  0.202251  0.797749  1
  O  O85  1  0.250570  0.678006  0.822061  1
  O  O86  1  0.961639  0.875757  0.124243  1
  O  O87  1  0.297861  0.281070  0.591973  1
  O  O88  1  0.750396  0.378530  0.878535  1
  O  O89  1  0.539276  0.375734  0.624266  1
  O  O90  1  0.203146  0.908087  0.218868  1
  O  O91  1  0.640951  0.397207  0.248419  1
  O  O92  1  0.514181  0.098966  0.720700  1
  O  O93  1  0.092994  0.702329  0.702329  1
  O  O94  1  0.640951  0.751581  0.602793  1
  O  O95  1  0.539276  0.624266  0.624266  1
  O  O96  1  0.250570  0.822061  0.321994  1
  O  O97  1  0.640951  0.397207  0.751581  1
  O  O98  1  0.972977  0.826600  0.000000  1
  O  O99  1  0.408075  0.797749  0.202251  1
  O  O100  1  0.778281  0.823856  0.500000  1
  O  O101  1  0.640951  0.248419  0.397207  1
  O  O102  1  0.860154  0.897130  0.251603  1
  O  O103  1  0.250570  0.321994  0.822061  1
  O  O104  1  0.750396  0.378530  0.121465  1
  O  O105  1  0.297861  0.281070  0.408027  1
  O  O106  1  0.514181  0.720700  0.901034  1
  O  O107  1  0.972977  0.173400  0.000000  1
  O  O108  1  0.092994  0.297671  0.702329  1
  O  O109  1  0.514181  0.279300  0.098966  1
  O  O110  1  0.527731  0.673359  0.500000  1
  O  O111  1  0.750396  0.621470  0.121465  1
  O  O112  1  0.723014  0.000000  0.323811  1
  O  O113  1  0.514181  0.720700  0.098966  1
  O  O114  1  0.860154  0.251603  0.102870  1
  O  O115  1  0.203146  0.218868  0.091913  1
  O  O116  1  0.986872  0.779390  0.599056  1
  O  O117  1  0.986872  0.599056  0.220610  1
  O  O118  1  0.203146  0.218868  0.908087  1
  O  O119  1  0.778281  0.500000  0.823856  1
  O  O120  1  0.514181  0.098966  0.279300  1
  O  O121  1  0.961639  0.875757  0.875757  1
  O  O122  1  0.986872  0.599056  0.779390  1
  O  O123  1  0.514181  0.901034  0.279300  1
  O  O124  1  0.860154  0.102870  0.748397  1
  O  O125  1  0.250570  0.177939  0.678006  1
  O  O126  1  0.514181  0.279300  0.901034  1
  O  O127  1  0.986872  0.220610  0.599056  1
  O  O128  1  0.750396  0.878535  0.621470  1
  O  O129  1  0.723014  0.323811  0.000000  1
  O  O130  1  0.203146  0.908087  0.781132  1
  O  O131  1  0.750396  0.621470  0.878535  1
  O  O132  1  0.203146  0.781132  0.091913  1
  O  O133  1  0.408075  0.797749  0.797749  1
  O  O134  1  0.527731  0.326641  0.500000  1
  O  O135  1  0.539276  0.375734  0.375734  1
  O  O136  1  0.297861  0.718930  0.591973  1
  O  O137  1  0.986872  0.400944  0.779390  1
  O  O138  1  0.250570  0.177939  0.321994  1
  O  O139  1  0.297861  0.408027  0.718930  1
  O  O140  1  0.640951  0.602793  0.248419  1
  O  O141  1  0.203146  0.781132  0.908087  1
  O  O142  1  0.961639  0.124243  0.124243  1
  O  O143  1  0.408075  0.202251  0.202251  1
