# generated using pymatgen
data_K2Li4UO6
_symmetry_space_group_name_H-M   'P 1'
_cell_length_a   6.12119895
_cell_length_b   6.12119934
_cell_length_c   5.67365310
_cell_angle_alpha   90.00000000
_cell_angle_beta   90.00000000
_cell_angle_gamma   119.99999782
_symmetry_Int_Tables_number   1
_chemical_formula_structural   K2Li4UO6
_chemical_formula_sum   'K2 Li4 U1 O6'
_cell_volume   184.10536222
_cell_formula_units_Z   1
loop_
 _symmetry_equiv_pos_site_id
 _symmetry_equiv_pos_as_xyz
  1  'x, y, z'
loop_
 _atom_site_type_symbol
 _atom_site_label
 _atom_site_symmetry_multiplicity
 _atom_site_fract_x
 _atom_site_fract_y
 _atom_site_fract_z
 _atom_site_occupancy
  K  K0  1  0.333333  0.666667  0.530190  1
  K  K1  1  0.666667  0.333333  0.469810  1
  Li  Li2  1  0.000000  0.000000  0.500000  1
  Li  Li3  1  0.500000  0.000000  0.000000  1
  Li  Li4  1  0.500000  0.500000  0.000000  1
  Li  Li5  1  0.000000  0.500000  0.000000  1
  U  U6  1  0.000000  0.000000  0.000000  1
  O  O7  1  0.672937  0.836468  0.205094  1
  O  O8  1  0.327063  0.163532  0.794906  1
  O  O9  1  0.836468  0.672937  0.794906  1
  O  O10  1  0.163532  0.836468  0.205094  1
  O  O11  1  0.836468  0.163532  0.794906  1
  O  O12  1  0.163532  0.327063  0.205094  1
