# generated using pymatgen
data_Sr5B3ClO9
_symmetry_space_group_name_H-M   'P 1'
_cell_length_a   7.48775318
_cell_length_b   8.79787150
_cell_length_c   8.79787172
_cell_angle_alpha   109.99575831
_cell_angle_beta   90.00000000
_cell_angle_gamma   90.00000000
_symmetry_Int_Tables_number   1
_chemical_formula_structural   Sr5B3ClO9
_chemical_formula_sum   'Sr10 B6 Cl2 O18'
_cell_volume   544.63340784
_cell_formula_units_Z   2
loop_
 _symmetry_equiv_pos_site_id
 _symmetry_equiv_pos_as_xyz
  1  'x, y, z'
loop_
 _atom_site_type_symbol
 _atom_site_label
 _atom_site_symmetry_multiplicity
 _atom_site_fract_x
 _atom_site_fract_y
 _atom_site_fract_z
 _atom_site_occupancy
  Sr  Sr0  1  0.000000  0.761264  0.761264  1
  Sr  Sr1  1  0.063766  0.004642  0.262113  1
  Sr  Sr2  1  0.500000  0.238736  0.238736  1
  Sr  Sr3  1  0.250000  0.365040  0.634960  1
  Sr  Sr4  1  0.750000  0.634960  0.365040  1
  Sr  Sr5  1  0.250000  0.637698  0.362302  1
  Sr  Sr6  1  0.563766  0.995358  0.737887  1
  Sr  Sr7  1  0.750000  0.362302  0.637698  1
  Sr  Sr8  1  0.436234  0.737887  0.995358  1
  Sr  Sr9  1  0.936234  0.262113  0.004642  1
  B  B10  1  0.529384  0.409296  0.985278  1
  B  B11  1  0.970616  0.014722  0.590704  1
  B  B12  1  0.000000  0.370160  0.370160  1
  B  B13  1  0.470616  0.985278  0.409296  1
  B  B14  1  0.500000  0.629840  0.629840  1
  B  B15  1  0.029384  0.590704  0.014722  1
  Cl  Cl16  1  0.250000  0.053252  0.946748  1
  Cl  Cl17  1  0.750000  0.946748  0.053252  1
  O  O18  1  0.500000  0.490837  0.490837  1
  O  O19  1  0.512520  0.846961  0.444776  1
  O  O20  1  0.000000  0.509163  0.509163  1
  O  O21  1  0.837757  0.304842  0.303356  1
  O  O22  1  0.487480  0.444776  0.846961  1
  O  O23  1  0.114321  0.734668  0.028595  1
  O  O24  1  0.614321  0.265332  0.971405  1
  O  O25  1  0.337757  0.695158  0.696644  1
  O  O26  1  0.162243  0.303356  0.304842  1
  O  O27  1  0.987480  0.555224  0.153039  1
  O  O28  1  0.509766  0.139206  0.521245  1
  O  O29  1  0.885679  0.028595  0.734668  1
  O  O30  1  0.662243  0.696644  0.695158  1
  O  O31  1  0.009766  0.860794  0.478755  1
  O  O32  1  0.012520  0.153039  0.555224  1
  O  O33  1  0.990234  0.478755  0.860794  1
  O  O34  1  0.385679  0.971405  0.265332  1
  O  O35  1  0.490234  0.521245  0.139206  1
