# generated using pymatgen
data_Na2Cd(SiO3)2
_symmetry_space_group_name_H-M   'P 1'
_cell_length_a   7.55692264
_cell_length_b   10.54744644
_cell_length_c   10.66211694
_cell_angle_alpha   90.00000000
_cell_angle_beta   90.00000000
_cell_angle_gamma   90.00000000
_symmetry_Int_Tables_number   1
_chemical_formula_structural   Na2Cd(SiO3)2
_chemical_formula_sum   'Na12 Cd6 Si12 O36'
_cell_volume   849.83721757
_cell_formula_units_Z   6
loop_
 _symmetry_equiv_pos_site_id
 _symmetry_equiv_pos_as_xyz
  1  'x, y, z'
loop_
 _atom_site_type_symbol
 _atom_site_label
 _atom_site_symmetry_multiplicity
 _atom_site_fract_x
 _atom_site_fract_y
 _atom_site_fract_z
 _atom_site_occupancy
  Na  Na0  1  0.233200  0.255666  0.491871  1
  Na  Na1  1  0.494946  0.000000  0.509103  1
  Na  Na2  1  0.272246  0.000000  0.273475  1
  Na  Na3  1  0.766800  0.755666  0.991871  1
  Na  Na4  1  0.282739  0.274461  0.019068  1
  Na  Na5  1  0.282739  0.725539  0.019068  1
  Na  Na6  1  0.766800  0.244334  0.991871  1
  Na  Na7  1  0.233200  0.744334  0.491871  1
  Na  Na8  1  0.717261  0.225539  0.519068  1
  Na  Na9  1  0.727754  0.500000  0.773475  1
  Na  Na10  1  0.717261  0.774461  0.519068  1
  Na  Na11  1  0.505054  0.500000  0.009103  1
  Cd  Cd12  1  0.982137  0.500000  0.502626  1
  Cd  Cd13  1  0.734898  0.500000  0.245722  1
  Cd  Cd14  1  0.749336  0.000000  0.752956  1
  Cd  Cd15  1  0.250664  0.500000  0.252956  1
  Cd  Cd16  1  0.017863  0.000000  0.002626  1
  Cd  Cd17  1  0.265102  0.000000  0.745722  1
  Si  Si18  1  0.031912  0.721760  0.759292  1
  Si  Si19  1  0.500838  0.500000  0.535738  1
  Si  Si20  1  0.968088  0.778240  0.259292  1
  Si  Si21  1  0.997940  0.000000  0.471779  1
  Si  Si22  1  0.968088  0.221760  0.259292  1
  Si  Si23  1  0.465952  0.721955  0.744576  1
  Si  Si24  1  0.499162  0.000000  0.035738  1
  Si  Si25  1  0.002060  0.500000  0.971779  1
  Si  Si26  1  0.534048  0.221955  0.244576  1
  Si  Si27  1  0.031912  0.278240  0.759292  1
  Si  Si28  1  0.465952  0.278045  0.744576  1
  Si  Si29  1  0.534048  0.778045  0.244576  1
  O  O30  1  0.019657  0.363020  0.311141  1
  O  O31  1  0.247346  0.282353  0.739400  1
  O  O32  1  0.980343  0.136980  0.811141  1
  O  O33  1  0.479215  0.636834  0.196961  1
  O  O34  1  0.808016  0.000000  0.539412  1
  O  O35  1  0.752654  0.217647  0.239400  1
  O  O36  1  0.322994  0.000000  0.946266  1
  O  O37  1  0.981258  0.375152  0.876906  1
  O  O38  1  0.677006  0.500000  0.446266  1
  O  O39  1  0.247346  0.717647  0.739400  1
  O  O40  1  0.460400  0.171392  0.376056  1
  O  O41  1  0.539601  0.671392  0.876056  1
  O  O42  1  0.528233  0.624926  0.628241  1
  O  O43  1  0.179909  0.000000  0.552171  1
  O  O44  1  0.460400  0.828608  0.376056  1
  O  O45  1  0.471767  0.875074  0.128241  1
  O  O46  1  0.191984  0.500000  0.039412  1
  O  O47  1  0.520785  0.863166  0.696961  1
  O  O48  1  0.057478  0.172475  0.129887  1
  O  O49  1  0.694813  0.000000  0.971952  1
  O  O50  1  0.019657  0.636980  0.311141  1
  O  O51  1  0.018742  0.875152  0.376906  1
  O  O52  1  0.980343  0.863020  0.811141  1
  O  O53  1  0.981258  0.624848  0.876906  1
  O  O54  1  0.539601  0.328608  0.876056  1
  O  O55  1  0.942522  0.672475  0.629887  1
  O  O56  1  0.752654  0.782353  0.239400  1
  O  O57  1  0.520785  0.136834  0.696961  1
  O  O58  1  0.479215  0.363166  0.196961  1
  O  O59  1  0.471767  0.124926  0.128241  1
  O  O60  1  0.018742  0.124848  0.376906  1
  O  O61  1  0.820091  0.500000  0.052171  1
  O  O62  1  0.528233  0.375074  0.628241  1
  O  O63  1  0.057478  0.827525  0.129887  1
  O  O64  1  0.305187  0.500000  0.471952  1
  O  O65  1  0.942522  0.327525  0.629887  1
