# generated using pymatgen
data_NaV2O5
_symmetry_space_group_name_H-M   'P 1'
_cell_length_a   7.28346557
_cell_length_b   10.73154574
_cell_length_c   12.06934560
_cell_angle_alpha   84.12301266
_cell_angle_beta   72.43821639
_cell_angle_gamma   70.16282232
_symmetry_Int_Tables_number   1
_chemical_formula_structural   NaV2O5
_chemical_formula_sum   'Na8 V16 O40'
_cell_volume   846.03567282
_cell_formula_units_Z   8
loop_
 _symmetry_equiv_pos_site_id
 _symmetry_equiv_pos_as_xyz
  1  'x, y, z'
loop_
 _atom_site_type_symbol
 _atom_site_label
 _atom_site_symmetry_multiplicity
 _atom_site_fract_x
 _atom_site_fract_y
 _atom_site_fract_z
 _atom_site_occupancy
  Na  Na0  1  0.438707  0.122586  0.500000  1
  Na  Na1  1  0.872900  0.254201  0.000000  1
  Na  Na2  1  0.123268  0.753463  0.000000  1
  Na  Na3  1  0.938707  0.122586  0.500000  1
  Na  Na4  1  0.622855  0.754290  0.000000  1
  Na  Na5  1  0.688748  0.622505  0.500000  1
  Na  Na6  1  0.188748  0.622505  0.500000  1
  Na  Na7  1  0.373340  0.253318  0.000000  1
  V  V8  1  0.830589  0.989542  0.850010  1
  V  V9  1  0.429802  0.489639  0.149950  1
  V  V10  1  0.930610  0.489639  0.149950  1
  V  V11  1  0.179869  0.989542  0.149990  1
  V  V12  1  0.080560  0.489639  0.850050  1
  V  V13  1  0.329859  0.989542  0.850010  1
  V  V14  1  0.982030  0.382331  0.653610  1
  V  V15  1  0.732730  0.880658  0.653882  1
  V  V16  1  0.386612  0.880658  0.346118  1
  V  V17  1  0.479752  0.392274  0.648223  1
  V  V18  1  0.229310  0.893626  0.647753  1
  V  V19  1  0.680599  0.989542  0.149990  1
  V  V20  1  0.579752  0.489639  0.850050  1
  V  V21  1  0.877064  0.893626  0.352247  1
  V  V22  1  0.127974  0.392274  0.351777  1
  V  V23  1  0.635640  0.382331  0.346390  1
  O  O24  1  0.358861  0.651591  0.131033  1
  O  O25  1  0.200655  0.230502  0.368187  1
  O  O26  1  0.568842  0.230502  0.631813  1
  O  O27  1  0.489895  0.651591  0.868967  1
  O  O28  1  0.024260  0.455626  0.495855  1
  O  O29  1  0.738881  0.151474  0.869009  1
  O  O30  1  0.373679  0.431427  0.821213  1
  O  O31  1  0.825647  0.718949  0.629756  1
  O  O32  1  0.874090  0.429514  0.822306  1
  O  O33  1  0.950122  0.731818  0.367940  1
  O  O34  1  0.123601  0.931850  0.820948  1
  O  O35  1  0.683016  0.446336  0.679377  1
  O  O36  1  0.194893  0.431427  0.178787  1
  O  O37  1  0.773749  0.955479  0.497022  1
  O  O38  1  0.446688  0.929019  0.177606  1
  O  O39  1  0.789053  0.925221  0.000000  1
  O  O40  1  0.696396  0.429514  0.177694  1
  O  O41  1  0.109645  0.151474  0.130991  1
  O  O42  1  0.038698  0.425288  0.000000  1
  O  O43  1  0.362393  0.446336  0.320623  1
  O  O44  1  0.433751  0.946301  0.679229  1
  O  O45  1  0.944549  0.931850  0.179052  1
  O  O46  1  0.455404  0.718949  0.370244  1
  O  O47  1  0.318061  0.731818  0.632060  1
  O  O48  1  0.940719  0.946301  0.679229  1
  O  O49  1  0.191272  0.446336  0.679377  1
  O  O50  1  0.285724  0.925221  1.000000  1
  O  O51  1  0.607891  0.151474  0.130991  1
  O  O52  1  0.870649  0.446336  0.320623  1
  O  O53  1  0.520114  0.455626  0.504145  1
  O  O54  1  0.240636  0.151474  0.869009  1
  O  O55  1  0.858513  0.651591  0.131033  1
  O  O56  1  0.074708  0.220584  0.629999  1
  O  O57  1  0.112981  0.946301  0.320771  1
  O  O58  1  0.536014  0.425288  1.000000  1
  O  O59  1  0.619948  0.946301  0.320771  1
  O  O60  1  0.704707  0.220584  0.370001  1
  O  O61  1  0.270771  0.955479  0.502978  1
  O  O62  1  0.989548  0.651591  0.868967  1
  O  O63  1  0.624293  0.929019  0.822394  1
