# generated using pymatgen
data_Pr(FeSi)2
_symmetry_space_group_name_H-M   'P 1'
_cell_length_a   4.03263377
_cell_length_b   4.03263377
_cell_length_c   5.68549915
_cell_angle_alpha   110.77150604
_cell_angle_beta   110.77150606
_cell_angle_gamma   90.00000002
_symmetry_Int_Tables_number   1
_chemical_formula_structural   Pr(FeSi)2
_chemical_formula_sum   'Pr1 Fe2 Si2'
_cell_volume   79.98893310
_cell_formula_units_Z   1
loop_
 _symmetry_equiv_pos_site_id
 _symmetry_equiv_pos_as_xyz
  1  'x, y, z'
loop_
 _atom_site_type_symbol
 _atom_site_label
 _atom_site_symmetry_multiplicity
 _atom_site_fract_x
 _atom_site_fract_y
 _atom_site_fract_z
 _atom_site_occupancy
  Si  Si0  1  0.641696  0.641696  0.283393  1
  Si  Si1  1  0.358304  0.358304  0.716607  1
  Fe  Fe2  1  0.750000  0.250000  0.500000  1
  Fe  Fe3  1  0.250000  0.750000  0.500000  1
  Pr  Pr4  1  0.000000  0.000000  0.000000  1
