# generated using pymatgen
data_CeHSO5
_symmetry_space_group_name_H-M   'P 1'
_cell_length_a   4.55697537
_cell_length_b   6.97982334
_cell_length_c   12.65470328
_cell_angle_alpha   90.00000000
_cell_angle_beta   90.00000000
_cell_angle_gamma   106.37021063
_symmetry_Int_Tables_number   1
_chemical_formula_structural   CeHSO5
_chemical_formula_sum   'Ce4 H4 S4 O20'
_cell_volume   386.18930451
_cell_formula_units_Z   4
loop_
 _symmetry_equiv_pos_site_id
 _symmetry_equiv_pos_as_xyz
  1  'x, y, z'
loop_
 _atom_site_type_symbol
 _atom_site_label
 _atom_site_symmetry_multiplicity
 _atom_site_fract_x
 _atom_site_fract_y
 _atom_site_fract_z
 _atom_site_occupancy
  Ce  Ce0  1  0.140594  0.802125  0.935644  1
  Ce  Ce1  1  0.359406  0.697875  0.435644  1
  Ce  Ce2  1  0.859406  0.197875  0.064356  1
  Ce  Ce3  1  0.640594  0.302125  0.564356  1
  S  S4  1  0.483966  0.387910  0.853932  1
  S  S5  1  0.016034  0.112090  0.353932  1
  S  S6  1  0.516034  0.612090  0.146068  1
  S  S7  1  0.983966  0.887910  0.646068  1
  O  O8  1  0.247948  0.219413  0.902897  1
  O  O9  1  0.252052  0.280587  0.402897  1
  O  O10  1  0.752052  0.780587  0.097103  1
  O  O11  1  0.747948  0.719413  0.597103  1
  O  O12  1  0.368519  0.561454  0.834682  1
  O  O13  1  0.131481  0.938546  0.334682  1
  O  O14  1  0.631481  0.438546  0.165318  1
  O  O15  1  0.868519  0.061454  0.665318  1
  O  O16  1  0.753225  0.447730  0.929408  1
  O  O17  1  0.746775  0.052270  0.429408  1
  O  O18  1  0.246775  0.552270  0.070592  1
  O  O19  1  0.253225  0.947730  0.570592  1
  O  O20  1  0.589291  0.320295  0.753738  1
  O  O21  1  0.910709  0.179705  0.253738  1
  O  O22  1  0.410709  0.679705  0.246262  1
  O  O23  1  0.089291  0.820295  0.746262  1
  O  O24  1  0.303999  0.041312  0.084126  1
  O  O25  1  0.196001  0.458688  0.584126  1
  O  O26  1  0.696001  0.958688  0.915874  1
  O  O27  1  0.803999  0.541312  0.415874  1
  H  H28  1  0.263340  0.976392  0.153515  1
  H  H29  1  0.236660  0.523608  0.653515  1
  H  H30  1  0.736660  0.023608  0.846485  1
  H  H31  1  0.763340  0.476392  0.346485  1
