# generated using pymatgen
data_V7O13
_symmetry_space_group_name_H-M   'P 1'
_cell_length_a   5.54868236
_cell_length_b   7.12003825
_cell_length_c   11.43618240
_cell_angle_alpha   82.98928979
_cell_angle_beta   89.84488594
_cell_angle_gamma   72.00904593
_symmetry_Int_Tables_number   1
_chemical_formula_structural   V7O13
_chemical_formula_sum   'V14 O26'
_cell_volume   426.21038999
_cell_formula_units_Z   2
loop_
 _symmetry_equiv_pos_site_id
 _symmetry_equiv_pos_as_xyz
  1  'x, y, z'
loop_
 _atom_site_type_symbol
 _atom_site_label
 _atom_site_symmetry_multiplicity
 _atom_site_fract_x
 _atom_site_fract_y
 _atom_site_fract_z
 _atom_site_occupancy
  O  O0  1  0.637871  0.173792  0.488447  1
  O  O1  1  0.362129  0.826208  0.511553  1
  O  O2  1  0.125654  0.225719  0.442749  1
  O  O3  1  0.874346  0.774281  0.557251  1
  O  O4  1  0.288768  0.535154  0.393040  1
  O  O5  1  0.711232  0.464846  0.606960  1
  O  O6  1  0.756882  0.596807  0.361907  1
  O  O7  1  0.243118  0.403193  0.638093  1
  O  O8  1  0.026184  0.924795  0.329381  1
  O  O9  1  0.973816  0.075205  0.670619  1
  O  O10  1  0.500138  0.989763  0.297418  1
  O  O11  1  0.499862  0.010237  0.702582  1
  O  O12  1  0.665550  0.286104  0.253812  1
  O  O13  1  0.334450  0.713896  0.746188  1
  O  O14  1  0.191504  0.556406  0.976150  1
  O  O15  1  0.808496  0.443594  0.023850  1
  O  O16  1  0.456141  0.835328  0.943309  1
  O  O17  1  0.543859  0.164672  0.056691  1
  O  O18  1  0.952201  0.929631  0.907823  1
  O  O19  1  0.047799  0.070369  0.092177  1
  O  O20  1  0.128854  0.231522  0.878443  1
  O  O21  1  0.871146  0.768478  0.121557  1
  O  O22  1  0.580669  0.306886  0.822255  1
  O  O23  1  0.419331  0.693114  0.177745  1
  O  O24  1  0.843950  0.638487  0.793093  1
  O  O25  1  0.156050  0.361513  0.206907  1
  V  V26  1  0.000000  0.500000  0.500000  1
  V  V27  1  0.000000  0.000000  0.500000  1
  V  V28  1  0.385405  0.261905  0.352257  1
  V  V29  1  0.614595  0.738095  0.647743  1
  V  V30  1  0.410545  0.749821  0.358972  1
  V  V31  1  0.589455  0.250179  0.641028  1
  V  V32  1  0.793507  0.016743  0.214359  1
  V  V33  1  0.206493  0.983257  0.785641  1
  V  V34  1  0.793746  0.510857  0.201593  1
  V  V35  1  0.206254  0.489143  0.798407  1
  V  V36  1  0.202301  0.785318  0.058718  1
  V  V37  1  0.797699  0.214682  0.941282  1
  V  V38  1  0.210901  0.283402  0.054526  1
  V  V39  1  0.789099  0.716598  0.945474  1
