# generated using pymatgen
data_Na5Er(MoO4)4
_symmetry_space_group_name_H-M   'P 1'
_cell_length_a   9.99204560
_cell_length_b   9.99204566
_cell_length_c   9.99204578
_cell_angle_alpha   109.46824814
_cell_angle_beta   109.47271056
_cell_angle_gamma   109.47270671
_symmetry_Int_Tables_number   1
_chemical_formula_structural   Na5Er(MoO4)4
_chemical_formula_sum   'Na10 Er2 Mo8 O32'
_cell_volume   767.96481357
_cell_formula_units_Z   2
loop_
 _symmetry_equiv_pos_site_id
 _symmetry_equiv_pos_as_xyz
  1  'x, y, z'
loop_
 _atom_site_type_symbol
 _atom_site_label
 _atom_site_symmetry_multiplicity
 _atom_site_fract_x
 _atom_site_fract_y
 _atom_site_fract_z
 _atom_site_occupancy
  Na  Na0  1  0.665569  0.201999  0.776423  1
  Na  Na1  1  0.334431  0.798001  0.223577  1
  Na  Na2  1  0.165569  0.389147  0.463570  1
  Na  Na3  1  0.925577  0.036430  0.701999  1
  Na  Na4  1  0.574423  0.276423  0.110853  1
  Na  Na5  1  0.834431  0.610854  0.536430  1
  Na  Na6  1  0.074423  0.963570  0.298001  1
  Na  Na7  1  0.250000  0.875000  0.625000  1
  Na  Na8  1  0.425577  0.723577  0.889146  1
  Na  Na9  1  0.750000  0.125000  0.375000  1
  Er  Er10  1  0.250000  0.375000  0.125000  1
  Er  Er11  1  0.750000  0.625000  0.875000  1
  Mo  Mo12  1  0.024148  0.456109  0.794772  1
  Mo  Mo13  1  0.338663  0.294772  0.770624  1
  Mo  Mo14  1  0.524148  0.729376  0.568039  1
  Mo  Mo15  1  0.838663  0.068039  0.043891  1
  Mo  Mo16  1  0.975852  0.543891  0.205228  1
  Mo  Mo17  1  0.661337  0.705228  0.229376  1
  Mo  Mo18  1  0.475852  0.270624  0.431961  1
  Mo  Mo19  1  0.161337  0.931961  0.956109  1
  O  O20  1  0.142698  0.487597  0.698156  1
  O  O21  1  0.798660  0.725650  0.146732  1
  O  O22  1  0.989669  0.135586  0.980893  1
  O  O23  1  0.071636  0.876957  0.743961  1
  O  O24  1  0.010331  0.864414  0.019107  1
  O  O25  1  0.867004  0.243961  0.672325  1
  O  O26  1  0.510331  0.491224  0.145917  1
  O  O27  1  0.428364  0.172325  0.805321  1
  O  O28  1  0.201340  0.274350  0.853268  1
  O  O29  1  0.345307  0.354083  0.364414  1
  O  O30  1  0.421083  0.646732  0.348072  1
  O  O31  1  0.857302  0.512403  0.301844  1
  O  O32  1  0.710559  0.155101  0.012403  1
  O  O33  1  0.632996  0.305321  0.376957  1
  O  O34  1  0.571636  0.827675  0.194679  1
  O  O35  1  0.845307  0.480893  0.991224  1
  O  O36  1  0.921083  0.573010  0.774350  1
  O  O37  1  0.154693  0.519107  0.008776  1
  O  O38  1  0.789441  0.801844  0.444542  1
  O  O39  1  0.298660  0.151928  0.073010  1
  O  O40  1  0.578917  0.353268  0.651928  1
  O  O41  1  0.132996  0.756039  0.327675  1
  O  O42  1  0.701340  0.848072  0.926990  1
  O  O43  1  0.928364  0.123043  0.256039  1
  O  O44  1  0.357302  0.055458  0.344899  1
  O  O45  1  0.642698  0.944542  0.655101  1
  O  O46  1  0.367004  0.694679  0.623043  1
  O  O47  1  0.654693  0.645917  0.635586  1
  O  O48  1  0.489669  0.508776  0.854083  1
  O  O49  1  0.210559  0.198156  0.555458  1
  O  O50  1  0.289441  0.844899  0.987597  1
  O  O51  1  0.078918  0.426990  0.225650  1
