# generated using pymatgen
data_Pb3(ClO)2
_symmetry_space_group_name_H-M   'P 1'
_cell_length_a   5.99590334
_cell_length_b   10.51453199
_cell_length_c   11.57040759
_cell_angle_alpha   89.87997011
_cell_angle_beta   89.99557233
_cell_angle_gamma   90.00662020
_symmetry_Int_Tables_number   1
_chemical_formula_structural   Pb3(ClO)2
_chemical_formula_sum   'Pb12 Cl8 O8'
_cell_volume   729.44452725
_cell_formula_units_Z   4
loop_
 _symmetry_equiv_pos_site_id
 _symmetry_equiv_pos_as_xyz
  1  'x, y, z'
loop_
 _atom_site_type_symbol
 _atom_site_label
 _atom_site_symmetry_multiplicity
 _atom_site_fract_x
 _atom_site_fract_y
 _atom_site_fract_z
 _atom_site_occupancy
  Pb  Pb0  1  0.249894  0.561648  0.408839  1
  Pb  Pb1  1  0.749940  0.061466  0.091308  1
  Pb  Pb2  1  0.250062  0.283011  0.967626  1
  Pb  Pb3  1  0.249957  0.938723  0.908534  1
  Pb  Pb4  1  0.249950  0.663670  0.705683  1
  Pb  Pb5  1  0.749861  0.438345  0.591475  1
  Pb  Pb6  1  0.749986  0.336006  0.294639  1
  Pb  Pb7  1  0.750033  0.782739  0.532071  1
  Pb  Pb8  1  0.249968  0.835333  0.205562  1
  Pb  Pb9  1  0.249899  0.217178  0.468072  1
  Pb  Pb10  1  0.750184  0.164790  0.794202  1
  Pb  Pb11  1  0.749890  0.717117  0.032211  1
  Cl  Cl12  1  0.250062  0.607319  0.078875  1
  Cl  Cl13  1  0.749981  0.838706  0.778764  1
  Cl  Cl14  1  0.750044  0.108318  0.422195  1
  Cl  Cl15  1  0.250042  0.338641  0.720697  1
  Cl  Cl16  1  0.750020  0.660674  0.279035  1
  Cl  Cl17  1  0.750034  0.393067  0.920260  1
  Cl  Cl18  1  0.250082  0.160872  0.221302  1
  Cl  Cl19  1  0.250003  0.891989  0.578552  1
  O  O20  1  0.005673  0.114579  0.930038  1
  O  O21  1  0.994422  0.614138  0.569726  1
  O  O22  1  0.494312  0.114613  0.929991  1
  O  O23  1  0.005593  0.385810  0.430494  1
  O  O24  1  0.505543  0.614148  0.569765  1
  O  O25  1  0.505782  0.885614  0.069840  1
  O  O26  1  0.994339  0.885638  0.069772  1
  O  O27  1  0.494445  0.385847  0.430473  1
