# generated using pymatgen
data_Zn3(PO4)2
_symmetry_space_group_name_H-M   'P 1'
_cell_length_a   5.03684260
_cell_length_b   5.03637817
_cell_length_c   15.28877793
_cell_angle_alpha   95.22457599
_cell_angle_beta   96.75693523
_cell_angle_gamma   111.48888386
_symmetry_Int_Tables_number   1
_chemical_formula_structural   Zn3(PO4)2
_chemical_formula_sum   'Zn6 P4 O16'
_cell_volume   354.57412566
_cell_formula_units_Z   2
loop_
 _symmetry_equiv_pos_site_id
 _symmetry_equiv_pos_as_xyz
  1  'x, y, z'
loop_
 _atom_site_type_symbol
 _atom_site_label
 _atom_site_symmetry_multiplicity
 _atom_site_fract_x
 _atom_site_fract_y
 _atom_site_fract_z
 _atom_site_occupancy
  Zn  Zn0  1  0.342121  0.828988  0.067027  1
  Zn  Zn1  1  1.001906  0.752072  0.249994  1
  Zn  Zn2  1  0.738211  0.724860  0.566991  1
  Zn  Zn3  1  0.261789  0.275140  0.433009  1
  Zn  Zn4  1  -0.001906  0.247928  0.750006  1
  Zn  Zn5  1  0.657879  0.171012  0.932973  1
  P  P6  1  0.605294  0.904947  0.372075  1
  P  P7  1  0.394706  0.095053  0.627925  1
  P  P8  1  0.032738  0.233387  0.127931  1
  P  P9  1  0.967262  0.766613  0.872069  1
  O  O10  1  0.879648  0.029619  0.853297  1
  O  O11  1  0.007155  0.630643  0.783607  1
  O  O12  1  0.737849  0.567154  0.919827  1
  O  O13  1  0.323551  0.973898  0.353241  1
  O  O14  1  0.120352  0.970381  0.146703  1
  O  O15  1  0.652844  0.776584  0.283603  1
  O  O16  1  0.676449  0.026102  0.646759  1
  O  O17  1  0.262151  0.432846  0.080173  1
  O  O18  1  0.347156  0.223416  0.716397  1
  O  O19  1  0.545168  0.676373  0.438707  1
  O  O20  1  0.147497  0.817907  0.580179  1
  O  O21  1  0.454832  0.323627  0.561293  1
  O  O22  1  0.262450  0.893191  0.938695  1
  O  O23  1  0.852503  0.182093  0.419821  1
  O  O24  1  0.737550  0.106809  0.061305  1
  O  O25  1  0.992845  0.369357  0.216393  1
