# generated using pymatgen
data_BaGe2O5
_symmetry_space_group_name_H-M   'P 1'
_cell_length_a   9.69559914
_cell_length_b   13.26971882
_cell_length_c   13.40660800
_cell_angle_alpha   90.00000000
_cell_angle_beta   94.04988454
_cell_angle_gamma   90.00000000
_symmetry_Int_Tables_number   1
_chemical_formula_structural   BaGe2O5
_chemical_formula_sum   'Ba16 Ge32 O80'
_cell_volume   1720.55859388
_cell_formula_units_Z   16
loop_
 _symmetry_equiv_pos_site_id
 _symmetry_equiv_pos_as_xyz
  1  'x, y, z'
loop_
 _atom_site_type_symbol
 _atom_site_label
 _atom_site_symmetry_multiplicity
 _atom_site_fract_x
 _atom_site_fract_y
 _atom_site_fract_z
 _atom_site_occupancy
  Ba  Ba0  1  0.121208  0.246340  0.366025  1
  Ba  Ba1  1  0.612176  0.009604  0.131624  1
  Ba  Ba2  1  0.387824  0.509604  0.368376  1
  Ba  Ba3  1  0.612987  0.513911  0.132948  1
  Ba  Ba4  1  0.137384  0.752454  0.384334  1
  Ba  Ba5  1  0.878792  0.753660  0.633975  1
  Ba  Ba6  1  0.862616  0.247546  0.615666  1
  Ba  Ba7  1  0.387013  0.486089  0.867052  1
  Ba  Ba8  1  0.862616  0.252454  0.115666  1
  Ba  Ba9  1  0.612987  0.986089  0.632948  1
  Ba  Ba10  1  0.387824  0.990396  0.868376  1
  Ba  Ba11  1  0.612176  0.490396  0.631624  1
  Ba  Ba12  1  0.121208  0.253660  0.866025  1
  Ba  Ba13  1  0.137384  0.747546  0.884334  1
  Ba  Ba14  1  0.878792  0.746340  0.133975  1
  Ba  Ba15  1  0.387013  0.013911  0.367052  1
  Ge  Ge16  1  0.987513  0.499816  0.761391  1
  Ge  Ge17  1  0.250190  0.606451  0.613373  1
  Ge  Ge18  1  0.759292  0.632102  0.879628  1
  Ge  Ge19  1  0.240708  0.367898  0.120372  1
  Ge  Ge20  1  0.759760  0.868885  0.908597  1
  Ge  Ge21  1  0.525700  0.745429  0.516858  1
  Ge  Ge22  1  0.240708  0.132102  0.620372  1
  Ge  Ge23  1  0.749810  0.106451  0.886627  1
  Ge  Ge24  1  0.264531  0.651518  0.108399  1
  Ge  Ge25  1  0.759292  0.867898  0.379628  1
  Ge  Ge26  1  0.519386  0.273435  0.239477  1
  Ge  Ge27  1  0.264531  0.848482  0.608399  1
  Ge  Ge28  1  0.474300  0.254571  0.483142  1
  Ge  Ge29  1  0.735469  0.151518  0.391601  1
  Ge  Ge30  1  0.000000  0.000000  0.000000  1
  Ge  Ge31  1  0.012487  0.500184  0.238609  1
  Ge  Ge32  1  0.480614  0.773435  0.260523  1
  Ge  Ge33  1  0.474300  0.245429  0.983142  1
  Ge  Ge34  1  0.735469  0.348482  0.891601  1
  Ge  Ge35  1  0.012487  0.999816  0.738609  1
  Ge  Ge36  1  0.240240  0.131115  0.091403  1
  Ge  Ge37  1  0.987513  0.000184  0.261391  1
  Ge  Ge38  1  0.000000  0.000000  0.500000  1
  Ge  Ge39  1  0.000000  0.500000  0.500000  1
  Ge  Ge40  1  0.519386  0.226565  0.739477  1
  Ge  Ge41  1  0.759760  0.631115  0.408597  1
  Ge  Ge42  1  0.525700  0.754571  0.016858  1
  Ge  Ge43  1  0.480614  0.726565  0.760523  1
  Ge  Ge44  1  0.240240  0.368885  0.591403  1
  Ge  Ge45  1  0.000000  0.500000  0.000000  1
  Ge  Ge46  1  0.749810  0.393549  0.386627  1
  Ge  Ge47  1  0.250190  0.893549  0.113373  1
  O  O48  1  0.672363  0.649542  0.518399  1
  O  O49  1  0.327637  0.350458  0.481601  1
  O  O50  1  0.177240  0.947505  0.987555  1
  O  O51  1  0.614416  0.347029  0.989481  1
  O  O52  1  0.586541  0.367844  0.446737  1
  O  O53  1  0.481347  0.710339  0.379649  1
  O  O54  1  0.334628  0.349285  0.005603  1
  O  O55  1  0.897496  0.492513  0.127743  1
  O  O56  1  0.311351  0.028120  0.162107  1
  O  O57  1  0.637827  0.142619  0.278395  1
  O  O58  1  0.327637  0.149542  0.981601  1
  O  O59  1  0.780532  0.737507  0.331815  1
  O  O60  1  0.932411  0.874588  0.963730  1
  O  O61  1  0.582258  0.767176  0.658585  1
  O  O62  1  0.054557  0.941441  0.150146  1
  O  O63  1  0.172888  0.959088  0.570881  1
  O  O64  1  0.413459  0.632156  0.553263  1
  O  O65  1  0.172888  0.540912  0.070881  1
  O  O66  1  0.837208  0.263345  0.411884  1
  O  O67  1  0.219468  0.237507  0.168185  1
  O  O68  1  0.843148  0.584340  0.764455  1
  O  O69  1  0.822760  0.447505  0.512445  1
  O  O70  1  0.417742  0.267176  0.841415  1
  O  O71  1  0.162792  0.736655  0.588116  1
  O  O72  1  0.681533  0.152248  0.756354  1
  O  O73  1  0.177240  0.552495  0.487555  1
  O  O74  1  0.318467  0.847752  0.243646  1
  O  O75  1  0.156852  0.415660  0.235545  1
  O  O76  1  0.068338  0.129510  0.535128  1
  O  O77  1  0.843148  0.915660  0.264455  1
  O  O78  1  0.067589  0.374588  0.536270  1
  O  O79  1  0.672363  0.850458  0.018399  1
  O  O80  1  0.614416  0.152971  0.489481  1
  O  O81  1  0.688649  0.971880  0.837893  1
  O  O82  1  0.362173  0.857381  0.721605  1
  O  O83  1  0.932411  0.625412  0.463730  1
  O  O84  1  0.518653  0.210339  0.120351  1
  O  O85  1  0.219468  0.262493  0.668185  1
  O  O86  1  0.827112  0.459088  0.929119  1
  O  O87  1  0.102504  0.992513  0.372257  1
  O  O88  1  0.945443  0.058559  0.849854  1
  O  O89  1  0.318467  0.652248  0.743646  1
  O  O90  1  0.068338  0.370490  0.035128  1
  O  O91  1  0.665372  0.650715  0.994397  1
  O  O92  1  0.417742  0.232824  0.341415  1
  O  O93  1  0.162792  0.763345  0.088116  1
  O  O94  1  0.897496  0.007487  0.627743  1
  O  O95  1  0.311351  0.471880  0.662107  1
  O  O96  1  0.156852  0.084340  0.735545  1
  O  O97  1  0.054557  0.558559  0.650146  1
  O  O98  1  0.518653  0.289661  0.620351  1
  O  O99  1  0.102504  0.507487  0.872257  1
  O  O100  1  0.780532  0.762493  0.831815  1
  O  O101  1  0.334628  0.150715  0.505603  1
  O  O102  1  0.586541  0.132156  0.946737  1
  O  O103  1  0.688649  0.528120  0.337893  1
  O  O104  1  0.481347  0.789661  0.879649  1
  O  O105  1  0.385584  0.847029  0.510519  1
  O  O106  1  0.385584  0.652971  0.010519  1
  O  O107  1  0.637827  0.357381  0.778395  1
  O  O108  1  0.067589  0.125412  0.036270  1
  O  O109  1  0.681533  0.347752  0.256354  1
  O  O110  1  0.362173  0.642619  0.221605  1
  O  O111  1  0.945443  0.441441  0.349854  1
  O  O112  1  0.948052  0.373882  0.745346  1
  O  O113  1  0.931662  0.629510  0.964872  1
  O  O114  1  0.822760  0.052495  0.012445  1
  O  O115  1  0.414093  0.110552  0.697255  1
  O  O116  1  0.582258  0.732824  0.158585  1
  O  O117  1  0.585907  0.889448  0.302745  1
  O  O118  1  0.585907  0.610552  0.802745  1
  O  O119  1  0.051948  0.873882  0.754654  1
  O  O120  1  0.931662  0.870490  0.464872  1
  O  O121  1  0.827112  0.040912  0.429119  1
  O  O122  1  0.414093  0.389448  0.197255  1
  O  O123  1  0.948052  0.126118  0.245346  1
  O  O124  1  0.837208  0.236655  0.911884  1
  O  O125  1  0.051948  0.626118  0.254654  1
  O  O126  1  0.665372  0.849285  0.494397  1
  O  O127  1  0.413459  0.867844  0.053263  1
