# generated using pymatgen
data_BaCoN
_symmetry_space_group_name_H-M   'P 1'
_cell_length_a   5.47448310
_cell_length_b   9.70885176
_cell_length_c   23.62038654
_cell_angle_alpha   90.00000000
_cell_angle_beta   90.00000000
_cell_angle_gamma   90.00000000
_symmetry_Int_Tables_number   1
_chemical_formula_structural   BaCoN
_chemical_formula_sum   'Ba20 Co20 N20'
_cell_volume   1255.44586304
_cell_formula_units_Z   20
loop_
 _symmetry_equiv_pos_site_id
 _symmetry_equiv_pos_as_xyz
  1  'x, y, z'
loop_
 _atom_site_type_symbol
 _atom_site_label
 _atom_site_symmetry_multiplicity
 _atom_site_fract_x
 _atom_site_fract_y
 _atom_site_fract_z
 _atom_site_occupancy
  Ba  Ba0  1  0.005426  -0.001852  0.250000  1
  Ba  Ba1  1  0.506541  0.158906  0.451428  1
  Ba  Ba2  1  0.959848  0.671938  0.848985  1
  Ba  Ba3  1  0.540152  0.171938  0.848985  1
  Ba  Ba4  1  0.493459  0.841094  0.548572  1
  Ba  Ba5  1  0.993459  0.658906  0.048572  1
  Ba  Ba6  1  0.040152  0.328062  0.348985  1
  Ba  Ba7  1  0.459848  0.828062  0.151015  1
  Ba  Ba8  1  0.959848  0.671938  0.651015  1
  Ba  Ba9  1  0.006541  0.341094  0.951428  1
  Ba  Ba10  1  0.459848  0.828062  0.348985  1
  Ba  Ba11  1  0.006541  0.341094  0.548572  1
  Ba  Ba12  1  0.040152  0.328062  0.151015  1
  Ba  Ba13  1  0.993459  0.658906  0.451428  1
  Ba  Ba14  1  0.493459  0.841094  0.951428  1
  Ba  Ba15  1  0.494574  0.498148  0.250000  1
  Ba  Ba16  1  0.540152  0.171938  0.651015  1
  Ba  Ba17  1  0.505426  0.501852  0.750000  1
  Ba  Ba18  1  0.994574  1.001852  0.750000  1
  Ba  Ba19  1  0.506541  0.158906  0.048572  1
  Co  Co20  1  0.456962  0.849515  0.802071  1
  Co  Co21  1  0.543038  0.150485  0.302071  1
  Co  Co22  1  0.043038  0.349515  0.802071  1
  Co  Co23  1  0.042088  0.993182  0.897498  1
  Co  Co24  1  0.957912  0.006818  0.397498  1
  Co  Co25  1  0.457912  0.493182  0.897498  1
  Co  Co26  1  0.956962  0.650485  0.197929  1
  Co  Co27  1  0.457912  0.493182  0.602502  1
  Co  Co28  1  0.542088  0.506818  0.397498  1
  Co  Co29  1  0.042088  0.993182  0.602502  1
  Co  Co30  1  0.043038  0.349515  0.697929  1
  Co  Co31  1  0.000000  0.000000  0.500000  1
  Co  Co32  1  0.543038  0.150485  0.197929  1
  Co  Co33  1  0.956962  0.650485  0.302071  1
  Co  Co34  1  0.456962  0.849515  0.697929  1
  Co  Co35  1  0.000000  0.000000  0.000000  1
  Co  Co36  1  0.542088  0.506818  0.102502  1
  Co  Co37  1  0.957912  0.006818  0.102502  1
  Co  Co38  1  0.500000  0.500000  0.500000  1
  Co  Co39  1  0.500000  0.500000  0.000000  1
  N  N40  1  0.251903  0.921254  0.850532  1
  N  N41  1  0.751903  0.578746  0.350532  1
  N  N42  1  0.682242  0.570329  0.557245  1
  N  N43  1  0.248097  0.421254  0.850532  1
  N  N44  1  0.337356  0.223281  0.250000  1
  N  N45  1  0.817758  0.070329  0.557245  1
  N  N46  1  0.162644  0.723281  0.250000  1
  N  N47  1  0.662644  0.776719  0.750000  1
  N  N48  1  0.682242  0.570329  0.942755  1
  N  N49  1  0.748097  0.078746  0.149468  1
  N  N50  1  0.751903  0.578746  0.149468  1
  N  N51  1  0.317758  0.429671  0.442755  1
  N  N52  1  0.182242  0.929671  0.442755  1
  N  N53  1  0.817758  0.070329  0.942755  1
  N  N54  1  0.748097  0.078746  0.350532  1
  N  N55  1  0.837356  0.276719  0.750000  1
  N  N56  1  0.248097  0.421254  0.649468  1
  N  N57  1  0.182242  0.929671  0.057245  1
  N  N58  1  0.251903  0.921254  0.649468  1
  N  N59  1  0.317758  0.429671  0.057245  1
