# generated using pymatgen
data_NaAsH4O5
_symmetry_space_group_name_H-M   'P 1'
_cell_length_a   5.27402060
_cell_length_b   8.54756931
_cell_length_c   10.46414992
_cell_angle_alpha   90.00000000
_cell_angle_beta   90.00000000
_cell_angle_gamma   89.99663520
_symmetry_Int_Tables_number   1
_chemical_formula_structural   NaAsH4O5
_chemical_formula_sum   'Na4 As4 H16 O20'
_cell_volume   471.72446952
_cell_formula_units_Z   4
loop_
 _symmetry_equiv_pos_site_id
 _symmetry_equiv_pos_as_xyz
  1  'x, y, z'
loop_
 _atom_site_type_symbol
 _atom_site_label
 _atom_site_symmetry_multiplicity
 _atom_site_fract_x
 _atom_site_fract_y
 _atom_site_fract_z
 _atom_site_occupancy
  Na  Na0  1  0.673720  0.592783  0.154966  1
  Na  Na1  1  0.826381  0.093440  0.841499  1
  Na  Na2  1  0.173619  0.906560  0.341499  1
  Na  Na3  1  0.326280  0.407217  0.654966  1
  As  As4  1  0.332469  0.194285  0.090478  1
  As  As5  1  0.168009  0.694715  0.907419  1
  As  As6  1  0.667531  0.805715  0.590478  1
  As  As7  1  0.831991  0.305285  0.407419  1
  H  H8  1  0.212351  0.488405  0.045510  1
  H  H9  1  0.712234  0.011244  0.451772  1
  H  H10  1  0.694682  0.945589  0.199298  1
  H  H11  1  0.435791  0.232221  0.353380  1
  H  H12  1  0.892441  0.881752  0.100280  1
  H  H13  1  0.605513  0.381843  0.896786  1
  H  H14  1  0.287766  0.988756  0.951772  1
  H  H15  1  0.107559  0.118248  0.600280  1
  H  H16  1  0.803439  0.446241  0.798019  1
  H  H17  1  0.394487  0.618157  0.396786  1
  H  H18  1  0.063521  0.733227  0.646028  1
  H  H19  1  0.564209  0.767779  0.853380  1
  H  H20  1  0.936479  0.266773  0.146028  1
  H  H21  1  0.305318  0.054411  0.699298  1
  H  H22  1  0.787649  0.511595  0.545510  1
  H  H23  1  0.196561  0.553759  0.298019  1
  O  O24  1  0.922832  0.424496  0.535905  1
  O  O25  1  0.423258  0.109748  0.229699  1
  O  O26  1  0.997856  0.195426  0.074319  1
  O  O27  1  0.422755  0.075785  0.961417  1
  O  O28  1  0.822122  0.862656  0.186600  1
  O  O29  1  0.675992  0.363401  0.810352  1
  O  O30  1  0.497527  0.303122  0.425113  1
  O  O31  1  0.056814  0.877083  0.938779  1
  O  O32  1  0.442192  0.376925  0.058547  1
  O  O33  1  0.002144  0.804574  0.574319  1
  O  O34  1  0.943186  0.122917  0.438779  1
  O  O35  1  0.177878  0.137344  0.686600  1
  O  O36  1  0.077168  0.575504  0.035905  1
  O  O37  1  0.079634  0.610095  0.767836  1
  O  O38  1  0.502473  0.696878  0.925113  1
  O  O39  1  0.920366  0.389905  0.267836  1
  O  O40  1  0.324008  0.636599  0.310352  1
  O  O41  1  0.577245  0.924215  0.461417  1
  O  O42  1  0.557808  0.623075  0.558547  1
  O  O43  1  0.576742  0.890252  0.729699  1
