# generated using pymatgen
data_Na5P3O10
_symmetry_space_group_name_H-M   'P 1'
_cell_length_a   5.40812030
_cell_length_b   5.61432473
_cell_length_c   18.72673472
_cell_angle_alpha   96.00976300
_cell_angle_beta   90.00000000
_cell_angle_gamma   118.79229756
_symmetry_Int_Tables_number   1
_chemical_formula_structural   Na5P3O10
_chemical_formula_sum   'Na10 P6 O20'
_cell_volume   494.73494036
_cell_formula_units_Z   2
loop_
 _symmetry_equiv_pos_site_id
 _symmetry_equiv_pos_as_xyz
  1  'x, y, z'
loop_
 _atom_site_type_symbol
 _atom_site_label
 _atom_site_symmetry_multiplicity
 _atom_site_fract_x
 _atom_site_fract_y
 _atom_site_fract_z
 _atom_site_occupancy
  Na  Na0  1  0.340925  0.651018  0.067243  1
  Na  Na1  1  0.894341  0.930264  0.823739  1
  Na  Na2  1  0.464077  0.069736  0.676261  1
  Na  Na3  1  0.189907  0.348982  0.432757  1
  Na  Na4  1  0.659075  0.348982  0.932757  1
  Na  Na5  1  0.535923  0.930264  0.323739  1
  Na  Na6  1  0.000000  0.000000  0.000000  1
  Na  Na7  1  0.105659  0.069736  0.176261  1
  Na  Na8  1  0.810093  0.651018  0.567243  1
  Na  Na9  1  0.500000  0.000000  0.500000  1
  P  P10  1  0.855544  0.666469  0.400267  1
  P  P11  1  0.310925  0.666469  0.900267  1
  P  P12  1  0.901086  0.500000  0.250000  1
  P  P13  1  0.098914  0.500000  0.750000  1
  P  P14  1  0.689075  0.333531  0.099733  1
  P  P15  1  0.144456  0.333531  0.599733  1
  O  O16  1  0.834052  0.263531  0.596639  1
  O  O17  1  0.255983  0.412506  0.686984  1
  O  O18  1  0.167850  0.746734  0.232330  1
  O  O19  1  0.247409  0.411233  0.935990  1
  O  O20  1  0.194613  0.091510  0.577282  1
  O  O21  1  0.078884  0.746734  0.732330  1
  O  O22  1  0.805387  0.908490  0.422718  1
  O  O23  1  0.396896  0.091510  0.077282  1
  O  O24  1  0.070521  0.736469  0.903361  1
  O  O25  1  0.603104  0.908490  0.922718  1
  O  O26  1  0.336175  0.588767  0.564010  1
  O  O27  1  0.165948  0.736469  0.403361  1
  O  O28  1  0.929479  0.263531  0.096639  1
  O  O29  1  0.921116  0.253266  0.267670  1
  O  O30  1  0.663825  0.411233  0.435990  1
  O  O31  1  0.752591  0.588767  0.064010  1
  O  O32  1  0.744017  0.587494  0.313016  1
  O  O33  1  0.832150  0.253266  0.767670  1
  O  O34  1  0.656523  0.412506  0.186984  1
  O  O35  1  0.343477  0.587494  0.813016  1
