# generated using pymatgen
data_LaMnO3
_symmetry_space_group_name_H-M   'P 1'
_cell_length_a   6.22911631
_cell_length_b   6.21690731
_cell_length_c   10.48570981
_cell_angle_alpha   90.00000000
_cell_angle_beta   90.00000000
_cell_angle_gamma   54.79156928
_symmetry_Int_Tables_number   1
_chemical_formula_structural   LaMnO3
_chemical_formula_sum   'La4 Mn4 O12'
_cell_volume   331.78187284
_cell_formula_units_Z   4
loop_
 _symmetry_equiv_pos_site_id
 _symmetry_equiv_pos_as_xyz
  1  'x, y, z'
loop_
 _atom_site_type_symbol
 _atom_site_label
 _atom_site_symmetry_multiplicity
 _atom_site_fract_x
 _atom_site_fract_y
 _atom_site_fract_z
 _atom_site_occupancy
  La  La0  1  0.493662  0.005136  0.336298  1
  La  La1  1  0.006338  0.994864  0.836298  1
  La  La2  1  0.993662  0.005136  0.163702  1
  La  La3  1  0.506338  0.994864  0.663702  1
  Mn  Mn4  1  0.000000  0.000000  0.500000  1
  Mn  Mn5  1  0.000000  0.500000  0.000000  1
  Mn  Mn6  1  0.500000  0.000000  0.000000  1
  Mn  Mn7  1  0.500000  0.500000  0.500000  1
  O  O8  1  0.727697  0.231578  0.626379  1
  O  O9  1  0.773501  0.766195  0.873522  1
  O  O10  1  0.734303  0.203445  0.997552  1
  O  O11  1  0.272303  0.768422  0.373621  1
  O  O12  1  0.226499  0.233805  0.126478  1
  O  O13  1  0.765697  0.796555  0.497552  1
  O  O14  1  0.227697  0.231578  0.873621  1
  O  O15  1  0.273501  0.766195  0.626478  1
  O  O16  1  0.265697  0.796555  0.002448  1
  O  O17  1  0.234303  0.203445  0.502448  1
  O  O18  1  0.772303  0.768422  0.126379  1
  O  O19  1  0.726499  0.233805  0.373522  1
