# generated using pymatgen
data_RuO4
_symmetry_space_group_name_H-M   'P 1'
_cell_length_a   4.67814618
_cell_length_b   5.42942763
_cell_length_c   8.39142038
_cell_angle_alpha   77.66772778
_cell_angle_beta   73.80032033
_cell_angle_gamma   64.55512070
_symmetry_Int_Tables_number   1
_chemical_formula_structural   RuO4
_chemical_formula_sum   'Ru2 O8'
_cell_volume   183.74018119
_cell_formula_units_Z   2
loop_
 _symmetry_equiv_pos_site_id
 _symmetry_equiv_pos_as_xyz
  1  'x, y, z'
loop_
 _atom_site_type_symbol
 _atom_site_label
 _atom_site_symmetry_multiplicity
 _atom_site_fract_x
 _atom_site_fract_y
 _atom_site_fract_z
 _atom_site_occupancy
  O  O0  1  0.917572  0.808103  0.416167  1
  Ru  Ru1  1  0.241698  0.749982  0.250008  1
  O  O2  1  0.433300  0.530936  0.696069  1
  O  O3  1  0.142209  0.691473  0.083847  1
  O  O4  1  0.566689  0.469068  0.303931  1
  Ru  Ru5  1  0.758332  0.250010  0.749982  1
  O  O6  1  0.659924  0.969154  0.803914  1
  O  O7  1  0.857786  0.308528  0.916156  1
  O  O8  1  0.340072  0.030847  0.196088  1
  O  O9  1  0.082418  0.191900  0.583837  1
