# generated using pymatgen
data_Zn3As2(HO)16
_symmetry_space_group_name_H-M   'P 1'
_cell_length_a   4.91396460
_cell_length_b   9.46964907
_cell_length_c   9.46965052
_cell_angle_alpha   88.81459433
_cell_angle_beta   113.94480028
_cell_angle_gamma   113.94479443
_symmetry_Int_Tables_number   1
_chemical_formula_structural   Zn3As2(HO)16
_chemical_formula_sum   'Zn3 As2 H16 O16'
_cell_volume   362.55821113
_cell_formula_units_Z   1
loop_
 _symmetry_equiv_pos_site_id
 _symmetry_equiv_pos_as_xyz
  1  'x, y, z'
loop_
 _atom_site_type_symbol
 _atom_site_label
 _atom_site_symmetry_multiplicity
 _atom_site_fract_x
 _atom_site_fract_y
 _atom_site_fract_z
 _atom_site_occupancy
  Zn  Zn0  1  0.000000  0.000000  0.000000  1
  Zn  Zn1  1  1.000000  0.621745  0.378255  1
  Zn  Zn2  1  0.000000  0.378255  0.621745  1
  As  As3  1  0.738339  0.686176  0.686176  1
  As  As4  1  0.261661  0.313824  0.313824  1
  O  O5  1  0.006775  0.836337  0.836337  1
  O  O6  1  0.993225  0.163663  0.163663  1
  O  O7  1  0.313146  0.610259  0.610259  1
  O  O8  1  0.686854  0.389741  0.389741  1
  O  O9  1  0.786255  0.514647  0.735185  1
  O  O10  1  0.213745  0.264815  0.485353  1
  O  O11  1  0.213745  0.485353  0.264815  1
  O  O12  1  0.786255  0.735185  0.514647  1
  O  O13  1  0.342651  0.952134  0.182034  1
  O  O14  1  0.657350  0.817966  0.047866  1
  O  O15  1  0.657350  0.047866  0.817966  1
  O  O16  1  0.342651  0.182034  0.952134  1
  O  O17  1  0.228648  0.423440  0.855725  1
  O  O18  1  0.771352  0.144275  0.576560  1
  O  O19  1  0.771352  0.576560  0.144275  1
  O  O20  1  0.228648  0.855725  0.423440  1
  H  H21  1  0.575914  0.204427  0.993429  1
  H  H22  1  0.424086  0.006571  0.795573  1
  H  H23  1  0.424086  0.795573  0.006571  1
  H  H24  1  0.575914  0.993429  0.204427  1
  H  H25  1  0.993321  0.483373  0.183755  1
  H  H26  1  0.006679  0.816245  0.516627  1
  H  H27  1  0.006679  0.516627  0.816245  1
  H  H28  1  0.993321  0.183755  0.483373  1
  H  H29  1  0.541881  0.500806  0.112357  1
  H  H30  1  0.458119  0.887643  0.499194  1
  H  H31  1  0.458119  0.499194  0.887643  1
  H  H32  1  0.541881  0.112357  0.500806  1
  H  H33  1  0.698579  0.723453  0.084639  1
  H  H34  1  0.301421  0.915361  0.276547  1
  H  H35  1  0.301421  0.276547  0.915361  1
  H  H36  1  0.698579  0.084639  0.723453  1
