# generated using pymatgen
data_LiMo2(PO4)3
_symmetry_space_group_name_H-M   'P 1'
_cell_length_a   8.83171809
_cell_length_b   8.91203303
_cell_length_c   8.87113203
_cell_angle_alpha   119.84829926
_cell_angle_beta   59.85226255
_cell_angle_gamma   119.83673968
_symmetry_Int_Tables_number   1
_chemical_formula_structural   LiMo2(PO4)3
_chemical_formula_sum   'Li2 Mo4 P6 O24'
_cell_volume   494.34045666
_cell_formula_units_Z   2
loop_
 _symmetry_equiv_pos_site_id
 _symmetry_equiv_pos_as_xyz
  1  'x, y, z'
loop_
 _atom_site_type_symbol
 _atom_site_label
 _atom_site_symmetry_multiplicity
 _atom_site_fract_x
 _atom_site_fract_y
 _atom_site_fract_z
 _atom_site_occupancy
  Li  Li0  1  0.977235  0.007262  0.927777  1
  Li  Li1  1  0.522765  0.492738  0.397750  1
  Mo  Mo2  1  0.858505  0.575026  0.859335  1
  Mo  Mo3  1  0.143144  0.425757  0.142693  1
  Mo  Mo4  1  0.356856  0.074243  0.360080  1
  Mo  Mo5  1  0.641495  0.924974  0.642815  1
  P  P6  1  0.460588  0.248951  0.748948  1
  P  P7  1  0.958993  0.750581  0.539349  1
  P  P8  1  0.039412  0.251049  0.460586  1
  P  P9  1  0.250000  0.750000  0.961901  1
  P  P10  1  0.750000  0.250000  0.039215  1
  P  P11  1  0.541007  0.749419  0.247761  1
  O  O12  1  0.936282  0.756576  0.726770  1
  O  O13  1  0.494871  0.075065  0.703143  1
  O  O14  1  0.117489  0.926854  0.511627  1
  O  O15  1  0.205405  0.575773  0.995353  1
  O  O16  1  0.724863  0.751022  0.079230  1
  O  O17  1  0.085805  0.745728  0.938980  1
  O  O18  1  0.797225  0.425579  0.010962  1
  O  O19  1  0.272396  0.246232  0.909337  1
  O  O20  1  0.992972  0.576631  0.380018  1
  O  O21  1  0.586083  0.257020  0.226551  1
  O  O22  1  0.441611  0.244635  0.581728  1
  O  O23  1  0.227604  0.253768  0.435501  1
  O  O24  1  0.414195  0.754272  0.779057  1
  O  O25  1  0.005129  0.424935  0.622949  1
  O  O26  1  0.621007  0.423280  0.794738  1
  O  O27  1  0.913917  0.242980  0.055616  1
  O  O28  1  0.507028  0.923369  0.296359  1
  O  O29  1  0.878993  0.076720  0.492466  1
  O  O30  1  0.563718  0.743424  0.406476  1
  O  O31  1  0.702775  0.074421  0.882608  1
  O  O32  1  0.382511  0.573146  0.202261  1
  O  O33  1  0.775137  0.748978  0.553070  1
  O  O34  1  0.294595  0.924227  0.124985  1
  O  O35  1  0.058389  0.255365  0.278703  1
