# generated using pymatgen
data_CeCuS2
_symmetry_space_group_name_H-M   'P 1'
_cell_length_a   6.45762987
_cell_length_b   6.89906157
_cell_length_c   7.19878894
_cell_angle_alpha   90.00000000
_cell_angle_beta   90.00000000
_cell_angle_gamma   97.80336056
_symmetry_Int_Tables_number   1
_chemical_formula_structural   CeCuS2
_chemical_formula_sum   'Ce4 Cu4 S8'
_cell_volume   317.74758258
_cell_formula_units_Z   4
loop_
 _symmetry_equiv_pos_site_id
 _symmetry_equiv_pos_as_xyz
  1  'x, y, z'
loop_
 _atom_site_type_symbol
 _atom_site_label
 _atom_site_symmetry_multiplicity
 _atom_site_fract_x
 _atom_site_fract_y
 _atom_site_fract_z
 _atom_site_occupancy
  S  S0  1  0.090510  0.283250  0.883582  1
  S  S1  1  0.909490  0.216750  0.383582  1
  S  S2  1  0.909490  0.716750  0.116418  1
  S  S3  1  0.090510  0.783250  0.616418  1
  S  S4  1  0.587751  0.499966  0.726591  1
  S  S5  1  0.587751  0.999966  0.773409  1
  S  S6  1  0.412249  0.500034  0.273409  1
  S  S7  1  0.412249  0.000034  0.226591  1
  Cu  Cu8  1  0.930760  0.961092  0.833699  1
  Cu  Cu9  1  0.069240  0.038908  0.166301  1
  Cu  Cu10  1  0.069240  0.538908  0.333699  1
  Cu  Cu11  1  0.930760  0.461092  0.666301  1
  Ce  Ce12  1  0.311001  0.199518  0.551910  1
  Ce  Ce13  1  0.688999  0.300482  0.051910  1
  Ce  Ce14  1  0.688999  0.800482  0.448090  1
  Ce  Ce15  1  0.311001  0.699518  0.948090  1
