# generated using pymatgen
data_TiFe(BiO3)2
_symmetry_space_group_name_H-M   'P 1'
_cell_length_a   5.64595636
_cell_length_b   5.64523433
_cell_length_c   5.64569176
_cell_angle_alpha   59.28557955
_cell_angle_beta   59.29207577
_cell_angle_gamma   59.28301283
_symmetry_Int_Tables_number   1
_chemical_formula_structural   TiFe(BiO3)2
_chemical_formula_sum   'Ti1 Fe1 Bi2 O6'
_cell_volume   125.17318788
_cell_formula_units_Z   1
loop_
 _symmetry_equiv_pos_site_id
 _symmetry_equiv_pos_as_xyz
  1  'x, y, z'
loop_
 _atom_site_type_symbol
 _atom_site_label
 _atom_site_symmetry_multiplicity
 _atom_site_fract_x
 _atom_site_fract_y
 _atom_site_fract_z
 _atom_site_occupancy
  O  O0  1  0.555110  0.937706  0.392806  1
  Fe  Fe1  1  0.220788  0.220840  0.220775  1
  Bi  Bi2  1  0.507776  0.507746  0.507762  1
  O  O3  1  0.897406  0.458362  0.029942  1
  O  O4  1  0.392837  0.555026  0.937681  1
  O  O5  1  0.937719  0.392769  0.555066  1
  O  O6  1  0.458342  0.029945  0.897474  1
  Bi  Bi7  1  0.999851  0.999835  0.999864  1
  Ti  Ti8  1  0.729252  0.729329  0.729226  1
  O  O9  1  0.029919  0.897442  0.458404  1
