# generated using pymatgen
data_AgAuCl4
_symmetry_space_group_name_H-M   'P 1'
_cell_length_a   4.38896773
_cell_length_b   6.96970122
_cell_length_c   12.01541020
_cell_angle_alpha   83.65082295
_cell_angle_beta   79.46953759
_cell_angle_gamma   71.65754206
_symmetry_Int_Tables_number   1
_chemical_formula_structural   AgAuCl4
_chemical_formula_sum   'Ag2 Au2 Cl8'
_cell_volume   342.44373445
_cell_formula_units_Z   2
loop_
 _symmetry_equiv_pos_site_id
 _symmetry_equiv_pos_as_xyz
  1  'x, y, z'
loop_
 _atom_site_type_symbol
 _atom_site_label
 _atom_site_symmetry_multiplicity
 _atom_site_fract_x
 _atom_site_fract_y
 _atom_site_fract_z
 _atom_site_occupancy
  Ag  Ag0  1  0.508447  0.749844  0.249967  1
  Ag  Ag1  1  0.491553  0.250156  0.750033  1
  Au  Au2  1  0.000000  0.000000  0.000000  1
  Au  Au3  1  0.000000  0.500000  0.500000  1
  Cl  Cl4  1  0.832109  0.316088  0.905208  1
  Cl  Cl5  1  0.053603  0.183875  0.594764  1
  Cl  Cl6  1  0.188654  0.600854  0.646424  1
  Cl  Cl7  1  0.435434  0.899047  0.853396  1
  Cl  Cl8  1  0.811346  0.399146  0.353576  1
  Cl  Cl9  1  0.167891  0.683912  0.094792  1
  Cl  Cl10  1  0.946397  0.816125  0.405236  1
  Cl  Cl11  1  0.564566  0.100953  0.146604  1
