# generated using pymatgen
data_S2XeNO4F3
_symmetry_space_group_name_H-M   'P 1'
_cell_length_a   7.11321394
_cell_length_b   9.95028107
_cell_length_c   12.31248089
_cell_angle_alpha   112.63444349
_cell_angle_beta   90.00000000
_cell_angle_gamma   90.00000000
_symmetry_Int_Tables_number   1
_chemical_formula_structural   S2XeNO4F3
_chemical_formula_sum   'S8 Xe4 N4 O16 F12'
_cell_volume   804.33806640
_cell_formula_units_Z   4
loop_
 _symmetry_equiv_pos_site_id
 _symmetry_equiv_pos_as_xyz
  1  'x, y, z'
loop_
 _atom_site_type_symbol
 _atom_site_label
 _atom_site_symmetry_multiplicity
 _atom_site_fract_x
 _atom_site_fract_y
 _atom_site_fract_z
 _atom_site_occupancy
  S  S0  1  0.013961  0.374688  0.310402  1
  S  S1  1  0.986039  0.625312  0.689598  1
  S  S2  1  0.049415  0.244339  0.057443  1
  S  S3  1  0.450585  0.244339  0.557443  1
  S  S4  1  0.549415  0.755661  0.442557  1
  S  S5  1  0.486039  0.374688  0.810402  1
  S  S6  1  0.950585  0.755661  0.942557  1
  S  S7  1  0.513961  0.625312  0.189598  1
  Xe  Xe8  1  0.826774  0.130396  0.670070  1
  Xe  Xe9  1  0.173226  0.869603  0.329930  1
  Xe  Xe10  1  0.673226  0.130396  0.170070  1
  Xe  Xe11  1  0.326774  0.869603  0.829930  1
  N  N12  1  0.061246  0.737420  0.820044  1
  N  N13  1  0.438754  0.737420  0.320044  1
  N  N14  1  0.561246  0.262580  0.679956  1
  N  N15  1  0.938754  0.262580  0.179956  1
  O  O16  1  0.371562  0.618714  0.106557  1
  O  O17  1  0.954928  0.133321  0.962938  1
  O  O18  1  0.601225  0.500847  0.198131  1
  O  O19  1  0.545072  0.133321  0.462938  1
  O  O20  1  0.628438  0.381286  0.893443  1
  O  O21  1  0.045072  0.866679  0.037062  1
  O  O22  1  0.871562  0.381286  0.393443  1
  O  O23  1  0.751862  0.753596  0.926777  1
  O  O24  1  0.128438  0.618714  0.606557  1
  O  O25  1  0.251862  0.246404  0.573223  1
  O  O26  1  0.454928  0.866679  0.537062  1
  O  O27  1  0.898775  0.500847  0.698131  1
  O  O28  1  0.748138  0.753596  0.426777  1
  O  O29  1  0.248138  0.246404  0.073223  1
  O  O30  1  0.398775  0.499153  0.801869  1
  O  O31  1  0.101225  0.499153  0.301869  1
  F  F32  1  0.681641  0.718974  0.167931  1
  F  F33  1  0.935356  0.993915  0.340426  1
  F  F34  1  0.435356  0.006085  0.159574  1
  F  F35  1  -0.002046  0.393427  0.045930  1
  F  F36  1  0.502046  0.393427  0.545930  1
  F  F37  1  0.497954  0.606573  0.454070  1
  F  F38  1  1.002046  0.606573  0.954070  1
  F  F39  1  0.318359  0.281026  0.832069  1
  F  F40  1  0.564644  0.993915  0.840426  1
  F  F41  1  0.818359  0.718974  0.667931  1
  F  F42  1  0.181641  0.281026  0.332069  1
  F  F43  1  0.064644  0.006085  0.659574  1
