# generated using pymatgen
data_CsC
_symmetry_space_group_name_H-M   'P 1'
_cell_length_a   5.04677456
_cell_length_b   9.82443114
_cell_length_c   10.48842301
_cell_angle_alpha   90.00000000
_cell_angle_beta   90.00000000
_cell_angle_gamma   90.00000000
_symmetry_Int_Tables_number   1
_chemical_formula_structural   CsC
_chemical_formula_sum   'Cs8 C8'
_cell_volume   520.03372929
_cell_formula_units_Z   8
loop_
 _symmetry_equiv_pos_site_id
 _symmetry_equiv_pos_as_xyz
  1  'x, y, z'
loop_
 _atom_site_type_symbol
 _atom_site_label
 _atom_site_symmetry_multiplicity
 _atom_site_fract_x
 _atom_site_fract_y
 _atom_site_fract_z
 _atom_site_occupancy
  Cs  Cs0  1  0.750000  0.157825  0.068590  1
  Cs  Cs1  1  0.250000  0.842175  0.931410  1
  Cs  Cs2  1  0.750000  0.657825  0.431410  1
  Cs  Cs3  1  0.250000  0.342175  0.568590  1
  Cs  Cs4  1  0.750000  0.515723  0.832744  1
  Cs  Cs5  1  0.250000  0.484277  0.167256  1
  Cs  Cs6  1  0.750000  0.015723  0.667256  1
  Cs  Cs7  1  0.250000  0.984277  0.332744  1
  C  C8  1  0.750000  0.710329  0.092322  1
  C  C9  1  0.250000  0.289671  0.907678  1
  C  C10  1  0.750000  0.210329  0.407678  1
  C  C11  1  0.250000  0.789671  0.592322  1
  C  C12  1  0.750000  0.822551  0.152684  1
  C  C13  1  0.250000  0.177449  0.847316  1
  C  C14  1  0.750000  0.322551  0.347316  1
  C  C15  1  0.250000  0.677449  0.652684  1
