# generated using pymatgen
data_NaH9O5
_symmetry_space_group_name_H-M   'P 1'
_cell_length_a   6.38295247
_cell_length_b   6.35649659
_cell_length_c   13.04190332
_cell_angle_alpha   90.00000000
_cell_angle_beta   90.00000000
_cell_angle_gamma   90.00000000
_symmetry_Int_Tables_number   1
_chemical_formula_structural   NaH9O5
_chemical_formula_sum   'Na4 H36 O20'
_cell_volume   529.15195536
_cell_formula_units_Z   4
loop_
 _symmetry_equiv_pos_site_id
 _symmetry_equiv_pos_as_xyz
  1  'x, y, z'
loop_
 _atom_site_type_symbol
 _atom_site_label
 _atom_site_symmetry_multiplicity
 _atom_site_fract_x
 _atom_site_fract_y
 _atom_site_fract_z
 _atom_site_occupancy
  Na  Na0  1  0.500424  0.742078  0.500919  1
  Na  Na1  1  0.000424  0.757922  0.499081  1
  Na  Na2  1  0.499576  0.242078  0.999081  1
  Na  Na3  1  0.999576  0.257922  0.000919  1
  O  O4  1  0.264499  0.316140  0.702368  1
  O  O5  1  0.764499  0.183860  0.297632  1
  O  O6  1  0.735501  0.816140  0.797632  1
  O  O7  1  0.235501  0.683860  0.202368  1
  O  O8  1  0.260534  0.906756  0.620740  1
  O  O9  1  0.760534  0.593244  0.379260  1
  O  O10  1  0.739466  0.406756  0.879260  1
  O  O11  1  0.239466  0.093244  0.120740  1
  O  O12  1  0.237737  0.474407  0.510215  1
  O  O13  1  0.737737  0.025593  0.489785  1
  O  O14  1  0.762263  0.974407  0.989785  1
  O  O15  1  0.262263  0.525593  0.010215  1
  O  O16  1  0.253925  0.890806  0.378739  1
  O  O17  1  0.753925  0.609194  0.621261  1
  O  O18  1  0.746075  0.390806  0.121261  1
  O  O19  1  0.246075  0.109194  0.878739  1
  O  O20  1  0.322623  0.323997  0.299645  1
  O  O21  1  0.822623  0.176003  0.700355  1
  O  O22  1  0.677377  0.823997  0.200355  1
  O  O23  1  0.177377  0.676003  0.799645  1
  H  H24  1  0.417176  0.323982  0.702310  1
  H  H25  1  0.917176  0.176018  0.297690  1
  H  H26  1  0.582824  0.823982  0.797690  1
  H  H27  1  0.082824  0.676018  0.202310  1
  H  H28  1  0.236584  0.824591  0.684190  1
  H  H29  1  0.736584  0.675409  0.315810  1
  H  H30  1  0.763416  0.324591  0.815810  1
  H  H31  1  0.263416  0.175409  0.184190  1
  H  H32  1  0.268184  0.055458  0.644417  1
  H  H33  1  0.768184  0.444542  0.355583  1
  H  H34  1  0.731816  0.555458  0.855583  1
  H  H35  1  0.231816  0.944542  0.144417  1
  H  H36  1  0.242314  0.393941  0.576445  1
  H  H37  1  0.742314  0.106059  0.423555  1
  H  H38  1  0.757686  0.893941  0.923555  1
  H  H39  1  0.257686  0.606059  0.076444  1
  H  H40  1  0.256377  0.380114  0.451601  1
  H  H41  1  0.756377  0.119886  0.548399  1
  H  H42  1  0.743623  0.880114  0.048399  1
  H  H43  1  0.243623  0.619886  0.951601  1
  H  H44  1  0.248469  0.812671  0.310965  1
  H  H45  1  0.748469  0.687329  0.689035  1
  H  H46  1  0.751531  0.312671  0.189035  1
  H  H47  1  0.251531  0.187329  0.810965  1
  H  H48  1  0.270585  0.039023  0.360454  1
  H  H49  1  0.770585  0.460977  0.639546  1
  H  H50  1  0.729415  0.539023  0.139546  1
  H  H51  1  0.229415  0.960977  0.860454  1
  H  H52  1  0.475718  0.306781  0.300436  1
  H  H53  1  0.975718  0.193219  0.699564  1
  H  H54  1  0.524282  0.806781  0.199564  1
  H  H55  1  0.024282  0.693219  0.800436  1
  H  H56  1  0.292827  0.466079  0.264702  1
  H  H57  1  0.792827  0.033921  0.735298  1
  H  H58  1  0.707173  0.966079  0.235298  1
  H  H59  1  0.207173  0.533921  0.764702  1
