# generated using pymatgen
data_Rb6Si10O23
_symmetry_space_group_name_H-M   'P 1'
_cell_length_a   9.66385745
_cell_length_b   9.66385773
_cell_length_c   8.30355353
_cell_angle_alpha   90.00000000
_cell_angle_beta   90.00000000
_cell_angle_gamma   119.99999908
_symmetry_Int_Tables_number   1
_chemical_formula_structural   Rb6Si10O23
_chemical_formula_sum   'Rb6 Si10 O23'
_cell_volume   671.57677448
_cell_formula_units_Z   1
loop_
 _symmetry_equiv_pos_site_id
 _symmetry_equiv_pos_as_xyz
  1  'x, y, z'
loop_
 _atom_site_type_symbol
 _atom_site_label
 _atom_site_symmetry_multiplicity
 _atom_site_fract_x
 _atom_site_fract_y
 _atom_site_fract_z
 _atom_site_occupancy
  Rb  Rb0  1  0.250494  0.000000  0.500000  1
  Rb  Rb1  1  0.749506  0.749506  0.500000  1
  Rb  Rb2  1  1.000000  0.236757  0.000000  1
  Rb  Rb3  1  0.236757  0.000000  0.000000  1
  Rb  Rb4  1  0.763243  0.763243  0.000000  1
  Rb  Rb5  1  1.000000  0.250494  0.500000  1
  Si  Si6  1  0.000000  0.605534  0.302408  1
  Si  Si7  1  0.666667  0.333333  0.195746  1
  Si  Si8  1  0.333333  0.666667  0.195746  1
  Si  Si9  1  0.394466  0.394466  0.302408  1
  Si  Si10  1  0.666667  0.333333  0.804254  1
  Si  Si11  1  0.394466  0.394466  0.697592  1
  Si  Si12  1  0.000000  0.605534  0.697592  1
  Si  Si13  1  0.605534  0.000000  0.302408  1
  Si  Si14  1  0.605534  0.000000  0.697592  1
  Si  Si15  1  0.333333  0.666667  0.804254  1
  O  O16  1  0.333333  0.666667  0.000000  1
  O  O17  1  0.246502  0.246502  0.221363  1
  O  O18  1  0.000000  0.753498  0.778637  1
  O  O19  1  0.380794  0.380794  0.500000  1
  O  O20  1  0.150319  0.573017  0.739538  1
  O  O21  1  0.753498  0.000000  0.778637  1
  O  O22  1  0.577302  0.426983  0.739538  1
  O  O23  1  0.577302  0.426983  0.260462  1
  O  O24  1  0.849681  0.422698  0.260462  1
  O  O25  1  0.849681  0.422698  0.739538  1
  O  O26  1  0.666667  0.333333  0.000000  1
  O  O27  1  0.422698  0.849681  0.260462  1
  O  O28  1  0.573017  0.150319  0.260462  1
  O  O29  1  0.753498  0.000000  0.221363  1
  O  O30  1  0.619206  0.000000  0.500000  1
  O  O31  1  0.000000  0.753498  0.221363  1
  O  O32  1  0.422698  0.849681  0.739538  1
  O  O33  1  1.000000  0.619206  0.500000  1
  O  O34  1  0.426983  0.577302  0.739538  1
  O  O35  1  0.573017  0.150319  0.739538  1
  O  O36  1  0.246502  0.246502  0.778637  1
  O  O37  1  0.426983  0.577302  0.260462  1
  O  O38  1  0.150319  0.573017  0.260462  1
