# generated using pymatgen
data_Sr2FeReO6
_symmetry_space_group_name_H-M   'P 1'
_cell_length_a   5.60411166
_cell_length_b   5.60417127
_cell_length_c   5.64538528
_cell_angle_alpha   119.76833839
_cell_angle_beta   119.76748857
_cell_angle_gamma   89.98199569
_symmetry_Int_Tables_number   1
_chemical_formula_structural   Sr2FeReO6
_chemical_formula_sum   'Sr2 Fe1 Re1 O6'
_cell_volume   126.26466334
_cell_formula_units_Z   1
loop_
 _symmetry_equiv_pos_site_id
 _symmetry_equiv_pos_as_xyz
  1  'x, y, z'
loop_
 _atom_site_type_symbol
 _atom_site_label
 _atom_site_symmetry_multiplicity
 _atom_site_fract_x
 _atom_site_fract_y
 _atom_site_fract_z
 _atom_site_occupancy
  Sr  Sr0  1  0.749817  0.249858  0.499701  1
  Sr  Sr1  1  0.249767  0.749818  0.499634  1
  Fe  Fe2  1  0.500243  0.500003  1.000148  1
  Re  Re3  1  0.999857  0.999914  0.999804  1
  O  O4  1  0.755110  0.755008  0.510060  1
  O  O5  1  0.206955  0.283890  0.000219  1
  O  O6  1  0.283833  0.793288  0.000266  1
  O  O7  1  0.244896  0.245010  0.489958  1
  O  O8  1  0.716319  0.206905  0.000071  1
  O  O9  1  0.793204  0.716305  0.000140  1
