# generated using pymatgen
data_Na2RuO4
_symmetry_space_group_name_H-M   'P 1'
_cell_length_a   7.13048160
_cell_length_b   10.84312444
_cell_length_c   11.05575139
_cell_angle_alpha   119.20345418
_cell_angle_beta   90.00000000
_cell_angle_gamma   90.00000000
_symmetry_Int_Tables_number   1
_chemical_formula_structural   Na2RuO4
_chemical_formula_sum   'Na16 Ru8 O32'
_cell_volume   746.14359155
_cell_formula_units_Z   8
loop_
 _symmetry_equiv_pos_site_id
 _symmetry_equiv_pos_as_xyz
  1  'x, y, z'
loop_
 _atom_site_type_symbol
 _atom_site_label
 _atom_site_symmetry_multiplicity
 _atom_site_fract_x
 _atom_site_fract_y
 _atom_site_fract_z
 _atom_site_occupancy
  Ru  Ru0  1  0.755429  0.499693  0.749227  1
  Ru  Ru1  1  0.255429  0.500307  0.750773  1
  Ru  Ru2  1  0.244571  0.500307  0.250773  1
  Ru  Ru3  1  0.744571  0.499693  0.249227  1
  Ru  Ru4  1  0.770352  0.999152  0.751795  1
  Ru  Ru5  1  0.270352  0.000848  0.748205  1
  Ru  Ru6  1  0.229648  0.000848  0.248205  1
  Ru  Ru7  1  0.729648  0.999152  0.251795  1
  Na  Na8  1  0.540523  0.694327  0.588152  1
  Na  Na9  1  0.040523  0.305673  0.911848  1
  Na  Na10  1  0.459477  0.305673  0.411848  1
  Na  Na11  1  0.959477  0.694327  0.088152  1
  Na  Na12  1  0.431776  0.649513  0.085099  1
  Na  Na13  1  0.931776  0.350487  0.414901  1
  Na  Na14  1  0.568224  0.350487  0.914901  1
  Na  Na15  1  0.068224  0.649513  0.585099  1
  Na  Na16  1  0.487033  0.809514  0.911980  1
  Na  Na17  1  0.987033  0.190486  0.588020  1
  Na  Na18  1  0.512967  0.190486  0.088020  1
  Na  Na19  1  0.012967  0.809514  0.411980  1
  Na  Na20  1  0.997840  0.846836  0.901012  1
  Na  Na21  1  0.497840  0.153164  0.598988  1
  Na  Na22  1  0.002160  0.153164  0.098988  1
  Na  Na23  1  0.502160  0.846836  0.401012  1
  O  O24  1  0.856380  0.836304  0.612861  1
  O  O25  1  0.356380  0.163696  0.887139  1
  O  O26  1  0.143620  0.163696  0.387139  1
  O  O27  1  0.643620  0.836304  0.112861  1
  O  O28  1  0.352066  0.518403  0.611263  1
  O  O29  1  0.852066  0.481597  0.888737  1
  O  O30  1  0.647934  0.481597  0.388737  1
  O  O31  1  0.147934  0.518403  0.111263  1
  O  O32  1  0.747036  0.670905  0.759865  1
  O  O33  1  0.247036  0.329095  0.740135  1
  O  O34  1  0.252964  0.329095  0.240135  1
  O  O35  1  0.752964  0.670905  0.259866  1
  O  O36  1  0.679698  0.992595  0.899204  1
  O  O37  1  0.179698  0.007405  0.600796  1
  O  O38  1  0.320302  0.007405  0.100796  1
  O  O39  1  0.820302  0.992595  0.399204  1
  O  O40  1  0.273223  0.835861  0.752093  1
  O  O41  1  0.773223  0.164139  0.747907  1
  O  O42  1  0.726777  0.164139  0.247907  1
  O  O43  1  0.226777  0.835861  0.252093  1
  O  O44  1  0.317583  0.659364  0.402957  1
  O  O45  1  0.817583  0.340636  0.097043  1
  O  O46  1  0.682417  0.340636  0.597043  1
  O  O47  1  0.182417  0.659364  0.902957  1
  O  O48  1  0.991740  0.531434  0.346987  1
  O  O49  1  0.491740  0.468566  0.153013  1
  O  O50  1  0.008260  0.468566  0.653013  1
  O  O51  1  0.508260  0.531434  0.846987  1
  O  O52  1  0.521485  0.951514  0.648915  1
  O  O53  1  0.021485  0.048486  0.851085  1
  O  O54  1  0.478515  0.048486  0.351085  1
  O  O55  1  0.978515  0.951514  0.148915  1
