# generated using pymatgen
data_CsLi(PO3)2
_symmetry_space_group_name_H-M   'P 1'
_cell_length_a   11.76171688
_cell_length_b   11.76171709
_cell_length_c   11.94194980
_cell_angle_alpha   108.73084760
_cell_angle_beta   108.73084797
_cell_angle_gamma   110.35969047
_symmetry_Int_Tables_number   1
_chemical_formula_structural   CsLi(PO3)2
_chemical_formula_sum   'Cs8 Li8 P16 O48'
_cell_volume   1280.68039924
_cell_formula_units_Z   8
loop_
 _symmetry_equiv_pos_site_id
 _symmetry_equiv_pos_as_xyz
  1  'x, y, z'
loop_
 _atom_site_type_symbol
 _atom_site_label
 _atom_site_symmetry_multiplicity
 _atom_site_fract_x
 _atom_site_fract_y
 _atom_site_fract_z
 _atom_site_occupancy
  Cs  Cs0  1  0.373447  0.624722  0.964494  1
  Cs  Cs1  1  0.374722  0.623447  0.464494  1
  Cs  Cs2  1  0.876687  0.380902  0.756484  1
  Cs  Cs3  1  0.660228  0.408953  0.035506  1
  Cs  Cs4  1  0.624418  0.120203  0.243516  1
  Cs  Cs5  1  0.158953  0.910228  0.535506  1
  Cs  Cs6  1  0.870203  0.874418  0.743516  1
  Cs  Cs7  1  0.130902  0.126687  0.256484  1
  Li  Li8  1  0.917830  0.712950  0.027009  1
  Li  Li9  1  0.685941  0.890821  0.972991  1
  Li  Li10  1  0.640821  0.935941  0.472991  1
  Li  Li11  1  0.955157  0.415820  0.313187  1
  Li  Li12  1  0.165820  0.205157  0.813187  1
  Li  Li13  1  0.462950  0.167830  0.527009  1
  Li  Li14  1  0.391970  0.352633  0.186813  1
  Li  Li15  1  0.102633  0.641970  0.686813  1
  P  P16  1  0.416358  0.897179  0.816498  1
  P  P17  1  0.170330  0.831382  0.994073  1
  P  P18  1  0.311317  0.072784  0.947214  1
  P  P19  1  0.114103  0.375570  0.552786  1
  P  P20  1  0.331078  0.872735  0.272571  1
  P  P21  1  0.622735  0.581078  0.772571  1
  P  P22  1  0.349860  0.330680  0.683502  1
  P  P23  1  0.837309  0.176256  0.005927  1
  P  P24  1  0.581382  0.420330  0.494073  1
  P  P25  1  0.647179  0.666358  0.316498  1
  P  P26  1  0.822784  0.561317  0.447214  1
  P  P27  1  0.600164  0.058507  0.727429  1
  P  P28  1  0.926256  0.087309  0.505927  1
  P  P29  1  0.808507  0.850164  0.227429  1
  P  P30  1  0.080680  0.599860  0.183502  1
  P  P31  1  0.125570  0.364103  0.052786  1
  O  O32  1  0.273844  0.414782  0.641840  1
  O  O33  1  0.028084  0.208155  0.488621  1
  O  O34  1  0.974388  0.581203  0.058297  1
  O  O35  1  0.482713  0.929347  0.722488  1
  O  O36  1  0.958155  0.278084  0.988621  1
  O  O37  1  0.176263  0.050712  0.851899  1
  O  O38  1  0.151602  0.355548  0.936090  1
  O  O39  1  0.705332  0.162772  0.889108  1
  O  O40  1  0.912772  0.955332  0.389108  1
  O  O41  1  0.668984  0.000545  0.658901  1
  O  O42  1  0.679347  0.732713  0.222488  1
  O  O43  1  0.789306  0.081842  0.468605  1
  O  O44  1  0.456985  0.366623  0.363593  1
  O  O45  1  0.510225  0.456859  0.777512  1
  O  O46  1  0.750545  0.918984  0.158901  1
  O  O47  1  0.289464  0.969535  0.011379  1
  O  O48  1  0.041160  0.565205  0.280362  1
  O  O49  1  0.341644  0.010083  0.341099  1
  O  O50  1  0.456045  0.857080  0.321562  1
  O  O51  1  0.003030  0.093392  0.636407  1
  O  O52  1  0.831842  0.039306  0.968605  1
  O  O53  1  0.843392  0.253030  0.136407  1
  O  O54  1  0.206859  0.760225  0.277512  1
  O  O55  1  0.719535  0.539464  0.511379  1
  O  O56  1  0.510798  0.534843  0.219638  1
  O  O57  1  0.419458  0.215512  0.063910  1
  O  O58  1  0.164782  0.523844  0.141840  1
  O  O59  1  0.760083  0.591644  0.841099  1
  O  O60  1  0.284843  0.760798  0.719638  1
  O  O61  1  0.522906  0.916090  0.941703  1
  O  O62  1  0.800712  0.426263  0.351899  1
  O  O63  1  0.273664  0.816224  0.110892  1
  O  O64  1  0.613237  0.320701  0.531395  1
  O  O65  1  0.666090  0.772906  0.441703  1
  O  O66  1  0.074364  0.448813  0.648101  1
  O  O67  1  0.331203  0.224388  0.558297  1
  O  O68  1  0.772942  0.632004  0.358160  1
  O  O69  1  0.535518  0.134483  0.678438  1
  O  O70  1  0.382004  0.022942  0.858160  1
  O  O71  1  0.884483  0.785518  0.178438  1
  O  O72  1  0.965512  0.669458  0.563910  1
  O  O73  1  0.198813  0.324364  0.148101  1
  O  O74  1  0.105548  0.401602  0.436090  1
  O  O75  1  0.116623  0.706985  0.863593  1
  O  O76  1  0.315205  0.291160  0.780362  1
  O  O77  1  0.607080  0.706045  0.821562  1
  O  O78  1  0.070701  0.863237  0.031395  1
  O  O79  1  0.566224  0.523664  0.610892  1
