# generated using pymatgen
data_Cs2Co(NO3)4
_symmetry_space_group_name_H-M   'P 1'
_cell_length_a   8.04195692
_cell_length_b   12.88160088
_cell_length_c   13.77581090
_cell_angle_alpha   101.64529223
_cell_angle_beta   93.34390630
_cell_angle_gamma   105.88828702
_symmetry_Int_Tables_number   1
_chemical_formula_structural   Cs2Co(NO3)4
_chemical_formula_sum   'Cs8 Co4 N16 O48'
_cell_volume   1334.50119864
_cell_formula_units_Z   4
loop_
 _symmetry_equiv_pos_site_id
 _symmetry_equiv_pos_as_xyz
  1  'x, y, z'
loop_
 _atom_site_type_symbol
 _atom_site_label
 _atom_site_symmetry_multiplicity
 _atom_site_fract_x
 _atom_site_fract_y
 _atom_site_fract_z
 _atom_site_occupancy
  Cs  Cs0  1  0.287692  0.515738  0.623046  1
  Cs  Cs1  1  0.712308  0.484262  0.376954  1
  Cs  Cs2  1  0.069763  0.363507  0.902388  1
  Cs  Cs3  1  0.930237  0.636493  0.097612  1
  Cs  Cs4  1  0.707696  0.878696  0.927135  1
  Cs  Cs5  1  0.292304  0.121304  0.072865  1
  Cs  Cs6  1  0.823498  0.118491  0.583965  1
  Cs  Cs7  1  0.176502  0.881509  0.416035  1
  Co  Co8  1  0.110000  0.832081  0.724201  1
  Co  Co9  1  0.890000  0.167919  0.275799  1
  Co  Co10  1  0.530021  0.311788  0.757808  1
  Co  Co11  1  0.469979  0.688212  0.242192  1
  N  N12  1  0.803014  0.715937  0.625678  1
  N  N13  1  0.196986  0.284063  0.374322  1
  N  N14  1  0.105610  0.687931  0.864385  1
  N  N15  1  0.894390  0.312069  0.135615  1
  N  N16  1  0.442678  0.895299  0.699460  1
  N  N17  1  0.557322  0.104701  0.300540  1
  N  N18  1  0.050840  0.021422  0.782486  1
  N  N19  1  0.949160  0.978578  0.217514  1
  N  N20  1  0.314328  0.177847  0.606025  1
  N  N21  1  0.685672  0.822153  0.393975  1
  N  N22  1  0.805980  0.420463  0.646278  1
  N  N23  1  0.194020  0.579537  0.353722  1
  N  N24  1  0.585957  0.508257  0.881487  1
  N  N25  1  0.414043  0.491743  0.118513  1
  N  N26  1  0.572634  0.188646  0.877681  1
  N  N27  1  0.427366  0.811354  0.122319  1
  O  O28  1  0.811561  0.753102  0.719641  1
  O  O29  1  0.188439  0.246898  0.280359  1
  O  O30  1  0.949289  0.737582  0.588796  1
  O  O31  1  0.050711  0.262418  0.411204  1
  O  O32  1  0.664392  0.662289  0.572305  1
  O  O33  1  0.335608  0.337711  0.427695  1
  O  O34  1  0.152655  0.700970  0.777653  1
  O  O35  1  0.847345  0.299030  0.222347  1
  O  O36  1  0.024265  0.748738  0.910037  1
  O  O37  1  0.975735  0.251262  0.089963  1
  O  O38  1  0.145518  0.614060  0.899201  1
  O  O39  1  0.854482  0.385940  0.100799  1
  O  O40  1  0.398773  0.914430  0.787765  1
  O  O41  1  0.601227  0.085570  0.212235  1
  O  O42  1  0.315538  0.843609  0.629370  1
  O  O43  1  0.684462  0.156391  0.370630  1
  O  O44  1  0.595800  0.923590  0.682059  1
  O  O45  1  0.404200  0.076410  0.317941  1
  O  O46  1  0.068055  0.986667  0.691066  1
  O  O47  1  0.931945  0.013333  0.308934  1
  O  O48  1  0.072519  0.958410  0.841436  1
  O  O49  1  0.927481  0.041590  0.158564  1
  O  O50  1  0.012998  0.108199  0.813402  1
  O  O51  1  0.987002  0.891801  0.186598  1
  O  O52  1  0.463379  0.164000  0.624419  1
  O  O53  1  0.536621  0.836000  0.375581  1
  O  O54  1  0.280871  0.257068  0.668386  1
  O  O55  1  0.719129  0.742932  0.331614  1
  O  O56  1  0.207243  0.119660  0.534370  1
  O  O57  1  0.792757  0.880340  0.465630  1
  O  O58  1  0.643303  0.405082  0.658607  1
  O  O59  1  0.356697  0.594918  0.341393  1
  O  O60  1  0.895386  0.373650  0.691011  1
  O  O61  1  0.104614  0.626350  0.308989  1
  O  O62  1  0.870089  0.481160  0.589426  1
  O  O63  1  0.129911  0.518840  0.410574  1
  O  O64  1  0.708437  0.463091  0.881380  1
  O  O65  1  0.291563  0.536909  0.118620  1
  O  O66  1  0.443241  0.449802  0.824539  1
  O  O67  1  0.556759  0.550198  0.175461  1
  O  O68  1  0.599303  0.601791  0.932606  1
  O  O69  1  0.400697  0.398209  0.067394  1
  O  O70  1  0.429874  0.214504  0.871607  1
  O  O71  1  0.570126  0.785496  0.128393  1
  O  O72  1  0.680473  0.223676  0.816992  1
  O  O73  1  0.319527  0.776324  0.183008  1
  O  O74  1  0.606849  0.135359  0.937266  1
  O  O75  1  0.393151  0.864641  0.062734  1
