# generated using pymatgen
data_HgO
_symmetry_space_group_name_H-M   'P 1'
_cell_length_a   5.82862352
_cell_length_b   7.34761102
_cell_length_c   6.76394333
_cell_angle_alpha   88.60495491
_cell_angle_beta   89.98653981
_cell_angle_gamma   90.21566831
_symmetry_Int_Tables_number   1
_chemical_formula_structural   HgO
_chemical_formula_sum   'Hg8 O8'
_cell_volume   289.58781012
_cell_formula_units_Z   8
loop_
 _symmetry_equiv_pos_site_id
 _symmetry_equiv_pos_as_xyz
  1  'x, y, z'
loop_
 _atom_site_type_symbol
 _atom_site_label
 _atom_site_symmetry_multiplicity
 _atom_site_fract_x
 _atom_site_fract_y
 _atom_site_fract_z
 _atom_site_occupancy
  Hg  Hg0  1  0.749467  0.877074  0.878370  1
  Hg  Hg1  1  0.750507  0.379906  0.886043  1
  Hg  Hg2  1  0.249493  0.620094  0.113957  1
  Hg  Hg3  1  0.749394  0.382486  0.386028  1
  Hg  Hg4  1  0.250606  0.617514  0.613972  1
  Hg  Hg5  1  0.249126  0.116780  0.621147  1
  Hg  Hg6  1  0.750874  0.883220  0.378853  1
  Hg  Hg7  1  0.250533  0.122926  0.121630  1
  O  O8  1  0.251111  0.280922  0.866905  1
  O  O9  1  0.749268  0.220317  0.140833  1
  O  O10  1  0.750632  0.542949  0.634740  1
  O  O11  1  0.748889  0.719078  0.133095  1
  O  O12  1  0.751459  0.041826  0.627459  1
  O  O13  1  0.248541  0.958174  0.372541  1
  O  O14  1  0.250732  0.779683  0.859167  1
  O  O15  1  0.249368  0.457051  0.365260  1
