# generated using pymatgen
data_Ca4Al6O13
_symmetry_space_group_name_H-M   'P 1'
_cell_length_a   7.47124633
_cell_length_b   7.47124608
_cell_length_c   7.47124591
_cell_angle_alpha   109.47122266
_cell_angle_beta   109.47122199
_cell_angle_gamma   109.47121998
_symmetry_Int_Tables_number   1
_chemical_formula_structural   Ca4Al6O13
_chemical_formula_sum   'Ca4 Al6 O13'
_cell_volume   321.03857737
_cell_formula_units_Z   1
loop_
 _symmetry_equiv_pos_site_id
 _symmetry_equiv_pos_as_xyz
  1  'x, y, z'
loop_
 _atom_site_type_symbol
 _atom_site_label
 _atom_site_symmetry_multiplicity
 _atom_site_fract_x
 _atom_site_fract_y
 _atom_site_fract_z
 _atom_site_occupancy
  Ca  Ca0  1  0.000000  0.000000  0.682196  1
  Ca  Ca1  1  0.682196  1.000000  1.000000  1
  Ca  Ca2  1  0.317804  0.317804  0.317804  1
  Ca  Ca3  1  0.000000  0.682196  0.000000  1
  Al  Al4  1  0.750000  0.500000  0.250000  1
  Al  Al5  1  0.250000  0.750000  0.500000  1
  Al  Al6  1  0.250000  0.500000  0.750000  1
  Al  Al7  1  0.500000  0.250000  0.750000  1
  Al  Al8  1  0.500000  0.750000  0.250000  1
  Al  Al9  1  0.750000  0.250000  0.500000  1
  O  O10  1  0.257981  0.544450  1.000000  1
  O  O11  1  0.713532  0.455550  0.455550  1
  O  O12  1  0.000000  0.257981  0.544450  1
  O  O13  1  0.455550  0.713532  0.455550  1
  O  O14  1  0.544450  0.000000  0.257981  1
  O  O15  1  0.742019  0.742019  0.286468  1
  O  O16  1  0.257981  1.000000  0.544450  1
  O  O17  1  0.742019  0.286468  0.742019  1
  O  O18  1  0.286468  0.742019  0.742019  1
  O  O19  1  0.544450  0.257981  0.000000  1
  O  O20  1  0.000000  0.544450  0.257981  1
  O  O21  1  0.455550  0.455550  0.713532  1
  O  O22  1  0.000000  0.000000  0.000000  1
