# generated using pymatgen
data_Eu3Sn2S7
_symmetry_space_group_name_H-M   'P 1'
_cell_length_a   3.99610885
_cell_length_b   11.40130511
_cell_length_c   12.66061769
_cell_angle_alpha   90.00000000
_cell_angle_beta   90.00000000
_cell_angle_gamma   90.00000000
_symmetry_Int_Tables_number   1
_chemical_formula_structural   Eu3Sn2S7
_chemical_formula_sum   'Eu6 Sn4 S14'
_cell_volume   576.82858263
_cell_formula_units_Z   2
loop_
 _symmetry_equiv_pos_site_id
 _symmetry_equiv_pos_as_xyz
  1  'x, y, z'
loop_
 _atom_site_type_symbol
 _atom_site_label
 _atom_site_symmetry_multiplicity
 _atom_site_fract_x
 _atom_site_fract_y
 _atom_site_fract_z
 _atom_site_occupancy
  Eu  Eu0  1  0.000000  0.000000  0.500000  1
  Eu  Eu1  1  0.000000  0.500000  0.000000  1
  Eu  Eu2  1  0.000000  0.383123  0.651799  1
  Eu  Eu3  1  0.000000  0.616877  0.348201  1
  Eu  Eu4  1  0.000000  0.883123  0.848201  1
  Eu  Eu5  1  0.000000  0.116877  0.151799  1
  Sn  Sn6  1  0.500000  0.286932  0.391031  1
  Sn  Sn7  1  0.500000  0.713068  0.608969  1
  Sn  Sn8  1  0.500000  0.786932  0.108969  1
  Sn  Sn9  1  0.500000  0.213068  0.891031  1
  S  S10  1  0.000000  0.355017  0.287197  1
  S  S11  1  0.000000  0.644983  0.712803  1
  S  S12  1  0.000000  0.855017  0.212803  1
  S  S13  1  0.000000  0.144983  0.787197  1
  S  S14  1  0.500000  0.297722  0.069765  1
  S  S15  1  0.500000  0.702278  0.930235  1
  S  S16  1  0.500000  0.797722  0.430235  1
  S  S17  1  0.500000  0.202278  0.569765  1
  S  S18  1  0.500000  0.080412  0.321354  1
  S  S19  1  0.500000  0.919588  0.678647  1
  S  S20  1  0.500000  0.580412  0.178647  1
  S  S21  1  0.500000  0.419588  0.821353  1
  S  S22  1  0.500000  0.000000  0.000000  1
  S  S23  1  0.500000  0.500000  0.500000  1
