# generated using pymatgen
data_Na11Ti10O21
_symmetry_space_group_name_H-M   'P 1'
_cell_length_a   5.71964325
_cell_length_b   17.14574069
_cell_length_c   39.98184476
_cell_angle_alpha   30.88066286
_cell_angle_beta   30.86309014
_cell_angle_gamma   30.89273733
_symmetry_Int_Tables_number   1
_chemical_formula_structural   Na11Ti10O21
_chemical_formula_sum   'Na22 Ti20 O42'
_cell_volume   916.01460704
_cell_formula_units_Z   2
loop_
 _symmetry_equiv_pos_site_id
 _symmetry_equiv_pos_as_xyz
  1  'x, y, z'
loop_
 _atom_site_type_symbol
 _atom_site_label
 _atom_site_symmetry_multiplicity
 _atom_site_fract_x
 _atom_site_fract_y
 _atom_site_fract_z
 _atom_site_occupancy
  Na  Na0  1  0.970932  0.997838  0.146943  1
  Na  Na1  1  0.969686  0.341312  1.000605  1
  Na  Na2  1  -0.001684  0.998022  0.286305  1
  Na  Na3  1  0.011960  0.326519  0.143599  1
  Na  Na4  1  0.030314  0.658688  -0.000605  1
  Na  Na5  1  0.999099  -0.000029  0.428662  1
  Na  Na6  1  0.000404  0.333808  0.285339  1
  Na  Na7  1  0.001781  0.664753  0.143485  1
  Na  Na8  1  0.497259  0.834722  0.071166  1
  Na  Na9  1  0.000901  1.000029  0.571338  1
  Na  Na10  1  -0.000724  0.332738  0.428857  1
  Na  Na11  1  0.989753  0.663839  0.288343  1
  Na  Na12  1  -0.001418  0.666769  0.428462  1
  Na  Na13  1  0.029068  0.002162  0.853057  1
  Na  Na14  1  1.000724  0.667262  0.571143  1
  Na  Na15  1  1.001684  0.001978  0.713695  1
  Na  Na16  1  1.001418  0.333231  0.571538  1
  Na  Na17  1  0.998219  0.335247  0.856515  1
  Na  Na18  1  0.999596  0.666192  0.714661  1
  Na  Na19  1  0.010247  0.336161  0.711657  1
  Na  Na20  1  0.502741  0.165278  0.928834  1
  Na  Na21  1  0.988040  0.673481  0.856401  1
  O  O22  1  0.174055  0.093410  0.039824  1
  O  O23  1  0.219527  0.412342  0.034649  1
  O  O24  1  0.223818  0.077385  0.177941  1
  O  O25  1  0.764963  0.257430  0.110812  1
  O  O26  1  0.226202  0.413946  0.177216  1
  O  O27  1  0.275375  0.750122  0.030557  1
  O  O28  1  0.235868  0.079259  0.319249  1
  O  O29  1  0.762480  0.252871  0.254037  1
  O  O30  1  0.813491  0.561150  0.114205  1
  O  O31  1  0.234307  0.077434  0.462830  1
  O  O32  1  0.235382  0.407606  0.320525  1
  O  O33  1  0.189832  0.731000  0.188209  1
  O  O34  1  0.722908  0.929881  0.106593  1
  O  O35  1  0.759887  0.256095  0.394178  1
  O  O36  1  0.765461  0.588149  0.251591  1
  O  O37  1  0.233608  0.080047  0.604982  1
  O  O38  1  0.222115  0.745946  0.319061  1
  O  O39  1  0.235969  0.413352  0.461892  1
  O  O40  1  0.763048  0.586905  0.395850  1
  O  O41  1  0.759950  0.920673  0.252783  1
  O  O42  1  0.766012  0.254420  0.537778  1
  O  O43  1  0.236952  0.413095  0.604150  1
  O  O44  1  0.240050  0.079327  0.747217  1
  O  O45  1  0.233988  0.745580  0.462222  1
  O  O46  1  0.766392  0.919953  0.395018  1
  O  O47  1  0.777884  0.254054  0.680939  1
  O  O48  1  0.764031  0.586648  0.538108  1
  O  O49  1  0.277092  0.070119  0.893407  1
  O  O50  1  0.240113  0.743905  0.605822  1
  O  O51  1  0.234539  0.411851  0.748409  1
  O  O52  1  0.764618  0.592394  0.679475  1
  O  O53  1  0.765693  0.922566  0.537170  1
  O  O54  1  0.810168  0.269000  0.811791  1
  O  O55  1  0.186509  0.438850  0.885795  1
  O  O56  1  0.237520  0.747129  0.745963  1
  O  O57  1  0.764132  0.920741  0.680751  1
  O  O58  1  0.724625  0.249878  0.969443  1
  O  O59  1  0.773798  0.586054  0.822784  1
  O  O60  1  0.235037  0.742570  0.889188  1
  O  O61  1  0.780473  0.587658  0.965351  1
  O  O62  1  0.776182  0.922615  0.822059  1
  O  O63  1  0.825945  0.906590  0.960176  1
  Ti  Ti64  1  0.000000  0.000000  0.000000  1
  Ti  Ti65  1  0.550660  0.161539  0.067087  1
  Ti  Ti66  1  0.499861  0.166433  0.214301  1
  Ti  Ti67  1  0.484389  0.513591  0.069479  1
  Ti  Ti68  1  0.493830  0.162785  0.359550  1
  Ti  Ti69  1  0.498258  0.504636  0.212704  1
  Ti  Ti70  1  0.506392  0.497332  0.357077  1
  Ti  Ti71  1  0.499189  0.172290  0.497722  1
  Ti  Ti72  1  0.502861  0.839818  0.208897  1
  Ti  Ti73  1  0.489548  0.837298  0.356896  1
  Ti  Ti74  1  0.510452  0.162702  0.643104  1
  Ti  Ti75  1  0.500000  0.500000  0.500000  1
  Ti  Ti76  1  0.497139  0.160182  0.791103  1
  Ti  Ti77  1  0.493608  0.502668  0.642923  1
  Ti  Ti78  1  0.500811  0.827710  0.502278  1
  Ti  Ti79  1  0.501742  0.495364  0.787296  1
  Ti  Ti80  1  0.506170  0.837215  0.640450  1
  Ti  Ti81  1  0.515611  0.486409  0.930521  1
  Ti  Ti82  1  0.500139  0.833567  0.785699  1
  Ti  Ti83  1  0.449340  0.838461  0.932913  1
