# generated using pymatgen
data_Nb12O29
_symmetry_space_group_name_H-M   'P 1'
_cell_length_a   3.87066894
_cell_length_b   10.74139968
_cell_length_c   15.46266987
_cell_angle_alpha   72.82683672
_cell_angle_beta   82.80990616
_cell_angle_gamma   79.62003419
_symmetry_Int_Tables_number   1
_chemical_formula_structural   Nb12O29
_chemical_formula_sum   'Nb12 O29'
_cell_volume   602.39449437
_cell_formula_units_Z   1
loop_
 _symmetry_equiv_pos_site_id
 _symmetry_equiv_pos_as_xyz
  1  'x, y, z'
loop_
 _atom_site_type_symbol
 _atom_site_label
 _atom_site_symmetry_multiplicity
 _atom_site_fract_x
 _atom_site_fract_y
 _atom_site_fract_z
 _atom_site_occupancy
  Nb  Nb0  1  0.932896  0.032685  0.101524  1
  Nb  Nb1  1  0.067104  0.967315  0.898476  1
  Nb  Nb2  1  0.301667  0.297615  0.099051  1
  Nb  Nb3  1  0.698333  0.702385  0.900949  1
  Nb  Nb4  1  0.119400  0.663936  0.097265  1
  Nb  Nb5  1  0.880600  0.336064  0.902735  1
  Nb  Nb6  1  0.855141  0.918387  0.371331  1
  Nb  Nb7  1  0.144859  0.081613  0.628669  1
  Nb  Nb8  1  0.223074  0.187013  0.366840  1
  Nb  Nb9  1  0.776926  0.812987  0.633160  1
  Nb  Nb10  1  0.038732  0.553121  0.369415  1
  Nb  Nb11  1  0.961268  0.446879  0.630585  1
  O  O12  1  0.000000  0.500000  0.500000  1
  O  O13  1  0.834354  0.259723  0.071570  1
  O  O14  1  0.165646  0.740277  0.928430  1
  O  O15  1  0.632789  0.676389  0.058032  1
  O  O16  1  0.367211  0.323611  0.941968  1
  O  O17  1  0.413244  0.087494  0.086019  1
  O  O18  1  0.586756  0.912506  0.913981  1
  O  O19  1  0.218677  0.479547  0.083100  1
  O  O20  1  0.781323  0.520453  0.916900  1
  O  O21  1  0.030380  0.875522  0.063718  1
  O  O22  1  0.969620  0.124478  0.936282  1
  O  O23  1  0.899494  0.977202  0.223810  1
  O  O24  1  0.100506  0.022798  0.776190  1
  O  O25  1  0.269827  0.238224  0.222121  1
  O  O26  1  0.730173  0.761776  0.777879  1
  O  O27  1  0.078487  0.624961  0.218064  1
  O  O28  1  0.921513  0.375039  0.781936  1
  O  O29  1  0.943952  0.746315  0.365781  1
  O  O30  1  0.056048  0.253685  0.634219  1
  O  O31  1  0.750911  0.139464  0.358714  1
  O  O32  1  0.249089  0.860536  0.641286  1
  O  O33  1  0.544703  0.558392  0.352203  1
  O  O34  1  0.455297  0.441608  0.647797  1
  O  O35  1  0.333197  0.972464  0.361143  1
  O  O36  1  0.666803  0.027536  0.638857  1
  O  O37  1  0.137487  0.363807  0.361219  1
  O  O38  1  0.862513  0.636193  0.638781  1
  O  O39  1  0.811545  0.875376  0.501534  1
  O  O40  1  0.188455  0.124624  0.498466  1
