# generated using pymatgen
data_Bi10(MoO8)3
_symmetry_space_group_name_H-M   'P 1'
_cell_length_a   5.74320736
_cell_length_b   8.85283695
_cell_length_c   12.31128716
_cell_angle_alpha   95.59150592
_cell_angle_beta   103.49180224
_cell_angle_gamma   89.99796936
_symmetry_Int_Tables_number   1
_chemical_formula_structural   Bi10(MoO8)3
_chemical_formula_sum   'Bi10 Mo3 O24'
_cell_volume   605.61415327
_cell_formula_units_Z   1
loop_
 _symmetry_equiv_pos_site_id
 _symmetry_equiv_pos_as_xyz
  1  'x, y, z'
loop_
 _atom_site_type_symbol
 _atom_site_label
 _atom_site_symmetry_multiplicity
 _atom_site_fract_x
 _atom_site_fract_y
 _atom_site_fract_z
 _atom_site_occupancy
  Bi  Bi0  1  0.471167  0.675667  0.926905  1
  Bi  Bi1  1  0.786936  0.546690  0.388286  1
  Bi  Bi2  1  0.544201  0.324341  0.073096  1
  Bi  Bi3  1  0.275518  0.811518  0.476814  1
  Bi  Bi4  1  0.082474  0.588056  0.151269  1
  Bi  Bi5  1  0.398728  0.453307  0.611758  1
  Bi  Bi6  1  0.176789  0.248584  0.296843  1
  Bi  Bi7  1  0.931302  0.411922  0.848793  1
  Bi  Bi8  1  0.880013  0.751412  0.703206  1
  Bi  Bi9  1  0.798723  0.188412  0.523207  1
  Mo  Mo10  1  0.428255  0.073586  0.747465  1
  Mo  Mo11  1  0.000256  0.000058  0.999956  1
  Mo  Mo12  1  0.680774  0.926412  0.252557  1
  O  O13  1  0.761744  0.354780  0.652927  1
  O  O14  1  0.963686  0.995044  0.345847  1
  O  O15  1  0.108892  0.645128  0.347103  1
  O  O16  1  0.879252  0.062705  0.119693  1
  O  O17  1  0.296527  0.500011  0.999998  1
  O  O18  1  0.544690  0.650956  0.552673  1
  O  O19  1  0.777801  0.500000  1.000000  1
  O  O20  1  0.184713  0.838008  0.027385  1
  O  O21  1  0.480589  0.080972  0.216631  1
  O  O22  1  0.263889  0.919056  0.783369  1
  O  O23  1  0.199669  0.169134  0.651833  1
  O  O24  1  0.557436  0.226671  0.852380  1
  O  O25  1  0.140954  0.593729  0.792392  1
  O  O26  1  0.547868  0.830884  0.348189  1
  O  O27  1  0.705019  0.773370  0.147600  1
  O  O28  1  0.348471  0.406236  0.207593  1
  O  O29  1  0.759410  0.937366  0.880219  1
  O  O30  1  0.864898  0.419154  0.217491  1
  O  O31  1  0.474042  0.313017  0.448240  1
  O  O32  1  0.647494  0.580880  0.782516  1
  O  O33  1  0.025863  0.686965  0.551780  1
  O  O34  1  0.157327  0.162041  0.972539  1
  O  O35  1  0.617729  0.004924  0.654116  1
  O  O36  1  0.991902  0.349001  0.447327  1
