# generated using pymatgen
data_La5Ti2CuS5O7
_symmetry_space_group_name_H-M   'P 1'
_cell_length_a   3.96748384
_cell_length_b   18.24929163
_cell_length_c   19.53965234
_cell_angle_alpha   90.00000000
_cell_angle_beta   90.00000000
_cell_angle_gamma   90.00000000
_symmetry_Int_Tables_number   1
_chemical_formula_structural   La5Ti2CuS5O7
_chemical_formula_sum   'La20 Ti8 Cu4 S20 O28'
_cell_volume   1414.74448674
_cell_formula_units_Z   4
loop_
 _symmetry_equiv_pos_site_id
 _symmetry_equiv_pos_as_xyz
  1  'x, y, z'
loop_
 _atom_site_type_symbol
 _atom_site_label
 _atom_site_symmetry_multiplicity
 _atom_site_fract_x
 _atom_site_fract_y
 _atom_site_fract_z
 _atom_site_occupancy
  La  La0  1  0.750000  0.377601  0.512960  1
  La  La1  1  0.750000  0.998683  0.606617  1
  La  La2  1  0.750000  0.696526  0.958351  1
  La  La3  1  0.250000  0.969709  0.181363  1
  La  La4  1  0.750000  0.803474  0.458351  1
  La  La5  1  0.750000  0.469709  0.318637  1
  La  La6  1  0.250000  0.530291  0.681363  1
  La  La7  1  0.250000  0.001317  0.393383  1
  La  La8  1  0.750000  0.122399  0.012960  1
  La  La9  1  0.250000  0.710911  0.304852  1
  La  La10  1  0.750000  0.289089  0.695148  1
  La  La11  1  0.250000  0.789089  0.804852  1
  La  La12  1  0.250000  0.303474  0.041649  1
  La  La13  1  0.750000  0.501317  0.106617  1
  La  La14  1  0.750000  0.210911  0.195148  1
  La  La15  1  0.250000  0.196526  0.541649  1
  La  La16  1  0.750000  0.030291  0.818637  1
  La  La17  1  0.250000  0.622399  0.487040  1
  La  La18  1  0.250000  0.877601  0.987040  1
  La  La19  1  0.250000  0.498683  0.893383  1
  Ti  Ti20  1  0.250000  0.113094  0.697163  1
  Ti  Ti21  1  0.250000  0.172825  0.878365  1
  Ti  Ti22  1  0.750000  0.886906  0.302837  1
  Ti  Ti23  1  0.750000  0.672825  0.621635  1
  Ti  Ti24  1  0.250000  0.386906  0.197163  1
  Ti  Ti25  1  0.250000  0.327175  0.378365  1
  Ti  Ti26  1  0.750000  0.827175  0.121635  1
  Ti  Ti27  1  0.750000  0.613094  0.802837  1
  Cu  Cu28  1  0.250000  0.646384  0.141274  1
  Cu  Cu29  1  0.250000  0.853616  0.641274  1
  Cu  Cu30  1  0.750000  0.353616  0.858726  1
  Cu  Cu31  1  0.750000  0.146384  0.358726  1
  S  S32  1  0.250000  0.905265  0.531204  1
  S  S33  1  0.250000  0.208855  0.327154  1
  S  S34  1  0.250000  0.467092  0.432417  1
  S  S35  1  0.250000  0.594735  0.031204  1
  S  S36  1  0.250000  0.546404  0.219541  1
  S  S37  1  0.250000  0.381105  0.630241  1
  S  S38  1  0.750000  0.967092  0.067583  1
  S  S39  1  0.750000  0.094735  0.468796  1
  S  S40  1  0.750000  0.618895  0.369759  1
  S  S41  1  0.750000  0.708855  0.172846  1
  S  S42  1  0.750000  0.791145  0.672846  1
  S  S43  1  0.250000  0.953596  0.719541  1
  S  S44  1  0.750000  0.405265  0.968796  1
  S  S45  1  0.250000  0.118895  0.130241  1
  S  S46  1  0.250000  0.291145  0.827154  1
  S  S47  1  0.750000  0.453596  0.780459  1
  S  S48  1  0.750000  0.881105  0.869759  1
  S  S49  1  0.750000  0.532908  0.567583  1
  S  S50  1  0.250000  0.032908  0.932417  1
  S  S51  1  0.750000  0.046404  0.280459  1
  O  O52  1  0.250000  0.392372  0.295644  1
  O  O53  1  0.250000  0.076193  0.605780  1
  O  O54  1  0.250000  0.745625  0.425353  1
  O  O55  1  0.750000  0.806150  0.027867  1
  O  O56  1  0.250000  0.423807  0.105780  1
  O  O57  1  0.750000  0.923807  0.394220  1
  O  O58  1  0.750000  0.607628  0.704356  1
  O  O59  1  0.750000  0.693850  0.527867  1
  O  O60  1  0.250000  0.107628  0.795644  1
  O  O61  1  0.250000  0.193850  0.972133  1
  O  O62  1  0.750000  0.709821  0.824345  1
  O  O63  1  0.250000  0.842524  0.119439  1
  O  O64  1  0.250000  0.596042  0.799624  1
  O  O65  1  0.750000  0.576193  0.894220  1
  O  O66  1  0.750000  0.892372  0.204356  1
  O  O67  1  0.250000  0.290179  0.175655  1
  O  O68  1  0.250000  0.306150  0.472133  1
  O  O69  1  0.750000  0.342524  0.380561  1
  O  O70  1  0.750000  0.245625  0.074647  1
  O  O71  1  0.250000  0.903958  0.299624  1
  O  O72  1  0.750000  0.403958  0.200376  1
  O  O73  1  0.750000  0.157476  0.880561  1
  O  O74  1  0.750000  0.096042  0.700376  1
  O  O75  1  0.750000  0.254375  0.574647  1
  O  O76  1  0.250000  0.754375  0.925353  1
  O  O77  1  0.250000  0.209821  0.675655  1
  O  O78  1  0.250000  0.657476  0.619439  1
  O  O79  1  0.750000  0.790179  0.324345  1
