# generated using pymatgen
data_Rb2PbO2
_symmetry_space_group_name_H-M   'P 1'
_cell_length_a   7.96105506
_cell_length_b   7.71336840
_cell_length_c   10.59883745
_cell_angle_alpha   70.25869670
_cell_angle_beta   85.15485697
_cell_angle_gamma   61.30832723
_symmetry_Int_Tables_number   1
_chemical_formula_structural   Rb2PbO2
_chemical_formula_sum   'Rb8 Pb4 O8'
_cell_volume   534.98583926
_cell_formula_units_Z   4
loop_
 _symmetry_equiv_pos_site_id
 _symmetry_equiv_pos_as_xyz
  1  'x, y, z'
loop_
 _atom_site_type_symbol
 _atom_site_label
 _atom_site_symmetry_multiplicity
 _atom_site_fract_x
 _atom_site_fract_y
 _atom_site_fract_z
 _atom_site_occupancy
  Pb  Pb0  1  0.940786  0.597166  0.126597  1
  Pb  Pb1  1  0.059214  0.402834  0.873403  1
  Pb  Pb2  1  0.295486  0.694880  0.526111  1
  Pb  Pb3  1  0.704514  0.305120  0.473889  1
  Rb  Rb4  1  0.933536  0.075712  0.176975  1
  Rb  Rb5  1  0.066464  0.924288  0.823025  1
  Rb  Rb6  1  0.267884  0.238942  0.493129  1
  Rb  Rb7  1  0.732116  0.761058  0.506871  1
  Rb  Rb8  1  0.431295  0.602263  0.141252  1
  Rb  Rb9  1  0.568705  0.397737  0.858748  1
  Rb  Rb10  1  0.451202  0.064356  0.169743  1
  Rb  Rb11  1  0.548798  0.935644  0.830257  1
  O  O12  1  0.787090  0.929548  0.022387  1
  O  O13  1  0.212910  0.070452  0.977613  1
  O  O14  1  0.806772  0.496461  0.005063  1
  O  O15  1  0.193228  0.503539  0.994937  1
  O  O16  1  0.402107  0.805677  0.644929  1
  O  O17  1  0.597893  0.194323  0.355071  1
  O  O18  1  0.483780  0.341861  0.625951  1
  O  O19  1  0.516220  0.658139  0.374049  1
