# generated using pymatgen
data_Er3CuGeS7
_symmetry_space_group_name_H-M   'P 1'
_cell_length_a   9.77367474
_cell_length_b   9.77367433
_cell_length_c   5.86099277
_cell_angle_alpha   90.00000000
_cell_angle_beta   90.00000000
_cell_angle_gamma   120.00000141
_symmetry_Int_Tables_number   1
_chemical_formula_structural   Er3CuGeS7
_chemical_formula_sum   'Er6 Cu2 Ge2 S14'
_cell_volume   484.86133954
_cell_formula_units_Z   2
loop_
 _symmetry_equiv_pos_site_id
 _symmetry_equiv_pos_as_xyz
  1  'x, y, z'
loop_
 _atom_site_type_symbol
 _atom_site_label
 _atom_site_symmetry_multiplicity
 _atom_site_fract_x
 _atom_site_fract_y
 _atom_site_fract_z
 _atom_site_occupancy
  Er  Er0  1  0.221550  0.358083  0.755558  1
  Er  Er1  1  0.778450  0.641917  0.255558  1
  Er  Er2  1  0.863467  0.221550  0.255558  1
  Er  Er3  1  0.136533  0.778450  0.755558  1
  Er  Er4  1  0.641917  0.863467  0.755558  1
  Er  Er5  1  0.358083  0.136533  0.255558  1
  Cu  Cu6  1  0.000000  0.000000  0.672735  1
  Cu  Cu7  1  0.000000  0.000000  0.172735  1
  Ge  Ge8  1  0.666667  0.333333  0.835743  1
  Ge  Ge9  1  0.333333  0.666667  0.335743  1
  S  S10  1  0.519724  0.423572  0.000018  1
  S  S11  1  0.738691  0.896044  0.203751  1
  S  S12  1  0.576428  0.096152  0.000018  1
  S  S13  1  0.096152  0.519724  0.500018  1
  S  S14  1  0.842647  0.738691  0.703751  1
  S  S15  1  0.103956  0.842647  0.203751  1
  S  S16  1  0.896044  0.157353  0.703751  1
  S  S17  1  0.333333  0.666667  0.958038  1
  S  S18  1  0.903848  0.480276  0.000018  1
  S  S19  1  0.666667  0.333333  0.458038  1
  S  S20  1  0.261309  0.103956  0.703751  1
  S  S21  1  0.480276  0.576428  0.500018  1
  S  S22  1  0.157353  0.261309  0.203751  1
  S  S23  1  0.423572  0.903848  0.500018  1
