# generated using pymatgen
data_BiBr
_symmetry_space_group_name_H-M   'P 1'
_cell_length_a   4.26812437
_cell_length_b   7.62178392
_cell_length_c   20.43124189
_cell_angle_alpha   87.50721952
_cell_angle_beta   84.01488325
_cell_angle_gamma   73.74610743
_symmetry_Int_Tables_number   1
_chemical_formula_structural   BiBr
_chemical_formula_sum   'Bi8 Br8'
_cell_volume   634.52840087
_cell_formula_units_Z   8
loop_
 _symmetry_equiv_pos_site_id
 _symmetry_equiv_pos_as_xyz
  1  'x, y, z'
loop_
 _atom_site_type_symbol
 _atom_site_label
 _atom_site_symmetry_multiplicity
 _atom_site_fract_x
 _atom_site_fract_y
 _atom_site_fract_z
 _atom_site_occupancy
  Bi  Bi0  1  0.826136  0.353224  0.994456  1
  Bi  Bi1  1  0.173864  0.646776  0.005544  1
  Bi  Bi2  1  0.821164  0.852635  0.505075  1
  Bi  Bi3  1  0.794286  0.267742  0.143817  1
  Bi  Bi4  1  0.205714  0.732258  0.856183  1
  Bi  Bi5  1  0.178836  0.147365  0.494925  1
  Bi  Bi6  1  0.929165  0.786360  0.355123  1
  Bi  Bi7  1  0.070835  0.213640  0.644877  1
  Br  Br8  1  0.852211  0.477501  0.817935  1
  Br  Br9  1  0.549805  0.518846  0.381767  1
  Br  Br10  1  0.559633  0.994815  0.886959  1
  Br  Br11  1  0.440367  0.005185  0.113041  1
  Br  Br12  1  0.450195  0.481154  0.618233  1
  Br  Br13  1  0.317449  0.045950  0.318281  1
  Br  Br14  1  0.682551  0.954050  0.681719  1
  Br  Br15  1  0.147789  0.522499  0.182065  1
