# generated using pymatgen
data_OsXe(O2F3)2
_symmetry_space_group_name_H-M   'P 1'
_cell_length_a   5.35515847
_cell_length_b   8.06929255
_cell_length_c   9.63364662
_cell_angle_alpha   80.77107852
_cell_angle_beta   81.61048312
_cell_angle_gamma   87.93331243
_symmetry_Int_Tables_number   1
_chemical_formula_structural   OsXe(O2F3)2
_chemical_formula_sum   'Os2 Xe2 O8 F12'
_cell_volume   406.47244889
_cell_formula_units_Z   2
loop_
 _symmetry_equiv_pos_site_id
 _symmetry_equiv_pos_as_xyz
  1  'x, y, z'
loop_
 _atom_site_type_symbol
 _atom_site_label
 _atom_site_symmetry_multiplicity
 _atom_site_fract_x
 _atom_site_fract_y
 _atom_site_fract_z
 _atom_site_occupancy
  Os  Os0  1  0.120670  0.665566  0.365368  1
  Os  Os1  1  0.879330  0.334434  0.634632  1
  Xe  Xe2  1  0.441246  0.778604  0.837338  1
  Xe  Xe3  1  0.558754  0.221396  0.162662  1
  O  O4  1  0.266433  0.950988  0.910428  1
  O  O5  1  0.733567  0.049012  0.089572  1
  O  O6  1  0.983358  0.275696  0.794933  1
  O  O7  1  0.410971  0.754434  0.346339  1
  O  O8  1  0.589029  0.245566  0.653661  1
  O  O9  1  0.938042  0.789034  0.470315  1
  O  O10  1  0.016642  0.724304  0.205067  1
  O  O11  1  0.061958  0.210966  0.529685  1
  F  F12  1  0.136328  0.626415  0.876379  1
  F  F13  1  0.863672  0.373585  0.123621  1
  F  F14  1  0.177824  0.513596  0.564902  1
  F  F15  1  0.728744  0.543942  0.689827  1
  F  F16  1  0.458042  0.322241  0.969897  1
  F  F17  1  0.271256  0.456058  0.310173  1
  F  F18  1  0.767808  0.911309  0.787863  1
  F  F19  1  0.232192  0.088691  0.212137  1
  F  F20  1  0.641778  0.137981  0.361479  1
  F  F21  1  0.822176  0.486404  0.435098  1
  F  F22  1  0.358222  0.862019  0.638521  1
  F  F23  1  0.541958  0.677759  0.030103  1
