# generated using pymatgen
data_Tb2Si5Os3
_symmetry_space_group_name_H-M   'P 1'
_cell_length_a   5.69858863
_cell_length_b   10.75164789
_cell_length_c   10.75164789
_cell_angle_alpha   90.00000000
_cell_angle_beta   90.00000000
_cell_angle_gamma   90.00000000
_symmetry_Int_Tables_number   1
_chemical_formula_structural   Tb2Si5Os3
_chemical_formula_sum   'Tb8 Si20 Os12'
_cell_volume   658.74506294
_cell_formula_units_Z   4
loop_
 _symmetry_equiv_pos_site_id
 _symmetry_equiv_pos_as_xyz
  1  'x, y, z'
loop_
 _atom_site_type_symbol
 _atom_site_label
 _atom_site_symmetry_multiplicity
 _atom_site_fract_x
 _atom_site_fract_y
 _atom_site_fract_z
 _atom_site_occupancy
  Tb  Tb0  1  -0.000000  0.264562  0.429129  1
  Tb  Tb1  1  -0.000000  0.570871  0.264562  1
  Tb  Tb2  1  -0.000000  0.429129  0.735438  1
  Tb  Tb3  1  -0.000000  0.735438  0.570871  1
  Tb  Tb4  1  0.500000  0.764562  0.070871  1
  Tb  Tb5  1  0.500000  0.235438  0.929129  1
  Tb  Tb6  1  0.500000  0.929129  0.764562  1
  Tb  Tb7  1  0.500000  0.070871  0.235438  1
  Si  Si8  1  0.244005  0.000000  -0.000000  1
  Si  Si9  1  0.255995  0.500000  0.500000  1
  Si  Si10  1  0.755995  0.000000  -0.000000  1
  Si  Si11  1  0.744005  0.500000  0.500000  1
  Si  Si12  1  0.250000  0.172803  0.672803  1
  Si  Si13  1  0.250000  0.327197  0.172803  1
  Si  Si14  1  0.250000  0.672803  0.827197  1
  Si  Si15  1  0.250000  0.827197  0.327197  1
  Si  Si16  1  0.750000  0.827197  0.327197  1
  Si  Si17  1  0.750000  0.672803  0.827197  1
  Si  Si18  1  0.750000  0.327197  0.172803  1
  Si  Si19  1  0.750000  0.172803  0.672803  1
  Si  Si20  1  -0.000000  0.026217  0.320059  1
  Si  Si21  1  -0.000000  0.679941  0.026217  1
  Si  Si22  1  -0.000000  0.320059  0.973783  1
  Si  Si23  1  -0.000000  0.973783  0.679941  1
  Si  Si24  1  0.500000  0.526217  0.179941  1
  Si  Si25  1  0.500000  0.473783  0.820059  1
  Si  Si26  1  0.500000  0.820059  0.526217  1
  Si  Si27  1  0.500000  0.179941  0.473783  1
  Os  Os28  1  0.250000  0.000000  0.500000  1
  Os  Os29  1  0.250000  0.500000  -0.000000  1
  Os  Os30  1  0.750000  0.000000  0.500000  1
  Os  Os31  1  0.750000  0.500000  -0.000000  1
  Os  Os32  1  -0.000000  0.146561  0.125600  1
  Os  Os33  1  -0.000000  0.874400  0.146561  1
  Os  Os34  1  -0.000000  0.125600  0.853439  1
  Os  Os35  1  -0.000000  0.853439  0.874400  1
  Os  Os36  1  0.500000  0.646561  0.374400  1
  Os  Os37  1  0.500000  0.353439  0.625600  1
  Os  Os38  1  0.500000  0.625600  0.646561  1
  Os  Os39  1  0.500000  0.374400  0.353439  1
