# generated using pymatgen
data_K3Nb6VO19
_symmetry_space_group_name_H-M   'P 1'
_cell_length_a   9.28439959
_cell_length_b   9.28440009
_cell_length_c   24.46717280
_cell_angle_alpha   90.00000000
_cell_angle_beta   90.00000000
_cell_angle_gamma   119.99999820
_symmetry_Int_Tables_number   1
_chemical_formula_structural   K3Nb6VO19
_chemical_formula_sum   'K12 Nb24 V4 O76'
_cell_volume   1826.51019005
_cell_formula_units_Z   4
loop_
 _symmetry_equiv_pos_site_id
 _symmetry_equiv_pos_as_xyz
  1  'x, y, z'
loop_
 _atom_site_type_symbol
 _atom_site_label
 _atom_site_symmetry_multiplicity
 _atom_site_fract_x
 _atom_site_fract_y
 _atom_site_fract_z
 _atom_site_occupancy
  K  K0  1  0.594175  0.594175  0.741088  1
  K  K1  1  0.405825  0.000000  0.741088  1
  K  K2  1  0.416733  0.416733  0.500000  1
  K  K3  1  0.000000  0.405825  0.741088  1
  K  K4  1  0.000000  0.405825  0.258912  1
  K  K5  1  0.403891  0.403891  0.000000  1
  K  K6  1  0.000000  0.596109  0.000000  1
  K  K7  1  0.596109  0.000000  0.000000  1
  K  K8  1  0.583267  0.000000  0.500000  1
  K  K9  1  1.000000  0.583267  0.500000  1
  K  K10  1  0.405825  0.000000  0.258912  1
  K  K11  1  0.594175  0.594175  0.258912  1
  Nb  Nb12  1  0.000000  0.757126  0.825776  1
  Nb  Nb13  1  0.000000  0.232212  0.421621  1
  Nb  Nb14  1  0.000000  0.232212  0.578379  1
  Nb  Nb15  1  0.000000  0.757126  0.174224  1
  Nb  Nb16  1  0.253249  0.000000  0.077811  1
  Nb  Nb17  1  0.000000  0.000000  0.301079  1
  Nb  Nb18  1  0.333333  0.666667  0.131206  1
  Nb  Nb19  1  0.000000  0.000000  0.698921  1
  Nb  Nb20  1  0.666667  0.333333  0.868794  1
  Nb  Nb21  1  0.746751  0.746751  0.922189  1
  Nb  Nb22  1  0.333333  0.666667  0.868794  1
  Nb  Nb23  1  0.767788  0.767788  0.578379  1
  Nb  Nb24  1  0.666667  0.333333  0.131206  1
  Nb  Nb25  1  0.000000  0.253249  0.077811  1
  Nb  Nb26  1  0.232212  0.000000  0.578379  1
  Nb  Nb27  1  0.232212  0.000000  0.421621  1
  Nb  Nb28  1  0.000000  0.253249  0.922189  1
  Nb  Nb29  1  0.757126  0.000000  0.825776  1
  Nb  Nb30  1  0.242874  0.242874  0.825776  1
  Nb  Nb31  1  0.757126  0.000000  0.174224  1
  Nb  Nb32  1  0.767788  0.767788  0.421621  1
  Nb  Nb33  1  0.242874  0.242874  0.174224  1
  Nb  Nb34  1  0.746751  0.746751  0.077811  1
  Nb  Nb35  1  0.253249  0.000000  0.922189  1
  V  V36  1  0.666667  0.333333  0.618565  1
  V  V37  1  0.666667  0.333333  0.381435  1
  V  V38  1  0.333333  0.666667  0.381435  1
  V  V39  1  0.333333  0.666667  0.618565  1
  O  O40  1  0.000000  0.822710  0.246255  1
  O  O41  1  0.209984  0.000000  0.838686  1
  O  O42  1  0.174947  0.174947  0.566905  1
  O  O43  1  0.315585  0.481782  0.824263  1
  O  O44  1  0.688584  0.518052  0.920621  1
  O  O45  1  0.174331  0.475845  0.592259  1
  O  O46  1  0.000000  0.209984  0.838686  1
  O  O47  1  0.481948  0.170532  0.079379  1
  O  O48  1  0.481948  0.170532  0.920621  1
  O  O49  1  0.481782  0.315585  0.824263  1
  O  O50  1  0.174331  0.475845  0.407741  1
  O  O51  1  0.000000  0.208261  0.000000  1
  O  O52  1  0.524155  0.698485  0.407741  1
  O  O53  1  0.285519  0.000000  0.500000  1
  O  O54  1  0.803891  0.000000  0.090554  1
  O  O55  1  0.209984  0.000000  0.161314  1
  O  O56  1  0.714481  0.714481  0.500000  1
  O  O57  1  0.518218  0.833803  0.175737  1
  O  O58  1  0.822710  0.000000  0.246255  1
  O  O59  1  0.333333  0.666667  0.313158  1
  O  O60  1  0.524155  0.698485  0.592259  1
  O  O61  1  0.196109  0.196109  0.090554  1
  O  O62  1  0.000000  0.803891  0.909446  1
  O  O63  1  0.833803  0.518218  0.824263  1
  O  O64  1  0.177407  0.000000  0.341546  1
  O  O65  1  0.790016  0.790016  0.161314  1
  O  O66  1  0.301515  0.825669  0.407741  1
  O  O67  1  0.825669  0.301515  0.592259  1
  O  O68  1  0.170532  0.481948  0.079379  1
  O  O69  1  0.000000  0.803891  0.090554  1
  O  O70  1  0.000000  0.177407  0.658454  1
  O  O71  1  0.684415  0.166197  0.824263  1
  O  O72  1  0.666667  0.333333  0.686842  1
  O  O73  1  0.174947  0.174947  0.433095  1
  O  O74  1  0.803891  0.000000  0.909446  1
  O  O75  1  0.301515  0.825669  0.592259  1
  O  O76  1  0.333333  0.666667  0.686842  1
  O  O77  1  0.000000  0.822710  0.753745  1
  O  O78  1  0.518052  0.688584  0.079379  1
  O  O79  1  0.177290  0.177290  0.246255  1
  O  O80  1  0.166197  0.684415  0.175737  1
  O  O81  1  0.688584  0.518052  0.079379  1
  O  O82  1  0.829468  0.311416  0.920621  1
  O  O83  1  0.166197  0.684415  0.824263  1
  O  O84  1  0.000000  0.825053  0.566905  1
  O  O85  1  0.791739  0.791739  0.000000  1
  O  O86  1  0.825669  0.301515  0.407741  1
  O  O87  1  0.833803  0.518218  0.175737  1
  O  O88  1  0.518218  0.833803  0.824263  1
  O  O89  1  0.825053  0.000000  0.433095  1
  O  O90  1  0.000000  0.177407  0.341546  1
  O  O91  1  0.000000  0.209984  0.161314  1
  O  O92  1  0.311416  0.829468  0.920621  1
  O  O93  1  0.475845  0.174331  0.407741  1
  O  O94  1  0.475845  0.174331  0.592259  1
  O  O95  1  0.829468  0.311416  0.079379  1
  O  O96  1  0.684415  0.166197  0.175737  1
  O  O97  1  0.822710  0.000000  0.753745  1
  O  O98  1  0.208261  0.000000  0.000000  1
  O  O99  1  0.666667  0.333333  0.313158  1
  O  O100  1  0.481782  0.315585  0.175737  1
  O  O101  1  0.518052  0.688584  0.920621  1
  O  O102  1  0.177407  0.000000  0.658454  1
  O  O103  1  0.315585  0.481782  0.175737  1
  O  O104  1  0.825053  0.000000  0.566905  1
  O  O105  1  0.170532  0.481948  0.920621  1
  O  O106  1  0.000000  0.285519  0.500000  1
  O  O107  1  0.000000  0.825053  0.433095  1
  O  O108  1  0.311416  0.829468  0.079379  1
  O  O109  1  0.698485  0.524155  0.407741  1
  O  O110  1  0.177290  0.177290  0.753745  1
  O  O111  1  0.822593  0.822593  0.341546  1
  O  O112  1  0.790016  0.790016  0.838686  1
  O  O113  1  0.822593  0.822593  0.658454  1
  O  O114  1  0.698485  0.524155  0.592259  1
  O  O115  1  0.196109  0.196109  0.909446  1
