# generated using pymatgen
data_CaGaBO4
_symmetry_space_group_name_H-M   'P 1'
_cell_length_a   5.90388177
_cell_length_b   8.49038261
_cell_length_c   8.84907370
_cell_angle_alpha   118.66795563
_cell_angle_beta   90.00000000
_cell_angle_gamma   90.00000000
_symmetry_Int_Tables_number   1
_chemical_formula_structural   CaGaBO4
_chemical_formula_sum   'Ca4 Ga4 B4 O16'
_cell_volume   389.19529821
_cell_formula_units_Z   4
loop_
 _symmetry_equiv_pos_site_id
 _symmetry_equiv_pos_as_xyz
  1  'x, y, z'
loop_
 _atom_site_type_symbol
 _atom_site_label
 _atom_site_symmetry_multiplicity
 _atom_site_fract_x
 _atom_site_fract_y
 _atom_site_fract_z
 _atom_site_occupancy
  Ca  Ca0  1  0.897672  0.452024  0.184135  1
  Ca  Ca1  1  0.397672  0.732111  0.184135  1
  Ca  Ca2  1  0.897672  0.547976  0.815865  1
  Ca  Ca3  1  0.397672  0.267889  0.815865  1
  Ga  Ga4  1  0.625505  0.216820  0.403653  1
  Ga  Ga5  1  0.125505  0.813167  0.596347  1
  Ga  Ga6  1  0.125505  0.186833  0.403653  1
  Ga  Ga7  1  0.625505  0.783180  0.596347  1
  B  B8  1  0.860194  0.865956  0.211683  1
  B  B9  1  0.360194  0.345727  0.211683  1
  B  B10  1  0.860194  0.134044  0.788317  1
  B  B11  1  0.360194  0.654273  0.788317  1
  O  O12  1  0.165060  0.284111  0.254702  1
  O  O13  1  0.328851  0.429869  0.114051  1
  O  O14  1  0.879640  0.694800  0.463772  1
  O  O15  1  0.828851  0.315819  0.885949  1
  O  O16  1  0.328851  0.570131  0.885949  1
  O  O17  1  0.077078  0.938220  0.261440  1
  O  O18  1  0.379640  0.768972  0.463772  1
  O  O19  1  0.379640  0.231028  0.536228  1
  O  O20  1  0.577078  0.323219  0.261440  1
  O  O21  1  0.665060  0.970591  0.254702  1
  O  O22  1  0.077078  0.061780  0.738560  1
  O  O23  1  0.879640  0.305200  0.536228  1
  O  O24  1  0.665060  0.029409  0.745298  1
  O  O25  1  0.165060  0.715889  0.745298  1
  O  O26  1  0.828851  0.684181  0.114051  1
  O  O27  1  0.577078  0.676781  0.738560  1
