# generated using pymatgen
data_ZnS
_symmetry_space_group_name_H-M   'P 1'
_cell_length_a   3.85305067
_cell_length_b   3.85305056
_cell_length_c   88.15440849
_cell_angle_alpha   90.00000000
_cell_angle_beta   90.00000000
_cell_angle_gamma   120.00000084
_symmetry_Int_Tables_number   1
_chemical_formula_structural   ZnS
_chemical_formula_sum   'Zn28 S28'
_cell_volume   1133.40230637
_cell_formula_units_Z   28
loop_
 _symmetry_equiv_pos_site_id
 _symmetry_equiv_pos_as_xyz
  1  'x, y, z'
loop_
 _atom_site_type_symbol
 _atom_site_label
 _atom_site_symmetry_multiplicity
 _atom_site_fract_x
 _atom_site_fract_y
 _atom_site_fract_z
 _atom_site_occupancy
  Zn  Zn0  1  0.666667  0.333333  0.071430  1
  Zn  Zn1  1  0.000000  0.000000  0.928570  1
  Zn  Zn2  1  0.000000  0.000000  0.321430  1
  Zn  Zn3  1  0.000000  0.000000  0.678573  1
  Zn  Zn4  1  0.333333  0.666667  0.142860  1
  Zn  Zn5  1  0.333333  0.666667  0.357144  1
  Zn  Zn6  1  0.666667  0.333333  0.392856  1
  Zn  Zn7  1  0.666667  0.333333  0.571426  1
  Zn  Zn8  1  0.666667  0.333333  0.464298  1
  Zn  Zn9  1  0.000000  0.000000  0.214290  1
  Zn  Zn10  1  0.666667  0.333333  0.642868  1
  Zn  Zn11  1  0.000000  0.000000  0.785718  1
  Zn  Zn12  1  0.333333  0.666667  0.892868  1
  Zn  Zn13  1  0.333333  0.666667  0.607141  1
  Zn  Zn14  1  0.333333  0.666667  0.821453  1
  Zn  Zn15  1  0.666667  0.333333  0.285716  1
  Zn  Zn16  1  0.666667  0.333333  0.857144  1
  Zn  Zn17  1  0.000000  0.000000  0.535716  1
  Zn  Zn18  1  0.666667  0.333333  0.964288  1
  Zn  Zn19  1  0.000000  0.000000  0.107143  1
  Zn  Zn20  1  0.333333  0.666667  0.035715  1
  Zn  Zn21  1  0.333333  0.666667  0.250004  1
  Zn  Zn22  1  0.666667  0.333333  0.178574  1
  Zn  Zn23  1  0.000000  0.000000  0.000011  1
  Zn  Zn24  1  0.666667  0.333333  0.750004  1
  Zn  Zn25  1  0.333333  0.666667  0.714290  1
  Zn  Zn26  1  0.000000  0.000000  0.428571  1
  Zn  Zn27  1  0.333333  0.666667  0.500003  1
  S  S28  1  0.666667  0.333333  0.205356  1
  S  S29  1  0.000000  0.000000  0.348210  1
  S  S30  1  0.333333  0.666667  0.848205  1
  S  S31  1  0.666667  0.333333  0.491069  1
  S  S32  1  0.333333  0.666667  0.741070  1
  S  S33  1  0.333333  0.666667  0.276786  1
  S  S34  1  0.000000  0.000000  0.455377  1
  S  S35  1  0.666667  0.333333  0.883948  1
  S  S36  1  0.000000  0.000000  0.026783  1
  S  S37  1  0.666667  0.333333  0.598189  1
  S  S38  1  0.333333  0.666667  0.633947  1
  S  S39  1  0.666667  0.333333  0.419620  1
  S  S40  1  0.333333  0.666667  0.062496  1
  S  S41  1  0.666667  0.333333  0.098208  1
  S  S42  1  0.000000  0.000000  0.133926  1
  S  S43  1  0.666667  0.333333  0.312496  1
  S  S44  1  0.666667  0.333333  0.776787  1
  S  S45  1  0.666667  0.333333  0.669639  1
  S  S46  1  0.333333  0.666667  0.526785  1
  S  S47  1  0.000000  0.000000  0.241070  1
  S  S48  1  0.000000  0.000000  0.705356  1
  S  S49  1  0.666667  0.333333  0.991091  1
  S  S50  1  0.000000  0.000000  0.955335  1
  S  S51  1  0.333333  0.666667  0.383925  1
  S  S52  1  0.333333  0.666667  0.919639  1
  S  S53  1  0.000000  0.000000  0.812508  1
  S  S54  1  0.000000  0.000000  0.562496  1
  S  S55  1  0.333333  0.666667  0.169640  1
