# generated using pymatgen
data_DyCuTe2ClO6
_symmetry_space_group_name_H-M   'P 1'
_cell_length_a   5.44196638
_cell_length_b   9.33357044
_cell_length_c   14.98550220
_cell_angle_alpha   90.00000000
_cell_angle_beta   90.00000000
_cell_angle_gamma   99.94603239
_symmetry_Int_Tables_number   1
_chemical_formula_structural   DyCuTe2ClO6
_chemical_formula_sum   'Dy4 Cu4 Te8 Cl4 O24'
_cell_volume   749.71872088
_cell_formula_units_Z   4
loop_
 _symmetry_equiv_pos_site_id
 _symmetry_equiv_pos_as_xyz
  1  'x, y, z'
loop_
 _atom_site_type_symbol
 _atom_site_label
 _atom_site_symmetry_multiplicity
 _atom_site_fract_x
 _atom_site_fract_y
 _atom_site_fract_z
 _atom_site_occupancy
  Dy  Dy0  1  0.745515  0.972632  0.912947  1
  Dy  Dy1  1  0.254485  0.027368  0.087053  1
  Dy  Dy2  1  0.254485  0.527368  0.412947  1
  Dy  Dy3  1  0.745515  0.472632  0.587053  1
  Cu  Cu4  1  0.272521  0.829454  0.277254  1
  Cu  Cu5  1  0.727479  0.670546  0.777254  1
  Cu  Cu6  1  0.727479  0.170546  0.722746  1
  Cu  Cu7  1  0.272521  0.329454  0.222746  1
  Te  Te8  1  0.255727  0.716591  0.654499  1
  Te  Te9  1  0.780369  0.796384  0.413673  1
  Te  Te10  1  0.255727  0.216591  0.845501  1
  Te  Te11  1  0.744273  0.783409  0.154499  1
  Te  Te12  1  0.744273  0.283409  0.345501  1
  Te  Te13  1  0.780369  0.296384  0.086327  1
  Te  Te14  1  0.219631  0.703616  0.913673  1
  Te  Te15  1  0.219631  0.203616  0.586327  1
  Cl  Cl16  1  0.724165  0.443513  0.897106  1
  Cl  Cl17  1  0.724165  0.943513  0.602894  1
  Cl  Cl18  1  0.275835  0.556487  0.102894  1
  Cl  Cl19  1  0.275835  0.056487  0.397106  1
  O  O20  1  0.961890  0.292137  0.638443  1
  O  O21  1  0.369148  0.865323  0.982588  1
  O  O22  1  0.125430  0.626479  0.545657  1
  O  O23  1  0.501489  0.596809  0.676402  1
  O  O24  1  0.038110  0.707863  0.361557  1
  O  O25  1  0.015539  0.408320  0.285950  1
  O  O26  1  0.961890  0.792137  0.861557  1
  O  O27  1  0.531447  0.729369  0.323027  1
  O  O28  1  0.630852  0.634677  0.482588  1
  O  O29  1  0.498511  0.903191  0.176402  1
  O  O30  1  0.468553  0.770631  0.823027  1
  O  O31  1  0.015539  0.908320  0.214050  1
  O  O32  1  0.468553  0.270631  0.676973  1
  O  O33  1  0.630852  0.134677  0.017412  1
  O  O34  1  0.984461  0.091680  0.785950  1
  O  O35  1  0.874570  0.873521  0.045657  1
  O  O36  1  0.038110  0.207863  0.138443  1
  O  O37  1  0.369148  0.365323  0.517412  1
  O  O38  1  0.874570  0.373521  0.454343  1
  O  O39  1  0.498511  0.403191  0.323598  1
  O  O40  1  0.984461  0.591680  0.714050  1
  O  O41  1  0.531447  0.229369  0.176973  1
  O  O42  1  0.501489  0.096809  0.823598  1
  O  O43  1  0.125430  0.126479  0.954343  1
