# generated using pymatgen
data_Al2CuO4
_symmetry_space_group_name_H-M   'P 1'
_cell_length_a   5.74962469
_cell_length_b   5.75071987
_cell_length_c   23.07172219
_cell_angle_alpha   60.09865730
_cell_angle_beta   60.50178391
_cell_angle_gamma   59.99370257
_symmetry_Int_Tables_number   1
_chemical_formula_structural   Al2CuO4
_chemical_formula_sum   'Al16 Cu8 O32'
_cell_volume   541.81501645
_cell_formula_units_Z   8
loop_
 _symmetry_equiv_pos_site_id
 _symmetry_equiv_pos_as_xyz
  1  'x, y, z'
loop_
 _atom_site_type_symbol
 _atom_site_label
 _atom_site_symmetry_multiplicity
 _atom_site_fract_x
 _atom_site_fract_y
 _atom_site_fract_z
 _atom_site_occupancy
  Al  Al0  1  0.003953  0.496400  0.125812  1
  Al  Al1  1  0.496490  0.003977  0.125810  1
  Al  Al2  1  0.496490  0.496292  0.125810  1
  Al  Al3  1  0.000323  0.498971  0.375434  1
  Al  Al4  1  0.500459  0.998195  0.375601  1
  Al  Al5  1  0.132408  0.123100  0.530348  1
  Al  Al6  1  0.500459  0.498942  0.375601  1
  Al  Al7  1  0.506737  0.501806  0.497413  1
  Al  Al8  1  0.498074  0.997887  0.624874  1
  Al  Al9  1  0.880587  0.879035  0.215336  1
  Al  Al10  1  0.498074  0.504542  0.624874  1
  Al  Al11  1  0.000914  0.498697  0.875423  1
  Al  Al12  1  0.497943  0.003186  0.875090  1
  Al  Al13  1  0.495544  0.501600  0.750314  1
  Al  Al14  1  0.497943  0.498510  0.875090  1
  Al  Al15  1  0.875828  0.874886  0.968600  1
  Cu  Cu16  1  0.124125  0.126123  0.030907  1
  Cu  Cu17  1  0.495965  0.497219  0.002399  1
  Cu  Cu18  1  0.119788  0.121428  0.284339  1
  Cu  Cu19  1  0.494801  0.494670  0.253965  1
  Cu  Cu20  1  0.992499  0.504984  0.624383  1
  Cu  Cu21  1  0.127798  0.129930  0.778085  1
  Cu  Cu22  1  0.878764  0.874743  0.467938  1
  Cu  Cu23  1  0.868555  0.872455  0.721634  1
  O  O24  1  0.251904  0.253995  0.070842  1
  O  O25  1  0.262697  0.260454  0.179099  1
  O  O26  1  0.251904  0.710735  0.070842  1
  O  O27  1  0.709674  0.252952  0.071106  1
  O  O28  1  0.270756  0.753077  0.180773  1
  O  O29  1  0.250763  0.251068  0.323220  1
  O  O30  1  0.754219  0.269934  0.180914  1
  O  O31  1  0.253920  0.252852  0.435094  1
  O  O32  1  0.741629  0.742762  0.068212  1
  O  O33  1  0.250763  0.705289  0.323220  1
  O  O34  1  0.754219  0.752192  0.180914  1
  O  O35  1  0.705062  0.249828  0.323821  1
  O  O36  1  0.303644  0.735642  0.431268  1
  O  O37  1  0.285109  0.247842  0.557884  1
  O  O38  1  0.739225  0.300400  0.431802  1
  O  O39  1  0.750295  0.749734  0.312559  1
  O  O40  1  0.283010  0.265974  0.671260  1
  O  O41  1  0.285109  0.735512  0.557884  1
  O  O42  1  0.739225  0.733169  0.431802  1
  O  O43  1  0.740243  0.256816  0.561531  1
  O  O44  1  0.261322  0.267131  0.816014  1
  O  O45  1  0.287997  0.740496  0.682753  1
  O  O46  1  0.716690  0.287072  0.686747  1
  O  O47  1  0.265187  0.263974  0.926716  1
  O  O48  1  0.724220  0.744314  0.571788  1
  O  O49  1  0.261322  0.707489  0.816014  1
  O  O50  1  0.716690  0.749251  0.686747  1
  O  O51  1  0.704983  0.265690  0.815909  1
  O  O52  1  0.260782  0.753926  0.932841  1
  O  O53  1  0.753926  0.260883  0.933005  1
  O  O54  1  0.725060  0.728801  0.829335  1
  O  O55  1  0.753926  0.753169  0.933005  1
