# generated using pymatgen
data_Dy5SbAu2
_symmetry_space_group_name_H-M   'P 1'
_cell_length_a   7.38867781
_cell_length_b   7.38867766
_cell_length_c   10.12410239
_cell_angle_alpha   111.40175173
_cell_angle_beta   111.40175036
_cell_angle_gamma   90.00000367
_symmetry_Int_Tables_number   1
_chemical_formula_structural   Dy5SbAu2
_chemical_formula_sum   'Dy10 Sb2 Au4'
_cell_volume   473.41910464
_cell_formula_units_Z   2
loop_
 _symmetry_equiv_pos_site_id
 _symmetry_equiv_pos_as_xyz
  1  'x, y, z'
loop_
 _atom_site_type_symbol
 _atom_site_label
 _atom_site_symmetry_multiplicity
 _atom_site_fract_x
 _atom_site_fract_y
 _atom_site_fract_z
 _atom_site_occupancy
  Dy  Dy0  1  0.668893  0.168893  0.667964  1
  Dy  Dy1  1  0.168893  0.999071  0.667964  1
  Dy  Dy2  1  0.500929  0.331107  0.332036  1
  Dy  Dy3  1  0.499071  0.668893  0.667964  1
  Dy  Dy4  1  0.831107  0.000929  0.332036  1
  Dy  Dy5  1  0.000000  0.000000  0.000000  1
  Dy  Dy6  1  0.999071  0.499071  0.667964  1
  Dy  Dy7  1  0.500000  0.500000  0.000000  1
  Dy  Dy8  1  0.331107  0.831107  0.332036  1
  Dy  Dy9  1  0.000929  0.500929  0.332036  1
  Sb  Sb10  1  0.250000  0.250000  0.500000  1
  Sb  Sb11  1  0.750000  0.750000  0.500000  1
  Au  Au12  1  0.372330  0.127670  0.000000  1
  Au  Au13  1  0.627670  0.872330  1.000000  1
  Au  Au14  1  0.872330  0.372330  0.000000  1
  Au  Au15  1  0.127670  0.627670  1.000000  1
