# generated using pymatgen
data_BaAl2(GeO4)2
_symmetry_space_group_name_H-M   'P 1'
_cell_length_a   8.91742360
_cell_length_b   9.66901987
_cell_length_c   9.66901989
_cell_angle_alpha   88.95515136
_cell_angle_beta   82.21909184
_cell_angle_gamma   82.21908840
_symmetry_Int_Tables_number   1
_chemical_formula_structural   BaAl2(GeO4)2
_chemical_formula_sum   'Ba4 Al8 Ge8 O32'
_cell_volume   818.40856194
_cell_formula_units_Z   4
loop_
 _symmetry_equiv_pos_site_id
 _symmetry_equiv_pos_as_xyz
  1  'x, y, z'
loop_
 _atom_site_type_symbol
 _atom_site_label
 _atom_site_symmetry_multiplicity
 _atom_site_fract_x
 _atom_site_fract_y
 _atom_site_fract_z
 _atom_site_occupancy
  Ba  Ba0  1  0.710540  0.566427  0.565777  1
  Ba  Ba1  1  0.289460  0.433573  0.434223  1
  Ba  Ba2  1  0.210540  0.065777  0.066427  1
  Ba  Ba3  1  0.789460  0.934223  0.933573  1
  Al  Al4  1  0.108715  0.705715  0.067730  1
  Al  Al5  1  0.391285  0.432270  0.794285  1
  Al  Al6  1  0.526347  0.054241  0.292779  1
  Al  Al7  1  0.026347  0.792779  0.554241  1
  Al  Al8  1  0.608715  0.567730  0.205715  1
  Al  Al9  1  0.891285  0.294285  0.932270  1
  Al  Al10  1  0.973653  0.207221  0.445759  1
  Al  Al11  1  0.473653  0.945759  0.707221  1
  Ge  Ge12  1  0.476660  0.708836  0.944354  1
  Ge  Ge13  1  0.976660  0.444354  0.208836  1
  Ge  Ge14  1  0.894579  0.929725  0.292145  1
  Ge  Ge15  1  0.605421  0.207855  0.570275  1
  Ge  Ge16  1  0.523340  0.291164  0.055646  1
  Ge  Ge17  1  0.105421  0.070275  0.707855  1
  Ge  Ge18  1  0.023340  0.555646  0.791164  1
  Ge  Ge19  1  0.394579  0.792145  0.429725  1
  O  O20  1  0.501517  0.631582  0.366065  1
  O  O21  1  0.001517  0.866065  0.131582  1
  O  O22  1  0.039665  0.353146  0.355623  1
  O  O23  1  0.789010  0.524160  0.261867  1
  O  O24  1  0.289010  0.761867  0.024160  1
  O  O25  1  0.714279  0.976123  0.238418  1
  O  O26  1  0.607300  0.066984  0.685901  1
  O  O27  1  0.710990  0.238133  0.975840  1
  O  O28  1  0.991032  0.322167  0.073607  1
  O  O29  1  0.214279  0.738418  0.476123  1
  O  O30  1  0.107300  0.185901  0.566984  1
  O  O31  1  0.392700  0.933016  0.314099  1
  O  O32  1  0.998483  0.133935  0.868418  1
  O  O33  1  0.388879  0.318068  0.937164  1
  O  O34  1  0.508463  0.176605  0.428570  1
  O  O35  1  0.285721  0.023877  0.761582  1
  O  O36  1  0.210990  0.475840  0.738133  1
  O  O37  1  0.008968  0.677833  0.926393  1
  O  O38  1  0.508968  0.426393  0.177833  1
  O  O39  1  0.460335  0.144377  0.146854  1
  O  O40  1  0.111121  0.562836  0.181932  1
  O  O41  1  0.611121  0.681932  0.062836  1
  O  O42  1  0.785721  0.261582  0.523877  1
  O  O43  1  0.491032  0.573607  0.822167  1
  O  O44  1  0.960335  0.646854  0.644377  1
  O  O45  1  0.991537  0.071430  0.323395  1
  O  O46  1  0.892700  0.814099  0.433016  1
  O  O47  1  0.498483  0.368418  0.633935  1
  O  O48  1  0.491537  0.823395  0.571430  1
  O  O49  1  0.888879  0.437164  0.818068  1
  O  O50  1  0.539665  0.855623  0.853146  1
  O  O51  1  0.008463  0.928570  0.676605  1
