# generated using pymatgen
data_LiY(PO3)4
_symmetry_space_group_name_H-M   'P 1'
_cell_length_a   7.13210052
_cell_length_b   8.96866383
_cell_length_c   8.96399892
_cell_angle_alpha   65.41979709
_cell_angle_beta   66.55808674
_cell_angle_gamma   66.57100685
_symmetry_Int_Tables_number   1
_chemical_formula_structural   LiY(PO3)4
_chemical_formula_sum   'Li2 Y2 P8 O24'
_cell_volume   459.49985186
_cell_formula_units_Z   2
loop_
 _symmetry_equiv_pos_site_id
 _symmetry_equiv_pos_as_xyz
  1  'x, y, z'
loop_
 _atom_site_type_symbol
 _atom_site_label
 _atom_site_symmetry_multiplicity
 _atom_site_fract_x
 _atom_site_fract_y
 _atom_site_fract_z
 _atom_site_occupancy
  Li  Li0  1  0.205806  0.750000  0.250000  1
  Li  Li1  1  0.794194  0.250000  0.750000  1
  Y  Y2  1  0.703130  0.750000  0.250000  1
  Y  Y3  1  0.296870  0.250000  0.750000  1
  P  P4  1  0.203243  0.694459  0.597587  1
  P  P5  1  0.914050  0.115900  0.158627  1
  P  P6  1  0.085950  0.884100  0.841373  1
  P  P7  1  0.796757  0.305541  0.402413  1
  P  P8  1  0.188576  0.384100  0.341373  1
  P  P9  1  0.504712  0.194459  0.097587  1
  P  P10  1  0.495288  0.805541  0.902413  1
  P  P11  1  0.811424  0.615900  0.658627  1
  O  O12  1  0.930595  0.428550  0.703657  1
  O  O13  1  0.675759  0.650380  0.839787  1
  O  O14  1  0.487371  0.773967  0.082814  1
  O  O15  1  0.165926  0.849620  0.660213  1
  O  O16  1  0.512629  0.226033  0.917186  1
  O  O17  1  0.069405  0.571450  0.296343  1
  O  O18  1  0.717112  0.233616  0.079600  1
  O  O19  1  0.062802  0.071450  0.796343  1
  O  O20  1  0.743383  0.475266  0.271752  1
  O  O21  1  0.490401  0.024734  0.228248  1
  O  O22  1  0.100678  0.183756  0.040625  1
  O  O23  1  0.282888  0.766384  0.920400  1
  O  O24  1  0.325060  0.316244  0.459375  1
  O  O25  1  0.969672  0.733616  0.579600  1
  O  O26  1  0.509599  0.975266  0.771752  1
  O  O27  1  0.324241  0.349620  0.160213  1
  O  O28  1  0.937198  0.928550  0.203657  1
  O  O29  1  0.030328  0.266384  0.420400  1
  O  O30  1  0.344152  0.726033  0.417186  1
  O  O31  1  0.674940  0.683756  0.540625  1
  O  O32  1  0.256617  0.524734  0.728248  1
  O  O33  1  0.899322  0.816244  0.959375  1
  O  O34  1  0.834074  0.150380  0.339787  1
  O  O35  1  0.655848  0.273967  0.582814  1
