# generated using pymatgen
data_KMnAg3(CN)6
_symmetry_space_group_name_H-M   'P 1'
_cell_length_a   6.97062560
_cell_length_b   6.97062538
_cell_length_c   8.16055523
_cell_angle_alpha   90.00000000
_cell_angle_beta   90.00000000
_cell_angle_gamma   120.00000103
_symmetry_Int_Tables_number   1
_chemical_formula_structural   KMnAg3(CN)6
_chemical_formula_sum   'K1 Mn1 Ag3 C6 N6'
_cell_volume   343.39489614
_cell_formula_units_Z   1
loop_
 _symmetry_equiv_pos_site_id
 _symmetry_equiv_pos_as_xyz
  1  'x, y, z'
loop_
 _atom_site_type_symbol
 _atom_site_label
 _atom_site_symmetry_multiplicity
 _atom_site_fract_x
 _atom_site_fract_y
 _atom_site_fract_z
 _atom_site_occupancy
  K  K0  1  0.666667  0.333333  0.000000  1
  Mn  Mn1  1  0.000000  0.000000  0.000000  1
  Ag  Ag2  1  0.011007  0.505504  0.500000  1
  Ag  Ag3  1  0.494496  0.505504  0.500000  1
  Ag  Ag4  1  0.494496  0.988993  0.500000  1
  C  C5  1  0.004314  0.347104  0.285498  1
  C  C6  1  0.652896  0.995686  0.714502  1
  C  C7  1  0.342790  0.347104  0.714502  1
  C  C8  1  0.004314  0.657210  0.714502  1
  C  C9  1  0.342790  0.995686  0.285498  1
  C  C10  1  0.652896  0.657210  0.285498  1
  N  N11  1  0.995764  0.743135  0.835739  1
  N  N12  1  0.747371  0.743135  0.164261  1
  N  N13  1  0.995764  0.252629  0.164261  1
  N  N14  1  0.747371  0.004236  0.835739  1
  N  N15  1  0.256865  0.252629  0.835739  1
  N  N16  1  0.256865  0.004236  0.164261  1
