# generated using pymatgen
data_CdI2
_symmetry_space_group_name_H-M   'P 1'
_cell_length_a   4.33473600
_cell_length_b   4.33473626
_cell_length_c   45.13488808
_cell_angle_alpha   90.00000000
_cell_angle_beta   90.00000000
_cell_angle_gamma   119.99999798
_symmetry_Int_Tables_number   1
_chemical_formula_structural   CdI2
_chemical_formula_sum   'Cd6 I12'
_cell_volume   734.46032780
_cell_formula_units_Z   6
loop_
 _symmetry_equiv_pos_site_id
 _symmetry_equiv_pos_as_xyz
  1  'x, y, z'
loop_
 _atom_site_type_symbol
 _atom_site_label
 _atom_site_symmetry_multiplicity
 _atom_site_fract_x
 _atom_site_fract_y
 _atom_site_fract_z
 _atom_site_occupancy
  Cd  Cd0  1  0.000000  0.000000  0.542999  1
  Cd  Cd1  1  0.666667  0.333333  0.041691  1
  Cd  Cd2  1  0.000000  0.000000  0.708613  1
  Cd  Cd3  1  0.666667  0.333333  0.375026  1
  Cd  Cd4  1  0.000000  0.000000  0.208285  1
  Cd  Cd5  1  0.000000  0.000000  0.875012  1
  I  I6  1  0.333333  0.666667  0.079874  1
  I  I7  1  0.333333  0.666667  0.413205  1
  I  I8  1  0.666667  0.333333  0.670469  1
  I  I9  1  0.333333  0.666667  0.746791  1
  I  I10  1  0.333333  0.666667  0.913180  1
  I  I11  1  0.000000  0.000000  0.336852  1
  I  I12  1  0.000000  0.000000  0.003535  1
  I  I13  1  0.666667  0.333333  0.836881  1
  I  I14  1  0.666667  0.333333  0.504788  1
  I  I15  1  0.333333  0.666667  0.581202  1
  I  I16  1  0.333333  0.666667  0.246454  1
  I  I17  1  0.666667  0.333333  0.170142  1
