# generated using pymatgen
data_Tl2O
_symmetry_space_group_name_H-M   'P 1'
_cell_length_a   3.62562859
_cell_length_b   3.62562851
_cell_length_c   13.17192465
_cell_angle_alpha   82.20985179
_cell_angle_beta   82.20985197
_cell_angle_gamma   60.17596391
_symmetry_Int_Tables_number   1
_chemical_formula_structural   Tl2O
_chemical_formula_sum   'Tl4 O2'
_cell_volume   148.36057226
_cell_formula_units_Z   2
loop_
 _symmetry_equiv_pos_site_id
 _symmetry_equiv_pos_as_xyz
  1  'x, y, z'
loop_
 _atom_site_type_symbol
 _atom_site_label
 _atom_site_symmetry_multiplicity
 _atom_site_fract_x
 _atom_site_fract_y
 _atom_site_fract_z
 _atom_site_occupancy
  Tl  Tl0  1  0.126219  0.126219  0.635330  1
  Tl  Tl1  1  0.284176  0.284176  0.132802  1
  Tl  Tl2  1  0.873781  0.873781  0.364670  1
  O  O3  1  0.576474  0.576474  0.248993  1
  Tl  Tl4  1  0.715824  0.715824  0.867197  1
  O  O5  1  0.423526  0.423526  0.751007  1
