# generated using pymatgen
data_EuNi5P3
_symmetry_space_group_name_H-M   'P 1'
_cell_length_a   3.59750727
_cell_length_b   6.11888291
_cell_length_c   11.49897248
_cell_angle_alpha   90.00000000
_cell_angle_beta   90.00000000
_cell_angle_gamma   107.09564348
_symmetry_Int_Tables_number   1
_chemical_formula_structural   EuNi5P3
_chemical_formula_sum   'Eu2 Ni10 P6'
_cell_volume   241.93954929
_cell_formula_units_Z   2
loop_
 _symmetry_equiv_pos_site_id
 _symmetry_equiv_pos_as_xyz
  1  'x, y, z'
loop_
 _atom_site_type_symbol
 _atom_site_label
 _atom_site_symmetry_multiplicity
 _atom_site_fract_x
 _atom_site_fract_y
 _atom_site_fract_z
 _atom_site_occupancy
  Eu  Eu0  1  0.838466  0.676932  0.250000  1
  Eu  Eu1  1  0.161534  0.323068  0.750000  1
  Ni  Ni2  1  0.551277  0.102555  0.144910  1
  Ni  Ni3  1  0.551277  0.102555  0.355090  1
  Ni  Ni4  1  0.801669  0.603338  0.931883  1
  Ni  Ni5  1  0.448723  0.897445  0.855090  1
  Ni  Ni6  1  0.198331  0.396662  0.431883  1
  Ni  Ni7  1  0.448723  0.897445  0.644910  1
  Ni  Ni8  1  0.801669  0.603338  0.568117  1
  Ni  Ni9  1  0.000000  0.000000  0.000000  1
  Ni  Ni10  1  0.000000  0.000000  0.500000  1
  Ni  Ni11  1  0.198331  0.396662  0.068117  1
  P  P12  1  0.883256  0.766511  0.750000  1
  P  P13  1  0.618141  0.236282  0.959413  1
  P  P14  1  0.618141  0.236282  0.540587  1
  P  P15  1  0.381859  0.763718  0.459413  1
  P  P16  1  0.381859  0.763718  0.040587  1
  P  P17  1  0.116744  0.233489  0.250000  1
