# generated using pymatgen
data_Zn3(BO3)2
_symmetry_space_group_name_H-M   'P 1'
_cell_length_a   5.08419514
_cell_length_b   8.48526161
_cell_length_c   12.53380207
_cell_angle_alpha   103.18831788
_cell_angle_beta   101.70087234
_cell_angle_gamma   89.99731318
_symmetry_Int_Tables_number   1
_chemical_formula_structural   Zn3(BO3)2
_chemical_formula_sum   'Zn12 B8 O24'
_cell_volume   514.91000233
_cell_formula_units_Z   4
loop_
 _symmetry_equiv_pos_site_id
 _symmetry_equiv_pos_as_xyz
  1  'x, y, z'
loop_
 _atom_site_type_symbol
 _atom_site_label
 _atom_site_symmetry_multiplicity
 _atom_site_fract_x
 _atom_site_fract_y
 _atom_site_fract_z
 _atom_site_occupancy
  Zn  Zn0  1  0.189317  0.370602  0.744477  1
  Zn  Zn1  1  0.809298  0.130337  0.252143  1
  Zn  Zn2  1  0.480673  0.538033  0.579495  1
  Zn  Zn3  1  0.772207  0.575792  0.899881  1
  Zn  Zn4  1  0.098803  0.038033  0.579490  1
  Zn  Zn5  1  0.516808  0.962263  0.417028  1
  Zn  Zn6  1  0.442899  0.630346  0.252106  1
  Zn  Zn7  1  0.127661  0.075753  0.899873  1
  Zn  Zn8  1  0.900234  0.462296  0.417013  1
  Zn  Zn9  1  0.555016  0.870616  0.744472  1
  Zn  Zn10  1  0.875202  0.425347  0.095159  1
  Zn  Zn11  1  0.220016  0.925393  0.095180  1
  B  B12  1  0.736124  0.788237  0.128233  1
  B  B13  1  0.996758  0.730154  0.623689  1
  B  B14  1  0.372721  0.270301  0.373132  1
  B  B15  1  0.254038  0.713174  0.867019  1
  B  B16  1  0.612913  0.213172  0.867007  1
  B  B17  1  0.626884  0.230180  0.623702  1
  B  B18  1  1.000478  0.770306  0.373125  1
  B  B19  1  0.392131  0.288241  0.128220  1
  O  O20  1  0.670364  0.291816  0.160900  1
  O  O21  1  0.263115  0.430887  0.156759  1
  O  O22  1  0.489274  0.130095  0.325733  1
  O  O23  1  0.501732  0.710969  0.836204  1
  O  O24  1  0.469827  0.090707  0.566687  1
  O  O25  1  0.241025  0.149311  0.069790  1
  O  O26  1  0.828787  0.649279  0.069791  1
  O  O27  1  0.268466  0.770614  0.365414  1
  O  O28  1  0.510462  0.370582  0.671129  1
  O  O29  1  0.900786  0.909915  0.430049  1
  O  O30  1  0.160596  0.870567  0.671105  1
  O  O31  1  0.490590  0.791840  0.160900  1
  O  O32  1  0.893740  0.930863  0.156792  1
  O  O33  1  0.334417  0.210972  0.836207  1
  O  O34  1  0.728838  0.729634  0.631377  1
  O  O35  1  0.836484  0.630117  0.325729  1
  O  O36  1  0.739903  0.070396  0.836858  1
  O  O37  1  0.158299  0.851085  0.925283  1
  O  O38  1  0.902485  0.229636  0.631372  1
  O  O39  1  0.097021  0.270650  0.365409  1
  O  O40  1  0.766917  0.351114  0.925268  1
  O  O41  1  0.096835  0.590692  0.566681  1
  O  O42  1  0.529350  0.409894  0.430068  1
  O  O43  1  0.096905  0.570390  0.836851  1
