# generated using pymatgen
data_Na5NbO5
_symmetry_space_group_name_H-M   'P 1'
_cell_length_a   6.08891726
_cell_length_b   6.08891726
_cell_length_c   10.15908098
_cell_angle_alpha   98.58638022
_cell_angle_beta   98.58638027
_cell_angle_gamma   116.86150775
_symmetry_Int_Tables_number   1
_chemical_formula_structural   Na5NbO5
_chemical_formula_sum   'Na10 Nb2 O10'
_cell_volume   322.05419088
_cell_formula_units_Z   2
loop_
 _symmetry_equiv_pos_site_id
 _symmetry_equiv_pos_as_xyz
  1  'x, y, z'
loop_
 _atom_site_type_symbol
 _atom_site_label
 _atom_site_symmetry_multiplicity
 _atom_site_fract_x
 _atom_site_fract_y
 _atom_site_fract_z
 _atom_site_occupancy
  O  O0  1  0.093701  0.906298  0.750000  1
  O  O1  1  0.906298  0.093701  0.250000  1
  O  O2  1  0.962058  0.304947  0.618192  1
  O  O3  1  0.695052  0.037942  0.881808  1
  O  O4  1  0.810014  0.595230  0.103673  1
  O  O5  1  0.404769  0.189987  0.396327  1
  O  O6  1  0.189988  0.404771  0.896327  1
  O  O7  1  0.595230  0.810013  0.603674  1
  O  O8  1  0.037943  0.695051  0.381808  1
  O  O9  1  0.304949  0.962058  0.118192  1
  Na  Na10  1  0.003947  0.321326  0.077304  1
  Na  Na11  1  0.996053  0.678673  0.922695  1
  Na  Na12  1  0.443912  0.215572  0.949377  1
  Na  Na13  1  0.784428  0.556089  0.550623  1
  Na  Na14  1  0.556089  0.784428  0.050623  1
  Na  Na15  1  0.215573  0.443911  0.449377  1
  Na  Na16  1  0.667578  0.332423  0.250000  1
  Na  Na17  1  0.332423  0.667577  0.750000  1
  Na  Na18  1  0.321327  0.003947  0.577305  1
  Na  Na19  1  0.678674  0.996053  0.422695  1
  Nb  Nb20  1  0.092577  0.907423  0.250000  1
  Nb  Nb21  1  0.907422  0.092577  0.750000  1
