# generated using pymatgen
data_SnH14C4(Br2N)2
_symmetry_space_group_name_H-M   'P 1'
_cell_length_a   6.73121154
_cell_length_b   8.63605039
_cell_length_c   12.51559206
_cell_angle_alpha   90.00000000
_cell_angle_beta   90.00000000
_cell_angle_gamma   96.73047797
_symmetry_Int_Tables_number   1
_chemical_formula_structural   SnH14C4(Br2N)2
_chemical_formula_sum   'Sn2 H28 C8 Br8 N4'
_cell_volume   722.53099417
_cell_formula_units_Z   2
loop_
 _symmetry_equiv_pos_site_id
 _symmetry_equiv_pos_as_xyz
  1  'x, y, z'
loop_
 _atom_site_type_symbol
 _atom_site_label
 _atom_site_symmetry_multiplicity
 _atom_site_fract_x
 _atom_site_fract_y
 _atom_site_fract_z
 _atom_site_occupancy
  Sn  Sn0  1  0.000000  0.000000  0.000000  1
  Sn  Sn1  1  0.000000  0.500000  0.500000  1
  H  H2  1  0.106328  0.874986  0.405274  1
  H  H3  1  0.667550  0.974732  0.803154  1
  H  H4  1  0.667550  0.474732  0.696846  1
  H  H5  1  0.826380  0.832480  0.762778  1
  H  H6  1  0.433955  0.224859  0.211820  1
  H  H7  1  0.173620  0.667520  0.262778  1
  H  H8  1  0.374377  0.144776  0.028816  1
  H  H9  1  0.625623  0.855224  0.971184  1
  H  H10  1  0.332450  0.025268  0.196846  1
  H  H11  1  0.433955  0.724859  0.288180  1
  H  H12  1  0.627560  0.587228  0.917901  1
  H  H13  1  0.332450  0.525268  0.303154  1
  H  H14  1  0.106328  0.374986  0.094726  1
  H  H15  1  0.566045  0.775141  0.788180  1
  H  H16  1  0.372440  0.912772  0.417901  1
  H  H17  1  0.826380  0.332480  0.737222  1
  H  H18  1  0.221302  0.359523  0.966850  1
  H  H19  1  0.893672  0.625014  0.905274  1
  H  H20  1  0.173620  0.167520  0.237222  1
  H  H21  1  0.627560  0.087228  0.582099  1
  H  H22  1  0.778698  0.140477  0.466850  1
  H  H23  1  0.625623  0.355224  0.528816  1
  H  H24  1  0.221302  0.859523  0.533150  1
  H  H25  1  0.778698  0.640477  0.033150  1
  H  H26  1  0.893672  0.125014  0.594726  1
  H  H27  1  0.566045  0.275141  0.711820  1
  H  H28  1  0.374377  0.644776  0.471184  1
  H  H29  1  0.372440  0.412772  0.082099  1
  C  C30  1  0.301242  0.146188  0.187330  1
  C  C31  1  0.762573  0.658940  0.947098  1
  C  C32  1  0.237427  0.341060  0.052902  1
  C  C33  1  0.301242  0.646188  0.312670  1
  C  C34  1  0.237427  0.841060  0.447098  1
  C  C35  1  0.698758  0.353812  0.687330  1
  C  C36  1  0.698758  0.853812  0.812670  1
  C  C37  1  0.762573  0.158940  0.552902  1
  Br  Br38  1  0.158321  0.083518  0.815160  1
  Br  Br39  1  0.749561  0.712960  0.518910  1
  Br  Br40  1  0.250439  0.287040  0.481090  1
  Br  Br41  1  0.158321  0.583518  0.684840  1
  Br  Br42  1  0.841679  0.416482  0.315160  1
  Br  Br43  1  0.841679  0.916482  0.184840  1
  Br  Br44  1  0.749561  0.212960  0.981090  1
  Br  Br45  1  0.250439  0.787040  0.018910  1
  N  N46  1  0.255827  0.674521  0.426281  1
  N  N47  1  0.255827  0.174521  0.073719  1
  N  N48  1  0.744173  0.825479  0.926281  1
  N  N49  1  0.744173  0.325479  0.573719  1
