# generated using pymatgen
data_CrPO4
_symmetry_space_group_name_H-M   'P 1'
_cell_length_a   9.57206439
_cell_length_b   5.66458166
_cell_length_c   6.40504305
_cell_angle_alpha   99.31862022
_cell_angle_beta   105.16176925
_cell_angle_gamma   76.61484657
_symmetry_Int_Tables_number   1
_chemical_formula_structural   CrPO4
_chemical_formula_sum   'Cr4 P4 O16'
_cell_volume   324.19203481
_cell_formula_units_Z   4
loop_
 _symmetry_equiv_pos_site_id
 _symmetry_equiv_pos_as_xyz
  1  'x, y, z'
loop_
 _atom_site_type_symbol
 _atom_site_label
 _atom_site_symmetry_multiplicity
 _atom_site_fract_x
 _atom_site_fract_y
 _atom_site_fract_z
 _atom_site_occupancy
  Cr  Cr0  1  0.060765  0.257895  0.331945  1
  Cr  Cr1  1  0.312011  0.875434  0.593722  1
  Cr  Cr2  1  0.687989  0.124566  0.406278  1
  Cr  Cr3  1  0.939235  0.742105  0.668055  1
  O  O4  1  0.035173  0.373722  0.650884  1
  O  O5  1  0.126374  0.932053  0.729082  1
  O  O6  1  0.070788  0.269662  0.033589  1
  O  O7  1  0.128704  0.885408  0.282898  1
  O  O8  1  0.275740  0.211004  0.449528  1
  O  O9  1  0.409776  0.114031  0.806428  1
  O  O10  1  0.349211  0.568401  0.729821  1
  O  O11  1  0.455223  0.734725  0.424351  1
  O  O12  1  0.544777  0.265275  0.575649  1
  O  O13  1  0.650789  0.431599  0.270179  1
  O  O14  1  0.590224  0.885969  0.193572  1
  O  O15  1  0.724260  0.788996  0.550472  1
  O  O16  1  0.871296  0.114592  0.717102  1
  O  O17  1  0.929212  0.730338  0.966411  1
  O  O18  1  0.873626  0.067947  0.270918  1
  O  O19  1  0.964827  0.626278  0.349116  1
  P  P20  1  0.027923  0.179721  0.795440  1
  P  P21  1  0.401444  0.302149  0.648368  1
  P  P22  1  0.598556  0.697851  0.351632  1
  P  P23  1  0.972077  0.820279  0.204560  1
