# generated using pymatgen
data_Ce2Si4Pt7
_symmetry_space_group_name_H-M   'P 1'
_cell_length_a   4.05059427
_cell_length_b   11.31528829
_cell_length_c   19.81063130
_cell_angle_alpha   90.00000000
_cell_angle_beta   90.00000000
_cell_angle_gamma   90.00000000
_symmetry_Int_Tables_number   1
_chemical_formula_structural   Ce2Si4Pt7
_chemical_formula_sum   'Ce8 Si16 Pt28'
_cell_volume   907.99338103
_cell_formula_units_Z   4
loop_
 _symmetry_equiv_pos_site_id
 _symmetry_equiv_pos_as_xyz
  1  'x, y, z'
loop_
 _atom_site_type_symbol
 _atom_site_label
 _atom_site_symmetry_multiplicity
 _atom_site_fract_x
 _atom_site_fract_y
 _atom_site_fract_z
 _atom_site_occupancy
  Ce  Ce0  1  0.250000  0.978757  0.717631  1
  Ce  Ce1  1  0.250000  0.521243  0.217631  1
  Ce  Ce2  1  0.750000  0.478757  0.782369  1
  Ce  Ce3  1  0.750000  0.243126  0.471076  1
  Ce  Ce4  1  0.250000  0.743126  0.028924  1
  Ce  Ce5  1  0.250000  0.756874  0.528924  1
  Ce  Ce6  1  0.750000  0.256874  0.971076  1
  Ce  Ce7  1  0.750000  0.021243  0.282369  1
  Si  Si8  1  0.250000  0.799535  0.245170  1
  Si  Si9  1  0.750000  0.575224  0.586508  1
  Si  Si10  1  0.250000  0.424776  0.413492  1
  Si  Si11  1  0.750000  0.200465  0.754830  1
  Si  Si12  1  0.750000  0.747969  0.905525  1
  Si  Si13  1  0.250000  0.061414  0.414692  1
  Si  Si14  1  0.250000  0.247969  0.594475  1
  Si  Si15  1  0.250000  0.438586  0.914692  1
  Si  Si16  1  0.750000  0.938585  0.585308  1
  Si  Si17  1  0.750000  0.752031  0.405525  1
  Si  Si18  1  0.750000  0.561415  0.085308  1
  Si  Si19  1  0.250000  0.252031  0.094475  1
  Si  Si20  1  0.750000  0.299535  0.254830  1
  Si  Si21  1  0.250000  0.075224  0.913492  1
  Si  Si22  1  0.750000  0.924776  0.086508  1
  Si  Si23  1  0.250000  0.700465  0.745170  1
  Pt  Pt24  1  0.250000  0.259408  0.851054  1
  Pt  Pt25  1  0.250000  0.628959  0.863439  1
  Pt  Pt26  1  0.750000  0.442124  0.341268  1
  Pt  Pt27  1  0.750000  0.806188  0.784884  1
  Pt  Pt28  1  0.250000  0.621290  0.371841  1
  Pt  Pt29  1  0.250000  0.878710  0.871841  1
  Pt  Pt30  1  0.250000  0.240592  0.351054  1
  Pt  Pt31  1  0.750000  0.057876  0.841268  1
  Pt  Pt32  1  0.250000  0.434002  0.532778  1
  Pt  Pt33  1  0.250000  0.065998  0.032778  1
  Pt  Pt34  1  0.750000  0.550812  0.958665  1
  Pt  Pt35  1  0.750000  0.949188  0.458665  1
  Pt  Pt36  1  0.750000  0.378710  0.628159  1
  Pt  Pt37  1  0.250000  0.557876  0.658732  1
  Pt  Pt38  1  0.250000  0.871041  0.363439  1
  Pt  Pt39  1  0.750000  0.565998  0.467222  1
  Pt  Pt40  1  0.250000  0.193812  0.215116  1
  Pt  Pt41  1  0.250000  0.306188  0.715116  1
  Pt  Pt42  1  0.750000  0.740592  0.148946  1
  Pt  Pt43  1  0.250000  0.942124  0.158732  1
  Pt  Pt44  1  0.750000  0.121290  0.128159  1
  Pt  Pt45  1  0.750000  0.934002  0.967222  1
  Pt  Pt46  1  0.750000  0.759408  0.648946  1
  Pt  Pt47  1  0.750000  0.371041  0.136561  1
  Pt  Pt48  1  0.250000  0.050812  0.541335  1
  Pt  Pt49  1  0.750000  0.128959  0.636561  1
  Pt  Pt50  1  0.750000  0.693812  0.284884  1
  Pt  Pt51  1  0.250000  0.449188  0.041335  1
