# generated using pymatgen
data_Cu2H3ClO3
_symmetry_space_group_name_H-M   'P 1'
_cell_length_a   6.08212073
_cell_length_b   6.95305551
_cell_length_c   9.18649867
_cell_angle_alpha   90.00000000
_cell_angle_beta   90.00000000
_cell_angle_gamma   90.00000000
_symmetry_Int_Tables_number   1
_chemical_formula_structural   Cu2H3ClO3
_chemical_formula_sum   'Cu8 H12 Cl4 O12'
_cell_volume   388.49080999
_cell_formula_units_Z   4
loop_
 _symmetry_equiv_pos_site_id
 _symmetry_equiv_pos_as_xyz
  1  'x, y, z'
loop_
 _atom_site_type_symbol
 _atom_site_label
 _atom_site_symmetry_multiplicity
 _atom_site_fract_x
 _atom_site_fract_y
 _atom_site_fract_z
 _atom_site_occupancy
  Cu  Cu0  1  0.000000  0.000000  0.000000  1
  Cu  Cu1  1  0.500000  0.500000  0.500000  1
  Cu  Cu2  1  0.000000  0.500000  0.000000  1
  Cu  Cu3  1  0.500000  0.000000  0.500000  1
  Cu  Cu4  1  0.184731  0.250000  0.256978  1
  Cu  Cu5  1  0.684731  0.250000  0.243022  1
  Cu  Cu6  1  0.815269  0.750000  0.743022  1
  Cu  Cu7  1  0.315269  0.750000  0.756978  1
  Cl  Cl8  1  0.369512  0.750000  0.068488  1
  Cl  Cl9  1  0.869512  0.750000  0.431512  1
  Cl  Cl10  1  0.630488  0.250000  0.931512  1
  Cl  Cl11  1  0.130488  0.250000  0.568488  1
  O  O12  1  0.145446  0.250000  0.999335  1
  O  O13  1  0.645446  0.250000  0.500665  1
  O  O14  1  0.854554  0.750000  0.000665  1
  O  O15  1  0.354554  0.750000  0.499335  1
  O  O16  1  0.433496  0.065828  0.293664  1
  O  O17  1  0.933496  0.434172  0.206336  1
  O  O18  1  0.566504  0.565828  0.706336  1
  O  O19  1  0.066504  0.934172  0.793664  1
  O  O20  1  0.566504  0.934172  0.706336  1
  O  O21  1  0.066504  0.565828  0.793664  1
  O  O22  1  0.433496  0.434172  0.293664  1
  O  O23  1  0.933496  0.065828  0.206336  1
  H  H24  1  0.706884  0.750000  0.046470  1
  H  H25  1  0.206884  0.750000  0.453530  1
  H  H26  1  0.293116  0.250000  0.953530  1
  H  H27  1  0.793116  0.250000  0.546470  1
  H  H28  1  0.419947  0.547596  0.227547  1
  H  H29  1  0.919947  0.952404  0.272453  1
  H  H30  1  0.580053  0.047596  0.772453  1
  H  H31  1  0.080053  0.452404  0.727547  1
  H  H32  1  0.580053  0.452404  0.772453  1
  H  H33  1  0.080053  0.047596  0.727547  1
  H  H34  1  0.419947  0.952404  0.227547  1
  H  H35  1  0.919947  0.547596  0.272453  1
