# generated using pymatgen
data_Na3Li3Fe2F12
_symmetry_space_group_name_H-M   'P 1'
_cell_length_a   10.90553724
_cell_length_b   10.90553723
_cell_length_c   10.90553723
_cell_angle_alpha   109.47122065
_cell_angle_beta   109.47122064
_cell_angle_gamma   109.47122062
_symmetry_Int_Tables_number   1
_chemical_formula_structural   Na3Li3Fe2F12
_chemical_formula_sum   'Na12 Li12 Fe8 F48'
_cell_volume   998.43386624
_cell_formula_units_Z   4
loop_
 _symmetry_equiv_pos_site_id
 _symmetry_equiv_pos_as_xyz
  1  'x, y, z'
loop_
 _atom_site_type_symbol
 _atom_site_label
 _atom_site_symmetry_multiplicity
 _atom_site_fract_x
 _atom_site_fract_y
 _atom_site_fract_z
 _atom_site_occupancy
  Li  Li0  1  0.250000  0.625000  0.375000  1
  Li  Li1  1  0.875000  0.250000  0.125000  1
  Li  Li2  1  0.125000  0.750000  0.875000  1
  Li  Li3  1  0.875000  0.125000  0.750000  1
  Li  Li4  1  0.625000  0.375000  0.250000  1
  Li  Li5  1  0.750000  0.875000  0.125000  1
  Li  Li6  1  0.125000  0.875000  0.250000  1
  Li  Li7  1  0.375000  0.625000  0.750000  1
  Li  Li8  1  0.625000  0.750000  0.375000  1
  Li  Li9  1  0.750000  0.375000  0.625000  1
  Li  Li10  1  0.250000  0.125000  0.875000  1
  Li  Li11  1  0.375000  0.250000  0.625000  1
  F  F12  1  0.806883  0.423240  0.825279  1
  F  F13  1  0.518396  0.402039  0.825279  1
  F  F14  1  0.674721  0.076760  0.693117  1
  F  F15  1  0.423240  0.097961  0.616357  1
  F  F16  1  0.825279  0.518396  0.402039  1
  F  F17  1  0.402039  0.076760  0.883643  1
  F  F18  1  0.097961  0.981604  0.674721  1
  F  F19  1  0.423240  0.825279  0.806883  1
  F  F20  1  0.076760  0.693117  0.674721  1
  F  F21  1  0.981604  0.806883  0.883643  1
  F  F22  1  0.883643  0.981604  0.806883  1
  F  F23  1  0.402039  0.825279  0.518396  1
  F  F24  1  0.616357  0.693117  0.518396  1
  F  F25  1  0.097961  0.616357  0.423240  1
  F  F26  1  0.518396  0.616357  0.693117  1
  F  F27  1  0.693117  0.674721  0.076760  1
  F  F28  1  0.693117  0.518396  0.616357  1
  F  F29  1  0.616357  0.423240  0.097961  1
  F  F30  1  0.674721  0.097961  0.981604  1
  F  F31  1  0.076760  0.883643  0.402039  1
  F  F32  1  0.193117  0.116357  0.018396  1
  F  F33  1  0.116357  0.597961  0.923240  1
  F  F34  1  0.174721  0.193117  0.576760  1
  F  F35  1  0.576760  0.174721  0.193117  1
  F  F36  1  0.018396  0.325279  0.902039  1
  F  F37  1  0.902039  0.018396  0.325279  1
  F  F38  1  0.597961  0.923240  0.116357  1
  F  F39  1  0.174721  0.481604  0.597961  1
  F  F40  1  0.576760  0.902039  0.383643  1
  F  F41  1  0.325279  0.923240  0.306883  1
  F  F42  1  0.481604  0.597961  0.174721  1
  F  F43  1  0.383643  0.576760  0.902039  1
  F  F44  1  0.923240  0.306883  0.325279  1
  F  F45  1  0.018396  0.193117  0.116357  1
  F  F46  1  0.116357  0.018396  0.193117  1
  F  F47  1  0.597961  0.174721  0.481604  1
  F  F48  1  0.383643  0.306883  0.481604  1
  F  F49  1  0.902039  0.383643  0.576760  1
  F  F50  1  0.481604  0.383643  0.306883  1
  F  F51  1  0.306883  0.325279  0.923240  1
  F  F52  1  0.306883  0.481604  0.383643  1
  F  F53  1  0.325279  0.902039  0.018396  1
  F  F54  1  0.923240  0.116357  0.597961  1
  F  F55  1  0.193117  0.576760  0.174721  1
  F  F56  1  0.806883  0.883643  0.981604  1
  F  F57  1  0.883643  0.402039  0.076760  1
  F  F58  1  0.825279  0.806883  0.423240  1
  F  F59  1  0.981604  0.674721  0.097961  1
  Na  Na60  1  0.625000  0.875000  0.750000  1
  Na  Na61  1  0.875000  0.625000  0.250000  1
  Na  Na62  1  0.625000  0.250000  0.875000  1
  Na  Na63  1  0.250000  0.875000  0.625000  1
  Na  Na64  1  0.750000  0.625000  0.875000  1
  Na  Na65  1  0.875000  0.750000  0.625000  1
  Na  Na66  1  0.375000  0.125000  0.250000  1
  Na  Na67  1  0.125000  0.375000  0.750000  1
  Na  Na68  1  0.375000  0.750000  0.125000  1
  Na  Na69  1  0.750000  0.125000  0.375000  1
  Na  Na70  1  0.125000  0.250000  0.375000  1
  Na  Na71  1  0.250000  0.375000  0.125000  1
  Fe  Fe72  1  0.500000  0.500000  0.500000  1
  Fe  Fe73  1  0.500000  0.500000  0.000000  1
  Fe  Fe74  1  0.500000  0.000000  0.500000  1
  Fe  Fe75  1  0.000000  0.500000  0.500000  1
  Fe  Fe76  1  0.500000  0.000000  0.000000  1
  Fe  Fe77  1  0.000000  0.000000  0.500000  1
  Fe  Fe78  1  0.000000  0.500000  0.000000  1
  Fe  Fe79  1  0.000000  0.000000  0.000000  1
