# generated using pymatgen
data_Sn4P2O9
_symmetry_space_group_name_H-M   'P 1'
_cell_length_a   7.52412268
_cell_length_b   9.70138102
_cell_length_c   14.14752653
_cell_angle_alpha   90.00000000
_cell_angle_beta   99.18731384
_cell_angle_gamma   90.00000000
_symmetry_Int_Tables_number   1
_chemical_formula_structural   Sn4P2O9
_chemical_formula_sum   'Sn16 P8 O36'
_cell_volume   1019.44222308
_cell_formula_units_Z   4
loop_
 _symmetry_equiv_pos_site_id
 _symmetry_equiv_pos_as_xyz
  1  'x, y, z'
loop_
 _atom_site_type_symbol
 _atom_site_label
 _atom_site_symmetry_multiplicity
 _atom_site_fract_x
 _atom_site_fract_y
 _atom_site_fract_z
 _atom_site_occupancy
  Sn  Sn0  1  0.270478  0.979995  0.617470  1
  Sn  Sn1  1  0.450518  0.837859  0.094109  1
  Sn  Sn2  1  0.995892  0.120656  0.828187  1
  Sn  Sn3  1  0.549482  0.162141  0.905891  1
  Sn  Sn4  1  0.770478  0.520005  0.117470  1
  Sn  Sn5  1  0.229522  0.479995  0.882530  1
  Sn  Sn6  1  0.049482  0.337859  0.405891  1
  Sn  Sn7  1  0.202875  0.179232  0.103548  1
  Sn  Sn8  1  0.004108  0.879344  0.171813  1
  Sn  Sn9  1  0.797125  0.820768  0.896452  1
  Sn  Sn10  1  0.495892  0.379344  0.328187  1
  Sn  Sn11  1  0.504108  0.620656  0.671813  1
  Sn  Sn12  1  0.950518  0.662141  0.594109  1
  Sn  Sn13  1  0.297125  0.679232  0.396452  1
  Sn  Sn14  1  0.729522  0.020005  0.382530  1
  Sn  Sn15  1  0.702875  0.320768  0.603548  1
  P  P16  1  0.233439  0.573378  0.159758  1
  P  P17  1  0.266561  0.073378  0.340242  1
  P  P18  1  0.733439  0.926622  0.659758  1
  P  P19  1  0.239051  0.338569  0.647307  1
  P  P20  1  0.766561  0.426622  0.840242  1
  P  P21  1  0.739051  0.161431  0.147307  1
  P  P22  1  0.760949  0.661431  0.352693  1
  P  P23  1  0.260949  0.838569  0.852693  1
  O  O24  1  0.396718  0.476609  0.191780  1
  O  O25  1  0.896718  0.023391  0.691780  1
  O  O26  1  0.103282  0.976609  0.308220  1
  O  O27  1  0.245963  0.183817  0.671362  1
  O  O28  1  0.254037  0.683817  0.828638  1
  O  O29  1  0.220936  0.686928  0.239325  1
  O  O30  1  0.926094  0.111400  0.123872  1
  O  O31  1  0.073906  0.888600  0.876128  1
  O  O32  1  0.754037  0.816183  0.328638  1
  O  O33  1  0.560459  0.014576  0.639704  1
  O  O34  1  0.089356  0.372388  0.560743  1
  O  O35  1  0.910644  0.627612  0.439257  1
  O  O36  1  0.410644  0.872388  0.939257  1
  O  O37  1  0.939541  0.514576  0.860296  1
  O  O38  1  0.439541  0.985424  0.360296  1
  O  O39  1  0.261750  0.655805  0.069038  1
  O  O40  1  0.194705  0.424057  0.732106  1
  O  O41  1  0.694705  0.075943  0.232106  1
  O  O42  1  0.589356  0.127612  0.060743  1
  O  O43  1  0.779064  0.313072  0.760675  1
  O  O44  1  0.720936  0.813072  0.739325  1
  O  O45  1  0.279064  0.186928  0.260675  1
  O  O46  1  0.745963  0.316183  0.171362  1
  O  O47  1  0.738250  0.344195  0.930962  1
  O  O48  1  0.238250  0.155805  0.430962  1
  O  O49  1  0.727980  0.538987  0.614022  1
  O  O50  1  0.603282  0.523391  0.808220  1
  O  O51  1  0.761750  0.844195  0.569038  1
  O  O52  1  0.805295  0.575943  0.267894  1
  O  O53  1  0.227980  0.961013  0.114022  1
  O  O54  1  0.305295  0.924057  0.767894  1
  O  O55  1  0.426094  0.388600  0.623872  1
  O  O56  1  0.060459  0.485424  0.139704  1
  O  O57  1  0.573906  0.611400  0.376128  1
  O  O58  1  0.772020  0.038987  0.885978  1
  O  O59  1  0.272020  0.461013  0.385978  1
