# generated using pymatgen
data_K2U(WO5)2
_symmetry_space_group_name_H-M   'P 1'
_cell_length_a   7.69870281
_cell_length_b   8.78572354
_cell_length_c   14.34486926
_cell_angle_alpha   90.00000000
_cell_angle_beta   90.00000000
_cell_angle_gamma   90.00000000
_symmetry_Int_Tables_number   1
_chemical_formula_structural   K2U(WO5)2
_chemical_formula_sum   'K8 U4 W8 O40'
_cell_volume   970.26794270
_cell_formula_units_Z   4
loop_
 _symmetry_equiv_pos_site_id
 _symmetry_equiv_pos_as_xyz
  1  'x, y, z'
loop_
 _atom_site_type_symbol
 _atom_site_label
 _atom_site_symmetry_multiplicity
 _atom_site_fract_x
 _atom_site_fract_y
 _atom_site_fract_z
 _atom_site_occupancy
  U  U0  1  0.250000  0.524929  0.496118  1
  U  U1  1  0.750000  0.475071  0.503882  1
  U  U2  1  0.750000  0.024929  0.003882  1
  U  U3  1  0.250000  0.975071  0.996118  1
  W  W4  1  0.001236  0.853730  0.431028  1
  W  W5  1  0.501236  0.146270  0.568972  1
  W  W6  1  0.998764  0.353730  0.068972  1
  W  W7  1  0.498764  0.646270  0.931028  1
  W  W8  1  0.998764  0.146270  0.568972  1
  W  W9  1  0.498764  0.853730  0.431028  1
  W  W10  1  0.001236  0.646270  0.931028  1
  W  W11  1  0.501236  0.353730  0.068972  1
  K  K12  1  0.750000  0.155579  0.301376  1
  K  K13  1  0.250000  0.844421  0.698624  1
  K  K14  1  0.250000  0.655579  0.198624  1
  K  K15  1  0.750000  0.344421  0.801376  1
  K  K16  1  0.250000  0.174138  0.283719  1
  K  K17  1  0.750000  0.825862  0.716281  1
  K  K18  1  0.750000  0.674138  0.216281  1
  K  K19  1  0.250000  0.325862  0.783719  1
  O  O20  1  0.972324  0.647251  0.484484  1
  O  O21  1  0.472324  0.352749  0.515516  1
  O  O22  1  0.027676  0.147251  0.015516  1
  O  O23  1  0.527676  0.852749  0.984484  1
  O  O24  1  0.027676  0.352749  0.515516  1
  O  O25  1  0.527676  0.647251  0.484484  1
  O  O26  1  0.972324  0.852749  0.984484  1
  O  O27  1  0.472324  0.147251  0.015516  1
  O  O28  1  0.750000  0.866701  0.422188  1
  O  O29  1  0.250000  0.133299  0.577812  1
  O  O30  1  0.250000  0.366701  0.077812  1
  O  O31  1  0.750000  0.633299  0.922188  1
  O  O32  1  0.031940  0.067582  0.423898  1
  O  O33  1  0.531940  0.932418  0.576102  1
  O  O34  1  0.968060  0.567582  0.076102  1
  O  O35  1  0.468060  0.432418  0.923898  1
  O  O36  1  0.968060  0.932418  0.576102  1
  O  O37  1  0.468060  0.067582  0.423898  1
  O  O38  1  0.031940  0.432418  0.923898  1
  O  O39  1  0.531940  0.567582  0.076102  1
  O  O40  1  0.250000  0.810044  0.464992  1
  O  O41  1  0.750000  0.189956  0.535008  1
  O  O42  1  0.750000  0.310044  0.035008  1
  O  O43  1  0.250000  0.689956  0.964992  1
  O  O44  1  0.028116  0.809591  0.310462  1
  O  O45  1  0.528116  0.190409  0.689538  1
  O  O46  1  0.971884  0.309591  0.189538  1
  O  O47  1  0.471884  0.690409  0.810462  1
  O  O48  1  0.971884  0.190409  0.689538  1
  O  O49  1  0.471884  0.809591  0.310462  1
  O  O50  1  0.028116  0.690409  0.810462  1
  O  O51  1  0.528116  0.309591  0.189538  1
  O  O52  1  0.250000  0.557214  0.622269  1
  O  O53  1  0.750000  0.442786  0.377731  1
  O  O54  1  0.750000  0.057214  0.877731  1
  O  O55  1  0.250000  0.942786  0.122269  1
  O  O56  1  0.250000  0.487771  0.370203  1
  O  O57  1  0.750000  0.512229  0.629797  1
  O  O58  1  0.750000  0.987771  0.129797  1
  O  O59  1  0.250000  0.012229  0.870203  1
