# generated using pymatgen
data_V3S
_symmetry_space_group_name_H-M   'P 1'
_cell_length_a   4.63627246
_cell_length_b   9.33367232
_cell_length_c   9.33367232
_cell_angle_alpha   90.00000000
_cell_angle_beta   90.00000000
_cell_angle_gamma   90.00000000
_symmetry_Int_Tables_number   1
_chemical_formula_structural   V3S
_chemical_formula_sum   'V24 S8'
_cell_volume   403.90018312
_cell_formula_units_Z   8
loop_
 _symmetry_equiv_pos_site_id
 _symmetry_equiv_pos_as_xyz
  1  'x, y, z'
loop_
 _atom_site_type_symbol
 _atom_site_label
 _atom_site_symmetry_multiplicity
 _atom_site_fract_x
 _atom_site_fract_y
 _atom_site_fract_z
 _atom_site_occupancy
  V  V0  1  0.750000  0.839951  0.839951  1
  V  V1  1  0.250000  0.160049  0.160049  1
  V  V2  1  0.250000  0.547748  0.547748  1
  V  V3  1  0.750000  0.452252  0.452252  1
  V  V4  1  0.000000  0.750000  0.103155  1
  V  V5  1  0.000000  0.750000  0.396845  1
  V  V6  1  0.750000  0.339951  0.160049  1
  V  V7  1  0.250000  0.660049  0.839951  1
  V  V8  1  0.750000  0.547748  0.952252  1
  V  V9  1  0.750000  0.047748  0.047748  1
  V  V10  1  0.000000  0.250000  0.603155  1
  V  V11  1  0.250000  0.339951  0.339951  1
  V  V12  1  0.000000  0.250000  0.896845  1
  V  V13  1  0.750000  0.660049  0.660049  1
  V  V14  1  0.500000  0.896845  0.250000  1
  V  V15  1  0.750000  0.160049  0.339951  1
  V  V16  1  0.250000  0.047748  0.452252  1
  V  V17  1  0.250000  0.839951  0.660049  1
  V  V18  1  0.500000  0.103155  0.750000  1
  V  V19  1  0.500000  0.603155  0.250000  1
  V  V20  1  0.250000  0.952252  0.952252  1
  V  V21  1  0.250000  0.452252  0.047748  1
  V  V22  1  0.500000  0.396845  0.750000  1
  V  V23  1  0.750000  0.952252  0.547748  1
  S  S24  1  0.500000  0.750000  0.459564  1
  S  S25  1  0.500000  0.750000  0.040436  1
  S  S26  1  0.500000  0.250000  0.959564  1
  S  S27  1  0.500000  0.250000  0.540436  1
  S  S28  1  0.000000  0.040436  0.750000  1
  S  S29  1  0.000000  0.959564  0.250000  1
  S  S30  1  0.000000  0.459564  0.750000  1
  S  S31  1  0.000000  0.540436  0.250000  1
