# generated using pymatgen
data_Ga10GePb3O20
_symmetry_space_group_name_H-M   'P 1'
_cell_length_a   5.18017513
_cell_length_b   9.90595639
_cell_length_c   9.90595688
_cell_angle_alpha   73.56793953
_cell_angle_beta   74.70317082
_cell_angle_gamma   74.70316780
_symmetry_Int_Tables_number   1
_chemical_formula_structural   Ga10GePb3O20
_chemical_formula_sum   'Ga10 Ge1 Pb3 O20'
_cell_volume   460.34704019
_cell_formula_units_Z   1
loop_
 _symmetry_equiv_pos_site_id
 _symmetry_equiv_pos_as_xyz
  1  'x, y, z'
loop_
 _atom_site_type_symbol
 _atom_site_label
 _atom_site_symmetry_multiplicity
 _atom_site_fract_x
 _atom_site_fract_y
 _atom_site_fract_z
 _atom_site_occupancy
  Pb  Pb0  1  0.000000  0.000000  0.000000  1
  Pb  Pb1  1  0.663193  0.277607  0.277607  1
  Pb  Pb2  1  0.336807  0.722393  0.722393  1
  Ge  Ge3  1  0.000000  0.500000  0.500000  1
  Ga  Ga4  1  0.500000  0.633979  0.366021  1
  Ga  Ga5  1  0.500000  0.366021  0.633979  1
  Ga  Ga6  1  0.659213  0.992597  0.720158  1
  Ga  Ga7  1  0.340787  0.279842  0.007403  1
  Ga  Ga8  1  0.340787  0.007403  0.279842  1
  Ga  Ga9  1  0.659213  0.720158  0.992597  1
  Ga  Ga10  1  0.836127  0.849490  0.421963  1
  Ga  Ga11  1  0.163873  0.578037  0.150510  1
  Ga  Ga12  1  0.163873  0.150510  0.578037  1
  Ga  Ga13  1  0.836127  0.421963  0.849490  1
  O  O14  1  0.384405  0.433569  0.433569  1
  O  O15  1  0.615595  0.566431  0.566431  1
  O  O16  1  0.498828  0.902818  0.902818  1
  O  O17  1  0.501172  0.097182  0.097182  1
  O  O18  1  0.652241  0.875943  0.603843  1
  O  O19  1  0.347759  0.396157  0.124057  1
  O  O20  1  0.347759  0.124057  0.396157  1
  O  O21  1  0.652241  0.603843  0.875943  1
  O  O22  1  0.434946  0.171921  0.661233  1
  O  O23  1  0.565054  0.338767  0.828079  1
  O  O24  1  0.565054  0.828079  0.338767  1
  O  O25  1  0.434946  0.661233  0.171921  1
  O  O26  1  0.008389  0.718072  0.008200  1
  O  O27  1  0.991611  0.991800  0.281928  1
  O  O28  1  0.991611  0.281928  0.991800  1
  O  O29  1  0.008389  0.008200  0.718072  1
  O  O30  1  0.896141  0.545298  0.316171  1
  O  O31  1  0.103859  0.683829  0.454702  1
  O  O32  1  0.103859  0.454702  0.683829  1
  O  O33  1  0.896141  0.316171  0.545298  1
