# generated using pymatgen
data_NbSeI3
_symmetry_space_group_name_H-M   'P 1'
_cell_length_a   7.42064593
_cell_length_b   8.36300040
_cell_length_c   13.84216376
_cell_angle_alpha   86.13021766
_cell_angle_beta   81.24571467
_cell_angle_gamma   63.67747189
_symmetry_Int_Tables_number   1
_chemical_formula_structural   NbSeI3
_chemical_formula_sum   'Nb4 Se4 I12'
_cell_volume   760.98819079
_cell_formula_units_Z   4
loop_
 _symmetry_equiv_pos_site_id
 _symmetry_equiv_pos_as_xyz
  1  'x, y, z'
loop_
 _atom_site_type_symbol
 _atom_site_label
 _atom_site_symmetry_multiplicity
 _atom_site_fract_x
 _atom_site_fract_y
 _atom_site_fract_z
 _atom_site_occupancy
  Nb  Nb0  1  0.992644  0.878407  0.655886  1
  Nb  Nb1  1  0.129088  0.878404  0.844099  1
  Nb  Nb2  1  0.007356  0.121593  0.344114  1
  Nb  Nb3  1  0.870912  0.121596  0.155901  1
  I  I4  1  0.756039  0.188676  0.533103  1
  I  I5  1  0.054985  0.188850  0.966877  1
  I  I6  1  0.243960  0.811324  0.466897  1
  I  I7  1  0.945015  0.811150  0.033123  1
  I  I8  1  0.776907  0.717715  0.590325  1
  I  I9  1  0.505300  0.717776  0.909777  1
  I  I10  1  0.223093  0.282285  0.409675  1
  I  I11  1  0.494700  0.282224  0.090223  1
  I  I12  1  0.707014  0.096613  0.805362  1
  I  I13  1  0.196652  0.096699  0.694606  1
  I  I14  1  0.292986  0.903387  0.194638  1
  I  I15  1  0.803348  0.903301  0.305394  1
  Se  Se16  1  0.331853  0.631716  0.704918  1
  Se  Se17  1  0.037149  0.631303  0.794933  1
  Se  Se18  1  0.668147  0.368284  0.295082  1
  Se  Se19  1  0.962851  0.368697  0.205067  1
