# generated using pymatgen
data_FeP(H2O3)2
_symmetry_space_group_name_H-M   'P 1'
_cell_length_a   8.78371553
_cell_length_b   9.96120520
_cell_length_c   10.35704576
_cell_angle_alpha   90.00000000
_cell_angle_beta   90.00000000
_cell_angle_gamma   90.00000000
_symmetry_Int_Tables_number   1
_chemical_formula_structural   FeP(H2O3)2
_chemical_formula_sum   'Fe8 P8 H32 O48'
_cell_volume   906.20414420
_cell_formula_units_Z   8
loop_
 _symmetry_equiv_pos_site_id
 _symmetry_equiv_pos_as_xyz
  1  'x, y, z'
loop_
 _atom_site_type_symbol
 _atom_site_label
 _atom_site_symmetry_multiplicity
 _atom_site_fract_x
 _atom_site_fract_y
 _atom_site_fract_z
 _atom_site_occupancy
  Fe  Fe0  1  0.151932  0.328285  0.132781  1
  Fe  Fe1  1  0.651932  0.171715  0.867219  1
  Fe  Fe2  1  0.848068  0.828285  0.367219  1
  Fe  Fe3  1  0.348068  0.671715  0.632781  1
  Fe  Fe4  1  0.848068  0.671715  0.867219  1
  Fe  Fe5  1  0.348068  0.828285  0.132781  1
  Fe  Fe6  1  0.151932  0.171715  0.632781  1
  Fe  Fe7  1  0.651932  0.328285  0.367219  1
  P  P8  1  0.028487  0.644387  0.147514  1
  P  P9  1  0.528487  0.855613  0.852486  1
  P  P10  1  0.971513  0.144387  0.352486  1
  P  P11  1  0.471513  0.355613  0.647514  1
  P  P12  1  0.971513  0.355613  0.852486  1
  P  P13  1  0.471513  0.144387  0.147514  1
  P  P14  1  0.028487  0.855613  0.647514  1
  P  P15  1  0.528487  0.644387  0.352486  1
  O  O16  1  0.007958  0.203683  0.218180  1
  O  O17  1  0.507958  0.296317  0.781820  1
  O  O18  1  0.992042  0.703683  0.281820  1
  O  O19  1  0.492042  0.796317  0.718180  1
  O  O20  1  0.992042  0.796317  0.781820  1
  O  O21  1  0.492042  0.703683  0.218180  1
  O  O22  1  0.007958  0.296317  0.718180  1
  O  O23  1  0.507958  0.203683  0.281820  1
  O  O24  1  0.010066  0.489206  0.146407  1
  O  O25  1  0.510066  0.010794  0.853593  1
  O  O26  1  0.989934  0.989206  0.353593  1
  O  O27  1  0.489934  0.510794  0.646407  1
  O  O28  1  0.989934  0.510794  0.853593  1
  O  O29  1  0.489934  0.989206  0.146407  1
  O  O30  1  0.010066  0.010794  0.646407  1
  O  O31  1  0.510066  0.489206  0.353593  1
  O  O32  1  0.303365  0.176153  0.110516  1
  O  O33  1  0.803365  0.323847  0.889484  1
  O  O34  1  0.696635  0.676153  0.389484  1
  O  O35  1  0.196635  0.823847  0.610516  1
  O  O36  1  0.696635  0.823847  0.889484  1
  O  O37  1  0.196635  0.676153  0.110516  1
  O  O38  1  0.303365  0.323847  0.610516  1
  O  O39  1  0.803365  0.176153  0.389484  1
  O  O40  1  0.083375  0.291940  0.952220  1
  O  O41  1  0.583375  0.208060  0.047780  1
  O  O42  1  0.916625  0.791940  0.547780  1
  O  O43  1  0.416625  0.708060  0.452220  1
  O  O44  1  0.916625  0.708060  0.047780  1
  O  O45  1  0.416625  0.791940  0.952220  1
  O  O46  1  0.083375  0.208060  0.452220  1
  O  O47  1  0.583375  0.291940  0.547780  1
  O  O48  1  0.267917  0.888905  0.310938  1
  O  O49  1  0.767917  0.611095  0.689062  1
  O  O50  1  0.732083  0.388905  0.189062  1
  O  O51  1  0.232083  0.111095  0.810938  1
  O  O52  1  0.732083  0.111095  0.689062  1
  O  O53  1  0.232083  0.388905  0.310938  1
  O  O54  1  0.267917  0.611095  0.810938  1
  O  O55  1  0.767917  0.888905  0.189062  1
  O  O56  1  0.330418  0.449185  0.062383  1
  O  O57  1  0.830418  0.050815  0.937617  1
  O  O58  1  0.669582  0.949185  0.437617  1
  O  O59  1  0.169582  0.550815  0.562383  1
  O  O60  1  0.669582  0.550815  0.937617  1
  O  O61  1  0.169582  0.949185  0.062383  1
  O  O62  1  0.330418  0.050815  0.562383  1
  O  O63  1  0.830418  0.449185  0.437617  1
  H  H64  1  0.159506  0.917037  0.324160  1
  H  H65  1  0.659506  0.582963  0.675840  1
  H  H66  1  0.840494  0.417037  0.175840  1
  H  H67  1  0.340494  0.082963  0.824160  1
  H  H68  1  0.840494  0.082963  0.675840  1
  H  H69  1  0.340494  0.417037  0.324160  1
  H  H70  1  0.159506  0.582963  0.824160  1
  H  H71  1  0.659506  0.917037  0.175840  1
  H  H72  1  0.357190  0.436160  0.971605  1
  H  H73  1  0.857190  0.063840  0.028395  1
  H  H74  1  0.642810  0.936160  0.528395  1
  H  H75  1  0.142810  0.563840  0.471605  1
  H  H76  1  0.642810  0.563840  0.028395  1
  H  H77  1  0.142810  0.936160  0.971605  1
  H  H78  1  0.357190  0.063840  0.471605  1
  H  H79  1  0.857190  0.436160  0.528395  1
  H  H80  1  0.300658  0.822149  0.377285  1
  H  H81  1  0.800658  0.677851  0.622715  1
  H  H82  1  0.699342  0.322149  0.122715  1
  H  H83  1  0.199342  0.177851  0.877285  1
  H  H84  1  0.699342  0.177851  0.622715  1
  H  H85  1  0.199342  0.322149  0.377285  1
  H  H86  1  0.300658  0.677851  0.877285  1
  H  H87  1  0.800658  0.822149  0.122715  1
  H  H88  1  0.293795  0.544585  0.073205  1
  H  H89  1  0.793795  0.955415  0.926795  1
  H  H90  1  0.706205  0.044585  0.426795  1
  H  H91  1  0.206205  0.455415  0.573205  1
  H  H92  1  0.706205  0.455415  0.926795  1
  H  H93  1  0.206205  0.044585  0.073205  1
  H  H94  1  0.293795  0.955415  0.573205  1
  H  H95  1  0.793795  0.544585  0.426795  1
