# generated using pymatgen
data_Yb2Ge4Ru3
_symmetry_space_group_name_H-M   'P 1'
_cell_length_a   5.55407686
_cell_length_b   10.45297326
_cell_length_c   11.43305057
_cell_angle_alpha   79.88473669
_cell_angle_beta   75.94249386
_cell_angle_gamma   74.59325255
_symmetry_Int_Tables_number   1
_chemical_formula_structural   Yb2Ge4Ru3
_chemical_formula_sum   'Yb8 Ge16 Ru12'
_cell_volume   616.35164218
_cell_formula_units_Z   4
loop_
 _symmetry_equiv_pos_site_id
 _symmetry_equiv_pos_as_xyz
  1  'x, y, z'
loop_
 _atom_site_type_symbol
 _atom_site_label
 _atom_site_symmetry_multiplicity
 _atom_site_fract_x
 _atom_site_fract_y
 _atom_site_fract_z
 _atom_site_occupancy
  Yb  Yb0  1  0.436173  0.504969  0.357977  1
  Yb  Yb1  1  0.039515  0.530896  0.146244  1
  Yb  Yb2  1  0.960485  0.469104  0.853756  1
  Yb  Yb3  1  0.299119  0.995031  0.142023  1
  Yb  Yb4  1  0.716656  0.969104  0.353756  1
  Yb  Yb5  1  0.700882  0.004969  0.857977  1
  Yb  Yb6  1  0.283344  0.030896  0.646244  1
  Yb  Yb7  1  0.563827  0.495031  0.642023  1
  Ge  Ge8  1  0.256296  0.881275  0.900389  1
  Ge  Ge9  1  0.137601  0.073748  0.398778  1
  Ge  Ge10  1  0.743704  0.118725  0.099611  1
  Ge  Ge11  1  0.380431  0.250000  0.750000  1
  Ge  Ge12  1  0.862399  0.926252  0.601222  1
  Ge  Ge13  1  0.905300  0.726379  0.934641  1
  Ge  Ge14  1  0.610127  0.426252  0.101222  1
  Ge  Ge15  1  0.037960  0.618725  0.599611  1
  Ge  Ge16  1  0.433680  0.226379  0.434641  1
  Ge  Ge17  1  0.094700  0.273621  0.065359  1
  Ge  Ge18  1  0.130644  0.750000  0.250000  1
  Ge  Ge19  1  0.962040  0.381275  0.400389  1
  Ge  Ge20  1  0.869356  0.250000  0.750000  1
  Ge  Ge21  1  0.619569  0.750000  0.250000  1
  Ge  Ge22  1  0.566320  0.773621  0.565359  1
  Ge  Ge23  1  0.389873  0.573748  0.898778  1
  Ru  Ru24  1  0.101274  0.125640  0.911683  1
  Ru  Ru25  1  0.633382  0.741914  0.776241  1
  Ru  Ru26  1  0.848462  0.241914  0.276241  1
  Ru  Ru27  1  0.366618  0.258086  0.223759  1
  Ru  Ru28  1  0.757027  0.187819  0.561675  1
  Ru  Ru29  1  0.898726  0.874360  0.088317  1
  Ru  Ru30  1  0.151538  0.758086  0.723759  1
  Ru  Ru31  1  0.493479  0.687819  0.061675  1
  Ru  Ru32  1  0.506521  0.312181  0.938325  1
  Ru  Ru33  1  0.138597  0.374360  0.588317  1
  Ru  Ru34  1  0.861403  0.625640  0.411683  1
  Ru  Ru35  1  0.242973  0.812181  0.438325  1
