# generated using pymatgen
data_Ce10Te19
_symmetry_space_group_name_H-M   'P 1'
_cell_length_a   10.06887734
_cell_length_b   10.06887734
_cell_length_c   18.12674873
_cell_angle_alpha   90.00000000
_cell_angle_beta   90.00000000
_cell_angle_gamma   90.00000000
_symmetry_Int_Tables_number   1
_chemical_formula_structural   Ce10Te19
_chemical_formula_sum   'Ce20 Te38'
_cell_volume   1837.73131260
_cell_formula_units_Z   2
loop_
 _symmetry_equiv_pos_site_id
 _symmetry_equiv_pos_as_xyz
  1  'x, y, z'
loop_
 _atom_site_type_symbol
 _atom_site_label
 _atom_site_symmetry_multiplicity
 _atom_site_fract_x
 _atom_site_fract_y
 _atom_site_fract_z
 _atom_site_occupancy
  Ce  Ce0  1  0.750000  0.250000  0.880634  1
  Ce  Ce1  1  0.850384  0.956402  0.618579  1
  Ce  Ce2  1  0.956402  0.649616  0.881421  1
  Ce  Ce3  1  0.649616  0.543598  0.618579  1
  Ce  Ce4  1  0.043598  0.350384  0.118579  1
  Ce  Ce5  1  0.647218  0.549261  0.109830  1
  Ce  Ce6  1  0.950739  0.647218  0.390170  1
  Ce  Ce7  1  0.352782  0.450739  0.890170  1
  Ce  Ce8  1  0.450739  0.147218  0.609830  1
  Ce  Ce9  1  0.549261  0.852782  0.390170  1
  Ce  Ce10  1  0.350384  0.456402  0.381421  1
  Ce  Ce11  1  0.149616  0.043598  0.381421  1
  Ce  Ce12  1  0.852782  0.950739  0.109830  1
  Ce  Ce13  1  0.543598  0.850384  0.881421  1
  Ce  Ce14  1  0.456402  0.149616  0.118579  1
  Ce  Ce15  1  0.250000  0.750000  0.619366  1
  Ce  Ce16  1  0.147218  0.049261  0.890170  1
  Ce  Ce17  1  0.049261  0.352782  0.609830  1
  Ce  Ce18  1  0.750000  0.250000  0.380634  1
  Ce  Ce19  1  0.250000  0.750000  0.119366  1
  Te  Te20  1  0.349591  0.447104  0.565345  1
  Te  Te21  1  0.152446  0.049769  0.070811  1
  Te  Te22  1  0.052896  0.349591  0.934655  1
  Te  Te23  1  0.447104  0.150409  0.934655  1
  Te  Te24  1  0.835861  0.475650  0.249557  1
  Te  Te25  1  0.024350  0.835861  0.250443  1
  Te  Te26  1  0.164139  0.524350  0.750443  1
  Te  Te27  1  0.347554  0.450231  0.070811  1
  Te  Te28  1  0.847554  0.950231  0.929189  1
  Te  Te29  1  0.250000  0.250000  0.250000  1
  Te  Te30  1  0.335861  0.975650  0.750443  1
  Te  Te31  1  0.445214  0.640970  0.750115  1
  Te  Te32  1  0.947104  0.650409  0.065345  1
  Te  Te33  1  0.652446  0.549769  0.929189  1
  Te  Te34  1  0.250000  0.750000  0.434539  1
  Te  Te35  1  0.750000  0.250000  0.065461  1
  Te  Te36  1  0.450231  0.152446  0.429189  1
  Te  Te37  1  0.359030  0.945214  0.250115  1
  Te  Te38  1  0.552896  0.849591  0.065345  1
  Te  Te39  1  0.049769  0.347554  0.429189  1
  Te  Te40  1  0.554786  0.359030  0.249885  1
  Te  Te41  1  0.140970  0.554786  0.250115  1
  Te  Te42  1  0.549769  0.847554  0.570811  1
  Te  Te43  1  0.250000  0.750000  0.934539  1
  Te  Te44  1  0.475650  0.664139  0.250443  1
  Te  Te45  1  0.950231  0.652446  0.570811  1
  Te  Te46  1  0.859030  0.445214  0.749885  1
  Te  Te47  1  0.975650  0.164139  0.749557  1
  Te  Te48  1  0.524350  0.335861  0.749557  1
  Te  Te49  1  0.650409  0.552896  0.434655  1
  Te  Te50  1  0.664139  0.024350  0.249557  1
  Te  Te51  1  0.849591  0.947104  0.434655  1
  Te  Te52  1  0.640970  0.054786  0.749885  1
  Te  Te53  1  0.150409  0.052896  0.565345  1
  Te  Te54  1  0.945214  0.140970  0.249885  1
  Te  Te55  1  0.054786  0.859030  0.750115  1
  Te  Te56  1  0.750000  0.250000  0.565461  1
  Te  Te57  1  0.750000  0.750000  0.750000  1
