# generated using pymatgen
data_Al2CrS4
_symmetry_space_group_name_H-M   'P 1'
_cell_length_a   7.15714721
_cell_length_b   7.15714637
_cell_length_c   7.38798937
_cell_angle_alpha   58.92720644
_cell_angle_beta   58.92720960
_cell_angle_gamma   60.76333577
_symmetry_Int_Tables_number   1
_chemical_formula_structural   Al2CrS4
_chemical_formula_sum   'Al4 Cr2 S8'
_cell_volume   264.61344225
_cell_formula_units_Z   2
loop_
 _symmetry_equiv_pos_site_id
 _symmetry_equiv_pos_as_xyz
  1  'x, y, z'
loop_
 _atom_site_type_symbol
 _atom_site_label
 _atom_site_symmetry_multiplicity
 _atom_site_fract_x
 _atom_site_fract_y
 _atom_site_fract_z
 _atom_site_occupancy
  Al  Al0  1  0.991774  0.991774  0.008226  1
  Al  Al1  1  0.258226  0.258226  0.241774  1
  Al  Al2  1  0.625000  0.625000  0.125000  1
  Al  Al3  1  0.625000  0.625000  0.625000  1
  Cr  Cr4  1  0.125000  0.625000  0.625000  1
  Cr  Cr5  1  0.625000  0.125000  0.625000  1
  S  S6  1  0.384031  0.384031  0.370338  1
  S  S7  1  0.384031  0.384031  0.861601  1
  S  S8  1  0.389481  0.853971  0.378274  1
  S  S9  1  0.853971  0.389481  0.378274  1
  S  S10  1  0.396029  0.860519  0.871726  1
  S  S11  1  0.860519  0.396029  0.871726  1
  S  S12  1  0.865969  0.865969  0.388399  1
  S  S13  1  0.865969  0.865969  0.879662  1
