# generated using pymatgen
data_Sr2IrO4
_symmetry_space_group_name_H-M   'P 1'
_cell_length_a   7.86830017
_cell_length_b   7.81537217
_cell_length_c   15.47705741
_cell_angle_alpha   95.30655894
_cell_angle_beta   98.14876332
_cell_angle_gamma   89.02313721
_symmetry_Int_Tables_number   1
_chemical_formula_structural   Sr2IrO4
_chemical_formula_sum   'Sr16 Ir8 O32'
_cell_volume   938.08670544
_cell_formula_units_Z   8
loop_
 _symmetry_equiv_pos_site_id
 _symmetry_equiv_pos_as_xyz
  1  'x, y, z'
loop_
 _atom_site_type_symbol
 _atom_site_label
 _atom_site_symmetry_multiplicity
 _atom_site_fract_x
 _atom_site_fract_y
 _atom_site_fract_z
 _atom_site_occupancy
  Sr  Sr0  1  0.199502  0.964446  0.040412  1
  Sr  Sr1  1  0.942251  0.090735  0.215152  1
  Sr  Sr2  1  0.684759  0.715541  0.128512  1
  Sr  Sr3  1  0.188771  0.962731  0.563604  1
  Sr  Sr4  1  0.221824  0.566326  0.408985  1
  Sr  Sr5  1  0.493671  0.032134  0.769583  1
  Sr  Sr6  1  0.597143  0.737214  0.551387  1
  Sr  Sr7  1  0.283775  0.501805  0.968427  1
  Sr  Sr8  1  0.786973  0.484699  0.921537  1
  Sr  Sr9  1  0.454933  0.296391  0.216137  1
  Sr  Sr10  1  0.444863  0.888449  0.317860  1
  Sr  Sr11  1  0.039295  0.484268  0.599104  1
  Sr  Sr12  1  0.524601  0.250964  0.500150  1
  Sr  Sr13  1  0.436001  0.476036  0.703059  1
  Sr  Sr14  1  0.055933  0.185098  0.806615  1
  Sr  Sr15  1  0.627165  0.153248  0.001420  1
  Ir  Ir16  1  0.783054  0.548911  0.321540  1
  Ir  Ir17  1  0.101221  0.759989  0.825765  1
  Ir  Ir18  1  0.837291  0.879614  0.892125  1
  Ir  Ir19  1  0.124497  0.620133  0.169662  1
  Ir  Ir20  1  0.800848  0.664378  0.757959  1
  Ir  Ir21  1  0.025385  0.365653  0.083100  1
  Ir  Ir22  1  0.855251  0.925414  0.442685  1
  Ir  Ir23  1  0.894405  0.199494  0.403193  1
  O  O24  1  -0.001207  0.520947  0.813831  1
  O  O25  1  0.039274  0.190401  0.654939  1
  O  O26  1  0.247866  0.948599  0.871812  1
  O  O27  1  0.953461  0.560715  0.246854  1
  O  O28  1  0.214891  0.709268  0.723472  1
  O  O29  1  0.361979  0.853445  0.454716  1
  O  O30  1  0.387984  0.248387  0.884945  1
  O  O31  1  -0.060292  0.132501  0.052996  1
  O  O32  1  0.095639  0.269594  0.470206  1
  O  O33  1  0.310437  0.580410  0.257462  1
  O  O34  1  0.587262  0.759150  0.715361  1
  O  O35  1  0.780408  0.800117  0.328649  1
  O  O36  1  0.262090  0.281041  0.068888  1
  O  O37  1  0.495765  0.399995  0.871209  1
  O  O38  1  0.369718  0.205767  0.347723  1
  O  O39  1  0.304522  0.689094  0.101834  1
  O  O40  1  0.242280  0.125877  0.275058  1
  O  O41  1  0.616694  -0.001872  0.200851  1
  O  O42  1  0.602955  0.071930  0.625356  1
  O  O43  1  0.626856  0.542011  0.399544  1
  O  O44  1  0.434117  0.157562  0.632296  1
  O  O45  1  0.984774  0.713903  0.479201  1
  O  O46  1  0.784395  0.107805  0.859351  1
  O  O47  1  0.371495  0.509680  0.550455  1
  O  O48  1  0.760870  0.507011  0.652766  1
  O  O49  1  0.523057  0.011008  0.110372  1
  O  O50  1  -0.159064  -0.035030  0.557660  1
  O  O51  1  0.768062  0.291300  0.303799  1
  O  O52  1  0.738641  0.779188  0.976163  1
  O  O53  1  0.194865  0.285953  0.697494  1
  O  O54  1  0.758302  0.421795  0.070376  1
  O  O55  1  0.998492  0.816376  0.136392  1
