# generated using pymatgen
data_Cr(FeSe2)2
_symmetry_space_group_name_H-M   'P 1'
_cell_length_a   5.93286653
_cell_length_b   4.61185823
_cell_length_c   6.40085874
_cell_angle_alpha   110.43825128
_cell_angle_beta   114.98808774
_cell_angle_gamma   90.44448704
_symmetry_Int_Tables_number   1
_chemical_formula_structural   Cr(FeSe2)2
_chemical_formula_sum   'Cr1 Fe2 Se4'
_cell_volume   146.24389395
_cell_formula_units_Z   1
loop_
 _symmetry_equiv_pos_site_id
 _symmetry_equiv_pos_as_xyz
  1  'x, y, z'
loop_
 _atom_site_type_symbol
 _atom_site_label
 _atom_site_symmetry_multiplicity
 _atom_site_fract_x
 _atom_site_fract_y
 _atom_site_fract_z
 _atom_site_occupancy
  Cr  Cr0  1  0.788160  0.331341  0.989912  1
  Fe  Fe1  1  0.253105  0.790867  0.220316  1
  Fe  Fe2  1  0.317465  0.570414  0.788880  1
  Se  Se3  1  0.928215  0.631322  0.801496  1
  Se  Se4  1  0.367798  0.022502  0.675801  1
  Se  Se5  1  0.642527  0.805346  0.201784  1
  Se  Se6  1  0.202730  0.348209  0.321812  1
