# generated using pymatgen
data_Sc3Re2Si3
_symmetry_space_group_name_H-M   'P 1'
_cell_length_a   5.30919831
_cell_length_b   10.11451924
_cell_length_c   11.15829317
_cell_angle_alpha   80.61735333
_cell_angle_beta   76.23715079
_cell_angle_gamma   74.78426028
_symmetry_Int_Tables_number   1
_chemical_formula_structural   Sc3Re2Si3
_chemical_formula_sum   'Sc12 Re8 Si12'
_cell_volume   558.35049551
_cell_formula_units_Z   4
loop_
 _symmetry_equiv_pos_site_id
 _symmetry_equiv_pos_as_xyz
  1  'x, y, z'
loop_
 _atom_site_type_symbol
 _atom_site_label
 _atom_site_symmetry_multiplicity
 _atom_site_fract_x
 _atom_site_fract_y
 _atom_site_fract_z
 _atom_site_occupancy
  Sc  Sc0  1  0.109442  0.036612  0.209494  1
  Sc  Sc1  1  0.320131  0.716200  0.614680  1
  Sc  Sc2  1  0.355547  0.963388  0.790506  1
  Sc  Sc3  1  0.037279  0.253321  0.613106  1
  Sc  Sc4  1  0.313849  0.734650  0.080062  1
  Sc  Sc5  1  0.651011  0.283800  0.385320  1
  Sc  Sc6  1  0.880647  0.540491  0.741674  1
  Sc  Sc7  1  0.560487  0.208765  0.112221  1
  Sc  Sc8  1  0.162812  0.459509  0.258326  1
  Sc  Sc9  1  0.128562  0.265350  0.919938  1
  Sc  Sc10  1  0.881473  0.791235  0.887779  1
  Sc  Sc11  1  0.903705  0.746679  0.386894  1
  Re  Re12  1  0.445706  0.398027  0.683189  1
  Re  Re13  1  0.526922  0.601973  0.316811  1
  Re  Re14  1  0.723395  0.125831  0.836077  1
  Re  Re15  1  0.196619  0.526570  0.949858  1
  Re  Re16  1  0.947998  0.005724  0.466066  1
  Re  Re17  1  0.685304  0.874169  0.163923  1
  Re  Re18  1  0.419788  0.994276  0.533934  1
  Re  Re19  1  0.673047  0.473430  0.050142  1
  Si  Si20  1  0.465252  0.000000  0.000000  1
  Si  Si21  1  0.637803  0.024879  0.319044  1
  Si  Si22  1  0.969511  0.000000  1.000000  1
  Si  Si23  1  0.767650  0.810453  0.629691  1
  Si  Si24  1  0.854390  0.640089  0.117699  1
  Si  Si25  1  0.612179  0.359911  0.882301  1
  Si  Si26  1  0.207794  0.189547  0.370309  1
  Si  Si27  1  0.364352  0.841858  0.366570  1
  Si  Si28  1  0.736737  0.500000  0.500000  1
  Si  Si29  1  0.239900  0.500000  0.500000  1
  Si  Si30  1  0.572780  0.158142  0.633430  1
  Si  Si31  1  0.981726  0.975121  0.680956  1
