# generated using pymatgen
data_Cs7Cd3Br13
_symmetry_space_group_name_H-M   'P 1'
_cell_length_a   11.40934443
_cell_length_b   14.26692688
_cell_length_c   14.26692286
_cell_angle_alpha   80.80039545
_cell_angle_beta   66.42214598
_cell_angle_gamma   66.42205933
_symmetry_Int_Tables_number   1
_chemical_formula_structural   Cs7Cd3Br13
_chemical_formula_sum   'Cs14 Cd6 Br26'
_cell_volume   1950.75433601
_cell_formula_units_Z   2
loop_
 _symmetry_equiv_pos_site_id
 _symmetry_equiv_pos_as_xyz
  1  'x, y, z'
loop_
 _atom_site_type_symbol
 _atom_site_label
 _atom_site_symmetry_multiplicity
 _atom_site_fract_x
 _atom_site_fract_y
 _atom_site_fract_z
 _atom_site_occupancy
  Cs  Cs0  1  0.249999  0.199990  0.800010  1
  Cs  Cs1  1  0.210457  0.500000  0.079078  1
  Cs  Cs2  1  0.949971  0.800014  0.800011  1
  Cs  Cs3  1  0.750000  0.800010  0.199990  1
  Cs  Cs4  1  0.289542  0.920922  0.500001  1
  Cs  Cs5  1  0.050029  0.199987  0.199989  1
  Cs  Cs6  1  0.550030  0.199988  0.199985  1
  Cs  Cs7  1  0.750000  0.199993  0.800007  1
  Cs  Cs8  1  0.710458  0.079078  0.500000  1
  Cs  Cs9  1  0.449969  0.800012  0.800015  1
  Cs  Cs10  1  0.250000  0.500000  0.500000  1
  Cs  Cs11  1  0.249999  0.800007  0.199993  1
  Cs  Cs12  1  0.789542  0.500001  0.920922  1
  Cs  Cs13  1  0.750000  0.500000  0.500000  1
  Cd  Cd14  1  0.872889  0.754355  0.500007  1
  Cd  Cd15  1  0.627111  0.499992  0.245645  1
  Cd  Cd16  1  0.127111  0.245645  0.499992  1
  Cd  Cd17  1  0.500000  -0.000000  -0.000000  1
  Cd  Cd18  1  0.372889  0.500007  0.754355  1
  Cd  Cd19  1  0.000000  -0.000000  0.000000  1
  Br  Br20  1  0.343831  0.667997  0.644651  1
  Br  Br21  1  0.890228  0.001886  0.217665  1
  Br  Br22  1  0.522513  0.499960  0.852444  1
  Br  Br23  1  0.977487  0.147556  0.500039  1
  Br  Br24  1  0.488420  0.668036  0.355335  1
  Br  Br25  1  0.656170  0.332003  0.355349  1
  Br  Br26  1  0.625186  0.852451  0.499925  1
  Br  Br27  1  0.107964  0.782264  0.001846  1
  Br  Br28  1  0.156170  0.355349  0.332004  1
  Br  Br29  1  0.392037  0.998154  0.217735  1
  Br  Br30  1  0.609772  0.782335  0.998114  1
  Br  Br31  1  0.607964  0.001846  0.782265  1
  Br  Br32  1  0.477487  0.500040  0.147557  1
  Br  Br33  1  0.374814  0.147548  0.500075  1
  Br  Br34  1  0.011579  0.644664  0.331964  1
  Br  Br35  1  0.511578  0.331964  0.644665  1
  Br  Br36  1  0.988421  0.355335  0.668036  1
  Br  Br37  1  0.250000  -0.000002  0.000002  1
  Br  Br38  1  0.750000  0.000002  0.999998  1
  Br  Br39  1  0.022513  0.852443  0.499961  1
  Br  Br40  1  0.125186  0.499925  0.852452  1
  Br  Br41  1  0.109772  0.998114  0.782335  1
  Br  Br42  1  0.892036  0.217736  0.998153  1
  Br  Br43  1  0.390229  0.217665  0.001885  1
  Br  Br44  1  0.843829  0.644651  0.667997  1
  Br  Br45  1  0.874814  0.500075  0.147549  1
