# generated using pymatgen
data_AlPO4
_symmetry_space_group_name_H-M   'P 1'
_cell_length_a   9.64210824
_cell_length_b   9.09091515
_cell_length_c   12.07116873
_cell_angle_alpha   67.87273973
_cell_angle_beta   48.87163068
_cell_angle_gamma   54.07280252
_symmetry_Int_Tables_number   1
_chemical_formula_structural   AlPO4
_chemical_formula_sum   'Al8 P8 O32'
_cell_volume   645.31072103
_cell_formula_units_Z   8
loop_
 _symmetry_equiv_pos_site_id
 _symmetry_equiv_pos_as_xyz
  1  'x, y, z'
loop_
 _atom_site_type_symbol
 _atom_site_label
 _atom_site_symmetry_multiplicity
 _atom_site_fract_x
 _atom_site_fract_y
 _atom_site_fract_z
 _atom_site_occupancy
  Al  Al0  1  0.178920  0.869111  0.377711  1
  Al  Al1  1  0.821080  0.130889  0.622289  1
  Al  Al2  1  0.093986  0.108422  0.895665  1
  Al  Al3  1  0.906014  0.891578  0.104335  1
  Al  Al4  1  0.344363  0.685042  0.815575  1
  Al  Al5  1  0.655637  0.314958  0.184425  1
  Al  Al6  1  0.145780  0.675161  0.654279  1
  Al  Al7  1  0.854220  0.324839  0.345721  1
  P  P8  1  0.551354  0.944477  0.223017  1
  P  P9  1  0.839091  0.511746  0.913542  1
  P  P10  1  0.397358  0.424791  0.451336  1
  P  P11  1  0.448646  0.055523  0.776983  1
  P  P12  1  0.160909  0.488254  0.086458  1
  P  P13  1  0.463931  0.285974  0.061630  1
  P  P14  1  0.536069  0.714026  0.938370  1
  P  P15  1  0.602642  0.575209  0.548664  1
  O  O16  1  0.027590  0.907707  0.603210  1
  O  O17  1  0.405046  0.142406  0.181170  1
  O  O18  1  0.597542  0.130082  0.681451  1
  O  O19  1  0.248105  0.638401  0.461993  1
  O  O20  1  0.630068  0.163577  0.915820  1
  O  O21  1  0.717596  0.257111  0.774415  1
  O  O22  1  0.397592  0.344095  0.360535  1
  O  O23  1  0.402458  0.869918  0.318549  1
  O  O24  1  0.113807  0.891798  0.903367  1
  O  O25  1  0.886193  0.108202  0.096633  1
  O  O26  1  0.550304  0.359128  0.083691  1
  O  O27  1  -0.049623  0.626397  0.830214  1
  O  O28  1  0.377133  0.022545  0.710735  1
  O  O29  1  0.751895  0.361599  0.538007  1
  O  O30  1  0.759052  0.477487  0.075279  1
  O  O31  1  0.972410  0.092293  0.396790  1
  O  O32  1  0.315415  0.398287  0.610804  1
  O  O33  1  0.449696  0.640872  0.916309  1
  O  O34  1  -0.043496  0.333549  0.837173  1
  O  O35  1  0.282404  0.742889  0.225585  1
  O  O36  1  0.239545  0.152960  0.922790  1
  O  O37  1  0.684585  0.601713  0.389196  1
  O  O38  1  0.353844  0.639521  0.658015  1
  O  O39  1  0.240948  0.522513  0.924721  1
  O  O40  1  0.043496  0.666451  0.162827  1
  O  O41  1  0.049623  0.373603  0.169786  1
  O  O42  1  0.369932  0.836423  0.084180  1
  O  O43  1  0.760455  0.847040  0.077210  1
  O  O44  1  0.602408  0.655905  0.639465  1
  O  O45  1  0.646156  0.360479  0.341985  1
  O  O46  1  0.594954  0.857594  0.818830  1
  O  O47  1  0.622867  0.977455  0.289265  1
