# generated using pymatgen
data_Eu(HO)3
_symmetry_space_group_name_H-M   'P 1'
_cell_length_a   6.42853316
_cell_length_b   6.42675326
_cell_length_c   3.69077538
_cell_angle_alpha   90.00000000
_cell_angle_beta   90.00000000
_cell_angle_gamma   120.00059518
_symmetry_Int_Tables_number   1
_chemical_formula_structural   Eu(HO)3
_chemical_formula_sum   'Eu2 H6 O6'
_cell_volume   132.05326905
_cell_formula_units_Z   2
loop_
 _symmetry_equiv_pos_site_id
 _symmetry_equiv_pos_as_xyz
  1  'x, y, z'
loop_
 _atom_site_type_symbol
 _atom_site_label
 _atom_site_symmetry_multiplicity
 _atom_site_fract_x
 _atom_site_fract_y
 _atom_site_fract_z
 _atom_site_occupancy
  Eu  Eu0  1  0.333386  0.666641  0.250000  1
  Eu  Eu1  1  0.666614  0.333359  0.750000  1
  H  H2  1  0.859185  0.723334  0.250000  1
  H  H3  1  0.864129  0.140808  0.250000  1
  H  H4  1  0.276677  0.135827  0.250000  1
  H  H5  1  0.140815  0.276666  0.750000  1
  H  H6  1  0.135871  0.859192  0.750000  1
  H  H7  1  0.723323  0.864173  0.750000  1
  O  O8  1  0.916343  0.608671  0.250000  1
  O  O9  1  0.692347  0.083640  0.250000  1
  O  O10  1  0.391348  0.307671  0.250000  1
  O  O11  1  0.083657  0.391329  0.750000  1
  O  O12  1  0.307653  0.916360  0.750000  1
  O  O13  1  0.608652  0.692329  0.750000  1
