# generated using pymatgen
data_SiO2
_symmetry_space_group_name_H-M   'P 1'
_cell_length_a   10.32549280
_cell_length_b   12.67380127
_cell_length_c   21.89169540
_cell_angle_alpha   90.00000000
_cell_angle_beta   90.00000000
_cell_angle_gamma   90.00000000
_symmetry_Int_Tables_number   1
_chemical_formula_structural   SiO2
_chemical_formula_sum   'Si48 O96'
_cell_volume   2864.81827149
_cell_formula_units_Z   48
loop_
 _symmetry_equiv_pos_site_id
 _symmetry_equiv_pos_as_xyz
  1  'x, y, z'
loop_
 _atom_site_type_symbol
 _atom_site_label
 _atom_site_symmetry_multiplicity
 _atom_site_fract_x
 _atom_site_fract_y
 _atom_site_fract_z
 _atom_site_occupancy
  Si  Si0  1  0.220666  0.370750  0.110996  1
  Si  Si1  1  0.220666  0.629250  0.889004  1
  Si  Si2  1  0.779334  0.870750  0.889004  1
  Si  Si3  1  0.779334  0.129250  0.110996  1
  Si  Si4  1  0.779334  0.629250  0.889004  1
  Si  Si5  1  0.779334  0.370750  0.110996  1
  Si  Si6  1  0.220666  0.129250  0.110996  1
  Si  Si7  1  0.220666  0.870750  0.889004  1
  Si  Si8  1  0.720666  0.870750  0.610996  1
  Si  Si9  1  0.720666  0.129250  0.389004  1
  Si  Si10  1  0.279334  0.370750  0.389004  1
  Si  Si11  1  0.279334  0.629250  0.610996  1
  Si  Si12  1  0.279334  0.129250  0.389004  1
  Si  Si13  1  0.279334  0.870750  0.610996  1
  Si  Si14  1  0.720666  0.629250  0.610996  1
  Si  Si15  1  0.720666  0.370750  0.389004  1
  Si  Si16  1  0.000000  0.561118  0.656028  1
  Si  Si17  1  0.000000  0.438882  0.343972  1
  Si  Si18  1  0.000000  0.061118  0.343972  1
  Si  Si19  1  0.000000  0.938882  0.656028  1
  Si  Si20  1  0.500000  0.061118  0.156028  1
  Si  Si21  1  0.500000  0.938882  0.843972  1
  Si  Si22  1  0.500000  0.561118  0.843972  1
  Si  Si23  1  0.500000  0.438882  0.156028  1
  Si  Si24  1  0.000000  0.874817  0.792453  1
  Si  Si25  1  0.000000  0.125183  0.207547  1
  Si  Si26  1  0.000000  0.374817  0.207547  1
  Si  Si27  1  0.000000  0.625183  0.792453  1
  Si  Si28  1  0.500000  0.374817  0.292453  1
  Si  Si29  1  0.500000  0.625183  0.707547  1
  Si  Si30  1  0.500000  0.874817  0.707547  1
  Si  Si31  1  0.500000  0.125183  0.292453  1
  Si  Si32  1  0.000000  0.874770  0.433591  1
  Si  Si33  1  0.000000  0.125230  0.566409  1
  Si  Si34  1  0.000000  0.374770  0.566409  1
  Si  Si35  1  0.000000  0.625230  0.433591  1
  Si  Si36  1  0.500000  0.374770  0.933591  1
  Si  Si37  1  0.500000  0.625230  0.066409  1
  Si  Si38  1  0.500000  0.874770  0.066409  1
  Si  Si39  1  0.500000  0.125230  0.933591  1
  Si  Si40  1  0.218566  0.500000  0.500000  1
  Si  Si41  1  0.781434  0.000000  0.500000  1
  Si  Si42  1  0.781434  0.500000  0.500000  1
  Si  Si43  1  0.218566  0.000000  0.500000  1
  Si  Si44  1  0.718566  0.000000  0.000000  1
  Si  Si45  1  0.281434  0.500000  0.000000  1
  Si  Si46  1  0.281434  0.000000  0.000000  1
  Si  Si47  1  0.718566  0.500000  0.000000  1
  O  O48  1  0.191747  0.450801  0.054049  1
  O  O49  1  0.191747  0.549199  0.945951  1
  O  O50  1  0.808253  0.950801  0.945951  1
  O  O51  1  0.808253  0.049199  0.054049  1
  O  O52  1  0.808253  0.549199  0.945951  1
  O  O53  1  0.808253  0.450801  0.054049  1
  O  O54  1  0.191747  0.049199  0.054049  1
  O  O55  1  0.191747  0.950801  0.945951  1
  O  O56  1  0.691747  0.950801  0.554049  1
  O  O57  1  0.691747  0.049199  0.445951  1
  O  O58  1  0.308253  0.450801  0.445951  1
  O  O59  1  0.308253  0.549199  0.554049  1
  O  O60  1  0.308253  0.049199  0.445951  1
  O  O61  1  0.308253  0.950801  0.554049  1
  O  O62  1  0.691747  0.549199  0.554049  1
  O  O63  1  0.691747  0.450801  0.445951  1
  O  O64  1  0.371905  0.377508  0.131408  1
  O  O65  1  0.371905  0.622492  0.868592  1
  O  O66  1  0.628095  0.877508  0.868592  1
  O  O67  1  0.628095  0.122492  0.131408  1
  O  O68  1  0.628095  0.622492  0.868592  1
  O  O69  1  0.628095  0.377508  0.131408  1
  O  O70  1  0.371905  0.122492  0.131408  1
  O  O71  1  0.371905  0.877508  0.868592  1
  O  O72  1  0.871905  0.877508  0.631408  1
  O  O73  1  0.871905  0.122492  0.368592  1
  O  O74  1  0.128095  0.377508  0.368592  1
  O  O75  1  0.128095  0.622492  0.631408  1
  O  O76  1  0.128095  0.122492  0.368592  1
  O  O77  1  0.128095  0.877508  0.631408  1
  O  O78  1  0.871905  0.622492  0.631408  1
  O  O79  1  0.871905  0.377508  0.368592  1
  O  O80  1  0.128927  0.403655  0.168224  1
  O  O81  1  0.128927  0.596345  0.831776  1
  O  O82  1  0.871073  0.903655  0.831776  1
  O  O83  1  0.871073  0.096345  0.168224  1
  O  O84  1  0.871073  0.596345  0.831776  1
  O  O85  1  0.871073  0.403655  0.168224  1
  O  O86  1  0.128927  0.096345  0.168224  1
  O  O87  1  0.128927  0.903655  0.831776  1
  O  O88  1  0.628927  0.903655  0.668224  1
  O  O89  1  0.628927  0.096345  0.331776  1
  O  O90  1  0.371073  0.403655  0.331776  1
  O  O91  1  0.371073  0.596345  0.668224  1
  O  O92  1  0.371073  0.096345  0.331776  1
  O  O93  1  0.371073  0.903655  0.668224  1
  O  O94  1  0.628927  0.596345  0.668224  1
  O  O95  1  0.628927  0.403655  0.331776  1
  O  O96  1  0.188600  0.250000  0.090073  1
  O  O97  1  0.188600  0.750000  0.909927  1
  O  O98  1  0.811400  0.750000  0.909927  1
  O  O99  1  0.811400  0.250000  0.090073  1
  O  O100  1  0.688600  0.750000  0.590073  1
  O  O101  1  0.688600  0.250000  0.409927  1
  O  O102  1  0.311400  0.250000  0.409927  1
  O  O103  1  0.311400  0.750000  0.590073  1
  O  O104  1  0.000000  0.440550  0.630151  1
  O  O105  1  0.000000  0.559450  0.369849  1
  O  O106  1  0.000000  0.940550  0.369849  1
  O  O107  1  0.000000  0.059450  0.630151  1
  O  O108  1  0.500000  0.940550  0.130151  1
  O  O109  1  0.500000  0.059450  0.869849  1
  O  O110  1  0.500000  0.440550  0.869849  1
  O  O111  1  0.500000  0.559450  0.130151  1
  O  O112  1  0.000000  0.556362  0.730150  1
  O  O113  1  0.000000  0.443638  0.269850  1
  O  O114  1  0.000000  0.056362  0.269850  1
  O  O115  1  0.000000  0.943638  0.730150  1
  O  O116  1  0.500000  0.056362  0.230150  1
  O  O117  1  0.500000  0.943638  0.769850  1
  O  O118  1  0.500000  0.556362  0.769850  1
  O  O119  1  0.500000  0.443638  0.230150  1
  O  O120  1  0.000000  0.750000  0.774464  1
  O  O121  1  0.000000  0.250000  0.225536  1
  O  O122  1  0.500000  0.250000  0.274464  1
  O  O123  1  0.500000  0.750000  0.725536  1
  O  O124  1  0.128582  0.904697  0.473120  1
  O  O125  1  0.128582  0.095303  0.526880  1
  O  O126  1  0.871417  0.404697  0.526880  1
  O  O127  1  0.871417  0.595303  0.473120  1
  O  O128  1  0.871417  0.095303  0.526880  1
  O  O129  1  0.871417  0.904697  0.473120  1
  O  O130  1  0.128582  0.595303  0.473120  1
  O  O131  1  0.128582  0.404697  0.526880  1
  O  O132  1  0.628583  0.404697  0.973120  1
  O  O133  1  0.628583  0.595303  0.026880  1
  O  O134  1  0.371418  0.904697  0.026880  1
  O  O135  1  0.371418  0.095303  0.973120  1
  O  O136  1  0.371418  0.595303  0.026880  1
  O  O137  1  0.371418  0.404697  0.973120  1
  O  O138  1  0.628583  0.095303  0.973120  1
  O  O139  1  0.628583  0.904697  0.026880  1
  O  O140  1  0.000000  0.750000  0.418027  1
  O  O141  1  0.000000  0.250000  0.581973  1
  O  O142  1  0.500000  0.250000  0.918027  1
  O  O143  1  0.500000  0.750000  0.081973  1
