# generated using pymatgen
data_CoH22N7(ClO2)4
_symmetry_space_group_name_H-M   'P 1'
_cell_length_a   10.05273514
_cell_length_b   10.05273496
_cell_length_c   10.30100805
_cell_angle_alpha   45.51380716
_cell_angle_beta   45.51380837
_cell_angle_gamma   42.61949351
_symmetry_Int_Tables_number   1
_chemical_formula_structural   CoH22N7(ClO2)4
_chemical_formula_sum   'Co1 H22 N7 Cl4 O8'
_cell_volume   464.50255603
_cell_formula_units_Z   1
loop_
 _symmetry_equiv_pos_site_id
 _symmetry_equiv_pos_as_xyz
  1  'x, y, z'
loop_
 _atom_site_type_symbol
 _atom_site_label
 _atom_site_symmetry_multiplicity
 _atom_site_fract_x
 _atom_site_fract_y
 _atom_site_fract_z
 _atom_site_occupancy
  Co  Co0  1  0.945818  0.945818  0.931992  1
  H  H1  1  0.376327  0.524078  0.525029  1
  H  H2  1  0.524078  0.376327  0.525029  1
  H  H3  1  0.450302  0.664602  0.419994  1
  H  H4  1  0.664602  0.450302  0.419994  1
  H  H5  1  0.238179  0.011185  0.601589  1
  H  H6  1  0.230086  0.578645  0.022623  1
  H  H7  1  0.578645  0.230086  0.022623  1
  H  H8  1  0.610259  0.024111  0.220367  1
  H  H9  1  0.011185  0.238179  0.601589  1
  H  H10  1  0.024111  0.610259  0.220367  1
  H  H11  1  0.492123  0.786943  0.790767  1
  H  H12  1  0.287005  0.790995  0.006100  1
  H  H13  1  0.286671  0.018528  0.803756  1
  H  H14  1  0.442115  0.881092  0.918940  1
  H  H15  1  0.786943  0.492123  0.790767  1
  H  H16  1  0.794740  0.794740  0.478246  1
  H  H17  1  0.790995  0.287005  0.006100  1
  H  H18  1  0.789447  0.022423  0.287927  1
  H  H19  1  0.022423  0.789447  0.287927  1
  H  H20  1  0.018528  0.286671  0.803756  1
  H  H21  1  0.881092  0.442115  0.918940  1
  H  H22  1  0.904095  0.904095  0.433546  1
  N  N23  1  0.091732  0.091732  0.689820  1
  N  N24  1  0.114310  0.684062  0.091326  1
  N  N25  1  0.684062  0.114310  0.091326  1
  N  N26  1  0.504989  0.504989  0.521920  1
  N  N27  1  0.376616  0.870795  0.884136  1
  N  N28  1  0.870795  0.376616  0.884136  1
  N  N29  1  0.880036  0.880036  0.371176  1
  Cl  Cl30  1  0.164733  0.164733  0.203820  1
  Cl  Cl31  1  0.380132  0.380132  0.441542  1
  Cl  Cl32  1  0.644239  0.644239  0.620301  1
  Cl  Cl33  1  0.823456  0.823456  0.794018  1
  O  O34  1  0.111001  0.111001  0.149740  1
  O  O35  1  0.015870  0.690423  0.679969  1
  O  O36  1  0.705985  0.705985  0.977328  1
  O  O37  1  0.690423  0.015870  0.679969  1
  O  O38  1  0.281804  0.281804  0.026321  1
  O  O39  1  0.294767  0.968842  0.322039  1
  O  O40  1  0.968842  0.294767  0.322039  1
  O  O41  1  0.878740  0.878740  0.843409  1
