# generated using pymatgen
data_FePH5CO8
_symmetry_space_group_name_H-M   'P 1'
_cell_length_a   7.94878931
_cell_length_b   10.76209240
_cell_length_c   10.44602623
_cell_angle_alpha   90.00000000
_cell_angle_beta   99.39729755
_cell_angle_gamma   90.00000000
_symmetry_Int_Tables_number   1
_chemical_formula_structural   FePH5CO8
_chemical_formula_sum   'Fe4 P4 H20 C4 O32'
_cell_volume   881.61924442
_cell_formula_units_Z   4
loop_
 _symmetry_equiv_pos_site_id
 _symmetry_equiv_pos_as_xyz
  1  'x, y, z'
loop_
 _atom_site_type_symbol
 _atom_site_label
 _atom_site_symmetry_multiplicity
 _atom_site_fract_x
 _atom_site_fract_y
 _atom_site_fract_z
 _atom_site_occupancy
  Fe  Fe0  1  0.418553  0.862585  0.130585  1
  Fe  Fe1  1  0.581447  0.362585  0.369415  1
  Fe  Fe2  1  0.418553  0.637415  0.630585  1
  Fe  Fe3  1  0.581447  0.137415  0.869415  1
  P  P4  1  0.516665  0.816757  0.843024  1
  P  P5  1  0.483335  0.183243  0.156976  1
  P  P6  1  0.516665  0.683243  0.343024  1
  P  P7  1  0.483335  0.316757  0.656976  1
  H  H8  1  0.955132  0.323222  0.337555  1
  H  H9  1  0.544979  0.083500  0.351669  1
  H  H10  1  0.044868  0.823222  0.162445  1
  H  H11  1  0.326668  0.125433  0.611450  1
  H  H12  1  0.730669  0.112089  0.100141  1
  H  H13  1  0.326668  0.374567  0.111450  1
  H  H14  1  0.169215  0.478670  0.909518  1
  H  H15  1  0.455021  0.916500  0.648331  1
  H  H16  1  0.269331  0.612089  0.399859  1
  H  H17  1  0.169215  0.021330  0.409518  1
  H  H18  1  0.455021  0.583500  0.148331  1
  H  H19  1  0.830785  0.521330  0.090482  1
  H  H20  1  0.269331  0.887911  0.899859  1
  H  H21  1  0.673332  0.874567  0.388550  1
  H  H22  1  0.955132  0.176778  0.837555  1
  H  H23  1  0.544979  0.416500  0.851669  1
  H  H24  1  0.673332  0.625433  0.888550  1
  H  H25  1  0.730669  0.387911  0.600141  1
  H  H26  1  0.044868  0.676778  0.662445  1
  H  H27  1  0.830785  0.978670  0.590482  1
  C  C28  1  0.015563  0.031339  0.936906  1
  C  C29  1  -0.015563  0.968661  0.063094  1
  C  C30  1  0.015563  0.468661  0.436906  1
  C  C31  1  -0.015563  0.531339  0.563094  1
  O  O32  1  0.779064  0.663894  0.940753  1
  O  O33  1  0.924526  0.135746  0.914646  1
  O  O34  1  0.643414  0.323195  0.567812  1
  O  O35  1  0.285840  0.205105  0.070893  1
  O  O36  1  0.436792  0.040128  0.142913  1
  O  O37  1  0.436792  0.459872  0.642913  1
  O  O38  1  0.489904  0.830591  0.317721  1
  O  O39  1  0.714160  0.705105  0.429107  1
  O  O40  1  0.285840  0.294895  0.570893  1
  O  O41  1  0.714160  0.794895  0.929107  1
  O  O42  1  0.510096  0.330591  0.182279  1
  O  O43  1  0.109882  -0.009664  0.865632  1
  O  O44  1  0.643414  0.176805  0.067812  1
  O  O45  1  0.566169  0.166004  0.318449  1
  O  O46  1  0.566169  0.333996  0.818449  1
  O  O47  1  0.433831  0.666004  0.181551  1
  O  O48  1  0.433831  0.833996  0.681551  1
  O  O49  1  0.109882  0.509664  0.365632  1
  O  O50  1  0.220936  0.336106  0.059247  1
  O  O51  1  0.075474  0.864254  0.085354  1
  O  O52  1  0.890118  0.490336  0.634368  1
  O  O53  1  0.510096  0.169409  0.682279  1
  O  O54  1  0.356586  0.676805  0.432188  1
  O  O55  1  0.924526  0.364254  0.414646  1
  O  O56  1  0.489904  0.669409  0.817721  1
  O  O57  1  0.075474  0.635746  0.585354  1
  O  O58  1  0.220936  0.163894  0.559247  1
  O  O59  1  0.356586  0.823195  0.932188  1
  O  O60  1  0.563208  0.540128  0.357087  1
  O  O61  1  0.890118  0.009664  0.134368  1
  O  O62  1  0.563208  0.959872  0.857087  1
  O  O63  1  0.779064  0.836106  0.440753  1
