# generated using pymatgen
data_Ti(AlBr4)2
_symmetry_space_group_name_H-M   'P 1'
_cell_length_a   6.39643563
_cell_length_b   10.19634235
_cell_length_c   13.38513785
_cell_angle_alpha   90.00000000
_cell_angle_beta   90.00000000
_cell_angle_gamma   90.00000000
_symmetry_Int_Tables_number   1
_chemical_formula_structural   Ti(AlBr4)2
_chemical_formula_sum   'Ti2 Al4 Br16'
_cell_volume   872.98200344
_cell_formula_units_Z   2
loop_
 _symmetry_equiv_pos_site_id
 _symmetry_equiv_pos_as_xyz
  1  'x, y, z'
loop_
 _atom_site_type_symbol
 _atom_site_label
 _atom_site_symmetry_multiplicity
 _atom_site_fract_x
 _atom_site_fract_y
 _atom_site_fract_z
 _atom_site_occupancy
  Ti  Ti0  1  0.000000  0.008880  0.000000  1
  Ti  Ti1  1  0.500000  0.508880  0.500000  1
  Al  Al2  1  0.610279  0.009171  0.178574  1
  Al  Al3  1  0.389721  0.009171  0.821426  1
  Al  Al4  1  0.889721  0.509171  0.678574  1
  Al  Al5  1  0.110279  0.509171  0.321426  1
  Br  Br6  1  0.259975  0.508116  0.669275  1
  Br  Br7  1  0.752995  0.829973  0.089701  1
  Br  Br8  1  0.698178  0.007038  0.342869  1
  Br  Br9  1  0.247452  0.188262  0.910787  1
  Br  Br10  1  0.801822  0.507038  0.842869  1
  Br  Br11  1  0.752548  0.188262  0.089213  1
  Br  Br12  1  0.198178  0.507038  0.157131  1
  Br  Br13  1  0.240025  0.008116  0.169275  1
  Br  Br14  1  0.747452  0.688262  0.589213  1
  Br  Br15  1  0.252548  0.688262  0.410787  1
  Br  Br16  1  0.247005  0.829973  0.910299  1
  Br  Br17  1  0.740025  0.508116  0.330725  1
  Br  Br18  1  0.301822  0.007038  0.657131  1
  Br  Br19  1  0.759975  0.008116  0.830725  1
  Br  Br20  1  0.252995  0.329973  0.410299  1
  Br  Br21  1  0.747005  0.329973  0.589701  1
