# generated using pymatgen
data_Cu9Se5
_symmetry_space_group_name_H-M   'P 1'
_cell_length_a   20.46696971
_cell_length_b   10.87271578
_cell_length_c   7.13057318
_cell_angle_alpha   29.19911376
_cell_angle_beta   30.33607277
_cell_angle_gamma   19.10029326
_symmetry_Int_Tables_number   1
_chemical_formula_structural   Cu9Se5
_chemical_formula_sum   'Cu9 Se5'
_cell_volume   245.94273702
_cell_formula_units_Z   1
loop_
 _symmetry_equiv_pos_site_id
 _symmetry_equiv_pos_as_xyz
  1  'x, y, z'
loop_
 _atom_site_type_symbol
 _atom_site_label
 _atom_site_symmetry_multiplicity
 _atom_site_fract_x
 _atom_site_fract_y
 _atom_site_fract_z
 _atom_site_occupancy
  Cu  Cu0  1  0.106488  0.257282  0.224001  1
  Cu  Cu1  1  0.289081  0.275226  0.255550  1
  Cu  Cu2  1  0.496715  0.270470  0.218009  1
  Cu  Cu3  1  0.204868  0.657160  0.662653  1
  Cu  Cu4  1  0.207393  0.970546  0.689848  1
  Cu  Cu5  1  0.699023  0.239536  0.263506  1
  Cu  Cu6  1  0.902722  0.243446  0.263080  1
  Cu  Cu7  1  0.598280  0.668220  0.667156  1
  Cu  Cu8  1  0.809501  0.973465  0.679228  1
  Se  Se9  1  0.993986  0.007027  -0.004175  1
  Se  Se10  1  0.196822  0.016086  0.990618  1
  Se  Se11  1  0.403664  0.982433  0.017540  1
  Se  Se12  1  0.597752  0.994955  0.998048  1
  Se  Se13  1  0.799079  0.983484  0.028146  1
