# generated using pymatgen
data_LaTlGeSe4
_symmetry_space_group_name_H-M   'P 1'
_cell_length_a   7.23016843
_cell_length_b   11.61422540
_cell_length_c   19.57560568
_cell_angle_alpha   90.14592694
_cell_angle_beta   90.12051586
_cell_angle_gamma   90.09558672
_symmetry_Int_Tables_number   1
_chemical_formula_structural   LaTlGeSe4
_chemical_formula_sum   'La8 Tl8 Ge8 Se32'
_cell_volume   1643.80726452
_cell_formula_units_Z   8
loop_
 _symmetry_equiv_pos_site_id
 _symmetry_equiv_pos_as_xyz
  1  'x, y, z'
loop_
 _atom_site_type_symbol
 _atom_site_label
 _atom_site_symmetry_multiplicity
 _atom_site_fract_x
 _atom_site_fract_y
 _atom_site_fract_z
 _atom_site_occupancy
  La  La0  1  0.773253  0.392114  0.433787  1
  La  La1  1  0.269913  0.606636  0.064549  1
  La  La2  1  0.770287  0.892461  0.066472  1
  La  La3  1  0.225156  0.105777  0.933430  1
  La  La4  1  0.729812  0.892128  0.565634  1
  La  La5  1  0.725846  0.390966  0.933989  1
  La  La6  1  0.228385  0.607746  0.566839  1
  La  La7  1  0.272775  0.106684  0.435647  1
  Tl  Tl8  1  0.325997  0.257939  0.198392  1
  Tl  Tl9  1  0.165470  0.754210  0.803330  1
  Tl  Tl10  1  0.664009  0.743692  0.801766  1
  Tl  Tl11  1  0.827094  0.742382  0.301538  1
  Tl  Tl12  1  0.173772  0.255599  0.696653  1
  Tl  Tl13  1  0.333169  0.755245  0.302596  1
  Tl  Tl14  1  0.824239  0.243889  0.198090  1
  Tl  Tl15  1  0.674385  0.243445  0.697011  1
  Ge  Ge16  1  0.282597  0.944588  0.111707  1
  Ge  Ge17  1  0.713369  0.053692  0.887269  1
  Ge  Ge18  1  0.216704  0.944887  0.614094  1
  Ge  Ge19  1  0.214978  0.442610  0.886813  1
  Ge  Ge20  1  0.284655  0.443602  0.388378  1
  Ge  Ge21  1  0.784035  0.054359  0.388348  1
  Ge  Ge22  1  0.782809  0.555085  0.112604  1
  Ge  Ge23  1  0.715407  0.556508  0.611947  1
  Se  Se24  1  0.533150  0.498398  0.316689  1
  Se  Se25  1  0.533504  0.000747  0.182508  1
  Se  Se26  1  0.877181  0.140974  0.495470  1
  Se  Se27  1  0.619695  0.139837  0.993875  1
  Se  Se28  1  0.403917  0.293952  0.840443  1
  Se  Se29  1  0.123901  0.860840  0.506164  1
  Se  Se30  1  0.875321  0.639772  0.005356  1
  Se  Se31  1  0.569069  0.405303  0.082552  1
  Se  Se32  1  0.093945  0.795684  0.158621  1
  Se  Se33  1  0.431173  0.094129  0.584347  1
  Se  Se34  1  0.035406  0.500022  0.183245  1
  Se  Se35  1  0.380230  0.358964  0.495163  1
  Se  Se36  1  0.925912  0.903775  0.917312  1
  Se  Se37  1  0.462409  0.995726  0.816903  1
  Se  Se38  1  0.035129  0.996418  0.318416  1
  Se  Se39  1  0.593788  0.201541  0.341509  1
  Se  Se40  1  0.069677  0.094702  0.082587  1
  Se  Se41  1  0.903437  0.202232  0.840921  1
  Se  Se42  1  0.074275  0.594937  0.417349  1
  Se  Se43  1  0.962902  0.499269  0.816877  1
  Se  Se44  1  0.621478  0.640817  0.504707  1
  Se  Se45  1  0.928480  0.407295  0.582731  1
  Se  Se46  1  0.965699  0.000891  0.684035  1
  Se  Se47  1  0.408626  0.796826  0.659326  1
  Se  Se48  1  0.570341  0.905066  0.417566  1
  Se  Se49  1  0.467735  0.499703  0.683380  1
  Se  Se50  1  0.907057  0.704716  0.659226  1
  Se  Se51  1  0.121399  0.357996  0.994163  1
  Se  Se52  1  0.093554  0.294369  0.342074  1
  Se  Se53  1  0.590998  0.702136  0.158440  1
  Se  Se54  1  0.429134  0.591982  0.916202  1
  Se  Se55  1  0.375903  0.858961  0.004702  1
