# generated using pymatgen
data_HgH12(ClO7)2
_symmetry_space_group_name_H-M   'P 1'
_cell_length_a   7.91239401
_cell_length_b   7.91245677
_cell_length_c   5.68832605
_cell_angle_alpha   90.00001573
_cell_angle_beta   90.00044139
_cell_angle_gamma   120.00027381
_symmetry_Int_Tables_number   1
_chemical_formula_structural   HgH12(ClO7)2
_chemical_formula_sum   'Hg1 H12 Cl2 O14'
_cell_volume   308.41335151
_cell_formula_units_Z   1
loop_
 _symmetry_equiv_pos_site_id
 _symmetry_equiv_pos_as_xyz
  1  'x, y, z'
loop_
 _atom_site_type_symbol
 _atom_site_label
 _atom_site_symmetry_multiplicity
 _atom_site_fract_x
 _atom_site_fract_y
 _atom_site_fract_z
 _atom_site_occupancy
  Hg  Hg0  1  0.000000  0.000000  0.000000  1
  H  H1  1  0.347782  0.273526  0.269453  1
  H  H2  1  0.925747  0.652211  0.269456  1
  H  H3  1  0.726471  0.074258  0.269457  1
  H  H4  1  0.347782  0.074256  0.269453  1
  H  H5  1  0.726471  0.652213  0.269457  1
  H  H6  1  0.925747  0.273536  0.269456  1
  H  H7  1  0.652218  0.726474  0.730547  1
  H  H8  1  0.074253  0.347789  0.730544  1
  H  H9  1  0.273529  0.925742  0.730543  1
  H  H10  1  0.652218  0.925744  0.730547  1
  H  H11  1  0.273529  0.347787  0.730543  1
  H  H12  1  0.074253  0.726464  0.730545  1
  Cl  Cl13  1  0.666659  0.333329  0.804383  1
  Cl  Cl14  1  0.333341  0.666671  0.195617  1
  O  O15  1  0.263334  0.131667  0.277435  1
  O  O16  1  0.868325  0.736658  0.277429  1
  O  O17  1  0.868325  0.131667  0.277429  1
  O  O18  1  0.736666  0.868333  0.722565  1
  O  O19  1  0.131675  0.263342  0.722571  1
  O  O20  1  0.131675  0.868333  0.722571  1
  O  O21  1  0.867702  0.433851  0.715225  1
  O  O22  1  0.566120  0.132266  0.715207  1
  O  O23  1  0.566120  0.433854  0.715207  1
  O  O24  1  0.132298  0.566149  0.284775  1
  O  O25  1  0.433880  0.867734  0.284793  1
  O  O26  1  0.433880  0.566145  0.284793  1
  O  O27  1  0.666644  0.333322  0.059757  1
  O  O28  1  0.333356  0.666678  0.940243  1
