# generated using pymatgen
data_PbWO4
_symmetry_space_group_name_H-M   'P 1'
_cell_length_a   7.14177266
_cell_length_b   7.47511092
_cell_length_c   12.87811134
_cell_angle_alpha   90.30007962
_cell_angle_beta   90.00000000
_cell_angle_gamma   90.00000000
_symmetry_Int_Tables_number   1
_chemical_formula_structural   PbWO4
_chemical_formula_sum   'Pb8 W8 O32'
_cell_volume   687.49553518
_cell_formula_units_Z   8
loop_
 _symmetry_equiv_pos_site_id
 _symmetry_equiv_pos_as_xyz
  1  'x, y, z'
loop_
 _atom_site_type_symbol
 _atom_site_label
 _atom_site_symmetry_multiplicity
 _atom_site_fract_x
 _atom_site_fract_y
 _atom_site_fract_z
 _atom_site_occupancy
  Pb  Pb0  1  0.456659  0.131324  0.353809  1
  Pb  Pb1  1  0.204333  0.669071  0.344954  1
  Pb  Pb2  1  0.795667  0.330929  0.655046  1
  Pb  Pb3  1  0.543341  0.868676  0.646191  1
  Pb  Pb4  1  0.704333  0.830929  0.155046  1
  Pb  Pb5  1  0.295667  0.169071  0.844954  1
  Pb  Pb6  1  0.956659  0.368676  0.146191  1
  Pb  Pb7  1  0.043341  0.631324  0.853809  1
  W  W8  1  0.330017  0.417942  0.581544  1
  W  W9  1  0.169983  0.917942  0.081544  1
  W  W10  1  0.540534  0.647686  0.910462  1
  W  W11  1  0.459466  0.352314  0.089538  1
  W  W12  1  0.669983  0.582058  0.418456  1
  W  W13  1  0.959466  0.147686  0.410462  1
  W  W14  1  0.830017  0.082058  0.918456  1
  W  W15  1  0.040534  0.852314  0.589538  1
  O  O16  1  0.479164  0.217097  0.600204  1
  O  O17  1  0.020836  0.717097  0.100204  1
  O  O18  1  0.266174  0.178724  0.059535  1
  O  O19  1  0.242182  0.432546  0.715917  1
  O  O20  1  0.733826  0.821276  0.940465  1
  O  O21  1  0.421890  0.445416  0.418358  1
  O  O22  1  0.852598  0.030104  0.551931  1
  O  O23  1  0.382729  0.815643  0.021970  1
  O  O24  1  0.678362  0.508349  0.824189  1
  O  O25  1  0.147402  0.969896  0.448069  1
  O  O26  1  0.321638  0.491651  0.175811  1
  O  O27  1  0.093555  0.270435  0.311624  1
  O  O28  1  0.352598  0.469896  0.948069  1
  O  O29  1  0.921890  0.054584  0.081642  1
  O  O30  1  0.178362  0.991651  0.675811  1
  O  O31  1  0.520836  0.782903  0.399796  1
  O  O32  1  0.821638  0.008349  0.324189  1
  O  O33  1  0.766174  0.321276  0.440465  1
  O  O34  1  0.617271  0.184357  0.978030  1
  O  O35  1  0.233826  0.678724  0.559535  1
  O  O36  1  0.882729  0.684357  0.478030  1
  O  O37  1  0.906445  0.729565  0.688376  1
  O  O38  1  0.578110  0.554584  0.581642  1
  O  O39  1  0.757818  0.567454  0.284083  1
  O  O40  1  0.647402  0.530104  0.051931  1
  O  O41  1  0.593555  0.229565  0.188376  1
  O  O42  1  0.979164  0.282903  0.899796  1
  O  O43  1  0.406445  0.770435  0.811624  1
  O  O44  1  0.078110  0.945416  0.918358  1
  O  O45  1  0.117271  0.315643  0.521970  1
  O  O46  1  0.257818  0.932546  0.215917  1
  O  O47  1  0.742182  0.067454  0.784083  1
