# generated using pymatgen
data_Fe3Se4
_symmetry_space_group_name_H-M   'P 1'
_cell_length_a   5.25185802
_cell_length_b   5.58367660
_cell_length_c   5.61618368
_cell_angle_alpha   132.05507961
_cell_angle_beta   107.74773736
_cell_angle_gamma   91.91562222
_symmetry_Int_Tables_number   1
_chemical_formula_structural   Fe3Se4
_chemical_formula_sum   'Fe3 Se4'
_cell_volume   109.69334698
_cell_formula_units_Z   1
loop_
 _symmetry_equiv_pos_site_id
 _symmetry_equiv_pos_as_xyz
  1  'x, y, z'
loop_
 _atom_site_type_symbol
 _atom_site_label
 _atom_site_symmetry_multiplicity
 _atom_site_fract_x
 _atom_site_fract_y
 _atom_site_fract_z
 _atom_site_occupancy
  Fe  Fe0  1  0.731294  0.041553  0.679164  1
  Fe  Fe1  1  0.500000  0.500000  0.000000  1
  Fe  Fe2  1  0.268706  0.958447  0.320836  1
  Se  Se3  1  0.974094  0.639600  0.333791  1
  Se  Se4  1  0.668752  0.800963  0.881319  1
  Se  Se5  1  0.331248  0.199037  0.118681  1
  Se  Se6  1  0.025906  0.360400  0.666209  1
