# generated using pymatgen
data_Ca14La6Mg3Ti17O60
_symmetry_space_group_name_H-M   'P 1'
_cell_length_a   5.48077928
_cell_length_b   5.54818181
_cell_length_c   38.92920846
_cell_angle_alpha   90.09665385
_cell_angle_beta   90.02389999
_cell_angle_gamma   89.91379646
_symmetry_Int_Tables_number   1
_chemical_formula_structural   Ca14La6Mg3Ti17O60
_chemical_formula_sum   'Ca14 La6 Mg3 Ti17 O60'
_cell_volume   1183.77025546
_cell_formula_units_Z   1
loop_
 _symmetry_equiv_pos_site_id
 _symmetry_equiv_pos_as_xyz
  1  'x, y, z'
loop_
 _atom_site_type_symbol
 _atom_site_label
 _atom_site_symmetry_multiplicity
 _atom_site_fract_x
 _atom_site_fract_y
 _atom_site_fract_z
 _atom_site_occupancy
  Ca  Ca0  1  0.012382  0.960738  0.148658  1
  Ca  Ca1  1  0.010815  0.961023  0.949832  1
  Ca  Ca2  1  0.488935  0.460234  0.148691  1
  Ca  Ca3  1  0.486295  0.459000  0.949738  1
  Ca  Ca4  1  0.511860  0.540146  0.049228  1
  Ca  Ca5  1  0.510740  0.540312  0.247472  1
  Ca  Ca6  1  0.515057  0.543703  0.648570  1
  Ca  Ca7  1  0.515080  0.543793  0.448307  1
  Ca  Ca8  1  0.516614  0.543313  0.850042  1
  Ca  Ca9  1  0.987754  0.039527  0.049326  1
  Ca  Ca10  1  0.991994  0.038790  0.247381  1
  Ca  Ca11  1  0.987692  0.036417  0.649009  1
  Ca  Ca12  1  0.987968  0.036534  0.448751  1
  Ca  Ca13  1  0.983610  0.038268  0.850461  1
  La  La14  1  0.007746  0.969963  0.351640  1
  La  La15  1  0.005754  0.970815  0.552198  1
  La  La16  1  0.005599  0.971126  0.752645  1
  La  La17  1  0.491195  0.467309  0.351520  1
  La  La18  1  0.489408  0.466080  0.552049  1
  La  La19  1  0.488914  0.466197  0.752491  1
  Mg  Mg20  1  0.499432  0.999447  0.601606  1
  Mg  Mg21  1  0.499484  0.999920  0.401573  1
  Mg  Mg22  1  0.499361  0.999064  0.801966  1
  Ti  Ti23  1  0.991024  0.498254  0.999324  1
  Ti  Ti24  1  0.003994  0.501064  0.098456  1
  Ti  Ti25  1  0.005326  0.501902  0.197518  1
  Ti  Ti26  1  0.000098  0.496042  0.297061  1
  Ti  Ti27  1  -0.000769  0.500013  0.402678  1
  Ti  Ti28  1  -0.000467  0.499868  0.603388  1
  Ti  Ti29  1  0.996772  0.499929  0.699193  1
  Ti  Ti30  1  -0.000670  0.499833  0.804171  1
  Ti  Ti31  1  0.497789  0.001418  0.098199  1
  Ti  Ti32  1  0.503767  0.995973  0.297636  1
  Ti  Ti33  1  0.499153  -0.000110  0.497575  1
  Ti  Ti34  1  0.497783  0.996087  0.997987  1
  Ti  Ti35  1  0.497564  -0.000326  0.697842  1
  Ti  Ti36  1  0.491290  0.007205  0.898442  1
  Ti  Ti37  1  0.510148  0.004674  0.198468  1
  Ti  Ti38  1  0.998461  0.499684  0.498847  1
  Ti  Ti39  1  0.001635  0.506865  0.900566  1
  O  O40  1  0.084210  0.479276  0.050904  1
  O  O41  1  0.083727  0.479163  0.249754  1
  O  O42  1  0.091429  0.474512  0.450630  1
  O  O43  1  0.091862  0.474465  0.651036  1
  O  O44  1  0.089919  0.473767  0.852136  1
  O  O45  1  0.218214  0.219131  0.109312  1
  O  O46  1  0.222663  0.225364  0.307976  1
  O  O47  1  0.221384  0.223730  0.709252  1
  O  O48  1  0.221099  0.223888  0.508942  1
  O  O49  1  0.213698  0.216362  0.191151  1
  O  O50  1  0.217726  0.216031  0.910561  1
  O  O51  1  0.215296  0.227550  0.390379  1
  O  O52  1  0.214442  0.227681  0.590863  1
  O  O53  1  0.214538  0.228145  0.791387  1
  O  O54  1  0.219162  0.218001  0.991844  1
  O  O55  1  0.280180  0.718159  0.109286  1
  O  O56  1  0.279411  0.714009  0.191194  1
  O  O57  1  0.276260  0.724159  0.308015  1
  O  O58  1  0.274210  0.713294  0.390610  1
  O  O59  1  0.272908  0.712630  0.591051  1
  O  O60  1  0.273904  0.720470  0.509336  1
  O  O61  1  0.278259  0.713986  0.910649  1
  O  O62  1  0.285037  0.718425  0.991785  1
  O  O63  1  0.274357  0.720694  0.709637  1
  O  O64  1  0.272502  0.712766  0.791608  1
  O  O65  1  0.416976  0.979488  0.051201  1
  O  O66  1  0.415331  0.978527  0.249564  1
  O  O67  1  0.408605  0.971754  0.652550  1
  O  O68  1  0.408061  0.971329  0.452323  1
  O  O69  1  0.408740  0.972309  0.853438  1
  O  O70  1  0.575958  0.013461  0.346912  1
  O  O71  1  0.582379  0.019891  0.150737  1
  O  O72  1  0.577451  0.014295  0.547816  1
  O  O73  1  0.577793  0.014413  0.748182  1
  O  O74  1  0.585542  0.020302  0.951827  1
  O  O75  1  0.721997  0.283209  0.009607  1
  O  O76  1  0.716937  0.282334  0.091574  1
  O  O77  1  0.720609  0.282543  0.290207  1
  O  O78  1  0.715654  0.279037  0.208983  1
  O  O79  1  0.726182  0.290646  0.608436  1
  O  O80  1  0.720596  0.281740  0.490225  1
  O  O81  1  0.726027  0.290953  0.407937  1
  O  O82  1  0.721032  0.281911  0.690520  1
  O  O83  1  0.726023  0.290562  0.809035  1
  O  O84  1  0.715740  0.279727  0.891893  1
  O  O85  1  0.784015  0.780706  0.009653  1
  O  O86  1  0.778999  0.780145  0.208957  1
  O  O87  1  0.782883  0.782124  0.091559  1
  O  O88  1  0.795118  0.777905  0.408213  1
  O  O89  1  0.794623  0.777139  0.608565  1
  O  O90  1  0.782707  0.777888  0.690827  1
  O  O91  1  0.780761  0.781735  0.290236  1
  O  O92  1  0.782385  0.778059  0.490577  1
  O  O93  1  0.794573  0.777102  0.809218  1
  O  O94  1  0.784801  0.777235  0.892033  1
  O  O95  1  0.914988  0.520686  0.150530  1
  O  O96  1  0.923798  0.513486  0.348188  1
  O  O97  1  0.922198  0.511043  0.548520  1
  O  O98  1  0.922329  0.511077  0.748937  1
  O  O99  1  0.915204  0.519491  0.951214  1
