# generated using pymatgen
data_Al2S3
_symmetry_space_group_name_H-M   'P 1'
_cell_length_a   7.09590277
_cell_length_b   21.28134316
_cell_length_c   18.76703874
_cell_angle_alpha   19.11934689
_cell_angle_beta   55.43548958
_cell_angle_gamma   59.98630702
_symmetry_Int_Tables_number   1
_chemical_formula_structural   Al2S3
_chemical_formula_sum   'Al16 S24'
_cell_volume   757.62362714
_cell_formula_units_Z   8
loop_
 _symmetry_equiv_pos_site_id
 _symmetry_equiv_pos_as_xyz
  1  'x, y, z'
loop_
 _atom_site_type_symbol
 _atom_site_label
 _atom_site_symmetry_multiplicity
 _atom_site_fract_x
 _atom_site_fract_y
 _atom_site_fract_z
 _atom_site_occupancy
  Al  Al0  1  0.989445  0.996907  0.010516  1
  Al  Al1  1  0.010988  0.337743  0.988385  1
  Al  Al2  1  0.621412  0.102179  0.150562  1
  Al  Al3  1  0.240406  0.246790  0.260547  1
  Al  Al4  1  0.099684  0.122905  0.630143  1
  Al  Al5  1  0.630636  0.481706  0.099142  1
  Al  Al6  1  0.260223  0.586656  0.239973  1
  Al  Al7  1  0.150008  0.459554  0.621369  1
  Al  Al8  1  0.642580  0.123078  0.630089  1
  Al  Al9  1  0.624478  0.291566  0.625598  1
  Al  Al10  1  0.624508  0.791848  0.125331  1
  Al  Al11  1  0.125239  0.792477  0.623975  1
  Al  Al12  1  0.607053  0.460675  0.620203  1
  Al  Al13  1  0.620399  0.645046  0.607750  1
  Al  Al14  1  0.624552  0.792107  0.624747  1
  Al  Al15  1  0.630807  0.938768  0.641910  1
  S  S16  1  0.376742  0.034646  0.381054  1
  S  S17  1  0.385452  0.204907  0.385730  1
  S  S18  1  0.873548  0.033737  0.383942  1
  S  S19  1  0.386179  0.358520  0.384691  1
  S  S20  1  0.845543  0.205151  0.385423  1
  S  S21  1  0.381195  0.541085  0.376882  1
  S  S22  1  0.384453  0.042320  0.873738  1
  S  S23  1  0.390644  0.226184  0.847056  1
  S  S24  1  0.859446  0.356955  0.403945  1
  S  S25  1  0.389591  0.701665  0.371559  1
  S  S26  1  0.868312  0.042334  0.873650  1
  S  S27  1  0.865303  0.541284  0.376637  1
  S  S28  1  0.371558  0.870282  0.390170  1
  S  S29  1  0.405065  0.378981  0.864235  1
  S  S30  1  0.376449  0.550657  0.865165  1
  S  S31  1  0.864486  0.225269  0.865262  1
  S  S32  1  0.864280  0.685215  0.405171  1
  S  S33  1  0.864967  0.378523  0.864716  1
  S  S34  1  0.846660  0.869189  0.391548  1
  S  S35  1  0.404363  0.714087  0.858956  1
  S  S36  1  0.873469  0.549863  0.867953  1
  S  S37  1  0.385845  0.898435  0.844909  1
  S  S38  1  0.880481  0.714381  0.858247  1
  S  S39  1  0.859180  0.881315  0.879631  1
