# generated using pymatgen
data_FeHO2
_symmetry_space_group_name_H-M   'P 1'
_cell_length_a   10.54668559
_cell_length_b   6.18258845
_cell_length_c   10.71790284
_cell_angle_alpha   90.07887763
_cell_angle_beta   90.12361157
_cell_angle_gamma   90.05107456
_symmetry_Int_Tables_number   1
_chemical_formula_structural   FeHO2
_chemical_formula_sum   'Fe16 H16 O32'
_cell_volume   698.86703741
_cell_formula_units_Z   16
loop_
 _symmetry_equiv_pos_site_id
 _symmetry_equiv_pos_as_xyz
  1  'x, y, z'
loop_
 _atom_site_type_symbol
 _atom_site_label
 _atom_site_symmetry_multiplicity
 _atom_site_fract_x
 _atom_site_fract_y
 _atom_site_fract_z
 _atom_site_occupancy
  Fe  Fe0  1  0.351509  0.987992  0.124229  1
  Fe  Fe1  1  0.145485  0.993315  0.629203  1
  Fe  Fe2  1  0.842295  0.243763  0.622351  1
  Fe  Fe3  1  0.672218  0.241860  0.108445  1
  Fe  Fe4  1  0.656442  0.002690  0.817177  1
  Fe  Fe5  1  0.862057  0.998827  0.321820  1
  Fe  Fe6  1  0.159544  0.245992  0.337885  1
  Fe  Fe7  1  0.351291  0.245410  0.829953  1
  Fe  Fe8  1  0.348350  0.508255  0.118007  1
  Fe  Fe9  1  0.144684  0.492886  0.630183  1
  Fe  Fe10  1  0.848283  0.742918  0.610748  1
  Fe  Fe11  1  0.653230  0.743009  0.118315  1
  Fe  Fe12  1  0.657472  0.483611  0.819739  1
  Fe  Fe13  1  0.860730  0.494943  0.321464  1
  Fe  Fe14  1  0.156104  0.744618  0.337666  1
  Fe  Fe15  1  0.359705  0.745332  0.829354  1
  H  H16  1  0.359644  0.983770  0.392860  1
  H  H17  1  0.413835  0.997680  0.640612  1
  H  H18  1  0.923306  0.269799  0.119107  1
  H  H19  1  0.648755  0.979691  0.542371  1
  H  H20  1  0.603965  0.022654  0.318989  1
  H  H21  1  0.157038  0.235269  0.075563  1
  H  H22  1  0.488092  0.283023  0.239214  1
  H  H23  1  0.076288  0.239787  0.820675  1
  H  H24  1  0.356984  0.509185  0.392673  1
  H  H25  1  0.411693  0.483367  0.638786  1
  H  H26  1  0.859667  0.757064  0.859151  1
  H  H27  1  0.912331  0.761187  0.114359  1
  H  H28  1  0.646953  0.495250  0.548404  1
  H  H29  1  0.615823  0.556896  0.331271  1
  H  H30  1  0.142258  0.750708  0.081939  1
  H  H31  1  0.089480  0.741097  0.830383  1
  O  O32  1  0.304829  0.995610  0.320369  1
  O  O33  1  0.048277  0.996524  0.307774  1
  O  O34  1  0.339395  0.993398  0.693808  1
  O  O35  1  0.333611  0.996859  0.946277  1
  O  O36  1  0.784687  0.242510  0.799871  1
  O  O37  1  0.532622  0.244806  0.805314  1
  O  O38  1  0.853646  0.251737  0.177159  1
  O  O39  1  0.833351  0.246308  0.430770  1
  O  O40  1  0.702172  0.987199  0.616038  1
  O  O41  1  0.960649  0.992660  0.635896  1
  O  O42  1  0.668460  0.003265  0.255592  1
  O  O43  1  0.674556  0.989858  0.004245  1
  O  O44  1  0.220103  0.246425  0.141320  1
  O  O45  1  0.474650  0.252597  0.150631  1
  O  O46  1  0.153244  0.242480  0.770552  1
  O  O47  1  0.178241  0.243862  0.518113  1
  O  O48  1  0.303711  0.493076  0.319187  1
  O  O49  1  0.047431  0.493885  0.307347  1
  O  O50  1  0.339150  0.493657  0.694075  1
  O  O51  1  0.334988  0.495103  0.943228  1
  O  O52  1  0.790694  0.744432  0.799712  1
  O  O53  1  0.540042  0.743979  0.807474  1
  O  O54  1  0.848045  0.750154  0.178595  1
  O  O55  1  0.832965  0.746650  0.428185  1
  O  O56  1  0.702891  0.500487  0.620110  1
  O  O57  1  0.960132  0.494545  0.637276  1
  O  O58  1  0.665906  0.502801  0.261966  1
  O  O59  1  0.673751  0.495290  0.007042  1
  O  O60  1  0.210943  0.746860  0.142047  1
  O  O61  1  0.466283  0.744709  0.141854  1
  O  O62  1  0.158615  0.743252  0.770581  1
  O  O63  1  0.177306  0.742703  0.517580  1
