# generated using pymatgen
data_Rb4N2O7
_symmetry_space_group_name_H-M   'P 1'
_cell_length_a   4.72446292
_cell_length_b   4.90939455
_cell_length_c   18.24343069
_cell_angle_alpha   58.55517171
_cell_angle_beta   60.05569174
_cell_angle_gamma   71.58548030
_symmetry_Int_Tables_number   1
_chemical_formula_structural   Rb4N2O7
_chemical_formula_sum   'Rb4 N2 O7'
_cell_volume   311.92904735
_cell_formula_units_Z   1
loop_
 _symmetry_equiv_pos_site_id
 _symmetry_equiv_pos_as_xyz
  1  'x, y, z'
loop_
 _atom_site_type_symbol
 _atom_site_label
 _atom_site_symmetry_multiplicity
 _atom_site_fract_x
 _atom_site_fract_y
 _atom_site_fract_z
 _atom_site_occupancy
  Rb  Rb0  1  0.540629  0.600474  0.099042  1
  Rb  Rb1  1  0.476213  0.506279  0.371413  1
  Rb  Rb2  1  0.540627  0.629071  0.582378  1
  Rb  Rb3  1  0.387408  0.436856  0.891252  1
  N  N4  1  0.048981  0.056967  0.246850  1
  N  N5  1  0.948954  0.032270  0.763732  1
  O  O6  1  0.750549  0.210889  0.004724  1
  O  O7  1  0.127241  0.775776  0.252646  1
  O  O8  1  0.756282  0.165696  0.255880  1
  O  O9  1  0.214283  0.908636  0.719232  1
  O  O10  1  0.850943  0.212317  0.490044  1
  O  O11  1  0.800349  0.882649  0.852838  1
  O  O12  1  0.831539  0.308121  0.719971  1
