# generated using pymatgen
data_Eu2BrO2
_symmetry_space_group_name_H-M   'P 1'
_cell_length_a   4.00054648
_cell_length_b   6.77587521
_cell_length_c   8.54556664
_cell_angle_alpha   77.98312661
_cell_angle_beta   76.46310372
_cell_angle_gamma   72.83016117
_symmetry_Int_Tables_number   1
_chemical_formula_structural   Eu2BrO2
_chemical_formula_sum   'Eu4 Br2 O4'
_cell_volume   212.74805407
_cell_formula_units_Z   2
loop_
 _symmetry_equiv_pos_site_id
 _symmetry_equiv_pos_as_xyz
  1  'x, y, z'
loop_
 _atom_site_type_symbol
 _atom_site_label
 _atom_site_symmetry_multiplicity
 _atom_site_fract_x
 _atom_site_fract_y
 _atom_site_fract_z
 _atom_site_occupancy
  Eu  Eu0  1  0.659130  0.234053  0.447686  1
  Eu  Eu1  1  0.956552  0.283722  0.803174  1
  Eu  Eu2  1  0.043448  0.716278  0.196826  1
  Eu  Eu3  1  0.340870  0.765947  0.552314  1
  Br  Br4  1  0.331766  0.212109  0.124359  1
  Br  Br5  1  0.668234  0.787891  0.875641  1
  O  O6  1  0.852955  0.869512  0.424578  1
  O  O7  1  0.147045  0.130488  0.575422  1
  O  O8  1  0.449282  0.413729  0.687708  1
  O  O9  1  0.550718  0.586271  0.312292  1
