# generated using pymatgen
data_Tm10In20Co9
_symmetry_space_group_name_H-M   'P 1'
_cell_length_a   9.10127048
_cell_length_b   13.08826355
_cell_length_c   13.08826355
_cell_angle_alpha   90.00000000
_cell_angle_beta   90.00000000
_cell_angle_gamma   90.00000000
_symmetry_Int_Tables_number   1
_chemical_formula_structural   Tm10In20Co9
_chemical_formula_sum   'Tm20 In40 Co18'
_cell_volume   1559.07168565
_cell_formula_units_Z   2
loop_
 _symmetry_equiv_pos_site_id
 _symmetry_equiv_pos_as_xyz
  1  'x, y, z'
loop_
 _atom_site_type_symbol
 _atom_site_label
 _atom_site_symmetry_multiplicity
 _atom_site_fract_x
 _atom_site_fract_y
 _atom_site_fract_z
 _atom_site_occupancy
  Tm  Tm0  1  0.729777  0.953928  0.953928  1
  Tm  Tm1  1  0.270223  0.046072  0.453928  1
  Tm  Tm2  1  0.231310  0.474851  0.750000  1
  Tm  Tm3  1  0.362832  0.250000  0.250000  1
  Tm  Tm4  1  0.839232  0.250000  0.250000  1
  Tm  Tm5  1  0.729777  0.546072  0.953928  1
  Tm  Tm6  1  0.637168  0.750000  0.750000  1
  Tm  Tm7  1  0.160768  0.750000  0.750000  1
  Tm  Tm8  1  0.231310  0.750000  0.025149  1
  Tm  Tm9  1  0.768690  0.250000  0.525149  1
  Tm  Tm10  1  0.768690  0.250000  0.974851  1
  Tm  Tm11  1  0.729777  0.546072  0.546072  1
  Tm  Tm12  1  0.270223  0.046072  0.046072  1
  Tm  Tm13  1  0.729777  0.953928  0.546072  1
  Tm  Tm14  1  0.768690  0.974851  0.250000  1
  Tm  Tm15  1  0.231310  0.025149  0.750000  1
  Tm  Tm16  1  0.768690  0.525149  0.250000  1
  Tm  Tm17  1  0.270223  0.453928  0.046072  1
  Tm  Tm18  1  0.270223  0.453928  0.453928  1
  Tm  Tm19  1  0.231310  0.750000  0.474851  1
  In  In20  1  0.500000  0.378881  0.878881  1
  In  In21  1  0.589847  0.119182  0.380818  1
  In  In22  1  0.235915  0.250000  0.864218  1
  In  In23  1  0.000000  0.597858  0.097858  1
  In  In24  1  0.000000  0.902142  0.097858  1
  In  In25  1  0.500000  0.121119  0.621119  1
  In  In26  1  0.000000  0.097858  0.597858  1
  In  In27  1  0.500000  0.878881  0.121119  1
  In  In28  1  0.764085  0.750000  0.135782  1
  In  In29  1  0.904288  0.918300  0.750000  1
  In  In30  1  0.095712  0.081700  0.250000  1
  In  In31  1  0.410153  0.880818  0.880818  1
  In  In32  1  0.095712  0.418300  0.250000  1
  In  In33  1  0.589847  0.380818  0.380818  1
  In  In34  1  0.000000  0.402142  0.902142  1
  In  In35  1  0.410153  0.619182  0.619182  1
  In  In36  1  0.235915  0.635782  0.250000  1
  In  In37  1  0.589847  0.119182  0.119182  1
  In  In38  1  0.904288  0.750000  0.581700  1
  In  In39  1  0.095712  0.250000  0.418300  1
  In  In40  1  0.500000  0.621119  0.378881  1
  In  In41  1  0.000000  0.402142  0.597858  1
  In  In42  1  0.000000  0.597858  0.402142  1
  In  In43  1  0.589847  0.380818  0.119182  1
  In  In44  1  0.235915  0.864218  0.250000  1
  In  In45  1  0.410153  0.619182  0.880818  1
  In  In46  1  0.764085  0.135782  0.750000  1
  In  In47  1  0.095712  0.250000  0.081700  1
  In  In48  1  0.500000  0.621119  0.121119  1
  In  In49  1  0.904288  0.750000  0.918300  1
  In  In50  1  0.500000  0.878881  0.378881  1
  In  In51  1  0.410153  0.880818  0.619182  1
  In  In52  1  0.764085  0.750000  0.364218  1
  In  In53  1  0.500000  0.121119  0.878881  1
  In  In54  1  0.000000  0.902142  0.402142  1
  In  In55  1  0.764085  0.364218  0.750000  1
  In  In56  1  0.000000  0.097858  0.902142  1
  In  In57  1  0.235915  0.250000  0.635782  1
  In  In58  1  0.500000  0.378881  0.621119  1
  In  In59  1  0.904288  0.581700  0.750000  1
  Co  Co60  1  0.896464  0.092106  0.407894  1
  Co  Co61  1  0.406166  0.250000  0.025257  1
  Co  Co62  1  0.593834  0.525257  0.750000  1
  Co  Co63  1  0.406166  0.474743  0.250000  1
  Co  Co64  1  0.593834  0.750000  0.974743  1
  Co  Co65  1  0.103536  0.907894  0.592106  1
  Co  Co66  1  0.103536  0.592106  0.592106  1
  Co  Co67  1  0.406166  0.025257  0.250000  1
  Co  Co68  1  0.896464  0.407894  0.092106  1
  Co  Co69  1  0.103536  0.592106  0.907894  1
  Co  Co70  1  0.000000  0.250000  0.750000  1
  Co  Co71  1  0.406166  0.250000  0.474743  1
  Co  Co72  1  0.103536  0.907894  0.907894  1
  Co  Co73  1  0.896464  0.092106  0.092106  1
  Co  Co74  1  0.593834  0.750000  0.525257  1
  Co  Co75  1  0.000000  0.750000  0.250000  1
  Co  Co76  1  0.896464  0.407894  0.407894  1
  Co  Co77  1  0.593834  0.974743  0.750000  1
