# generated using pymatgen
data_ReH3O5
_symmetry_space_group_name_H-M   'P 1'
_cell_length_a   8.11278390
_cell_length_b   7.69301657
_cell_length_c   7.82445608
_cell_angle_alpha   138.10323786
_cell_angle_beta   139.00317203
_cell_angle_gamma   59.63486309
_symmetry_Int_Tables_number   1
_chemical_formula_structural   ReH3O5
_chemical_formula_sum   'Re2 H6 O10'
_cell_volume   212.15912303
_cell_formula_units_Z   2
loop_
 _symmetry_equiv_pos_site_id
 _symmetry_equiv_pos_as_xyz
  1  'x, y, z'
loop_
 _atom_site_type_symbol
 _atom_site_label
 _atom_site_symmetry_multiplicity
 _atom_site_fract_x
 _atom_site_fract_y
 _atom_site_fract_z
 _atom_site_occupancy
  Re  Re0  1  0.379049  0.139374  0.265632  1
  Re  Re1  1  0.601131  0.892476  0.739878  1
  H  H2  1  0.023936  0.506619  0.338224  1
  H  H3  1  0.857633  0.610407  0.119232  1
  H  H4  1  0.728424  0.576029  0.178752  1
  H  H5  1  0.174912  0.518279  0.994398  1
  H  H6  1  0.050280  0.214514  0.639144  1
  H  H7  1  0.245218  0.358333  0.758917  1
  O  O8  1  0.889057  0.632690  0.285018  1
  O  O9  1  0.103390  0.383930  0.746310  1
  O  O10  1  0.683955  0.312834  0.617606  1
  O  O11  1  0.252799  0.101645  0.933862  1
  O  O12  1  0.553350  0.212012  0.870739  1
  O  O13  1  0.796414  0.764388  0.652902  1
  O  O14  1  0.304879  0.689812  0.367458  1
  O  O15  1  0.756077  0.902407  0.066972  1
  O  O16  1  0.397245  0.827976  0.137667  1
  O  O17  1  0.187100  0.319661  0.377304  1
