# generated using pymatgen
data_Sr2DyGaCu2O7
_symmetry_space_group_name_H-M   'P 1'
_cell_length_a   5.40663174
_cell_length_b   5.51196299
_cell_length_c   12.18837547
_cell_angle_alpha   103.07987871
_cell_angle_beta   102.83081633
_cell_angle_gamma   89.96152236
_symmetry_Int_Tables_number   1
_chemical_formula_structural   Sr2DyGaCu2O7
_chemical_formula_sum   'Sr4 Dy2 Ga2 Cu4 O14'
_cell_volume   344.49893765
_cell_formula_units_Z   2
loop_
 _symmetry_equiv_pos_site_id
 _symmetry_equiv_pos_as_xyz
  1  'x, y, z'
loop_
 _atom_site_type_symbol
 _atom_site_label
 _atom_site_symmetry_multiplicity
 _atom_site_fract_x
 _atom_site_fract_y
 _atom_site_fract_z
 _atom_site_occupancy
  Sr  Sr0  1  0.150935  0.167636  0.302181  1
  Sr  Sr1  1  0.650202  0.635987  0.303042  1
  Sr  Sr2  1  0.344748  0.364951  0.697769  1
  Sr  Sr3  1  0.845006  0.832650  0.697309  1
  Dy  Dy4  1  0.500536  0.500946  0.000194  1
  Dy  Dy5  1  0.999090  0.000461  0.999462  1
  Ga  Ga6  1  0.209463  0.819383  0.500519  1
  Ga  Ga7  1  0.708033  0.182461  0.500097  1
  Cu  Cu8  1  0.927879  0.427392  0.856051  1
  Cu  Cu9  1  0.572656  0.071969  0.143202  1
  Cu  Cu10  1  0.072030  0.573851  0.143563  1
  Cu  Cu11  1  0.427401  0.928827  0.856270  1
  O  O12  1  0.688177  0.688608  0.877586  1
  O  O13  1  0.201390  0.632892  0.353034  1
  O  O14  1  0.684739  0.185775  0.871390  1
  O  O15  1  0.858317  0.868488  0.500479  1
  O  O16  1  0.815524  0.815606  0.127610  1
  O  O17  1  0.308965  0.309714  0.121137  1
  O  O18  1  0.188931  0.690260  0.878435  1
  O  O19  1  0.356988  0.134623  0.500661  1
  O  O20  1  0.316384  0.815015  0.129059  1
  O  O21  1  0.348954  0.777515  0.647216  1
  O  O22  1  0.696746  0.219526  0.352051  1
  O  O23  1  0.184398  0.184456  0.870519  1
  O  O24  1  0.848593  0.370744  0.646638  1
  O  O25  1  0.809840  0.314372  0.122455  1
