# generated using pymatgen
data_RbAg4I5
_symmetry_space_group_name_H-M   'P 1'
_cell_length_a   11.41788182
_cell_length_b   11.70372419
_cell_length_c   11.79739430
_cell_angle_alpha   89.73459655
_cell_angle_beta   90.10003635
_cell_angle_gamma   89.50329972
_symmetry_Int_Tables_number   1
_chemical_formula_structural   RbAg4I5
_chemical_formula_sum   'Rb4 Ag16 I20'
_cell_volume   1576.42765741
_cell_formula_units_Z   4
loop_
 _symmetry_equiv_pos_site_id
 _symmetry_equiv_pos_as_xyz
  1  'x, y, z'
loop_
 _atom_site_type_symbol
 _atom_site_label
 _atom_site_symmetry_multiplicity
 _atom_site_fract_x
 _atom_site_fract_y
 _atom_site_fract_z
 _atom_site_occupancy
  Rb  Rb0  1  0.021294  0.006585  0.988836  1
  Rb  Rb1  1  0.261880  0.495881  0.754677  1
  Rb  Rb2  1  0.481958  0.752766  0.258146  1
  Rb  Rb3  1  0.733039  0.243806  0.500967  1
  Ag  Ag4  1  0.118197  0.273271  0.407149  1
  Ag  Ag5  1  0.170092  0.890630  0.428004  1
  Ag  Ag6  1  0.233129  0.864333  0.672986  1
  Ag  Ag7  1  0.328118  0.135968  0.783442  1
  Ag  Ag8  1  0.332199  0.095013  0.390980  1
  Ag  Ag9  1  0.387199  0.325769  0.093217  1
  Ag  Ag10  1  0.590450  0.917332  0.669166  1
  Ag  Ag11  1  0.644980  0.584073  0.881658  1
  Ag  Ag12  1  0.659900  0.213513  0.873628  1
  Ag  Ag13  1  0.762224  0.286040  0.102063  1
  Ag  Ag14  1  0.795025  0.808140  0.796138  1
  Ag  Ag15  1  0.805930  0.575540  0.075437  1
  Ag  Ag16  1  0.896288  0.757790  0.214725  1
  Ag  Ag17  1  0.959273  0.406019  0.197376  1
  Ag  Ag18  1  0.912447  0.672831  0.609612  1
  Ag  Ag19  1  0.939071  0.581996  0.381399  1
  I  I20  1  0.996850  0.435538  0.560753  1
  I  I21  1  0.045540  0.745298  0.800342  1
  I  I22  1  0.083635  0.601251  0.164906  1
  I  I23  1  0.157805  0.092918  0.586819  1
  I  I24  1  0.197920  0.256111  0.950036  1
  I  I25  1  0.243726  0.954125  0.208733  1
  I  I26  1  0.296020  0.697063  0.509771  1
  I  I27  1  0.341245  0.334091  0.334202  1
  I  I28  1  0.410591  0.912234  0.833118  1
  I  I29  1  0.446194  0.552312  0.011012  1
  I  I30  1  0.502410  0.293979  0.707018  1
  I  I31  1  0.555126  0.995280  0.446741  1
  I  I32  1  0.567701  0.150506  0.087017  1
  I  I33  1  0.659620  0.662014  0.657403  1
  I  I34  1  0.711619  0.502202  0.291415  1
  I  I35  1  0.738502  0.813107  0.042725  1
  I  I36  1  0.801152  0.049218  0.751832  1
  I  I37  1  0.837860  0.411848  0.905802  1
  I  I38  1  0.916019  0.843326  0.431519  1
  I  I39  1  0.940271  0.180681  0.254832  1
