# generated using pymatgen
data_Ba2Fe6O11
_symmetry_space_group_name_H-M   'P 1'
_cell_length_a   5.26835243
_cell_length_b   9.09608636
_cell_length_c   23.53977788
_cell_angle_alpha   90.00061113
_cell_angle_beta   89.98770931
_cell_angle_gamma   90.00059583
_symmetry_Int_Tables_number   1
_chemical_formula_structural   Ba2Fe6O11
_chemical_formula_sum   'Ba8 Fe24 O44'
_cell_volume   1128.05881844
_cell_formula_units_Z   4
loop_
 _symmetry_equiv_pos_site_id
 _symmetry_equiv_pos_as_xyz
  1  'x, y, z'
loop_
 _atom_site_type_symbol
 _atom_site_label
 _atom_site_symmetry_multiplicity
 _atom_site_fract_x
 _atom_site_fract_y
 _atom_site_fract_z
 _atom_site_occupancy
  Ba  Ba0  1  0.893320  0.499987  0.359729  1
  Ba  Ba1  1  0.023211  0.000005  0.653560  1
  Ba  Ba2  1  0.476422  0.499976  0.153679  1
  Ba  Ba3  1  0.106643  0.500085  0.640292  1
  Ba  Ba4  1  0.976771  0.999985  0.346472  1
  Ba  Ba5  1  0.606489  0.000118  0.859710  1
  Ba  Ba6  1  0.523385  0.500010  0.846317  1
  Ba  Ba7  1  0.393556  0.000031  0.140264  1
  Fe  Fe8  1  0.999980  0.666429  0.500009  1
  Fe  Fe9  1  0.994520  0.321200  0.072973  1
  Fe  Fe10  1  0.499978  0.500023  0.500016  1
  Fe  Fe11  1  0.494649  0.821220  0.427142  1
  Fe  Fe12  1  0.890859  0.205954  0.214186  1
  Fe  Fe13  1  0.999993  0.333627  0.500020  1
  Fe  Fe14  1  0.500001  0.166422  0.999990  1
  Fe  Fe15  1  0.505315  0.178765  0.572865  1
  Fe  Fe16  1  0.494706  0.178741  0.427168  1
  Fe  Fe17  1  0.390806  0.294084  0.285924  1
  Fe  Fe18  1  0.390840  0.705934  0.285903  1
  Fe  Fe19  1  0.890827  0.794020  0.214170  1
  Fe  Fe20  1  0.109194  0.205964  0.785798  1
  Fe  Fe21  1  0.500010  0.833575  0.999983  1
  Fe  Fe22  1  0.109207  0.794023  0.785833  1
  Fe  Fe23  1  0.609232  0.294096  0.714075  1
  Fe  Fe24  1  0.999996  0.000010  0.500016  1
  Fe  Fe25  1  0.994533  0.678781  0.072955  1
  Fe  Fe26  1  0.005445  0.678772  0.927020  1
  Fe  Fe27  1  0.005455  0.321230  0.927004  1
  Fe  Fe28  1  0.609208  0.705919  0.714107  1
  Fe  Fe29  1  0.499968  0.499979  0.999992  1
  Fe  Fe30  1  0.505320  0.821246  0.572884  1
  Fe  Fe31  1  0.000016  0.000008  0.999983  1
  O  O32  1  0.180553  0.154746  0.049312  1
  O  O33  1  0.680571  0.345323  0.450737  1
  O  O34  1  0.468762  0.763520  0.785757  1
  O  O35  1  0.031356  0.263360  0.285896  1
  O  O36  1  0.508631  0.823538  0.346596  1
  O  O37  1  0.491312  0.823489  0.653423  1
  O  O38  1  0.819467  0.154759  0.950666  1
  O  O39  1  0.031346  0.736611  0.285874  1
  O  O40  1  0.682930  0.999960  0.444823  1
  O  O41  1  0.447734  0.500013  0.296529  1
  O  O42  1  0.052204  0.999996  0.796519  1
  O  O43  1  0.171801  0.500015  0.455303  1
  O  O44  1  0.180555  0.845261  0.049310  1
  O  O45  1  0.328211  0.000002  0.955293  1
  O  O46  1  0.552265  0.500009  0.703467  1
  O  O47  1  0.648963  0.336903  0.049324  1
  O  O48  1  0.671817  0.000000  0.044676  1
  O  O49  1  0.351015  0.336902  0.950647  1
  O  O50  1  0.531273  0.763502  0.214252  1
  O  O51  1  0.491457  0.176417  0.653404  1
  O  O52  1  0.968713  0.263403  0.714093  1
  O  O53  1  0.182957  0.499977  0.055283  1
  O  O54  1  0.968680  0.736585  0.714130  1
  O  O55  1  0.851104  0.836902  0.549336  1
  O  O56  1  0.991522  0.676441  0.846445  1
  O  O57  1  0.947778  0.999993  0.203440  1
  O  O58  1  0.531321  0.236457  0.214287  1
  O  O59  1  0.008558  0.676505  0.153534  1
  O  O60  1  0.816981  0.499988  0.944692  1
  O  O61  1  0.648976  0.663092  0.049309  1
  O  O62  1  0.008613  0.323430  0.153549  1
  O  O63  1  0.468728  0.236475  0.785715  1
  O  O64  1  0.851123  0.163129  0.549329  1
  O  O65  1  0.819453  0.845279  0.950648  1
  O  O66  1  0.319396  0.654702  0.549297  1
  O  O67  1  0.317053  0.999988  0.555208  1
  O  O68  1  0.680580  0.654666  0.450708  1
  O  O69  1  0.508689  0.176534  0.346625  1
  O  O70  1  0.351007  0.663080  0.950665  1
  O  O71  1  0.828154  0.500038  0.544725  1
  O  O72  1  0.148871  0.836893  0.450690  1
  O  O73  1  0.148897  0.163117  0.450708  1
  O  O74  1  0.319397  0.345354  0.549314  1
  O  O75  1  0.991375  0.323424  0.846429  1
