# generated using pymatgen
data_RbCrI3
_symmetry_space_group_name_H-M   'P 1'
_cell_length_a   7.02522109
_cell_length_b   8.08457641
_cell_length_c   8.08457657
_cell_angle_alpha   60.17367621
_cell_angle_beta   85.40497386
_cell_angle_gamma   85.40497240
_symmetry_Int_Tables_number   1
_chemical_formula_structural   RbCrI3
_chemical_formula_sum   'Rb2 Cr2 I6'
_cell_volume   396.63687054
_cell_formula_units_Z   2
loop_
 _symmetry_equiv_pos_site_id
 _symmetry_equiv_pos_as_xyz
  1  'x, y, z'
loop_
 _atom_site_type_symbol
 _atom_site_label
 _atom_site_symmetry_multiplicity
 _atom_site_fract_x
 _atom_site_fract_y
 _atom_site_fract_z
 _atom_site_occupancy
  Rb  Rb0  1  0.259678  0.661892  0.661892  1
  Rb  Rb1  1  0.740322  0.338108  0.338108  1
  Cr  Cr2  1  0.000000  0.000000  0.000000  1
  Cr  Cr3  1  0.500000  0.000000  0.000000  1
  I  I4  1  0.190526  0.166151  0.166151  1
  I  I5  1  0.279093  0.159815  0.677196  1
  I  I6  1  0.279093  0.677196  0.159815  1
  I  I7  1  0.720907  0.322804  0.840185  1
  I  I8  1  0.720907  0.840185  0.322804  1
  I  I9  1  0.809474  0.833849  0.833849  1
