# generated using pymatgen
data_In2Te3
_symmetry_space_group_name_H-M   'P 1'
_cell_length_a   13.41605459
_cell_length_b   13.41689216
_cell_length_c   13.41625136
_cell_angle_alpha   60.00856753
_cell_angle_beta   60.00024454
_cell_angle_gamma   60.00695460
_symmetry_Int_Tables_number   1
_chemical_formula_structural   In2Te3
_chemical_formula_sum   'In18 Te27'
_cell_volume   1707.83013775
_cell_formula_units_Z   9
loop_
 _symmetry_equiv_pos_site_id
 _symmetry_equiv_pos_as_xyz
  1  'x, y, z'
loop_
 _atom_site_type_symbol
 _atom_site_label
 _atom_site_symmetry_multiplicity
 _atom_site_fract_x
 _atom_site_fract_y
 _atom_site_fract_z
 _atom_site_occupancy
  In  In0  1  0.996570  0.996568  0.344985  1
  In  In1  1  0.668685  0.331322  0.668594  1
  In  In2  1  0.996602  0.996472  0.662047  1
  In  In3  1  0.996450  0.344986  0.996457  1
  In  In4  1  0.344915  0.996590  0.661999  1
  In  In5  1  0.996576  0.662127  0.345007  1
  In  In6  1  0.662042  0.344973  0.996487  1
  In  In7  1  0.331362  0.668639  0.331411  1
  In  In8  1  0.662116  0.996544  0.344893  1
  In  In9  1  0.331276  0.668651  0.668736  1
  In  In10  1  0.331219  0.331463  0.668676  1
  In  In11  1  0.344872  0.996575  0.996553  1
  In  In12  1  0.996362  0.662087  0.996639  1
  In  In13  1  0.996471  0.344916  0.661975  1
  In  In14  1  0.344902  0.661967  0.996522  1
  In  In15  1  0.668642  0.331340  0.331402  1
  In  In16  1  0.668817  0.668500  0.331396  1
  In  In17  1  0.661885  0.996600  0.996559  1
  Te  Te18  1  0.597853  0.597851  0.902123  1
  Te  Te19  1  0.597798  0.902178  0.902165  1
  Te  Te20  1  0.902143  0.597868  0.902094  1
  Te  Te21  1  0.930671  0.258325  0.552466  1
  Te  Te22  1  0.924164  0.924257  0.924234  1
  Te  Te23  1  0.220800  0.593074  0.593090  1
  Te  Te24  1  0.930798  0.552520  0.258483  1
  Te  Te25  1  0.552625  0.258442  0.930498  1
  Te  Te26  1  0.258491  0.930530  0.552605  1
  Te  Te27  1  0.930628  0.258446  0.258305  1
  Te  Te28  1  0.924315  0.924223  0.227327  1
  Te  Te29  1  0.552673  0.258392  0.258352  1
  Te  Te30  1  0.924287  0.227252  0.924142  1
  Te  Te31  1  0.592843  0.221104  0.592966  1
  Te  Te32  1  0.249980  0.250005  0.249995  1
  Te  Te33  1  0.258311  0.552564  0.930609  1
  Te  Te34  1  0.902149  0.902197  0.597839  1
  Te  Te35  1  0.902093  0.597792  0.597913  1
  Te  Te36  1  0.593054  0.592945  0.221045  1
  Te  Te37  1  0.227337  0.924187  0.924185  1
  Te  Te38  1  0.258402  0.258445  0.552518  1
  Te  Te39  1  0.552720  0.930400  0.258471  1
  Te  Te40  1  0.258349  0.258455  0.930622  1
  Te  Te41  1  0.597858  0.902185  0.597770  1
  Te  Te42  1  0.592956  0.592905  0.593003  1
  Te  Te43  1  0.258467  0.930503  0.258426  1
  Te  Te44  1  0.258471  0.552635  0.258419  1
