# generated using pymatgen
data_HIO3
_symmetry_space_group_name_H-M   'P 1'
_cell_length_a   5.60738845
_cell_length_b   5.85092329
_cell_length_c   8.04559587
_cell_angle_alpha   90.00000000
_cell_angle_beta   90.00000000
_cell_angle_gamma   90.00000000
_symmetry_Int_Tables_number   1
_chemical_formula_structural   HIO3
_chemical_formula_sum   'H4 I4 O12'
_cell_volume   263.96312495
_cell_formula_units_Z   4
loop_
 _symmetry_equiv_pos_site_id
 _symmetry_equiv_pos_as_xyz
  1  'x, y, z'
loop_
 _atom_site_type_symbol
 _atom_site_label
 _atom_site_symmetry_multiplicity
 _atom_site_fract_x
 _atom_site_fract_y
 _atom_site_fract_z
 _atom_site_occupancy
  H  H0  1  0.734034  0.824086  0.428818  1
  H  H1  1  0.765966  0.175914  0.928818  1
  H  H2  1  0.234034  0.675914  0.571182  1
  H  H3  1  0.265966  0.324086  0.071182  1
  I  I4  1  0.799004  0.416374  0.343889  1
  I  I5  1  0.700996  0.583626  0.843889  1
  I  I6  1  0.299004  0.083626  0.656111  1
  I  I7  1  0.200996  0.916374  0.156111  1
  O  O8  1  0.934425  0.051919  0.244876  1
  O  O9  1  0.565575  0.948081  0.744876  1
  O  O10  1  0.434425  0.448081  0.755124  1
  O  O11  1  0.065575  0.551919  0.255124  1
  O  O12  1  0.628235  0.690940  0.418972  1
  O  O13  1  0.871765  0.309060  0.918972  1
  O  O14  1  0.128235  0.809060  0.581028  1
  O  O15  1  0.371765  0.190940  0.081028  1
  O  O16  1  0.587754  0.656990  0.047936  1
  O  O17  1  0.912246  0.343010  0.547936  1
  O  O18  1  0.087754  0.843010  0.952064  1
  O  O19  1  0.412246  0.156990  0.452064  1
