# generated using pymatgen
data_NaCaAlSi2O7
_symmetry_space_group_name_H-M   'P 1'
_cell_length_a   9.83430673
_cell_length_b   7.61641148
_cell_length_c   7.68267220
_cell_angle_alpha   90.00000000
_cell_angle_beta   90.00000000
_cell_angle_gamma   90.00000000
_symmetry_Int_Tables_number   1
_chemical_formula_structural   NaCaAlSi2O7
_chemical_formula_sum   'Na4 Ca4 Al4 Si8 O28'
_cell_volume   575.44848634
_cell_formula_units_Z   4
loop_
 _symmetry_equiv_pos_site_id
 _symmetry_equiv_pos_as_xyz
  1  'x, y, z'
loop_
 _atom_site_type_symbol
 _atom_site_label
 _atom_site_symmetry_multiplicity
 _atom_site_fract_x
 _atom_site_fract_y
 _atom_site_fract_z
 _atom_site_occupancy
  Na  Na0  1  0.007134  0.856553  0.341186  1
  Na  Na1  1  0.492866  0.643447  0.841186  1
  Na  Na2  1  0.507134  0.143447  0.658814  1
  Na  Na3  1  0.992866  0.356553  0.158814  1
  Ca  Ca4  1  0.048127  0.125276  0.621647  1
  Ca  Ca5  1  0.451873  0.374724  0.121647  1
  Ca  Ca6  1  0.548127  0.874724  0.378353  1
  Ca  Ca7  1  0.951873  0.625276  0.878353  1
  Al  Al8  1  -0.000018  0.008865  -0.000179  1
  Al  Al9  1  0.499982  0.991135  0.000179  1
  Al  Al10  1  0.500018  0.491135  0.499821  1
  Al  Al11  1  0.000018  0.508865  0.500179  1
  Si  Si12  1  0.687015  0.638565  0.144104  1
  Si  Si13  1  0.686931  0.342639  0.845441  1
  Si  Si14  1  0.813069  0.157361  0.345441  1
  Si  Si15  1  0.812985  0.861435  0.644104  1
  Si  Si16  1  0.187015  0.361435  0.855896  1
  Si  Si17  1  0.186931  0.657361  0.154559  1
  Si  Si18  1  0.312985  0.138565  0.355896  1
  Si  Si19  1  0.313069  0.842639  0.654559  1
  O  O20  1  0.138515  0.506143  0.005163  1
  O  O21  1  0.108644  0.176662  0.912944  1
  O  O22  1  0.102127  0.829939  0.076682  1
  O  O23  1  0.104999  0.589775  0.331228  1
  O  O24  1  0.104916  0.425572  0.676810  1
  O  O25  1  0.151796  0.149204  0.352142  1
  O  O26  1  0.152226  0.845550  0.664571  1
  O  O27  1  0.347774  0.654450  0.164571  1
  O  O28  1  0.348204  0.350796  0.852142  1
  O  O29  1  0.395001  0.910225  0.831228  1
  O  O30  1  0.397873  0.670061  0.576682  1
  O  O31  1  0.391356  0.323338  0.412944  1
  O  O32  1  0.395084  0.074428  0.176810  1
  O  O33  1  0.361485  -0.006143  0.505162  1
  O  O34  1  0.638515  0.493857  0.994838  1
  O  O35  1  0.608644  0.823338  0.087056  1
  O  O36  1  0.604916  0.574428  0.323190  1
  O  O37  1  0.604999  0.410225  0.668772  1
  O  O38  1  0.602127  0.170061  0.923318  1
  O  O39  1  0.652226  0.154450  0.335429  1
  O  O40  1  0.651796  0.850796  0.647858  1
  O  O41  1  0.847774  0.345550  0.835429  1
  O  O42  1  0.848204  0.649204  0.147858  1
  O  O43  1  0.895084  0.925572  0.823190  1
  O  O44  1  0.891356  0.676662  0.587056  1
  O  O45  1  0.897873  0.329939  0.423318  1
  O  O46  1  0.895001  0.089775  0.168772  1
  O  O47  1  0.861485  0.006143  0.494837  1
