# generated using pymatgen
data_Ca5Si2HO9F
_symmetry_space_group_name_H-M   'P 1'
_cell_length_a   8.87109880
_cell_length_b   7.14504271
_cell_length_c   7.46755750
_cell_angle_alpha   109.21552008
_cell_angle_beta   90.00000000
_cell_angle_gamma   90.00000000
_symmetry_Int_Tables_number   1
_chemical_formula_structural   Ca5Si2HO9F
_chemical_formula_sum   'Ca10 Si4 H2 O18 F2'
_cell_volume   446.95618118
_cell_formula_units_Z   2
loop_
 _symmetry_equiv_pos_site_id
 _symmetry_equiv_pos_as_xyz
  1  'x, y, z'
loop_
 _atom_site_type_symbol
 _atom_site_label
 _atom_site_symmetry_multiplicity
 _atom_site_fract_x
 _atom_site_fract_y
 _atom_site_fract_z
 _atom_site_occupancy
  Ca  Ca0  1  0.252217  0.051419  0.586499  1
  Ca  Ca1  1  0.563348  0.813205  0.365213  1
  Ca  Ca2  1  0.859607  0.076450  0.539306  1
  Ca  Ca3  1  0.394700  0.399085  0.498254  1
  Ca  Ca4  1  0.563388  0.387301  0.907899  1
  Ca  Ca5  1  0.752217  0.948581  0.913501  1
  Ca  Ca6  1  0.063348  0.186795  0.134787  1
  Ca  Ca7  1  0.359607  0.923550  0.960694  1
  Ca  Ca8  1  0.894700  0.600915  0.001746  1
  Ca  Ca9  1  0.063388  0.612699  0.592101  1
  Si  Si10  1  0.759675  0.540218  0.580821  1
  Si  Si11  1  0.731785  0.365655  0.215541  1
  Si  Si12  1  0.259675  0.459782  0.919179  1
  Si  Si13  1  0.231785  0.634345  0.284459  1
  H  H14  1  0.596245  0.231198  0.132048  1
  H  H15  1  0.096245  0.768802  0.367952  1
  O  O16  1  0.374357  0.600640  0.118706  1
  O  O17  1  0.238802  -0.006628  0.251911  1
  O  O18  1  0.784767  0.772920  0.586843  1
  O  O19  1  0.116023  0.541702  0.067986  1
  O  O20  1  0.551744  0.051549  0.778543  1
  O  O21  1  0.899389  0.938713  0.220587  1
  O  O22  1  0.698704  0.571335  0.162742  1
  O  O23  1  0.048721  0.866202  0.882089  1
  O  O24  1  0.339187  0.739719  0.485873  1
  O  O25  1  0.874357  0.399360  0.381294  1
  O  O26  1  0.738802  0.006628  0.248089  1
  O  O27  1  0.284767  0.227080  0.913157  1
  O  O28  1  0.616023  0.458298  0.432014  1
  O  O29  1  0.051744  0.948451  0.721457  1
  O  O30  1  0.399389  0.061287  0.279413  1
  O  O31  1  0.198704  0.428665  0.337258  1
  O  O32  1  0.548721  0.133798  0.617911  1
  O  O33  1  0.839187  0.260281  0.014127  1
  F  F34  1  0.058341  0.292758  0.633685  1
  F  F35  1  0.558341  0.707242  0.866315  1
