# generated using pymatgen
data_Na21In5O15
_symmetry_space_group_name_H-M   'P 1'
_cell_length_a   9.70596939
_cell_length_b   9.71971414
_cell_length_c   9.69549442
_cell_angle_alpha   108.55769346
_cell_angle_beta   109.88329208
_cell_angle_gamma   109.98353470
_symmetry_Int_Tables_number   1
_chemical_formula_structural   Na21In5O15
_chemical_formula_sum   'Na21 In5 O15'
_cell_volume   703.91408362
_cell_formula_units_Z   1
loop_
 _symmetry_equiv_pos_site_id
 _symmetry_equiv_pos_as_xyz
  1  'x, y, z'
loop_
 _atom_site_type_symbol
 _atom_site_label
 _atom_site_symmetry_multiplicity
 _atom_site_fract_x
 _atom_site_fract_y
 _atom_site_fract_z
 _atom_site_occupancy
  Na  Na0  1  1.000000  0.440925  0.713083  1
  Na  Na1  1  0.205465  0.776350  0.764301  1
  Na  Na2  1  0.000000  0.213304  0.431940  1
  Na  Na3  1  0.277160  0.545638  0.561625  1
  Na  Na4  1  0.302398  0.302299  0.740390  1
  Na  Na5  1  0.297093  0.754263  0.275949  1
  Na  Na6  1  0.217265  0.433132  0.000811  1
  Na  Na7  1  0.205619  0.980581  0.436256  1
  Na  Na8  1  0.561875  0.785434  0.573489  1
  Na  Na9  1  0.453380  0.007288  0.726814  1
  Na  Na10  1  0.459413  0.719284  0.998755  1
  Na  Na11  1  0.546620  0.553909  0.273435  1
  Na  Na12  1  0.540587  0.259870  0.539342  1
  Na  Na13  1  0.438125  0.223559  0.011614  1
  Na  Na14  1  0.794535  0.570885  0.558836  1
  Na  Na15  1  0.782735  0.215867  0.783546  1
  Na  Na16  1  0.794381  0.774963  0.230638  1
  Na  Na17  1  0.722840  0.268477  0.284465  1
  Na  Na18  1  0.702907  0.457170  0.978856  1
  Na  Na19  1  0.697602  0.999901  0.437991  1
  Na  Na20  1  1.000000  0.473285  0.248023  1
  In  In21  1  0.000000  0.992307  0.690540  1
  In  In22  1  1.000000  0.991333  0.989614  1
  In  In23  1  0.287622  0.295263  0.287811  1
  In  In24  1  0.712378  0.007641  0.000189  1
  In  In25  1  0.000000  0.697386  0.981322  1
  O  O26  1  0.231840  0.025053  0.718882  1
  O  O27  1  0.000000  0.476663  0.496547  1
  O  O28  1  1.000000  0.208991  0.697009  1
  O  O29  1  0.475119  0.804985  0.792512  1
  O  O30  1  0.205684  0.667613  0.982353  1
  O  O31  1  0.509191  0.002242  0.523737  1
  O  O32  1  0.271353  0.264336  0.486532  1
  O  O33  1  0.300747  0.524789  0.310622  1
  O  O34  1  0.524881  0.329866  0.317394  1
  O  O35  1  0.490809  0.493051  0.014546  1
  O  O36  1  0.794316  0.461929  0.776670  1
  O  O37  1  0.768160  0.793213  0.487042  1
  O  O38  1  0.728647  0.992983  0.215178  1
  O  O39  1  0.699253  0.224041  0.009875  1
  O  O40  1  1.000000  0.705231  0.201763  1
