# generated using pymatgen
data_Li3MnAs2
_symmetry_space_group_name_H-M   'P 1'
_cell_length_a   4.29396382
_cell_length_b   4.29396382
_cell_length_c   12.22536754
_cell_angle_alpha   90.00000000
_cell_angle_beta   90.00000000
_cell_angle_gamma   90.00000000
_symmetry_Int_Tables_number   1
_chemical_formula_structural   Li3MnAs2
_chemical_formula_sum   'Li6 Mn2 As4'
_cell_volume   225.41285839
_cell_formula_units_Z   2
loop_
 _symmetry_equiv_pos_site_id
 _symmetry_equiv_pos_as_xyz
  1  'x, y, z'
loop_
 _atom_site_type_symbol
 _atom_site_label
 _atom_site_symmetry_multiplicity
 _atom_site_fract_x
 _atom_site_fract_y
 _atom_site_fract_z
 _atom_site_occupancy
  As  As0  1  0.500000  0.000000  0.371519  1
  As  As1  1  0.500000  0.000000  0.871519  1
  As  As2  1  0.000000  0.500000  0.128481  1
  As  As3  1  0.000000  0.500000  0.628481  1
  Li  Li4  1  0.000000  0.000000  0.004434  1
  Li  Li5  1  0.500000  0.500000  0.995566  1
  Li  Li6  1  0.500000  0.500000  0.750000  1
  Li  Li7  1  0.500000  0.500000  0.504434  1
  Li  Li8  1  0.000000  0.000000  0.250000  1
  Li  Li9  1  0.000000  0.000000  0.495566  1
  Mn  Mn10  1  0.500000  0.500000  0.250000  1
  Mn  Mn11  1  0.000000  0.000000  0.750000  1
