# generated using pymatgen
data_Eu5P3ClO12
_symmetry_space_group_name_H-M   'P 1'
_cell_length_a   9.96865749
_cell_length_b   9.96865777
_cell_length_c   7.20470613
_cell_angle_alpha   90.00000000
_cell_angle_beta   90.00000000
_cell_angle_gamma   119.99999903
_symmetry_Int_Tables_number   1
_chemical_formula_structural   Eu5P3ClO12
_chemical_formula_sum   'Eu10 P6 Cl2 O24'
_cell_volume   620.04080055
_cell_formula_units_Z   2
loop_
 _symmetry_equiv_pos_site_id
 _symmetry_equiv_pos_as_xyz
  1  'x, y, z'
loop_
 _atom_site_type_symbol
 _atom_site_label
 _atom_site_symmetry_multiplicity
 _atom_site_fract_x
 _atom_site_fract_y
 _atom_site_fract_z
 _atom_site_occupancy
  Eu  Eu0  1  0.333333  0.666667  0.998531  1
  Eu  Eu1  1  0.745855  0.754543  0.750000  1
  Eu  Eu2  1  0.254145  0.245457  0.250000  1
  Eu  Eu3  1  0.991312  0.745855  0.250000  1
  Eu  Eu4  1  0.754543  0.008688  0.250000  1
  Eu  Eu5  1  0.666667  0.333333  0.001469  1
  Eu  Eu6  1  0.245457  0.991312  0.750000  1
  Eu  Eu7  1  0.008688  0.254145  0.750000  1
  Eu  Eu8  1  0.333333  0.666667  0.501469  1
  Eu  Eu9  1  0.666667  0.333333  0.498531  1
  P  P10  1  0.372089  0.964649  0.250000  1
  P  P11  1  0.407440  0.372089  0.750000  1
  P  P12  1  0.035351  0.407440  0.250000  1
  P  P13  1  0.592560  0.627911  0.250000  1
  P  P14  1  0.627911  0.035351  0.750000  1
  P  P15  1  0.964649  0.592560  0.750000  1
  Cl  Cl16  1  0.000000  0.000000  0.000000  1
  Cl  Cl17  1  0.000000  0.000000  0.500000  1
  O  O18  1  0.266047  0.908452  0.424789  1
  O  O19  1  0.266047  0.908452  0.075211  1
  O  O20  1  0.117978  0.588084  0.250000  1
  O  O21  1  0.478666  0.144199  0.250000  1
  O  O22  1  0.642405  0.733953  0.075211  1
  O  O23  1  0.855801  0.334467  0.250000  1
  O  O24  1  0.144199  0.665533  0.750000  1
  O  O25  1  0.588084  0.470106  0.750000  1
  O  O26  1  0.733953  0.091548  0.924789  1
  O  O27  1  0.529894  0.117978  0.750000  1
  O  O28  1  0.470106  0.882022  0.250000  1
  O  O29  1  0.908452  0.642405  0.924789  1
  O  O30  1  0.357595  0.266047  0.924789  1
  O  O31  1  0.091548  0.357595  0.075211  1
  O  O32  1  0.521334  0.855801  0.750000  1
  O  O33  1  0.357595  0.266047  0.575211  1
  O  O34  1  0.411916  0.529894  0.250000  1
  O  O35  1  0.334467  0.478666  0.750000  1
  O  O36  1  0.733953  0.091548  0.575211  1
  O  O37  1  0.908452  0.642405  0.575211  1
  O  O38  1  0.642405  0.733953  0.424789  1
  O  O39  1  0.665533  0.521334  0.250000  1
  O  O40  1  0.882022  0.411916  0.750000  1
  O  O41  1  0.091548  0.357595  0.424789  1
