# generated using pymatgen
data_H3ClO5
_symmetry_space_group_name_H-M   'P 1'
_cell_length_a   9.52943531
_cell_length_b   5.63844956
_cell_length_c   7.42933130
_cell_angle_alpha   90.00000000
_cell_angle_beta   90.00000000
_cell_angle_gamma   90.00000000
_symmetry_Int_Tables_number   1
_chemical_formula_structural   H3ClO5
_chemical_formula_sum   'H12 Cl4 O20'
_cell_volume   399.18718558
_cell_formula_units_Z   4
loop_
 _symmetry_equiv_pos_site_id
 _symmetry_equiv_pos_as_xyz
  1  'x, y, z'
loop_
 _atom_site_type_symbol
 _atom_site_label
 _atom_site_symmetry_multiplicity
 _atom_site_fract_x
 _atom_site_fract_y
 _atom_site_fract_z
 _atom_site_occupancy
  H  H0  1  0.724287  0.978929  0.377300  1
  H  H1  1  0.224287  0.978929  0.122700  1
  H  H2  1  0.275713  0.478929  0.622699  1
  H  H3  1  0.775713  0.478929  0.877301  1
  H  H4  1  0.257415  0.720263  0.219000  1
  H  H5  1  0.158255  0.725268  0.037380  1
  H  H6  1  0.757415  0.720263  0.281000  1
  H  H7  1  0.658255  0.725268  0.462620  1
  H  H8  1  0.742585  0.220263  0.781000  1
  H  H9  1  0.841745  0.225268  0.962620  1
  H  H10  1  0.242585  0.220263  0.719000  1
  H  H11  1  0.341745  0.225268  0.537380  1
  Cl  Cl12  1  0.908573  0.272113  0.296300  1
  Cl  Cl13  1  0.408573  0.272113  0.203700  1
  Cl  Cl14  1  0.091427  0.772113  0.703700  1
  Cl  Cl15  1  0.591427  0.772113  0.796300  1
  O  O16  1  0.789747  0.226821  0.420381  1
  O  O17  1  0.289747  0.226821  0.079619  1
  O  O18  1  0.210253  0.726821  0.579619  1
  O  O19  1  0.710253  0.726821  0.920381  1
  O  O20  1  0.039315  0.243550  0.387668  1
  O  O21  1  0.539315  0.243550  0.112332  1
  O  O22  1  0.960685  0.743550  0.612332  1
  O  O23  1  0.460685  0.743550  0.887668  1
  O  O24  1  0.897343  0.099362  0.145889  1
  O  O25  1  0.393730  0.511694  0.278287  1
  O  O26  1  0.102657  0.599362  0.854111  1
  O  O27  1  0.606270  0.011694  0.721713  1
  O  O28  1  0.106270  0.011694  0.778287  1
  O  O29  1  0.602657  0.599362  0.645889  1
  O  O30  1  0.893730  0.511694  0.221713  1
  O  O31  1  0.397343  0.099362  0.354111  1
  O  O32  1  0.184915  0.812930  0.152447  1
  O  O33  1  0.684915  0.812930  0.347553  1
  O  O34  1  0.815085  0.312930  0.847553  1
  O  O35  1  0.315085  0.312930  0.652447  1
