# generated using pymatgen
data_Ca2SiO4
_symmetry_space_group_name_H-M   'P 1'
_cell_length_a   6.98483322
_cell_length_b   5.36686585
_cell_length_c   5.57657498
_cell_angle_alpha   88.57845691
_cell_angle_beta   90.54608023
_cell_angle_gamma   112.59283574
_symmetry_Int_Tables_number   1
_chemical_formula_structural   Ca2SiO4
_chemical_formula_sum   'Ca4 Si2 O8'
_cell_volume   192.94514143
_cell_formula_units_Z   2
loop_
 _symmetry_equiv_pos_site_id
 _symmetry_equiv_pos_as_xyz
  1  'x, y, z'
loop_
 _atom_site_type_symbol
 _atom_site_label
 _atom_site_symmetry_multiplicity
 _atom_site_fract_x
 _atom_site_fract_y
 _atom_site_fract_z
 _atom_site_occupancy
  Ca  Ca0  1  0.868922  0.881406  0.070302  1
  Ca  Ca1  1  0.529331  0.747663  0.575912  1
  Ca  Ca2  1  0.470669  0.218330  0.075912  1
  Ca  Ca3  1  0.131078  0.012484  0.570302  1
  Si  Si4  1  0.261262  0.635996  0.076964  1
  Si  Si5  1  0.738738  0.374732  0.576964  1
  O  O6  1  0.173553  0.827496  0.230102  1
  O  O7  1  0.175298  0.314521  0.152474  1
  O  O8  1  0.517830  0.778392  0.143562  1
  O  O9  1  0.249581  0.702418  0.790684  1
  O  O10  1  0.482170  0.260561  0.643562  1
  O  O11  1  0.826447  0.653943  0.730102  1
  O  O12  1  0.750419  0.452835  0.290684  1
  O  O13  1  0.824702  0.139223  0.652474  1
