# generated using pymatgen
data_TeH21C7(NCl2)3
_symmetry_space_group_name_H-M   'P 1'
_cell_length_a   9.15764337
_cell_length_b   14.01247705
_cell_length_c   17.07152049
_cell_angle_alpha   112.14211277
_cell_angle_beta   90.00000000
_cell_angle_gamma   90.00000000
_symmetry_Int_Tables_number   1
_chemical_formula_structural   TeH21C7(NCl2)3
_chemical_formula_sum   'Te4 H84 C28 N12 Cl24'
_cell_volume   2029.08357214
_cell_formula_units_Z   4
loop_
 _symmetry_equiv_pos_site_id
 _symmetry_equiv_pos_as_xyz
  1  'x, y, z'
loop_
 _atom_site_type_symbol
 _atom_site_label
 _atom_site_symmetry_multiplicity
 _atom_site_fract_x
 _atom_site_fract_y
 _atom_site_fract_z
 _atom_site_occupancy
  Te  Te0  1  0.709432  0.257334  0.479054  1
  Te  Te1  1  0.790568  0.757334  0.979054  1
  Te  Te2  1  0.209432  0.242666  0.020946  1
  Te  Te3  1  0.290568  0.742666  0.520946  1
  H  H4  1  0.070053  0.585243  0.140953  1
  H  H5  1  0.631366  0.824164  0.259562  1
  H  H6  1  0.570053  0.914757  0.359047  1
  H  H7  1  0.426638  0.865014  0.878307  1
  H  H8  1  0.188124  0.270118  0.394646  1
  H  H9  1  0.262182  0.496442  0.707022  1
  H  H10  1  0.629704  0.031096  0.727092  1
  H  H11  1  0.961054  0.079751  0.673485  1
  H  H12  1  0.429947  0.085243  0.640953  1
  H  H13  1  0.632934  0.715709  0.712941  1
  H  H14  1  0.242906  0.569725  0.183059  1
  H  H15  1  0.767551  0.352005  0.999067  1
  H  H16  1  0.573362  0.134986  0.121693  1
  H  H17  1  0.117388  0.894667  0.934813  1
  H  H18  1  0.736651  0.456691  0.966568  1
  H  H19  1  0.906633  0.866732  0.456936  1
  H  H20  1  0.247569  0.879133  0.770423  1
  H  H21  1  0.329756  0.815301  0.127329  1
  H  H22  1  0.763349  0.956691  0.466568  1
  H  H23  1  0.804909  0.984273  0.686459  1
  H  H24  1  0.132934  0.784291  0.787059  1
  H  H25  1  0.617388  0.605333  0.565187  1
  H  H26  1  0.237818  0.996442  0.207022  1
  H  H27  1  0.530336  0.332944  0.727454  1
  H  H28  1  0.367066  0.284291  0.287059  1
  H  H29  1  0.430586  0.287114  0.796730  1
  H  H30  1  0.382612  0.394667  0.434813  1
  H  H31  1  0.030336  0.167056  0.772546  1
  H  H32  1  0.439107  0.409376  0.303051  1
  H  H33  1  0.593367  0.366732  0.956936  1
  H  H34  1  0.257094  0.069725  0.683059  1
  H  H35  1  0.073362  0.365014  0.378307  1
  H  H36  1  0.469664  0.667056  0.272546  1
  H  H37  1  0.560893  0.590624  0.696949  1
  H  H38  1  0.926638  0.634986  0.621693  1
  H  H39  1  0.752431  0.120867  0.229577  1
  H  H40  1  0.867066  0.215709  0.212941  1
  H  H41  1  0.829756  0.684699  0.372671  1
  H  H42  1  0.252431  0.379133  0.270423  1
  H  H43  1  0.232449  0.647995  0.000933  1
  H  H44  1  0.304909  0.515727  0.813541  1
  H  H45  1  0.267551  0.147995  0.500933  1
  H  H46  1  0.859469  0.614066  0.517884  1
  H  H47  1  0.370296  0.968904  0.272908  1
  H  H48  1  0.930586  0.212886  0.703270  1
  H  H49  1  0.131366  0.675836  0.240438  1
  H  H50  1  0.882612  0.105333  0.065187  1
  H  H51  1  0.929947  0.414757  0.859047  1
  H  H52  1  0.732449  0.852005  0.499067  1
  H  H53  1  0.406633  0.633268  0.043064  1
  H  H54  1  0.069414  0.787114  0.296730  1
  H  H55  1  0.870296  0.531096  0.227092  1
  H  H56  1  0.461054  0.420249  0.826515  1
  H  H57  1  0.695091  0.484273  0.186459  1
  H  H58  1  0.060893  0.909376  0.803051  1
  H  H59  1  0.236651  0.043309  0.533432  1
  H  H60  1  0.359469  0.885934  0.982116  1
  H  H61  1  0.640531  0.114066  0.017884  1
  H  H62  1  0.311876  0.770118  0.894646  1
  H  H63  1  0.868634  0.324164  0.759562  1
  H  H64  1  0.737818  0.503558  0.292978  1
  H  H65  1  0.670244  0.184699  0.872671  1
  H  H66  1  0.263349  0.543309  0.033432  1
  H  H67  1  0.538946  0.579751  0.173485  1
  H  H68  1  0.140531  0.385934  0.482116  1
  H  H69  1  0.195091  0.015727  0.313541  1
  H  H70  1  0.170244  0.315301  0.627329  1
  H  H71  1  0.757094  0.430275  0.816941  1
  H  H72  1  0.129704  0.468904  0.772908  1
  H  H73  1  0.969664  0.832944  0.227454  1
  H  H74  1  0.093367  0.133268  0.543064  1
  H  H75  1  0.038946  0.920249  0.326515  1
  H  H76  1  0.224515  0.982990  0.918528  1
  H  H77  1  0.811876  0.729882  0.605354  1
  H  H78  1  0.368634  0.175836  0.740438  1
  H  H79  1  0.275485  0.482990  0.418528  1
  H  H80  1  0.742906  0.930275  0.316941  1
  H  H81  1  0.762182  0.003558  0.792978  1
  H  H82  1  0.775485  0.017010  0.081472  1
  H  H83  1  0.569414  0.712886  0.203270  1
  H  H84  1  0.688124  0.229882  0.105354  1
  H  H85  1  0.747569  0.620867  0.729577  1
  H  H86  1  0.939107  0.090624  0.196949  1
  H  H87  1  0.724515  0.517010  0.581472  1
  C  C88  1  0.335057  0.126229  0.677283  1
  C  C89  1  0.939515  0.151263  0.727265  1
  C  C90  1  0.711758  0.375362  0.952302  1
  C  C91  1  0.835057  0.373771  0.822717  1
  C  C92  1  0.254094  0.966178  0.257111  1
  C  C93  1  0.060485  0.848737  0.272735  1
  C  C94  1  0.842024  0.133538  0.192137  1
  C  C95  1  0.754094  0.533822  0.242889  1
  C  C96  1  0.342024  0.366462  0.307863  1
  C  C97  1  0.254051  0.787357  0.163755  1
  C  C98  1  0.745906  0.033822  0.742889  1
  C  C99  1  0.657976  0.633538  0.692137  1
  C  C100  1  0.834845  0.647521  0.585597  1
  C  C101  1  0.334845  0.852479  0.914403  1
  C  C102  1  0.560485  0.651263  0.227265  1
  C  C103  1  0.788242  0.875362  0.452302  1
  C  C104  1  0.754051  0.712643  0.336245  1
  C  C105  1  0.164943  0.626229  0.177283  1
  C  C106  1  0.439515  0.348737  0.772735  1
  C  C107  1  0.165155  0.352479  0.414403  1
  C  C108  1  0.665155  0.147521  0.085597  1
  C  C109  1  0.245906  0.466178  0.757111  1
  C  C110  1  0.157976  0.866462  0.807863  1
  C  C111  1  0.288242  0.624638  0.047698  1
  C  C112  1  0.211758  0.124638  0.547698  1
  C  C113  1  0.245949  0.287357  0.663755  1
  C  C114  1  0.745949  0.212643  0.836245  1
  C  C115  1  0.664943  0.873771  0.322717  1
  N  N116  1  0.202847  0.904747  0.898490  1
  N  N117  1  0.265152  0.186302  0.633772  1
  N  N118  1  0.303632  0.360542  0.731986  1
  N  N119  1  0.765152  0.313698  0.866228  1
  N  N120  1  0.297153  0.404747  0.398490  1
  N  N121  1  0.234848  0.686302  0.133772  1
  N  N122  1  0.196368  0.860542  0.231986  1
  N  N123  1  0.734848  0.813698  0.366228  1
  N  N124  1  0.696368  0.639458  0.268014  1
  N  N125  1  0.803632  0.139458  0.768014  1
  N  N126  1  0.702847  0.595253  0.601510  1
  N  N127  1  0.797153  0.095253  0.101510  1
  Cl  Cl128  1  0.752472  0.875425  0.895165  1
  Cl  Cl129  1  0.252472  0.624575  0.604835  1
  Cl  Cl130  1  0.747528  0.375425  0.395165  1
  Cl  Cl131  1  0.608052  0.875570  0.097429  1
  Cl  Cl132  1  0.007224  0.879007  0.058057  1
  Cl  Cl133  1  0.837023  0.645946  0.066300  1
  Cl  Cl134  1  0.108052  0.624430  0.402571  1
  Cl  Cl135  1  0.162977  0.354054  0.933700  1
  Cl  Cl136  1  0.992776  0.120993  0.941943  1
  Cl  Cl137  1  0.527149  0.153123  0.368248  1
  Cl  Cl138  1  0.083988  0.862941  0.600878  1
  Cl  Cl139  1  0.391948  0.124430  0.902571  1
  Cl  Cl140  1  0.492776  0.379007  0.558057  1
  Cl  Cl141  1  0.247528  0.124575  0.104835  1
  Cl  Cl142  1  0.416012  0.362941  0.100878  1
  Cl  Cl143  1  0.337023  0.854054  0.433700  1
  Cl  Cl144  1  0.972851  0.653123  0.868248  1
  Cl  Cl145  1  0.662977  0.145946  0.566300  1
  Cl  Cl146  1  0.507224  0.620993  0.441943  1
  Cl  Cl147  1  0.583988  0.637059  0.899122  1
  Cl  Cl148  1  0.916012  0.137059  0.399122  1
  Cl  Cl149  1  0.891948  0.375570  0.597429  1
  Cl  Cl150  1  0.027149  0.346877  0.131752  1
  Cl  Cl151  1  0.472851  0.846877  0.631752  1
