# generated using pymatgen
data_H5IO6
_symmetry_space_group_name_H-M   'P 1'
_cell_length_a   5.51926830
_cell_length_b   18.46406237
_cell_length_c   4.92196303
_cell_angle_alpha   90.00000000
_cell_angle_beta   110.29835889
_cell_angle_gamma   90.00000000
_symmetry_Int_Tables_number   1
_chemical_formula_structural   H5IO6
_chemical_formula_sum   'H20 I4 O24'
_cell_volume   470.43879102
_cell_formula_units_Z   4
loop_
 _symmetry_equiv_pos_site_id
 _symmetry_equiv_pos_as_xyz
  1  'x, y, z'
loop_
 _atom_site_type_symbol
 _atom_site_label
 _atom_site_symmetry_multiplicity
 _atom_site_fract_x
 _atom_site_fract_y
 _atom_site_fract_z
 _atom_site_occupancy
  H  H0  1  0.272093  0.545465  0.611421  1
  H  H1  1  0.598413  0.993006  0.295365  1
  H  H2  1  0.901587  0.493006  0.204635  1
  H  H3  1  0.227907  0.045465  0.888579  1
  H  H4  1  0.738372  0.609630  0.053462  1
  H  H5  1  0.339462  0.979876  0.660043  1
  H  H6  1  0.160538  0.479876  0.839957  1
  H  H7  1  0.761628  0.109630  0.446538  1
  H  H8  1  0.852652  0.965264  0.894113  1
  H  H9  1  0.647348  0.465264  0.605887  1
  H  H10  1  0.139064  0.690244  0.460854  1
  H  H11  1  0.603965  0.800197  0.914456  1
  H  H12  1  0.896035  0.300197  0.585544  1
  H  H13  1  0.360936  0.190244  0.039146  1
  H  H14  1  0.090281  0.864127  0.491523  1
  H  H15  1  0.409719  0.364127  0.008477  1
  H  H16  1  0.914579  0.706944  0.758041  1
  H  H17  1  0.365783  0.773230  0.255023  1
  H  H18  1  0.134217  0.273230  0.244977  1
  H  H19  1  0.585421  0.206944  0.741959  1
  I  I20  1  0.223801  0.615715  0.077675  1
  I  I21  1  0.655329  0.872295  0.511978  1
  I  I22  1  0.844671  0.372295  0.988022  1
  I  I23  1  0.276199  0.115715  0.422325  1
  O  O24  1  0.202584  0.534904  0.789132  1
  O  O25  1  0.643736  0.944825  0.229273  1
  O  O26  1  0.856264  0.444825  0.270727  1
  O  O27  1  0.297416  0.034904  0.710868  1
  O  O28  1  0.897025  0.575110  0.064686  1
  O  O29  1  0.375236  0.909538  0.590537  1
  O  O30  1  0.124764  0.409538  0.909463  1
  O  O31  1  0.602975  0.075110  0.435314  1
  O  O32  1  0.378271  0.557837  0.394495  1
  O  O33  1  0.918448  0.923618  0.815732  1
  O  O34  1  0.581552  0.423618  0.684268  1
  O  O35  1  0.121729  0.057837  0.105506  1
  O  O36  1  0.179134  0.701792  0.279106  1
  O  O37  1  0.675020  0.788570  0.757619  1
  O  O38  1  0.824980  0.288570  0.742381  1
  O  O39  1  0.320866  0.201792  0.220894  1
  O  O40  1  0.515780  0.650507  0.034644  1
  O  O41  1  0.938409  0.829815  0.435080  1
  O  O42  1  0.561591  0.329815  0.064920  1
  O  O43  1  0.984220  0.150507  0.465356  1
  O  O44  1  0.027523  0.669449  0.719200  1
  O  O45  1  0.444078  0.815913  0.188360  1
  O  O46  1  0.055922  0.315913  0.311640  1
  O  O47  1  0.472477  0.169449  0.780800  1
