# generated using pymatgen
data_Ni4(BiO2)9
_symmetry_space_group_name_H-M   'P 1'
_cell_length_a   8.69942268
_cell_length_b   9.00912010
_cell_length_c   8.50874069
_cell_angle_alpha   111.30540294
_cell_angle_beta   110.74023230
_cell_angle_gamma   108.47098031
_symmetry_Int_Tables_number   1
_chemical_formula_structural   Ni4(BiO2)9
_chemical_formula_sum   'Ni4 Bi9 O18'
_cell_volume   499.33310674
_cell_formula_units_Z   1
loop_
 _symmetry_equiv_pos_site_id
 _symmetry_equiv_pos_as_xyz
  1  'x, y, z'
loop_
 _atom_site_type_symbol
 _atom_site_label
 _atom_site_symmetry_multiplicity
 _atom_site_fract_x
 _atom_site_fract_y
 _atom_site_fract_z
 _atom_site_occupancy
  Ni  Ni0  1  0.105659  0.275587  0.813062  1
  Ni  Ni1  1  0.211873  0.484415  0.304689  1
  Ni  Ni2  1  0.285931  0.789970  0.122915  1
  Ni  Ni3  1  0.887781  0.700363  0.197195  1
  Bi  Bi4  1  0.170013  0.847384  0.666728  1
  Bi  Bi5  1  0.018433  0.017718  0.007436  1
  Bi  Bi6  1  0.531563  0.687584  0.821613  1
  Bi  Bi7  1  0.294619  0.176455  0.516084  1
  Bi  Bi8  1  0.656357  0.841439  0.467438  1
  Bi  Bi9  1  0.536312  0.362335  0.137382  1
  Bi  Bi10  1  0.723776  0.205631  0.851683  1
  Bi  Bi11  1  0.841165  0.527058  0.703645  1
  Bi  Bi12  1  0.821825  0.150728  0.330735  1
  O  O13  1  0.975516  0.964859  0.327721  1
  O  O14  1  0.307304  0.661443  0.584675  1
  O  O15  1  0.261775  0.363574  0.715243  1
  O  O16  1  0.252639  0.289343  0.324918  1
  O  O17  1  0.415312  0.109621  0.794801  1
  O  O18  1  0.345374  0.661300  0.254886  1
  O  O19  1  0.697050  0.695074  0.678654  1
  O  O20  1  0.577695  0.902134  0.226577  1
  O  O21  1  0.621155  0.389442  0.739529  1
  O  O22  1  0.240516  0.877037  0.943804  1
  O  O23  1  0.651747  0.300165  0.349144  1
  O  O24  1  0.738111  0.664663  0.320253  1
  O  O25  1  0.796902  0.431695  0.124072  1
  O  O26  1  0.863451  0.245782  0.641420  1
  O  O27  1  0.012267  0.713053  0.051844  1
  O  O28  1  0.033657  0.019110  0.748012  1
  O  O29  1  0.729311  0.003717  0.977806  1
  O  O30  1  0.039909  0.291320  0.021034  1
