# generated using pymatgen
data_Bi32P10Pb3O76
_symmetry_space_group_name_H-M   'P 1'
_cell_length_a   11.47358682
_cell_length_b   11.47358753
_cell_length_c   16.54691243
_cell_angle_alpha   80.29788433
_cell_angle_beta   80.29788372
_cell_angle_gamma   60.65829289
_symmetry_Int_Tables_number   1
_chemical_formula_structural   Bi32P10Pb3O76
_chemical_formula_sum   'Bi32 P10 Pb3 O76'
_cell_volume   1862.29687296
_cell_formula_units_Z   1
loop_
 _symmetry_equiv_pos_site_id
 _symmetry_equiv_pos_as_xyz
  1  'x, y, z'
loop_
 _atom_site_type_symbol
 _atom_site_label
 _atom_site_symmetry_multiplicity
 _atom_site_fract_x
 _atom_site_fract_y
 _atom_site_fract_z
 _atom_site_occupancy
  Bi  Bi0  1  0.706567  0.078587  0.187312  1
  Bi  Bi1  1  0.234939  0.515086  0.593221  1
  Bi  Bi2  1  0.290979  0.948861  0.805716  1
  Bi  Bi3  1  0.051139  0.709021  0.194284  1
  Bi  Bi4  1  0.616047  0.940585  0.793549  1
  Bi  Bi5  1  0.349494  0.331368  0.972713  1
  Bi  Bi6  1  0.668632  0.650506  0.027287  1
  Bi  Bi7  1  0.922722  0.835858  0.607239  1
  Bi  Bi8  1  0.274551  0.631113  0.788837  1
  Bi  Bi9  1  0.818496  0.761971  0.402364  1
  Bi  Bi10  1  0.495096  0.104700  0.390088  1
  Bi  Bi11  1  0.368887  0.725449  0.211163  1
  Bi  Bi12  1  0.576875  0.529703  0.597012  1
  Bi  Bi13  1  0.895300  0.504904  0.609912  1
  Bi  Bi14  1  0.470297  0.423125  0.402988  1
  Bi  Bi15  1  0.696615  0.425978  0.202847  1
  Bi  Bi16  1  0.164142  0.077278  0.392761  1
  Bi  Bi17  1  0.484914  0.765061  0.406779  1
  Bi  Bi18  1  0.996742  0.327648  0.002613  1
  Bi  Bi19  1  0.574022  0.303385  0.797153  1
  Bi  Bi20  1  0.604209  0.858654  0.600848  1
  Bi  Bi21  1  0.012212  0.987788  1.000000  1
  Bi  Bi22  1  0.931889  0.599236  0.826609  1
  Bi  Bi23  1  0.672352  0.003258  0.997387  1
  Bi  Bi24  1  0.141346  0.395791  0.399152  1
  Bi  Bi25  1  0.400764  0.068111  0.173391  1
  Bi  Bi26  1  0.347491  0.652509  0.000000  1
  Bi  Bi27  1  0.897742  0.188700  0.601778  1
  Bi  Bi28  1  0.811300  0.102258  0.398222  1
  Bi  Bi29  1  0.921413  0.293433  0.812688  1
  Bi  Bi30  1  0.059415  0.383954  0.206451  1
  Bi  Bi31  1  0.238029  0.181504  0.597636  1
  P  P32  1  0.695480  0.739219  0.208525  1
  P  P33  1  0.250385  0.860837  0.599936  1
  P  P34  1  0.139163  0.749615  0.400064  1
  P  P35  1  0.260781  0.304520  0.791475  1
  P  P36  1  0.577012  0.181754  0.584880  1
  P  P37  1  0.346600  0.975175  0.992687  1
  P  P38  1  0.024825  0.653400  0.007313  1
  P  P39  1  0.818246  0.422988  0.415120  1
  P  P40  1  0.919810  0.979049  0.800440  1
  P  P41  1  0.020951  0.080190  0.199560  1
  Pb  Pb42  1  0.380692  0.391900  0.191473  1
  Pb  Pb43  1  0.608100  0.619308  0.808527  1
  Pb  Pb44  1  0.668063  0.331937  1.000000  1
  O  O45  1  0.030500  0.625242  0.641465  1
  O  O46  1  0.505819  0.116015  0.259074  1
  O  O47  1  0.926940  0.300770  0.467943  1
  O  O48  1  0.031242  0.973288  0.147004  1
  O  O49  1  0.542458  0.597084  0.129889  1
  O  O50  1  0.745861  0.548104  0.466601  1
  O  O51  1  0.875213  0.114890  0.741211  1
  O  O52  1  0.006230  0.853773  0.445155  1
  O  O53  1  0.748503  0.832275  0.687941  1
  O  O54  1  0.005537  0.208897  0.142618  1
  O  O55  1  0.779977  0.607555  0.166002  1
  O  O56  1  0.938343  0.603360  0.974527  1
  O  O57  1  0.699230  0.073060  0.532057  1
  O  O58  1  0.142870  0.025182  0.249494  1
  O  O59  1  0.027314  0.251541  0.638001  1
  O  O60  1  0.607747  0.842619  0.436547  1
  O  O61  1  0.393307  0.813114  0.549222  1
  O  O62  1  0.623223  0.855292  0.141015  1
  O  O63  1  0.791103  0.994463  0.857382  1
  O  O64  1  0.797315  0.066768  0.042077  1
  O  O65  1  0.565565  0.208981  0.934636  1
  O  O66  1  0.714768  0.381536  0.398128  1
  O  O67  1  0.157382  0.392253  0.563453  1
  O  O68  1  0.885110  0.124787  0.258789  1
  O  O69  1  0.891484  0.457052  0.336078  1
  O  O70  1  0.639728  0.290898  0.160498  1
  O  O71  1  0.429667  0.924991  0.908059  1
  O  O72  1  0.477870  0.526730  0.721025  1
  O  O73  1  0.409357  0.440677  0.040071  1
  O  O74  1  0.116539  0.510167  0.258408  1
  O  O75  1  0.371645  0.849445  0.055583  1
  O  O76  1  0.232435  0.184172  0.463045  1
  O  O77  1  0.883985  0.494181  0.740926  1
  O  O78  1  0.109558  0.739552  0.313667  1
  O  O79  1  0.550370  0.123103  0.102940  1
  O  O80  1  0.252316  0.789532  0.388730  1
  O  O81  1  0.611146  0.231449  0.359089  1
  O  O82  1  0.941518  0.802773  0.024846  1
  O  O83  1  0.264076  0.281147  0.140909  1
  O  O84  1  0.150555  0.628355  0.944417  1
  O  O85  1  0.349596  0.343237  0.366626  1
  O  O86  1  0.489833  0.883461  0.741592  1
  O  O87  1  0.260938  0.658248  0.149873  1
  O  O88  1  0.392445  0.220023  0.833998  1
  O  O89  1  0.542948  0.108516  0.663922  1
  O  O90  1  0.167725  0.251497  0.312059  1
  O  O91  1  0.026712  0.968758  0.852996  1
  O  O92  1  0.618464  0.285232  0.601872  1
  O  O93  1  0.144708  0.376777  0.858985  1
  O  O94  1  0.473270  0.522130  0.278975  1
  O  O95  1  0.451896  0.254139  0.533399  1
  O  O96  1  0.396640  0.061657  0.025473  1
  O  O97  1  0.768551  0.388854  0.640911  1
  O  O98  1  0.146227  0.993770  0.554845  1
  O  O99  1  0.815828  0.767565  0.536955  1
  O  O100  1  0.582602  0.723783  0.271797  1
  O  O101  1  0.210468  0.747684  0.611271  1
  O  O102  1  0.075009  0.570333  0.091941  1
  O  O103  1  0.656763  0.650404  0.633374  1
  O  O104  1  0.791019  0.434435  0.065364  1
  O  O105  1  0.374758  0.969500  0.358535  1
  O  O106  1  0.227512  0.216623  0.747295  1
  O  O107  1  0.559323  0.590643  0.959929  1
  O  O108  1  0.260448  0.890442  0.686333  1
  O  O109  1  0.709102  0.360272  0.839502  1
  O  O110  1  0.876897  0.449630  0.897060  1
  O  O111  1  0.933232  0.202685  0.957923  1
  O  O112  1  0.402916  0.457542  0.870111  1
  O  O113  1  0.197227  0.058482  0.975154  1
  O  O114  1  0.718853  0.735924  0.859091  1
  O  O115  1  0.974818  0.857130  0.750506  1
  O  O116  1  0.276217  0.417398  0.728203  1
  O  O117  1  0.748459  0.972686  0.361999  1
  O  O118  1  0.783377  0.772488  0.252705  1
  O  O119  1  0.186886  0.606693  0.450778  1
  O  O120  1  0.341752  0.739062  0.850127  1
