# generated using pymatgen
data_In3Ru
_symmetry_space_group_name_H-M   'P 1'
_cell_length_a   7.09760604
_cell_length_b   7.09549671
_cell_length_c   7.33767633
_cell_angle_alpha   90.01272731
_cell_angle_beta   90.01723926
_cell_angle_gamma   90.00213673
_symmetry_Int_Tables_number   1
_chemical_formula_structural   In3Ru
_chemical_formula_sum   'In12 Ru4'
_cell_volume   369.53298704
_cell_formula_units_Z   4
loop_
 _symmetry_equiv_pos_site_id
 _symmetry_equiv_pos_as_xyz
  1  'x, y, z'
loop_
 _atom_site_type_symbol
 _atom_site_label
 _atom_site_symmetry_multiplicity
 _atom_site_fract_x
 _atom_site_fract_y
 _atom_site_fract_z
 _atom_site_occupancy
  In  In0  1  0.155698  0.155856  0.261386  1
  In  In1  1  0.655827  0.344069  0.761557  1
  In  In2  1  0.155764  0.155933  0.738533  1
  In  In3  1  0.844194  0.844183  0.738551  1
  In  In4  1  0.656017  0.344233  0.238539  1
  In  In5  1  0.499980  0.000049  0.999958  1
  In  In6  1  0.000066  0.500005  0.000013  1
  In  In7  1  0.344257  0.655782  0.761383  1
  In  In8  1  0.344240  0.655760  0.238576  1
  In  In9  1  0.844101  0.844108  0.261522  1
  In  In10  1  0.499998  -0.000042  0.499900  1
  In  In11  1  0.999909  0.500024  0.500078  1
  Ru  Ru12  1  0.654021  0.654041  0.000012  1
  Ru  Ru13  1  0.153922  0.845944  0.499861  1
  Ru  Ru14  1  0.846008  0.154010  0.500060  1
  Ru  Ru15  1  0.346000  0.346045  0.000071  1
