# generated using pymatgen
data_Sr5Li25La7Nb8O48
_symmetry_space_group_name_H-M   'P 1'
_cell_length_a   11.59371168
_cell_length_b   11.53446046
_cell_length_c   11.26727229
_cell_angle_alpha   107.30372296
_cell_angle_beta   109.74747141
_cell_angle_gamma   110.76395858
_symmetry_Int_Tables_number   1
_chemical_formula_structural   Sr5Li25La7Nb8O48
_chemical_formula_sum   'Sr5 Li25 La7 Nb8 O48'
_cell_volume   1167.53673383
_cell_formula_units_Z   1
loop_
 _symmetry_equiv_pos_site_id
 _symmetry_equiv_pos_as_xyz
  1  'x, y, z'
loop_
 _atom_site_type_symbol
 _atom_site_label
 _atom_site_symmetry_multiplicity
 _atom_site_fract_x
 _atom_site_fract_y
 _atom_site_fract_z
 _atom_site_occupancy
  Sr  Sr0  1  0.279251  0.407563  0.141418  1
  Sr  Sr1  1  0.609492  0.885498  0.731597  1
  Sr  Sr2  1  0.624740  0.237705  0.885221  1
  Sr  Sr3  1  0.766457  0.640295  0.877544  1
  Sr  Sr4  1  0.741287  0.086443  0.380373  1
  Li  Li5  1  0.619129  0.771461  0.381979  1
  Li  Li6  1  0.235706  0.096629  0.845002  1
  Li  Li7  1  0.311205  0.661067  0.382852  1
  Li  Li8  1  0.580804  0.539611  0.267676  1
  Li  Li9  1  0.792776  0.337274  0.371965  1
  Li  Li10  1  0.973577  0.020373  0.192240  1
  Li  Li11  1  0.428162  0.266152  0.038960  1
  Li  Li12  1  0.763060  0.414434  0.621738  1
  Li  Li13  1  0.741247  0.873526  0.103051  1
  Li  Li14  1  0.638467  0.347930  0.210126  1
  Li  Li15  1  0.978389  0.458826  0.774605  1
  Li  Li16  1  0.481512  0.281971  0.601000  1
  Li  Li17  1  0.721154  0.257570  0.681178  1
  Li  Li18  1  0.033093  0.479960  0.272380  1
  Li  Li19  1  0.061905  0.162248  0.871088  1
  Li  Li20  1  0.884910  0.965979  0.635581  1
  Li  Li21  1  0.146856  0.769324  0.887517  1
  Li  Li22  1  0.635838  0.424530  0.417218  1
  Li  Li23  1  0.413797  0.670460  0.800442  1
  Li  Li24  1  0.863797  0.154073  0.744684  1
  Li  Li25  1  0.836571  0.060317  0.991398  1
  Li  Li26  1  0.135019  0.887036  0.254995  1
  Li  Li27  1  0.571009  0.724458  0.116406  1
  Li  Li28  1  0.837319  0.219411  0.167341  1
  Li  Li29  1  0.970394  0.289618  0.026879  1
  La  La30  1  0.161648  0.355682  0.756345  1
  La  La31  1  0.256856  0.884656  0.629023  1
  La  La32  1  0.159846  0.303014  0.397753  1
  La  La33  1  0.363537  0.764736  0.147044  1
  La  La34  1  0.384804  0.130607  0.246036  1
  La  La35  1  0.871370  0.719575  0.599163  1
  La  La36  1  0.862091  0.651952  0.256159  1
  Nb  Nb37  1  0.050353  0.530927  0.544380  1
  Nb  Nb38  1  0.008283  0.541815  0.027565  1
  Nb  Nb39  1  0.483987  0.006468  0.501821  1
  Nb  Nb40  1  0.017626  0.979395  0.977936  1
  Nb  Nb41  1  0.505207  0.538534  0.535166  1
  Nb  Nb42  1  0.510152  0.476550  0.951580  1
  Nb  Nb43  1  0.014947  0.010403  0.488406  1
  Nb  Nb44  1  0.505372  0.993991  0.004271  1
  O  O45  1  0.076536  0.967921  0.660196  1
  O  O46  1  0.043973  0.326954  0.901265  1
  O  O47  1  0.126221  0.617185  0.942070  1
  O  O48  1  0.087383  0.706020  0.684442  1
  O  O49  1  0.076008  0.889955  0.401397  1
  O  O50  1  0.087617  0.638707  0.437962  1
  O  O51  1  0.200374  0.498277  0.623396  1
  O  O52  1  0.416467  0.843798  0.807830  1
  O  O53  1  0.325223  0.315943  0.906803  1
  O  O54  1  0.397911  0.562751  0.900018  1
  O  O55  1  0.328459  0.935090  0.307221  1
  O  O56  1  0.013587  0.206431  0.149121  1
  O  O57  1  0.167902  0.199768  0.564178  1
  O  O58  1  0.186369  0.587946  0.184097  1
  O  O59  1  0.400855  0.839933  0.529053  1
  O  O60  1  0.319159  0.505053  0.398816  1
  O  O61  1  0.344849  0.927359  0.048066  1
  O  O62  1  0.131821  0.023253  0.177867  1
  O  O63  1  0.534914  0.644487  0.714293  1
  O  O64  1  0.418104  0.093383  0.913982  1
  O  O65  1  0.547018  0.405442  0.806390  1
  O  O66  1  0.390517  0.330667  0.463823  1
  O  O67  1  0.182610  0.125414  0.995667  1
  O  O68  1  0.564677  0.912551  0.393488  1
  O  O69  1  0.414110  0.087657  0.621695  1
  O  O70  1  0.842153  0.901676  0.997122  1
  O  O71  1  0.619691  0.683414  0.502554  1
  O  O72  1  0.476923  0.620511  0.187318  1
  O  O73  1  0.574262  0.887243  0.102321  1
  O  O74  1  0.477765  0.349894  0.242670  1
  O  O75  1  0.889160  0.008650  0.820642  1
  O  O76  1  0.681718  0.081310  0.981937  1
  O  O77  1  0.684752  0.525692  0.608073  1
  O  O78  1  0.583256  0.200385  0.496422  1
  O  O79  1  0.837994  0.440959  0.825040  1
  O  O80  1  0.823751  0.807252  0.420057  1
  O  O81  1  0.983001  0.802648  0.861555  1
  O  O82  1  0.673083  0.097507  0.691435  1
  O  O83  1  0.619039  0.429091  0.090928  1
  O  O84  1  0.690048  0.669201  0.068245  1
  O  O85  1  0.625418  0.175484  0.212688  1
  O  O86  1  0.796190  0.517980  0.396807  1
  O  O87  1  0.909270  0.401694  0.579451  1
  O  O88  1  0.937194  0.118181  0.604599  1
  O  O89  1  0.958610  0.360126  0.354821  1
  O  O90  1  0.975201  0.687715  0.106981  1
  O  O91  1  0.895526  0.409132  0.078010  1
  O  O92  1  0.901526  0.015672  0.315088  1
