# generated using pymatgen
data_FePbC5N6O
_symmetry_space_group_name_H-M   'P 1'
_cell_length_a   8.01466544
_cell_length_b   9.27638241
_cell_length_c   13.32580486
_cell_angle_alpha   90.00000000
_cell_angle_beta   90.00000000
_cell_angle_gamma   90.00000000
_symmetry_Int_Tables_number   1
_chemical_formula_structural   FePbC5N6O
_chemical_formula_sum   'Fe4 Pb4 C20 N24 O4'
_cell_volume   990.73496662
_cell_formula_units_Z   4
loop_
 _symmetry_equiv_pos_site_id
 _symmetry_equiv_pos_as_xyz
  1  'x, y, z'
loop_
 _atom_site_type_symbol
 _atom_site_label
 _atom_site_symmetry_multiplicity
 _atom_site_fract_x
 _atom_site_fract_y
 _atom_site_fract_z
 _atom_site_occupancy
  Fe  Fe0  1  0.750000  0.858078  0.218481  1
  Fe  Fe1  1  0.750000  0.641922  0.718481  1
  Fe  Fe2  1  0.250000  0.358078  0.281519  1
  Fe  Fe3  1  0.250000  0.141922  0.781519  1
  Pb  Pb4  1  0.750000  0.358028  0.007743  1
  Pb  Pb5  1  0.250000  0.641972  0.992257  1
  Pb  Pb6  1  0.750000  0.141972  0.507743  1
  Pb  Pb7  1  0.250000  0.858028  0.492257  1
  C  C8  1  0.920598  0.825189  0.119655  1
  C  C9  1  0.417949  0.421962  0.188928  1
  C  C10  1  0.579402  0.674811  0.619655  1
  C  C11  1  0.582051  0.921962  0.311072  1
  C  C12  1  0.417949  0.078038  0.688928  1
  C  C13  1  0.079402  0.325189  0.380345  1
  C  C14  1  0.420598  0.325189  0.380345  1
  C  C15  1  0.420598  0.174811  0.880345  1
  C  C16  1  0.082051  0.078038  0.688928  1
  C  C17  1  0.750000  0.053797  0.167709  1
  C  C18  1  0.082051  0.421962  0.188928  1
  C  C19  1  0.250000  0.553797  0.332291  1
  C  C20  1  0.920598  0.674811  0.619655  1
  C  C21  1  0.079402  0.174811  0.880345  1
  C  C22  1  0.917949  0.921962  0.311072  1
  C  C23  1  0.917949  0.578038  0.811072  1
  C  C24  1  0.582051  0.578038  0.811072  1
  C  C25  1  0.579402  0.825189  0.119655  1
  C  C26  1  0.250000  0.946203  0.832291  1
  C  C27  1  0.750000  0.446203  0.667709  1
  N  N28  1  0.982740  0.041543  0.629263  1
  N  N29  1  0.473591  0.804214  0.060736  1
  N  N30  1  0.750000  0.170769  0.135273  1
  N  N31  1  0.526409  0.304214  0.439264  1
  N  N32  1  0.026409  0.695786  0.560736  1
  N  N33  1  0.526409  0.195786  0.939264  1
  N  N34  1  0.482740  0.541543  0.870737  1
  N  N35  1  0.517260  0.041543  0.629263  1
  N  N36  1  0.250000  0.829231  0.864727  1
  N  N37  1  0.973591  0.195786  0.939264  1
  N  N38  1  0.982740  0.458457  0.129263  1
  N  N39  1  0.250000  0.307973  0.733370  1
  N  N40  1  0.750000  0.807973  0.766630  1
  N  N41  1  0.250000  0.192027  0.233370  1
  N  N42  1  0.250000  0.670769  0.364727  1
  N  N43  1  0.473591  0.695786  0.560736  1
  N  N44  1  0.750000  0.329231  0.635273  1
  N  N45  1  0.517260  0.458457  0.129263  1
  N  N46  1  0.017260  0.958457  0.370737  1
  N  N47  1  0.482740  0.958457  0.370737  1
  N  N48  1  0.750000  0.692027  0.266630  1
  N  N49  1  0.017260  0.541543  0.870737  1
  N  N50  1  0.973591  0.304214  0.439264  1
  N  N51  1  0.026409  0.804214  0.060736  1
  O  O52  1  0.250000  0.417509  0.693519  1
  O  O53  1  0.750000  0.917509  0.806481  1
  O  O54  1  0.750000  0.582491  0.306481  1
  O  O55  1  0.250000  0.082491  0.193519  1
