# generated using pymatgen
data_Sm2(InCo3)3
_symmetry_space_group_name_H-M   'P 1'
_cell_length_a   4.03315956
_cell_length_b   4.89987044
_cell_length_c   11.37062734
_cell_angle_alpha   102.50406226
_cell_angle_beta   89.96528179
_cell_angle_gamma   89.92644591
_symmetry_Int_Tables_number   1
_chemical_formula_structural   Sm2(InCo3)3
_chemical_formula_sum   'Sm2 In3 Co9'
_cell_volume   219.37572869
_cell_formula_units_Z   1
loop_
 _symmetry_equiv_pos_site_id
 _symmetry_equiv_pos_as_xyz
  1  'x, y, z'
loop_
 _atom_site_type_symbol
 _atom_site_label
 _atom_site_symmetry_multiplicity
 _atom_site_fract_x
 _atom_site_fract_y
 _atom_site_fract_z
 _atom_site_occupancy
  Sm  Sm0  1  0.993988  0.324074  0.636399  1
  Sm  Sm1  1  0.997996  0.686511  0.362579  1
  In  In2  1  0.495599  0.206931  0.403102  1
  In  In3  1  0.497888  0.806604  0.597313  1
  In  In4  1  0.999586  0.997977  0.997828  1
  Co  Co5  1  -0.002089  0.118356  0.236121  1
  Co  Co6  1  0.497871  0.843483  0.183230  1
  Co  Co7  1  0.000221  0.883122  0.761831  1
  Co  Co8  1  0.498917  0.664474  0.816437  1
  Co  Co9  1  -0.003558  0.438617  0.876185  1
  Co  Co10  1  0.496428  0.497333  0.000528  1
  Co  Co11  1  0.001368  0.558573  0.122064  1
  Co  Co12  1  0.502690  0.337286  0.184274  1
  Co  Co13  1  0.501171  0.152669  0.816811  1
