# generated using pymatgen
data_As24S25
_symmetry_space_group_name_H-M   'P 1'
_cell_length_a   6.87535855
_cell_length_b   9.33520103
_cell_length_c   25.15178963
_cell_angle_alpha   84.97155570
_cell_angle_beta   75.82879865
_cell_angle_gamma   102.36408000
_symmetry_Int_Tables_number   1
_chemical_formula_structural   As24S25
_chemical_formula_sum   'As24 S25'
_cell_volume   1512.07198883
_cell_formula_units_Z   1
loop_
 _symmetry_equiv_pos_site_id
 _symmetry_equiv_pos_as_xyz
  1  'x, y, z'
loop_
 _atom_site_type_symbol
 _atom_site_label
 _atom_site_symmetry_multiplicity
 _atom_site_fract_x
 _atom_site_fract_y
 _atom_site_fract_z
 _atom_site_occupancy
  As  As0  1  0.235120  0.774059  0.139334  1
  As  As1  1  0.327890  0.474885  0.175411  1
  As  As2  1  0.375842  0.683225  0.267740  1
  As  As3  1  0.215941  0.683356  0.521910  1
  As  As4  1  0.319930  0.322697  0.484438  1
  As  As5  1  0.334820  0.631887  0.609383  1
  As  As6  1  0.431568  0.279799  0.286479  1
  As  As7  1  0.225447  0.693439  0.812403  1
  As  As8  1  0.350723  0.452994  0.824450  1
  As  As9  1  0.454263  0.706353  0.053614  1
  As  As10  1  0.356425  0.314569  0.685684  1
  As  As11  1  0.598539  0.860488  0.318880  1
  As  As12  1  0.352849  0.324341  0.963982  1
  As  As13  1  0.601066  0.523520  0.225871  1
  As  As14  1  0.835375  0.163724  0.212168  1
  As  As15  1  0.451684  0.753856  0.710690  1
  As  As16  1  0.755100  0.227968  0.310597  1
  As  As17  1  0.601630  0.004346  0.609114  1
  As  As18  1  0.872840  0.763362  0.560140  1
  As  As19  1  0.666208  0.186973  0.678694  1
  As  As20  1  0.595527  0.028290  0.964889  1
  As  As21  1  0.713396  0.532913  0.838424  1
  As  As22  1  0.735667  0.257525  0.815902  1
  As  As23  1  0.580175  0.240750  0.023281  1
  S  S24  1  0.119394  0.944297  0.082744  1
  S  S25  1  0.094896  0.389620  0.028820  1
  S  S26  1  0.004152  0.169941  0.470948  1
  S  S27  1  0.130887  0.518094  0.337837  1
  S  S28  1  0.038410  0.226625  0.818916  1
  S  S29  1  0.043091  0.494385  0.672810  1
  S  S30  1  0.493628  0.147678  0.213161  1
  S  S31  1  0.575460  0.880163  0.103966  1
  S  S32  1  0.545480  0.501688  0.090304  1
  S  S33  1  0.501485  0.440005  0.597235  1
  S  S34  1  0.432960  0.069050  0.541242  1
  S  S35  1  0.467836  0.904996  0.491885  1
  S  S36  1  0.528888  0.396531  0.407299  1
  S  S37  1  0.582437  0.554448  0.928115  1
  S  S38  1  0.497826  0.088907  0.885444  1
  S  S39  1  0.540938  0.859454  0.780001  1
  S  S40  1  0.532982  0.490298  0.731393  1
  S  S41  1  0.716216  0.730361  0.370540  1
  S  S42  1  0.951370  0.467601  0.282562  1
  S  S43  1  0.849773  0.925594  0.231905  1
  S  S44  1  0.860808  0.802269  0.644770  1
  S  S45  1  0.941008  0.353460  0.619301  1
  S  S46  1  0.948008  0.045019  0.545613  1
  S  S47  1  0.899271  0.406666  0.978010  1
  S  S48  1  0.235072  0.921229  0.002365  1
