# generated using pymatgen
data_Na3Al2P2O8F3
_symmetry_space_group_name_H-M   'P 1'
_cell_length_a   6.28109143
_cell_length_b   6.27212093
_cell_length_c   13.62403678
_cell_angle_alpha   116.91137955
_cell_angle_beta   116.99739106
_cell_angle_gamma   90.16301182
_symmetry_Int_Tables_number   1
_chemical_formula_structural   Na3Al2P2O8F3
_chemical_formula_sum   'Na6 Al4 P4 O16 F6'
_cell_volume   411.53345889
_cell_formula_units_Z   2
loop_
 _symmetry_equiv_pos_site_id
 _symmetry_equiv_pos_as_xyz
  1  'x, y, z'
loop_
 _atom_site_type_symbol
 _atom_site_label
 _atom_site_symmetry_multiplicity
 _atom_site_fract_x
 _atom_site_fract_y
 _atom_site_fract_z
 _atom_site_occupancy
  Na  Na0  1  0.249945  0.643196  0.498033  1
  Na  Na1  1  0.245975  0.644749  0.998261  1
  Na  Na2  1  0.704205  0.266435  0.499528  1
  Na  Na3  1  0.721855  0.735908  0.502424  1
  Na  Na4  1  0.646345  0.247167  0.997933  1
  Na  Na5  1  0.727987  0.726790  0.002573  1
  Al  Al6  1  0.186910  0.184498  0.680120  1
  Al  Al7  1  0.186834  0.186311  0.179847  1
  Al  Al8  1  0.825577  0.825256  0.820121  1
  Al  Al9  1  0.825429  0.822500  0.319521  1
  P  P10  1  0.248027  0.746301  0.750330  1
  P  P11  1  0.249154  0.747914  0.251008  1
  P  P12  1  0.745216  0.247599  0.749186  1
  P  P13  1  0.745891  0.247279  0.249465  1
  O  O14  1  0.142490  0.831757  0.840319  1
  O  O15  1  0.157576  0.463005  0.659293  1
  O  O16  1  0.161518  0.861390  0.663707  1
  O  O17  1  0.533858  0.831968  0.837113  1
  O  O18  1  0.140591  0.829434  0.339576  1
  O  O19  1  0.462835  0.156639  0.659821  1
  O  O20  1  0.160472  0.464716  0.160159  1
  O  O21  1  0.163146  0.863643  0.164662  1
  O  O22  1  0.832978  0.141240  0.839202  1
  O  O23  1  0.831486  0.534088  0.836986  1
  O  O24  1  0.535450  0.835531  0.338143  1
  O  O25  1  0.862274  0.164564  0.663570  1
  O  O26  1  0.463716  0.156688  0.158813  1
  O  O27  1  0.833448  0.140169  0.339111  1
  O  O28  1  0.831667  0.533435  0.337870  1
  O  O29  1  0.862922  0.164250  0.163937  1
  F  F30  1  0.993727  0.994307  0.500033  1
  F  F31  1  0.360644  0.360692  0.856130  1
  F  F32  1  0.993351  0.993917  0.000039  1
  F  F33  1  0.364819  0.360670  0.356048  1
  F  F34  1  0.656177  0.653684  0.643845  1
  F  F35  1  0.652306  0.651908  0.143272  1
