# generated using pymatgen
data_LiMgAl3(SO4)6
_symmetry_space_group_name_H-M   'P 1'
_cell_length_a   8.67471644
_cell_length_b   17.37444664
_cell_length_c   15.26550594
_cell_angle_alpha   28.52621843
_cell_angle_beta   51.76766804
_cell_angle_gamma   56.95177119
_symmetry_Int_Tables_number   1
_chemical_formula_structural   LiMgAl3(SO4)6
_chemical_formula_sum   'Li2 Mg2 Al6 S12 O48'
_cell_volume   863.08314010
_cell_formula_units_Z   2
loop_
 _symmetry_equiv_pos_site_id
 _symmetry_equiv_pos_as_xyz
  1  'x, y, z'
loop_
 _atom_site_type_symbol
 _atom_site_label
 _atom_site_symmetry_multiplicity
 _atom_site_fract_x
 _atom_site_fract_y
 _atom_site_fract_z
 _atom_site_occupancy
  Li  Li0  1  0.188433  0.348671  0.736218  1
  Li  Li1  1  0.811567  0.651329  0.263782  1
  Mg  Mg2  1  0.363032  0.500983  0.352892  1
  Mg  Mg3  1  0.636968  0.499017  0.647108  1
  Al  Al4  1  0.141001  0.995017  0.158252  1
  Al  Al5  1  0.358707  0.996150  0.359613  1
  Al  Al6  1  0.157141  0.499794  0.142490  1
  Al  Al7  1  0.641293  0.003850  0.640387  1
  Al  Al8  1  0.842859  0.500206  0.857510  1
  Al  Al9  1  0.858999  0.004983  0.841748  1
  S  S10  1  0.038430  0.145515  0.458013  1
  S  S11  1  0.747332  0.207106  0.044948  1
  S  S12  1  0.542034  0.350753  0.251507  1
  S  S13  1  0.038060  0.646315  0.463522  1
  S  S14  1  0.458730  0.133313  0.763617  1
  S  S15  1  0.761270  0.712448  0.034063  1
  S  S16  1  0.238730  0.287552  0.965937  1
  S  S17  1  0.541270  0.866687  0.236383  1
  S  S18  1  0.961940  0.353685  0.536478  1
  S  S19  1  0.457966  0.649247  0.748493  1
  S  S20  1  0.252668  0.792894  0.955052  1
  S  S21  1  0.961570  0.854485  0.541987  1
  O  O22  1  0.290486  0.182676  0.127199  1
  O  O23  1  0.035981  0.320315  0.303447  1
  O  O24  1  0.020520  0.048743  0.642640  1
  O  O25  1  0.226953  0.100291  0.395902  1
  O  O26  1  0.602931  0.076223  0.238882  1
  O  O27  1  0.357252  0.361492  0.253750  1
  O  O28  1  0.111549  0.383565  0.519943  1
  O  O29  1  0.740117  0.310164  0.023918  1
  O  O30  1  0.950348  0.136282  0.034037  1
  O  O31  1  0.290648  0.702629  0.111931  1
  O  O32  1  0.601603  0.178606  0.402137  1
  O  O33  1  0.695999  0.450278  0.056307  1
  O  O34  1  0.030160  0.818819  0.317159  1
  O  O35  1  0.517149  0.408276  0.291898  1
  O  O36  1  0.006066  0.540870  0.660719  1
  O  O37  1  0.234182  0.594752  0.416822  1
  O  O38  1  0.487964  0.087575  0.706509  1
  O  O39  1  0.308027  0.027312  0.961920  1
  O  O40  1  0.389101  0.301947  0.625504  1
  O  O41  1  0.619320  0.585977  0.225754  1
  O  O42  1  0.040462  0.355533  0.982906  1
  O  O43  1  0.237859  0.190389  0.978787  1
  O  O44  1  0.873128  0.111228  0.490597  1
  O  O45  1  0.353328  0.873356  0.246795  1
  O  O46  1  0.646672  0.126644  0.753205  1
  O  O47  1  0.126872  0.888772  0.509403  1
  O  O48  1  0.762141  0.809611  0.021213  1
  O  O49  1  0.959538  0.644467  0.017094  1
  O  O50  1  0.380680  0.414023  0.774246  1
  O  O51  1  0.610899  0.698053  0.374496  1
  O  O52  1  0.691973  0.972688  0.038080  1
  O  O53  1  0.512036  0.912425  0.293491  1
  O  O54  1  0.765818  0.405248  0.583178  1
  O  O55  1  0.993934  0.459130  0.339281  1
  O  O56  1  0.482851  0.591724  0.708102  1
  O  O57  1  0.969840  0.181181  0.682841  1
  O  O58  1  0.304001  0.549722  0.943693  1
  O  O59  1  0.398397  0.821394  0.597863  1
  O  O60  1  0.709352  0.297371  0.888069  1
  O  O61  1  0.049652  0.863718  0.965963  1
  O  O62  1  0.259883  0.689836  0.976082  1
  O  O63  1  0.888451  0.616435  0.480057  1
  O  O64  1  0.642748  0.638508  0.746250  1
  O  O65  1  0.397069  0.923777  0.761118  1
  O  O66  1  0.773047  0.899709  0.604098  1
  O  O67  1  0.979480  0.951257  0.357360  1
  O  O68  1  0.964019  0.679685  0.696553  1
  O  O69  1  0.709514  0.817324  0.872801  1
