# generated using pymatgen
data_La39Se56
_symmetry_space_group_name_H-M   'P 1'
_cell_length_a   7.88348528
_cell_length_b   7.88648989
_cell_length_c   55.10618151
_cell_angle_alpha   109.34806974
_cell_angle_beta   109.68223318
_cell_angle_gamma   109.39775146
_symmetry_Int_Tables_number   1
_chemical_formula_structural   La39Se56
_chemical_formula_sum   'La39 Se56'
_cell_volume   2636.93878106
_cell_formula_units_Z   1
loop_
 _symmetry_equiv_pos_site_id
 _symmetry_equiv_pos_as_xyz
  1  'x, y, z'
loop_
 _atom_site_type_symbol
 _atom_site_label
 _atom_site_symmetry_multiplicity
 _atom_site_fract_x
 _atom_site_fract_y
 _atom_site_fract_z
 _atom_site_occupancy
  La  La0  1  0.130221  0.752096  0.982859  1
  La  La1  1  0.122410  0.747818  0.838803  1
  La  La2  1  0.248981  0.623558  0.910134  1
  La  La3  1  0.375640  0.251184  0.946487  1
  La  La4  1  0.249454  0.625328  0.767918  1
  La  La5  1  0.126667  0.750820  0.696842  1
  La  La6  1  0.623984  0.374147  0.892173  1
  La  La7  1  0.374304  0.249765  0.803493  1
  La  La8  1  0.747382  0.870274  0.874012  1
  La  La9  1  0.121964  0.749516  0.552641  1
  La  La10  1  0.876891  0.126196  0.964458  1
  La  La11  1  0.252378  0.630130  0.626079  1
  La  La12  1  0.750754  0.875961  0.732593  1
  La  La13  1  0.375704  0.250701  0.661155  1
  La  La14  1  0.624653  0.374812  0.750186  1
  La  La15  1  0.874067  0.124959  0.821098  1
  La  La16  1  0.237387  0.614487  0.477999  1
  La  La17  1  0.367729  0.248558  0.516046  1
  La  La18  1  0.751970  0.877375  0.589592  1
  La  La19  1  0.628568  0.377029  0.607580  1
  La  La20  1  0.879727  0.128855  0.679124  1
  La  La21  1  0.235329  0.619954  0.338190  1
  La  La22  1  0.737224  0.855104  0.441553  1
  La  La23  1  0.360531  0.242807  0.372130  1
  La  La24  1  0.607679  0.348822  0.460983  1
  La  La25  1  0.875868  0.124034  0.535312  1
  La  La26  1  0.243804  0.633769  0.197824  1
  La  La27  1  0.746623  0.869040  0.301333  1
  La  La28  1  0.378166  0.250138  0.232802  1
  La  La29  1  0.623397  0.362825  0.321180  1
  La  La30  1  0.879107  0.126813  0.391844  1
  La  La31  1  0.251658  0.640698  0.057714  1
  La  La32  1  0.752479  0.880584  0.161209  1
  La  La33  1  0.391508  0.257743  0.093128  1
  La  La34  1  0.626950  0.369173  0.180277  1
  La  La35  1  0.885998  0.136269  0.251271  1
  La  La36  1  0.754539  0.884186  0.019069  1
  La  La37  1  0.639027  0.386236  0.038752  1
  La  La38  1  0.892995  0.140010  0.110606  1
  Se  Se39  1  0.999350  0.850364  0.928471  1
  Se  Se40  1  0.998888  0.350134  0.928432  1
  Se  Se41  1  0.498647  0.000817  0.977740  1
  Se  Se42  1  0.000116  0.848867  0.785795  1
  Se  Se43  1  0.150626  0.151022  0.878847  1
  Se  Se44  1  0.000282  0.348835  0.785752  1
  Se  Se45  1  0.349043  0.500699  0.857350  1
  Se  Se46  1  0.647472  0.647845  0.949344  1
  Se  Se47  1  0.999056  0.848848  0.642896  1
  Se  Se48  1  0.999764  0.348371  0.642781  1
  Se  Se49  1  0.150392  0.150354  0.735822  1
  Se  Se50  1  0.500713  0.000420  0.906999  1
  Se  Se51  1  0.348766  0.500151  0.714199  1
  Se  Se52  1  0.651403  0.651165  0.807427  1
  Se  Se53  1  0.500270  0.000371  0.835701  1
  Se  Se54  1  0.004317  0.857769  0.501155  1
  Se  Se55  1  0.849013  0.499909  0.857264  1
  Se  Se56  1  0.499193  0.999237  0.764090  1
  Se  Se57  1  0.153653  0.153360  0.593564  1
  Se  Se58  1  0.003814  0.359169  0.501254  1
  Se  Se59  1  0.354250  0.501443  0.571882  1
  Se  Se60  1  0.650823  0.650636  0.664293  1
  Se  Se61  1  0.499189  0.999847  0.692617  1
  Se  Se62  1  0.996197  0.854715  0.356010  1
  Se  Se63  1  0.848300  0.499089  0.714179  1
  Se  Se64  1  0.500223  0.000122  0.621545  1
  Se  Se65  1  0.158462  0.164824  0.452837  1
  Se  Se66  1  0.001324  0.343838  0.357383  1
  Se  Se67  1  0.358899  0.498228  0.429664  1
  Se  Se68  1  0.503869  0.004015  0.551463  1
  Se  Se69  1  0.656739  0.658692  0.522942  1
  Se  Se70  1  0.993676  0.851754  0.212439  1
  Se  Se71  1  0.854677  0.501703  0.571989  1
  Se  Se72  1  0.512922  0.009152  0.481723  1
  Se  Se73  1  0.155522  0.157991  0.308107  1
  Se  Se74  1  0.999604  0.341558  0.213640  1
  Se  Se75  1  0.359767  0.494263  0.286505  1
  Se  Se76  1  0.503868  0.002211  0.407219  1
  Se  Se77  1  0.636481  0.647618  0.377718  1
  Se  Se78  1  0.993190  0.851807  0.069535  1
  Se  Se79  1  0.846390  0.502148  0.429751  1
  Se  Se80  1  0.148891  0.152131  0.164302  1
  Se  Se81  1  0.508313  0.004147  0.338080  1
  Se  Se82  1  0.994465  0.335556  0.069483  1
  Se  Se83  1  0.357080  0.492677  0.143074  1
  Se  Se84  1  0.502890  0.001434  0.263634  1
  Se  Se85  1  0.632774  0.643236  0.233970  1
  Se  Se86  1  0.842609  0.498448  0.285858  1
  Se  Se87  1  0.509181  0.004216  0.194509  1
  Se  Se88  1  0.144286  0.141115  0.019252  1
  Se  Se89  1  0.351960  0.497095  0.999439  1
  Se  Se90  1  0.500726  0.998460  0.119690  1
  Se  Se91  1  0.632602  0.639037  0.090767  1
  Se  Se92  1  0.841532  0.495531  0.142135  1
  Se  Se93  1  0.495030  0.995778  0.048417  1
  Se  Se94  1  0.849799  0.496003  0.999044  1
