# generated using pymatgen
data_InAgSe2
_symmetry_space_group_name_H-M   'P 1'
_cell_length_a   8.04516541
_cell_length_b   10.68752234
_cell_length_c   7.02392552
_cell_angle_alpha   29.15481842
_cell_angle_beta   54.99552362
_cell_angle_gamma   41.03887454
_symmetry_Int_Tables_number   1
_chemical_formula_structural   InAgSe2
_chemical_formula_sum   'In2 Ag2 Se4'
_cell_volume   186.22061474
_cell_formula_units_Z   2
loop_
 _symmetry_equiv_pos_site_id
 _symmetry_equiv_pos_as_xyz
  1  'x, y, z'
loop_
 _atom_site_type_symbol
 _atom_site_label
 _atom_site_symmetry_multiplicity
 _atom_site_fract_x
 _atom_site_fract_y
 _atom_site_fract_z
 _atom_site_occupancy
  In  In0  1  0.127192  0.499987  0.753338  1
  In  In1  1  0.377539  0.000866  0.752278  1
  Ag  Ag2  1  0.623011  0.496083  0.759703  1
  Ag  Ag3  1  0.868216  0.002315  0.754571  1
  Se  Se4  1  0.134686  0.000419  0.230249  1
  Se  Se5  1  0.611320  0.996358  0.280634  1
  Se  Se6  1  0.357389  0.504589  0.272349  1
  Se  Se7  1  0.886230  0.496156  0.234697  1
