# generated using pymatgen
data_Li25Ca5La7Nb8O48
_symmetry_space_group_name_H-M   'P 1'
_cell_length_a   11.32710243
_cell_length_b   11.32551493
_cell_length_c   11.12980300
_cell_angle_alpha   108.33856011
_cell_angle_beta   109.54212080
_cell_angle_gamma   110.22389670
_symmetry_Int_Tables_number   1
_chemical_formula_structural   Li25Ca5La7Nb8O48
_chemical_formula_sum   'Li25 Ca5 La7 Nb8 O48'
_cell_volume   1103.05621220
_cell_formula_units_Z   1
loop_
 _symmetry_equiv_pos_site_id
 _symmetry_equiv_pos_as_xyz
  1  'x, y, z'
loop_
 _atom_site_type_symbol
 _atom_site_label
 _atom_site_symmetry_multiplicity
 _atom_site_fract_x
 _atom_site_fract_y
 _atom_site_fract_z
 _atom_site_occupancy
  Li  Li0  1  0.250585  0.628224  0.384588  1
  Li  Li1  1  0.364685  0.230561  0.619162  1
  Li  Li2  1  0.535858  0.726403  0.381608  1
  Li  Li3  1  0.684985  0.649183  0.295321  1
  Li  Li4  1  0.728176  0.904794  0.322504  1
  Li  Li5  1  0.295659  0.140338  -0.099316  1
  Li  Li6  1  0.483332  0.415864  0.157751  1
  Li  Li7  1  0.814454  0.884943  0.141271  1
  Li  Li8  1  0.848251  0.483745  0.680705  1
  Li  Li9  1  0.651989  0.354309  0.243218  1
  Li  Li10  1  0.836932  0.279470  0.705750  1
  Li  Li11  1  0.585274  0.328969  0.463167  1
  Li  Li12  1  0.606977  0.316239  0.667692  1
  Li  Li13  1  0.884099  0.431248  0.256910  1
  Li  Li14  1  0.066277  0.088869  0.805690  1
  Li  Li15  1  0.772028  0.967808  0.561104  1
  Li  Li16  1  0.136228  0.753185  0.877577  1
  Li  Li17  1  0.658890  0.522739  0.430987  1
  Li  Li18  1  0.483050  0.709726  0.865404  1
  Li  Li19  1  0.899601  0.144332  0.780100  1
  Li  Li20  1  0.847791  0.131978  0.946529  1
  Li  Li21  1  0.145034  0.889022  0.268608  1
  Li  Li22  1  0.572152  0.721760  0.100163  1
  Li  Li23  1  0.845534  0.152884  0.163870  1
  Li  Li24  1  0.006733  0.368675  0.146240  1
  Ca  Ca25  1  0.132670  0.249085  0.379031  1
  Ca  Ca26  1  0.631899  0.241488  0.898498  1
  Ca  Ca27  1  0.767448  0.636489  0.876627  1
  Ca  Ca28  1  0.763968  0.170796  0.393385  1
  Ca  Ca29  1  0.898289  0.652284  0.244695  1
  La  La30  1  0.153454  0.385684  0.762383  1
  La  La31  1  0.262535  0.880333  0.634743  1
  La  La32  1  0.614347  0.859071  0.730135  1
  La  La33  1  0.231986  0.370509  0.121602  1
  La  La34  1  0.364228  0.759157  0.139958  1
  La  La35  1  0.356225  0.102606  0.210741  1
  La  La36  1  0.900051  0.766721  0.628020  1
  Nb  Nb37  1  0.022066  0.018647  0.507198  1
  Nb  Nb38  1  -0.002709  0.983607  -0.000609  1
  Nb  Nb39  1  0.481064  0.499995  0.524049  1
  Nb  Nb40  1  0.514935  0.013782  0.509917  1
  Nb  Nb41  1  0.515406  0.474137  0.965224  1
  Nb  Nb42  1  0.512665  -0.004747  0.003755  1
  Nb  Nb43  1  0.040434  0.510634  0.529409  1
  Nb  Nb44  1  0.001256  0.524334  0.006284  1
  O  O45  1  0.110807  0.980858  0.682390  1
  O  O46  1  0.020343  0.330261  0.923869  1
  O  O47  1  0.131583  0.600055  0.931159  1
  O  O48  1  0.084761  0.699049  0.676078  1
  O  O49  1  0.085554  0.895384  0.415458  1
  O  O50  1  0.089768  0.611246  0.420282  1
  O  O51  1  0.194460  0.483124  0.603804  1
  O  O52  1  0.432590  0.832274  0.802686  1
  O  O53  1  0.326058  0.332517  0.939973  1
  O  O54  1  0.407068  0.572100  0.914282  1
  O  O55  1  0.012520  0.196088  0.122848  1
  O  O56  1  0.345370  0.932333  0.309566  1
  O  O57  1  0.182162  0.210120  0.584420  1
  O  O58  1  0.186366  0.570483  0.179964  1
  O  O59  1  0.418939  0.831214  0.523709  1
  O  O60  1  0.300008  0.467994  0.382585  1
  O  O61  1  0.332884  0.907007  0.025877  1
  O  O62  1  0.118755  0.022197  0.194522  1
  O  O63  1  0.424117  0.077629  0.890728  1
  O  O64  1  0.526307  0.619736  0.712454  1
  O  O65  1  0.543794  0.389568  0.811639  1
  O  O66  1  0.400669  0.303262  0.488765  1
  O  O67  1  0.601151  0.920662  0.395812  1
  O  O68  1  0.184457  0.118666  0.009141  1
  O  O69  1  0.802167  0.878799  0.967218  1
  O  O70  1  0.447807  0.104300  0.631399  1
  O  O71  1  0.614959  0.679450  0.521829  1
  O  O72  1  0.490934  0.607829  0.190676  1
  O  O73  1  0.482378  0.361410  0.298055  1
  O  O74  1  0.584967  0.889101  0.103861  1
  O  O75  1  0.886275  0.985054  0.804129  1
  O  O76  1  0.688843  0.090049  0.982842  1
  O  O77  1  0.691216  0.515308  0.611974  1
  O  O78  1  0.616784  0.192357  0.499530  1
  O  O79  1  0.818965  0.432718  0.820773  1
  O  O80  1  0.827751  0.842751  0.441367  1
  O  O81  1  0.699772  0.082326  0.697859  1
  O  O82  1  0.981538  0.805403  0.880773  1
  O  O83  1  0.705026  0.670071  0.080775  1
  O  O84  1  0.618573  0.421504  0.099560  1
  O  O85  1  0.591023  0.161177  0.200901  1
  O  O86  1  0.812237  0.559029  0.396332  1
  O  O87  1  0.935700  0.391894  0.606770  1
  O  O88  1  0.960842  0.134749  0.642834  1
  O  O89  1  0.919034  0.321569  0.339663  1
  O  O90  1  0.877172  0.425066  0.084515  1
  O  O91  1  0.992460  0.692412  0.097699  1
  O  O92  1  0.904393  0.039466  0.340003  1
