# generated using pymatgen
data_Sr20Ta8O39
_symmetry_space_group_name_H-M   'P 1'
_cell_length_a   5.95437760
_cell_length_b   6.01903393
_cell_length_c   41.66179585
_cell_angle_alpha   58.15007334
_cell_angle_beta   59.93906782
_cell_angle_gamma   60.27507335
_symmetry_Int_Tables_number   1
_chemical_formula_structural   Sr20Ta8O39
_chemical_formula_sum   'Sr20 Ta8 O39'
_cell_volume   1041.88177426
_cell_formula_units_Z   1
loop_
 _symmetry_equiv_pos_site_id
 _symmetry_equiv_pos_as_xyz
  1  'x, y, z'
loop_
 _atom_site_type_symbol
 _atom_site_label
 _atom_site_symmetry_multiplicity
 _atom_site_fract_x
 _atom_site_fract_y
 _atom_site_fract_z
 _atom_site_occupancy
  Sr  Sr0  1  0.248278  0.261264  0.033580  1
  Sr  Sr1  1  0.300761  0.221803  0.167947  1
  Sr  Sr2  1  0.506627  0.440228  0.218793  1
  Sr  Sr3  1  0.148409  0.286898  0.328826  1
  Sr  Sr4  1  0.746461  0.726121  0.109015  1
  Sr  Sr5  1  0.460962  0.557182  0.347513  1
  Sr  Sr6  1  0.193072  0.281644  0.454280  1
  Sr  Sr7  1  0.767484  0.721886  0.238366  1
  Sr  Sr8  1  0.452474  0.445040  0.509383  1
  Sr  Sr9  1  0.163475  0.274466  0.617177  1
  Sr  Sr10  1  0.654235  0.699680  0.403809  1
  Sr  Sr11  1  0.480344  0.545441  0.634868  1
  Sr  Sr12  1  0.237804  0.219703  0.741041  1
  Sr  Sr13  1  0.736335  0.726947  0.526226  1
  Sr  Sr14  1  0.162434  0.272338  0.906267  1
  Sr  Sr15  1  0.470984  0.429844  0.797910  1
  Sr  Sr16  1  0.655418  0.691373  0.693706  1
  Sr  Sr17  1  0.485712  0.556919  0.923818  1
  Sr  Sr18  1  0.749080  0.715363  0.814269  1
  Sr  Sr19  1  0.695448  0.771433  0.975824  1
  Ta  Ta20  1  0.971303  0.006542  0.004044  1
  Ta  Ta21  1  0.497999  0.495306  0.071777  1
  Ta  Ta22  1  0.007427  0.984079  0.139466  1
  Ta  Ta23  1  0.045327  0.000148  0.283204  1
  Ta  Ta24  1  0.940023  0.000234  0.428077  1
  Ta  Ta25  1  0.021794  0.007077  0.572493  1
  Ta  Ta26  1  0.961093  0.980206  0.715965  1
  Ta  Ta27  1  0.036610  0.998889  0.859750  1
  O  O28  1  0.263778  0.230229  0.106004  1
  O  O29  1  0.225998  0.755982  0.039458  1
  O  O30  1  0.734676  0.267025  0.035386  1
  O  O31  1  0.261406  0.723559  0.108243  1
  O  O32  1  0.202699  0.757465  0.179167  1
  O  O33  1  0.371685  0.005372  0.283315  1
  O  O34  1  0.719758  0.761631  0.040454  1
  O  O35  1  0.781448  0.241750  0.100643  1
  O  O36  1  0.299420  0.679028  0.265952  1
  O  O37  1  0.738103  0.227768  0.171198  1
  O  O38  1  0.131947  0.296437  0.396553  1
  O  O39  1  0.743259  0.773646  0.170221  1
  O  O40  1  0.948095  0.223280  0.235806  1
  O  O41  1  0.841825  0.318975  0.301350  1
  O  O42  1  0.216283  0.833777  0.386943  1
  O  O43  1  0.182515  0.747726  0.463374  1
  O  O44  1  0.683888  0.253743  0.396536  1
  O  O45  1  0.839125  0.770689  0.329547  1
  O  O46  1  0.264809  0.703216  0.551957  1
  O  O47  1  0.689052  0.179937  0.468435  1
  O  O48  1  0.226039  0.209886  0.679900  1
  O  O49  1  0.357335  0.987065  0.574248  1
  O  O50  1  0.754968  0.717926  0.456020  1
  O  O51  1  0.890256  0.235098  0.527718  1
  O  O52  1  0.196085  0.746187  0.683823  1
  O  O53  1  0.855771  0.337861  0.586770  1
  O  O54  1  0.188628  0.736396  0.753533  1
  O  O55  1  0.818616  0.785441  0.619753  1
  O  O56  1  0.737273  0.248746  0.680327  1
  O  O57  1  0.280393  0.674461  0.843377  1
  O  O58  1  0.747424  0.210007  0.750565  1
  O  O59  1  0.224665  0.231201  0.965934  1
  O  O60  1  0.368266  0.991616  0.860461  1
  O  O61  1  0.693182  0.775716  0.749391  1
  O  O62  1  0.929712  0.219015  0.813063  1
  O  O63  1  0.182630  0.761080  0.972528  1
  O  O64  1  0.851625  0.324224  0.875872  1
  O  O65  1  0.729590  0.223345  0.970445  1
  O  O66  1  0.825402  0.780436  0.907622  1
