# generated using pymatgen
data_SiO2
_symmetry_space_group_name_H-M   'P 1'
_cell_length_a   16.13921619
_cell_length_b   9.28195245
_cell_length_c   8.63588480
_cell_angle_alpha   90.00000000
_cell_angle_beta   90.00000000
_cell_angle_gamma   90.00000000
_symmetry_Int_Tables_number   1
_chemical_formula_structural   SiO2
_chemical_formula_sum   'Si24 O48'
_cell_volume   1293.68522679
_cell_formula_units_Z   24
loop_
 _symmetry_equiv_pos_site_id
 _symmetry_equiv_pos_as_xyz
  1  'x, y, z'
loop_
 _atom_site_type_symbol
 _atom_site_label
 _atom_site_symmetry_multiplicity
 _atom_site_fract_x
 _atom_site_fract_y
 _atom_site_fract_z
 _atom_site_occupancy
  Si  Si0  1  0.169723  0.664609  0.437138  1
  Si  Si1  1  0.169723  0.335391  0.562862  1
  Si  Si2  1  0.830277  0.664609  0.062862  1
  Si  Si3  1  0.830277  0.335391  0.937138  1
  Si  Si4  1  0.830277  0.335391  0.562862  1
  Si  Si5  1  0.830277  0.664609  0.437138  1
  Si  Si6  1  0.169723  0.335391  0.937138  1
  Si  Si7  1  0.169723  0.664609  0.062862  1
  Si  Si8  1  0.669723  0.164609  0.437138  1
  Si  Si9  1  0.669723  0.835391  0.562862  1
  Si  Si10  1  0.330277  0.164609  0.062862  1
  Si  Si11  1  0.330277  0.835391  0.937138  1
  Si  Si12  1  0.330277  0.835391  0.562862  1
  Si  Si13  1  0.330277  0.164609  0.437138  1
  Si  Si14  1  0.669723  0.835391  0.937138  1
  Si  Si15  1  0.669723  0.164609  0.062862  1
  Si  Si16  1  0.000000  0.335078  0.437035  1
  Si  Si17  1  0.000000  0.664922  0.562965  1
  Si  Si18  1  0.000000  0.335078  0.062965  1
  Si  Si19  1  0.000000  0.664922  0.937035  1
  Si  Si20  1  0.500000  0.835078  0.437035  1
  Si  Si21  1  0.500000  0.164922  0.562965  1
  Si  Si22  1  0.500000  0.835078  0.062965  1
  Si  Si23  1  0.500000  0.164922  0.937035  1
  O  O24  1  0.084506  0.742820  0.499319  1
  O  O25  1  0.084506  0.257180  0.500681  1
  O  O26  1  0.915494  0.742820  0.000681  1
  O  O27  1  0.915494  0.257180  0.999319  1
  O  O28  1  0.915494  0.257180  0.500681  1
  O  O29  1  0.915494  0.742820  0.499319  1
  O  O30  1  0.084506  0.257180  0.999319  1
  O  O31  1  0.084506  0.742820  0.000681  1
  O  O32  1  0.584506  0.242820  0.499319  1
  O  O33  1  0.584506  0.757180  0.500681  1
  O  O34  1  0.415494  0.242820  0.000681  1
  O  O35  1  0.415494  0.757180  0.999319  1
  O  O36  1  0.415494  0.757180  0.500681  1
  O  O37  1  0.415494  0.242820  0.499319  1
  O  O38  1  0.584506  0.757180  0.999319  1
  O  O39  1  0.584506  0.242820  0.000681  1
  O  O40  1  0.174967  0.500000  0.500000  1
  O  O41  1  0.825033  0.500000  0.000000  1
  O  O42  1  0.825033  0.500000  0.500000  1
  O  O43  1  0.174967  0.500000  0.000000  1
  O  O44  1  0.674967  0.000000  0.500000  1
  O  O45  1  0.325033  0.000000  0.000000  1
  O  O46  1  0.325033  0.000000  0.500000  1
  O  O47  1  0.674967  0.000000  0.000000  1
  O  O48  1  0.169625  0.665330  0.250000  1
  O  O49  1  0.169625  0.334670  0.750000  1
  O  O50  1  0.830375  0.665330  0.250000  1
  O  O51  1  0.830375  0.334670  0.750000  1
  O  O52  1  0.669625  0.165330  0.250000  1
  O  O53  1  0.669625  0.834670  0.750000  1
  O  O54  1  0.330375  0.165330  0.250000  1
  O  O55  1  0.330375  0.834670  0.750000  1
  O  O56  1  0.250000  0.750000  0.500000  1
  O  O57  1  0.250000  0.250000  0.500000  1
  O  O58  1  0.750000  0.750000  0.000000  1
  O  O59  1  0.750000  0.250000  0.000000  1
  O  O60  1  0.750000  0.250000  0.500000  1
  O  O61  1  0.750000  0.750000  0.500000  1
  O  O62  1  0.250000  0.250000  0.000000  1
  O  O63  1  0.250000  0.750000  0.000000  1
  O  O64  1  0.000000  0.332563  0.250000  1
  O  O65  1  0.000000  0.667437  0.750000  1
  O  O66  1  0.500000  0.832563  0.250000  1
  O  O67  1  0.500000  0.167437  0.750000  1
  O  O68  1  0.000000  0.500000  0.500000  1
  O  O69  1  0.000000  0.500000  0.000000  1
  O  O70  1  0.500000  0.000000  0.500000  1
  O  O71  1  0.500000  0.000000  0.000000  1
