# generated using pymatgen
data_Fe(Mo3Se4)2
_symmetry_space_group_name_H-M   'P 1'
_cell_length_a   13.71290325
_cell_length_b   6.83679455
_cell_length_c   9.61508880
_cell_angle_alpha   95.83071425
_cell_angle_beta   45.15516112
_cell_angle_gamma   93.25964215
_symmetry_Int_Tables_number   1
_chemical_formula_structural   Fe(Mo3Se4)2
_chemical_formula_sum   'Fe2 Mo12 Se16'
_cell_volume   635.68960532
_cell_formula_units_Z   2
loop_
 _symmetry_equiv_pos_site_id
 _symmetry_equiv_pos_as_xyz
  1  'x, y, z'
loop_
 _atom_site_type_symbol
 _atom_site_label
 _atom_site_symmetry_multiplicity
 _atom_site_fract_x
 _atom_site_fract_y
 _atom_site_fract_z
 _atom_site_occupancy
  Fe  Fe0  1  0.261740  0.883019  0.964881  1
  Fe  Fe1  1  0.738260  0.116981  0.035119  1
  Mo  Mo2  1  0.093524  0.542872  0.232550  1
  Mo  Mo3  1  0.071334  0.235768  0.409102  1
  Mo  Mo4  1  0.156303  0.582504  0.452710  1
  Mo  Mo5  1  0.345569  0.417632  0.546854  1
  Mo  Mo6  1  0.597251  0.531821  0.227718  1
  Mo  Mo7  1  0.432429  0.766715  0.582924  1
  Mo  Mo8  1  0.567571  0.233285  0.417076  1
  Mo  Mo9  1  0.402749  0.468179  0.772282  1
  Mo  Mo10  1  0.654431  0.582368  0.453146  1
  Mo  Mo11  1  0.843697  0.417496  0.547290  1
  Mo  Mo12  1  0.928666  0.764232  0.590898  1
  Mo  Mo13  1  0.906476  0.457128  0.767450  1
  Se  Se14  1  0.010186  0.206989  0.210574  1
  Se  Se15  1  0.179415  0.873674  0.284263  1
  Se  Se16  1  0.309238  0.373003  0.119365  1
  Se  Se17  1  0.127914  0.272834  0.614943  1
  Se  Se18  1  0.379718  0.722762  0.374631  1
  Se  Se19  1  0.178768  0.620258  0.885555  1
  Se  Se20  1  0.501907  0.202175  0.212912  1
  Se  Se21  1  0.318835  0.133834  0.735938  1
  Se  Se22  1  0.681165  0.866166  0.264062  1
  Se  Se23  1  0.498093  0.797825  0.787088  1
  Se  Se24  1  0.821232  0.379742  0.114445  1
  Se  Se25  1  0.620282  0.277238  0.625369  1
  Se  Se26  1  0.872086  0.727166  0.385057  1
  Se  Se27  1  0.690762  0.626997  0.880635  1
  Se  Se28  1  0.820585  0.126326  0.715737  1
  Se  Se29  1  0.989814  0.793011  0.789426  1
