# generated using pymatgen
data_Cs2NiH12(SO7)2
_symmetry_space_group_name_H-M   'P 1'
_cell_length_a   6.43421106
_cell_length_b   9.29136446
_cell_length_c   12.86981839
_cell_angle_alpha   90.00000000
_cell_angle_beta   90.00000000
_cell_angle_gamma   106.29604478
_symmetry_Int_Tables_number   1
_chemical_formula_structural   Cs2NiH12(SO7)2
_chemical_formula_sum   'Cs4 Ni2 H24 S4 O28'
_cell_volume   738.48065417
_cell_formula_units_Z   2
loop_
 _symmetry_equiv_pos_site_id
 _symmetry_equiv_pos_as_xyz
  1  'x, y, z'
loop_
 _atom_site_type_symbol
 _atom_site_label
 _atom_site_symmetry_multiplicity
 _atom_site_fract_x
 _atom_site_fract_y
 _atom_site_fract_z
 _atom_site_occupancy
  Ni  Ni0  1  0.000000  0.000000  0.000000  1
  Ni  Ni1  1  0.000000  0.500000  0.500000  1
  S  S2  1  0.740960  0.394755  0.148253  1
  S  S3  1  0.259040  0.105245  0.648253  1
  S  S4  1  0.259040  0.605245  0.851747  1
  S  S5  1  0.740960  0.894755  0.351747  1
  O  O6  1  0.613321  0.418172  0.240354  1
  O  O7  1  0.386679  0.081828  0.740354  1
  O  O8  1  0.386679  0.581828  0.759646  1
  O  O9  1  0.613321  0.918172  0.259646  1
  O  O10  1  0.797418  0.531904  0.082159  1
  O  O11  1  0.202582  0.968096  0.582159  1
  O  O12  1  0.202582  0.468096  0.917841  1
  O  O13  1  0.797418  0.031904  0.417841  1
  O  O14  1  0.603535  0.266911  0.085560  1
  O  O15  1  0.396465  0.233089  0.585560  1
  O  O16  1  0.396465  0.733089  0.914440  1
  O  O17  1  0.603535  0.766911  0.414440  1
  O  O18  1  0.942293  0.357994  0.183969  1
  O  O19  1  0.057707  0.142006  0.683969  1
  O  O20  1  0.057707  0.642006  0.816031  1
  O  O21  1  0.942293  0.857994  0.316031  1
  O  O22  1  0.158481  0.157324  0.112251  1
  O  O23  1  0.841519  0.342676  0.612251  1
  O  O24  1  0.841519  0.842676  0.887749  1
  O  O25  1  0.158481  0.657324  0.387749  1
  O  O26  1  0.015034  0.829432  0.107502  1
  O  O27  1  0.984966  0.670568  0.607502  1
  O  O28  1  0.984966  0.170568  0.892498  1
  O  O29  1  0.015034  0.329432  0.392498  1
  O  O30  1  0.290994  0.998443  0.937145  1
  O  O31  1  0.709006  0.501557  0.437145  1
  O  O32  1  0.709006  0.001557  0.062855  1
  O  O33  1  0.290994  0.498443  0.562855  1
  Cs  Cs34  1  0.351360  0.127377  0.355825  1
  Cs  Cs35  1  0.648640  0.372623  0.855825  1
  Cs  Cs36  1  0.648640  0.872623  0.644175  1
  Cs  Cs37  1  0.351360  0.627377  0.144175  1
  H  H38  1  0.314164  0.206921  0.098390  1
  H  H39  1  0.685836  0.293079  0.598390  1
  H  H40  1  0.685836  0.793079  0.901610  1
  H  H41  1  0.314164  0.706921  0.401610  1
  H  H42  1  0.083692  0.234114  0.129994  1
  H  H43  1  0.916308  0.265886  0.629994  1
  H  H44  1  0.916308  0.765886  0.870006  1
  H  H45  1  0.083692  0.734114  0.370006  1
  H  H46  1  0.926611  0.724435  0.095312  1
  H  H47  1  0.073389  0.775565  0.595312  1
  H  H48  1  0.073389  0.275565  0.904688  1
  H  H49  1  0.926611  0.224435  0.404688  1
  H  H50  1  0.988171  0.850538  0.181478  1
  H  H51  1  0.011829  0.649462  0.681478  1
  H  H52  1  0.011829  0.149462  0.818522  1
  H  H53  1  0.988171  0.350538  0.318522  1
  H  H54  1  0.329308  0.902225  0.940795  1
  H  H55  1  0.670692  0.597775  0.440795  1
  H  H56  1  0.670692  0.097775  0.059205  1
  H  H57  1  0.329308  0.402225  0.559205  1
  H  H58  1  0.307266  0.026025  0.862060  1
  H  H59  1  0.692734  0.473975  0.362060  1
  H  H60  1  0.692734  0.973975  0.137940  1
  H  H61  1  0.307266  0.526025  0.637940  1
