# generated using pymatgen
data_NaY2F7
_symmetry_space_group_name_H-M   'P 1'
_cell_length_a   3.98985208
_cell_length_b   3.97561961
_cell_length_c   13.43745760
_cell_angle_alpha   54.40801118
_cell_angle_beta   63.74493664
_cell_angle_gamma   59.95542414
_symmetry_Int_Tables_number   1
_chemical_formula_structural   NaY2F7
_chemical_formula_sum   'Na1 Y2 F7'
_cell_volume   146.54685710
_cell_formula_units_Z   1
loop_
 _symmetry_equiv_pos_site_id
 _symmetry_equiv_pos_as_xyz
  1  'x, y, z'
loop_
 _atom_site_type_symbol
 _atom_site_label
 _atom_site_symmetry_multiplicity
 _atom_site_fract_x
 _atom_site_fract_y
 _atom_site_fract_z
 _atom_site_occupancy
  Na  Na0  1  0.989728  0.006745  0.659665  1
  Y  Y1  1  0.108559  0.888766  0.952148  1
  Y  Y2  1  0.857317  0.125818  0.366743  1
  F  F3  1  0.415649  0.149672  0.993643  1
  F  F4  1  0.157547  0.379847  0.415896  1
  F  F5  1  0.978357  0.507171  0.159287  1
  F  F6  1  0.550260  0.864592  0.325156  1
  F  F7  1  0.252673  0.198882  0.751959  1
  F  F8  1  0.717308  0.815797  0.567073  1
  F  F9  1  0.808601  0.634708  0.903097  1
