# generated using pymatgen
data_LiCo2(PO3)5
_symmetry_space_group_name_H-M   'P 1'
_cell_length_a   12.84757669
_cell_length_b   8.71602070
_cell_length_c   5.27513347
_cell_angle_alpha   90.00000000
_cell_angle_beta   93.11663818
_cell_angle_gamma   90.00000000
_symmetry_Int_Tables_number   1
_chemical_formula_structural   LiCo2(PO3)5
_chemical_formula_sum   'Li2 Co4 P10 O30'
_cell_volume   589.83439564
_cell_formula_units_Z   2
loop_
 _symmetry_equiv_pos_site_id
 _symmetry_equiv_pos_as_xyz
  1  'x, y, z'
loop_
 _atom_site_type_symbol
 _atom_site_label
 _atom_site_symmetry_multiplicity
 _atom_site_fract_x
 _atom_site_fract_y
 _atom_site_fract_z
 _atom_site_occupancy
  Li  Li0  1  0.449881  0.000785  0.571626  1
  Li  Li1  1  0.949881  0.999215  0.071626  1
  Co  Co2  1  0.552203  0.301157  0.619648  1
  Co  Co3  1  0.052203  0.698843  0.119648  1
  Co  Co4  1  0.955749  0.303188  0.872964  1
  Co  Co5  1  0.455749  0.696812  0.372964  1
  P  P6  1  0.909287  0.823109  0.581539  1
  P  P7  1  0.090548  0.182381  0.413368  1
  P  P8  1  0.861082  0.504567  0.398242  1
  P  P9  1  0.409287  0.176891  0.081539  1
  P  P10  1  0.590548  0.817619  0.913368  1
  P  P11  1  0.141871  0.498180  0.605237  1
  P  P12  1  0.250331  0.951973  0.251280  1
  P  P13  1  0.361082  0.495433  0.898242  1
  P  P14  1  0.641871  0.501820  0.105237  1
  P  P15  1  0.750331  0.048027  0.751280  1
  O  O16  1  0.465463  0.168922  0.338873  1
  O  O17  1  0.309314  0.067346  0.060494  1
  O  O18  1  0.028115  0.153644  0.638869  1
  O  O19  1  0.561641  0.509210  0.304945  1
  O  O20  1  0.855995  0.657621  0.564423  1
  O  O21  1  0.145328  0.347353  0.433756  1
  O  O22  1  0.190595  0.072373  0.429309  1
  O  O23  1  0.833000  0.120912  0.925663  1
  O  O24  1  0.645328  0.652647  0.933756  1
  O  O25  1  0.355995  0.342379  0.064423  1
  O  O26  1  0.535813  0.825115  0.653353  1
  O  O27  1  0.942947  0.512894  0.202637  1
  O  O28  1  0.965463  0.831078  0.838873  1
  O  O29  1  0.690595  0.927627  0.929309  1
  O  O30  1  0.673702  0.137456  0.587968  1
  O  O31  1  0.751997  0.509803  0.248574  1
  O  O32  1  0.639302  0.368406  0.927346  1
  O  O33  1  0.361814  0.625470  0.081514  1
  O  O34  1  0.528115  0.846356  0.138869  1
  O  O35  1  0.442947  0.487106  0.702637  1
  O  O36  1  0.251997  0.490197  0.748574  1
  O  O37  1  0.861814  0.374530  0.581514  1
  O  O38  1  0.061641  0.490790  0.804945  1
  O  O39  1  0.468421  0.149118  0.847372  1
  O  O40  1  0.968421  0.850882  0.347372  1
  O  O41  1  0.173702  0.862544  0.087968  1
  O  O42  1  0.333000  0.879088  0.425663  1
  O  O43  1  0.809314  0.932654  0.560494  1
  O  O44  1  0.139302  0.631594  0.427346  1
  O  O45  1  0.035813  0.174885  0.153353  1
