# generated using pymatgen
data_LiAlH16(CN)4
_symmetry_space_group_name_H-M   'P 1'
_cell_length_a   11.11134626
_cell_length_b   11.11134626
_cell_length_c   11.11134626
_cell_angle_alpha   100.44470269
_cell_angle_beta   100.44470269
_cell_angle_gamma   129.60022656
_symmetry_Int_Tables_number   1
_chemical_formula_structural   LiAlH16(CN)4
_chemical_formula_sum   'Li4 Al4 H64 C16 N16'
_cell_volume   956.41132881
_cell_formula_units_Z   4
loop_
 _symmetry_equiv_pos_site_id
 _symmetry_equiv_pos_as_xyz
  1  'x, y, z'
loop_
 _atom_site_type_symbol
 _atom_site_label
 _atom_site_symmetry_multiplicity
 _atom_site_fract_x
 _atom_site_fract_y
 _atom_site_fract_z
 _atom_site_occupancy
  Li  Li0  1  0.089349  0.916174  0.846761  1
  Li  Li1  1  0.069413  0.242588  0.153239  1
  Li  Li2  1  0.992588  0.339349  0.673175  1
  Li  Li3  1  0.666174  0.319413  0.326825  1
  Al  Al4  1  0.934360  0.602235  0.650947  1
  Al  Al5  1  0.951288  0.283413  0.349053  1
  Al  Al6  1  0.033413  0.184360  0.832126  1
  Al  Al7  1  0.352235  0.201288  0.167874  1
  H  H8  1  0.203071  0.758647  0.845969  1
  H  H9  1  0.912677  0.357102  0.154031  1
  H  H10  1  0.107102  0.453071  0.944425  1
  H  H11  1  0.508647  0.162677  0.055575  1
  H  H12  1  0.962770  0.549161  0.434988  1
  H  H13  1  0.114173  0.527783  0.565012  1
  H  H14  1  0.277783  0.212770  0.913610  1
  H  H15  1  0.299161  0.364173  0.086390  1
  H  H16  1  0.727503  0.299051  0.575773  1
  H  H17  1  0.723278  0.151729  0.424227  1
  H  H18  1  0.901729  0.977503  0.928452  1
  H  H19  1  0.049051  0.973278  0.071548  1
  H  H20  1  0.826216  0.735083  0.639848  1
  H  H21  1  0.095235  0.186368  0.360152  1
  H  H22  1  0.936368  0.076216  0.591133  1
  H  H23  1  0.485083  0.345235  0.408867  1
  H  H24  1  0.347111  0.814289  0.688403  1
  H  H25  1  0.125887  0.658708  0.311597  1
  H  H26  1  0.408708  0.597111  0.032822  1
  H  H27  1  0.564289  0.375887  0.967178  1
  H  H28  1  0.265981  0.899662  0.639391  1
  H  H29  1  0.260271  0.626590  0.360609  1
  H  H30  1  0.376590  0.515981  0.866319  1
  H  H31  1  0.649662  0.510271  0.133681  1
  H  H32  1  0.419916  0.002381  0.801573  1
  H  H33  1  0.200808  0.618343  0.198427  1
  H  H34  1  0.368343  0.669916  0.917535  1
  H  H35  1  0.752381  0.450808  0.082465  1
  H  H36  1  0.866792  0.742836  0.473619  1
  H  H37  1  0.269217  0.393172  0.526381  1
  H  H38  1  0.143172  0.116792  0.623955  1
  H  H39  1  0.492836  0.519217  0.376045  1
  H  H40  1  0.059034  0.820976  0.460050  1
  H  H41  1  0.360926  0.598984  0.539950  1
  H  H42  1  0.348984  0.309034  0.738058  1
  H  H43  1  0.570976  0.610926  0.261942  1
  H  H44  1  0.862948  0.658187  0.321347  1
  H  H45  1  0.336839  0.541601  0.678653  1
  H  H46  1  0.291601  0.112948  0.704761  1
  H  H47  1  0.408187  0.586839  0.295239  1
  H  H48  1  0.724133  0.225283  0.765464  1
  H  H49  1  0.459819  0.958669  0.234536  1
  H  H50  1  0.708669  0.974133  0.998850  1
  H  H51  1  0.975283  0.709819  0.001150  1
  H  H52  1  0.898269  0.443007  0.867340  1
  H  H53  1  0.575667  0.030929  0.132660  1
  H  H54  1  0.780929  0.148269  0.955262  1
  H  H55  1  0.193007  0.825667  0.044738  1
  H  H56  1  0.695711  0.366138  0.786322  1
  H  H57  1  0.579816  0.909389  0.213678  1
  H  H58  1  0.659389  0.945711  0.829573  1
  H  H59  1  0.116138  0.829816  0.170427  1
  H  H60  1  0.583901  0.473181  0.671700  1
  H  H61  1  0.801481  0.912201  0.328300  1
  H  H62  1  0.662201  0.833901  0.610720  1
  H  H63  1  0.223181  0.051481  0.389280  1
  H  H64  1  0.730795  0.590666  0.839153  1
  H  H65  1  0.751513  0.891641  0.160847  1
  H  H66  1  0.641641  0.980795  0.640128  1
  H  H67  1  0.340666  0.001513  0.359872  1
  H  H68  1  0.663559  0.675127  0.762420  1
  H  H69  1  0.912708  0.901139  0.237580  1
  H  H70  1  0.651139  0.913559  0.488432  1
  H  H71  1  0.425127  0.162708  0.511568  1
  C  C72  1  0.304862  0.876294  0.723219  1
  C  C73  1  0.153075  0.581643  0.276781  1
  C  C74  1  0.331643  0.554862  0.928569  1
  C  C75  1  0.626294  0.403075  0.071431  1
  C  C76  1  0.924078  0.703930  0.429916  1
  C  C77  1  0.274014  0.494162  0.570084  1
  C  C78  1  0.244162  0.174078  0.720149  1
  C  C79  1  0.453930  0.524014  0.279851  1
  C  C80  1  0.784653  0.354467  0.773851  1
  C  C81  1  0.580616  0.010802  0.226149  1
  C  C82  1  0.760802  0.034653  0.930186  1
  C  C83  1  0.104467  0.830616  0.069814  1
  C  C84  1  0.699574  0.603305  0.745100  1
  C  C85  1  0.858205  0.954474  0.254900  1
  C  C86  1  0.704474  0.949574  0.596270  1
  C  C87  1  0.353305  0.108205  0.403730  1
  N  N88  1  0.165579  0.779081  0.767782  1
  N  N89  1  0.011299  0.397797  0.232218  1
  N  N90  1  0.147797  0.415579  0.886498  1
  N  N91  1  0.529081  0.261299  0.113502  1
  N  N92  1  0.898016  0.572602  0.470841  1
  N  N93  1  0.101762  0.427175  0.529159  1
  N  N94  1  0.177175  0.148016  0.825413  1
  N  N95  1  0.322602  0.351762  0.174587  1
  N  N96  1  0.833939  0.390717  0.661522  1
  N  N97  1  0.729195  0.172417  0.338478  1
  N  N98  1  0.922417  0.083939  0.943223  1
  N  N99  1  0.140717  0.979195  0.056777  1
  N  N100  1  0.844817  0.690368  0.706284  1
  N  N101  1  0.984084  0.138532  0.293716  1
  N  N102  1  0.888532  0.094817  0.654449  1
  N  N103  1  0.440368  0.234084  0.345551  1
