# generated using pymatgen
data_YbS2
_symmetry_space_group_name_H-M   'P 1'
_cell_length_a   4.32432517
_cell_length_b   4.87541641
_cell_length_c   7.27000523
_cell_angle_alpha   79.41186490
_cell_angle_beta   72.69796897
_cell_angle_gamma   63.67369871
_symmetry_Int_Tables_number   1
_chemical_formula_structural   YbS2
_chemical_formula_sum   'Yb2 S4'
_cell_volume   130.91847494
_cell_formula_units_Z   2
loop_
 _symmetry_equiv_pos_site_id
 _symmetry_equiv_pos_as_xyz
  1  'x, y, z'
loop_
 _atom_site_type_symbol
 _atom_site_label
 _atom_site_symmetry_multiplicity
 _atom_site_fract_x
 _atom_site_fract_y
 _atom_site_fract_z
 _atom_site_occupancy
  Yb  Yb0  1  0.865940  0.750000  0.250000  1
  Yb  Yb1  1  0.134060  0.250000  0.750000  1
  S  S2  1  0.211272  0.789123  0.528441  1
  S  S3  1  0.528837  0.710877  0.971559  1
  S  S4  1  0.788728  0.210877  0.471559  1
  S  S5  1  0.471163  0.289123  0.028441  1
