# generated using pymatgen
data_Li2FeP2O7
_symmetry_space_group_name_H-M   'P 1'
_cell_length_a   6.58504481
_cell_length_b   10.44376828
_cell_length_c   9.31066039
_cell_angle_alpha   66.64297302
_cell_angle_beta   107.28986490
_cell_angle_gamma   91.49387134
_symmetry_Int_Tables_number   1
_chemical_formula_structural   Li2FeP2O7
_chemical_formula_sum   'Li8 Fe4 P8 O28'
_cell_volume   558.19980664
_cell_formula_units_Z   4
loop_
 _symmetry_equiv_pos_site_id
 _symmetry_equiv_pos_as_xyz
  1  'x, y, z'
loop_
 _atom_site_type_symbol
 _atom_site_label
 _atom_site_symmetry_multiplicity
 _atom_site_fract_x
 _atom_site_fract_y
 _atom_site_fract_z
 _atom_site_occupancy
  Li  Li0  1  0.864929  0.107807  0.895011  1
  Li  Li1  1  0.047397  0.493085  0.187337  1
  Li  Li2  1  0.165442  0.962418  0.488463  1
  Li  Li3  1  0.352833  0.622288  0.925137  1
  Li  Li4  1  0.634635  0.378468  0.074935  1
  Li  Li5  1  0.592517  0.029904  0.505962  1
  Li  Li6  1  0.937288  0.497847  0.832830  1
  Li  Li7  1  0.167631  0.874925  0.107212  1
  Fe  Fe8  1  0.359295  0.262339  0.503360  1
  Fe  Fe9  1  0.723180  0.782221  0.099689  1
  Fe  Fe10  1  0.628657  0.747547  0.488942  1
  Fe  Fe11  1  0.282760  0.222589  0.891177  1
  P  P12  1  0.080607  0.202453  0.179741  1
  P  P13  1  0.695945  0.055469  0.190763  1
  P  P14  1  0.313751  0.945936  0.801402  1
  P  P15  1  0.870493  0.301655  0.546703  1
  P  P16  1  0.555293  0.537297  0.288058  1
  P  P17  1  0.439181  0.468468  0.707791  1
  P  P18  1  0.117404  0.700717  0.442391  1
  P  P19  1  0.926179  0.803470  0.808993  1
  O  O20  1  0.738317  0.987498  0.082166  1
  O  O21  1  0.369808  0.464736  0.854460  1
  O  O22  1  0.379793  0.038341  0.652420  1
  O  O23  1  0.272550  0.015600  0.908178  1
  O  O24  1  0.245144  0.545208  0.540498  1
  O  O25  1  0.356021  0.462501  0.302537  1
  O  O26  1  0.027091  0.712440  0.263557  1
  O  O27  1  0.693766  0.204680  0.529811  1
  O  O28  1  0.453367  0.805605  0.908060  1
  O  O29  1  0.718044  0.828710  0.672320  1
  O  O30  1  0.748105  0.459869  0.456542  1
  O  O31  1  0.625326  0.536302  0.143439  1
  O  O32  1  0.912520  0.865917  0.930965  1
  O  O33  1  0.033685  0.302429  0.459859  1
  O  O34  1  0.635652  0.546127  0.692607  1
  O  O35  1  0.284920  0.179573  0.319984  1
  O  O36  1  0.038367  0.652536  0.898776  1
  O  O37  1  0.085287  0.902401  0.710714  1
  O  O38  1  0.971430  0.280546  0.727936  1
  O  O39  1  0.960519  0.351579  0.089842  1
  O  O40  1  0.951281  0.706573  0.522477  1
  O  O41  1  0.285431  0.804784  0.455154  1
  O  O42  1  0.456304  0.317455  0.716851  1
  O  O43  1  0.558050  0.196602  0.084796  1
  O  O44  1  0.621990  0.962256  0.333322  1
  O  O45  1  0.537622  0.689994  0.273662  1
  O  O46  1  0.103875  0.141944  0.059264  1
  O  O47  1  0.929164  0.096134  0.279714  1
