# generated using pymatgen
data_Mn14Sb13
_symmetry_space_group_name_H-M   'P 1'
_cell_length_a   53.47364655
_cell_length_b   7.12168749
_cell_length_c   13.53904970
_cell_angle_alpha   37.91687517
_cell_angle_beta   24.26749893
_cell_angle_gamma   30.04527335
_symmetry_Int_Tables_number   1
_chemical_formula_structural   Mn14Sb13
_chemical_formula_sum   'Mn28 Sb26'
_cell_volume   1060.99519933
_cell_formula_units_Z   2
loop_
 _symmetry_equiv_pos_site_id
 _symmetry_equiv_pos_as_xyz
  1  'x, y, z'
loop_
 _atom_site_type_symbol
 _atom_site_label
 _atom_site_symmetry_multiplicity
 _atom_site_fract_x
 _atom_site_fract_y
 _atom_site_fract_z
 _atom_site_occupancy
  Mn  Mn0  1  0.999528  0.000426  0.003261  1
  Mn  Mn1  1  0.078972  0.991737  0.994603  1
  Mn  Mn2  1  0.152263  0.010436  0.002231  1
  Mn  Mn3  1  0.037628  0.003883  0.502463  1
  Mn  Mn4  1  0.231484  0.000265  -0.005542  1
  Mn  Mn5  1  0.115232  0.002385  0.499055  1
  Mn  Mn6  1  0.307697  -0.000210  -0.003205  1
  Mn  Mn7  1  0.192835  -0.000284  0.495798  1
  Mn  Mn8  1  0.386726  0.995881  0.993506  1
  Mn  Mn9  1  0.269969  0.008355  0.492156  1
  Mn  Mn10  1  0.462140  0.990813  0.005078  1
  Mn  Mn11  1  0.344665  0.001640  0.504635  1
  Mn  Mn12  1  0.537765  -0.002398  0.003199  1
  Mn  Mn13  1  0.421533  0.002314  0.502757  1
  Mn  Mn14  1  0.365571  0.664740  0.749497  1
  Mn  Mn15  1  0.615398  0.000110  -0.000847  1
  Mn  Mn16  1  0.499541  0.994552  0.504750  1
  Mn  Mn17  1  0.693644  0.001262  0.996427  1
  Mn  Mn18  1  0.578761  0.996813  0.495525  1
  Mn  Mn19  1  0.769264  0.005565  0.993665  1
  Mn  Mn20  1  0.652050  0.003374  0.503336  1
  Mn  Mn21  1  0.844908  0.002130  0.005022  1
  Mn  Mn22  1  0.731979  0.002601  0.495456  1
  Mn  Mn23  1  0.921684  0.006581  0.003233  1
  Mn  Mn24  1  0.809046  -0.000138  0.496267  1
  Mn  Mn25  1  0.865348  0.333702  0.249562  1
  Mn  Mn26  1  0.885948  0.000769  0.494853  1
  Mn  Mn27  1  0.961901  0.986568  0.505002  1
  Sb  Sb28  1  0.019429  0.667250  0.248838  1
  Sb  Sb29  1  0.096681  0.666336  0.247843  1
  Sb  Sb30  1  0.056944  0.337044  0.750929  1
  Sb  Sb31  1  0.173010  0.667720  0.249308  1
  Sb  Sb32  1  0.134140  0.335919  0.750066  1
  Sb  Sb33  1  0.252520  0.665453  0.237469  1
  Sb  Sb34  1  0.211856  0.335742  0.747166  1
  Sb  Sb35  1  0.327451  0.666043  0.247161  1
  Sb  Sb36  1  0.283254  0.375086  0.749719  1
  Sb  Sb37  1  0.404296  0.666805  0.248298  1
  Sb  Sb38  1  0.365567  0.310956  0.749641  1
  Sb  Sb39  1  0.478092  0.662822  0.262947  1
  Sb  Sb40  1  0.447070  0.311538  0.750505  1
  Sb  Sb41  1  0.557053  0.666709  0.252297  1
  Sb  Sb42  1  0.519493  0.330499  0.750107  1
  Sb  Sb43  1  0.634402  0.667884  0.250355  1
  Sb  Sb44  1  0.597386  0.331070  0.745784  1
  Sb  Sb45  1  0.711436  0.664900  0.251495  1
  Sb  Sb46  1  0.673413  0.332690  0.749844  1
  Sb  Sb47  1  0.783205  0.691854  0.249914  1
  Sb  Sb48  1  0.752712  0.336981  0.736924  1
  Sb  Sb49  1  0.865515  0.686654  0.249722  1
  Sb  Sb50  1  0.827142  0.331887  0.750239  1
  Sb  Sb51  1  0.947753  0.624498  0.248897  1
  Sb  Sb52  1  0.903807  0.334976  0.748727  1
  Sb  Sb53  1  0.978097  0.332472  0.762538  1
