# generated using pymatgen
data_KH13CBrNO7
_symmetry_space_group_name_H-M   'P 1'
_cell_length_a   7.28783947
_cell_length_b   11.51127641
_cell_length_c   14.49325057
_cell_angle_alpha   90.00000000
_cell_angle_beta   90.00000000
_cell_angle_gamma   97.53361050
_symmetry_Int_Tables_number   1
_chemical_formula_structural   KH13CBrNO7
_chemical_formula_sum   'K4 H52 C4 Br4 N4 O28'
_cell_volume   1205.37736080
_cell_formula_units_Z   4
loop_
 _symmetry_equiv_pos_site_id
 _symmetry_equiv_pos_as_xyz
  1  'x, y, z'
loop_
 _atom_site_type_symbol
 _atom_site_label
 _atom_site_symmetry_multiplicity
 _atom_site_fract_x
 _atom_site_fract_y
 _atom_site_fract_z
 _atom_site_occupancy
  K  K0  1  0.231690  0.407184  0.529282  1
  K  K1  1  0.768310  0.592816  0.470718  1
  K  K2  1  0.268310  0.092816  0.029282  1
  K  K3  1  0.731690  0.907184  0.970718  1
  H  H4  1  0.934162  0.680343  0.101931  1
  H  H5  1  0.618588  0.142760  0.353904  1
  H  H6  1  0.519487  0.890288  0.160288  1
  H  H7  1  0.444834  0.831750  0.407066  1
  H  H8  1  0.944834  0.331750  0.092934  1
  H  H9  1  0.113401  0.289498  0.734991  1
  H  H10  1  0.555166  0.168250  0.592934  1
  H  H11  1  0.822831  0.031555  0.784083  1
  H  H12  1  0.881412  0.357240  0.853904  1
  H  H13  1  0.688971  0.239323  0.685776  1
  H  H14  1  0.193544  0.831827  0.403735  1
  H  H15  1  0.480513  0.109712  0.839712  1
  H  H16  1  0.782511  0.571659  0.700100  1
  H  H17  1  0.824987  0.798771  0.772030  1
  H  H18  1  0.386599  0.210502  0.234991  1
  H  H19  1  0.693544  0.331827  0.096265  1
  H  H20  1  0.116481  0.146370  0.441100  1
  H  H21  1  0.689312  0.627701  0.959409  1
  H  H22  1  0.886599  0.710502  0.265009  1
  H  H23  1  0.189312  0.127701  0.540591  1
  H  H24  1  0.155050  0.850559  0.160254  1
  H  H25  1  0.381412  0.857240  0.646096  1
  H  H26  1  0.019487  0.390288  0.339712  1
  H  H27  1  0.675013  0.701229  0.272030  1
  H  H28  1  0.883519  0.853630  0.558900  1
  H  H29  1  0.306456  0.668173  0.903735  1
  H  H30  1  0.055166  0.668250  0.907066  1
  H  H31  1  0.065838  0.319657  0.898069  1
  H  H32  1  0.434162  0.180343  0.398069  1
  H  H33  1  0.118588  0.642760  0.146096  1
  H  H34  1  0.980513  0.609712  0.660288  1
  H  H35  1  0.811029  0.260677  0.185776  1
  H  H36  1  0.311029  0.760677  0.314224  1
  H  H37  1  0.717489  0.928341  0.200100  1
  H  H38  1  0.324987  0.298771  0.727970  1
  H  H39  1  0.844951  0.149441  0.839746  1
  H  H40  1  0.565838  0.819657  0.601931  1
  H  H41  1  0.344950  0.649441  0.660254  1
  H  H42  1  0.810688  0.872299  0.459409  1
  H  H43  1  0.175013  0.201229  0.227970  1
  H  H44  1  0.282511  0.071659  0.799900  1
  H  H45  1  0.310688  0.372299  0.040591  1
  H  H46  1  0.383519  0.353630  0.941100  1
  H  H47  1  0.616481  0.646370  0.058900  1
  H  H48  1  0.188971  0.739323  0.814224  1
  H  H49  1  0.177169  0.968445  0.215917  1
  H  H50  1  0.613401  0.789498  0.765009  1
  H  H51  1  0.677169  0.468445  0.284083  1
  H  H52  1  0.806456  0.168173  0.596265  1
  H  H53  1  0.655049  0.350559  0.339746  1
  H  H54  1  0.322831  0.531555  0.715917  1
  H  H55  1  0.217489  0.428341  0.299900  1
  C  C56  1  0.189258  0.715608  0.887775  1
  C  C57  1  0.810742  0.284392  0.112225  1
  C  C58  1  0.310742  0.784392  0.387775  1
  C  C59  1  0.689258  0.215608  0.612225  1
  Br  Br60  1  0.891627  0.036742  0.332503  1
  Br  Br61  1  0.391627  0.536742  0.167497  1
  Br  Br62  1  0.108373  0.963258  0.667497  1
  Br  Br63  1  0.608373  0.463258  0.832503  1
  N  N64  1  0.285548  0.672168  0.438557  1
  N  N65  1  0.214452  0.827832  0.938557  1
  N  N66  1  0.785548  0.172168  0.061443  1
  N  N67  1  0.714452  0.327832  0.561443  1
  O  O68  1  0.779691  0.828025  0.516890  1
  O  O69  1  0.468151  0.798143  0.648607  1
  O  O70  1  0.031849  0.701857  0.148607  1
  O  O71  1  0.214862  0.294883  0.689516  1
  O  O72  1  0.785138  0.705117  0.310484  1
  O  O73  1  0.968151  0.298143  0.851393  1
  O  O74  1  0.850141  0.620508  0.652111  1
  O  O75  1  0.285138  0.205117  0.189516  1
  O  O76  1  0.628507  0.132318  0.034487  1
  O  O77  1  0.240899  0.923476  0.171678  1
  O  O78  1  0.871493  0.367682  0.534487  1
  O  O79  1  0.531849  0.201857  0.351393  1
  O  O80  1  0.350141  0.120508  0.847889  1
  O  O81  1  0.220309  0.171975  0.483110  1
  O  O82  1  0.371493  0.867682  0.965513  1
  O  O83  1  0.740899  0.423476  0.328322  1
  O  O84  1  0.128507  0.632318  0.465513  1
  O  O85  1  0.077367  0.880016  0.949893  1
  O  O86  1  0.759101  0.076524  0.828322  1
  O  O87  1  0.422633  0.619984  0.449893  1
  O  O88  1  0.714862  0.794883  0.810484  1
  O  O89  1  0.577367  0.380016  0.550107  1
  O  O90  1  0.922633  0.119984  0.050107  1
  O  O91  1  0.149859  0.379492  0.347889  1
  O  O92  1  0.279691  0.328025  0.983110  1
  O  O93  1  0.649859  0.879492  0.152111  1
  O  O94  1  0.259101  0.576524  0.671678  1
  O  O95  1  0.720309  0.671975  0.016890  1
