# generated using pymatgen
data_Cs2Li3I5
_symmetry_space_group_name_H-M   'P 1'
_cell_length_a   4.75266948
_cell_length_b   8.83605303
_cell_length_c   10.93680331
_cell_angle_alpha   67.24793633
_cell_angle_beta   77.46215113
_cell_angle_gamma   74.41396353
_symmetry_Int_Tables_number   1
_chemical_formula_structural   Cs2Li3I5
_chemical_formula_sum   'Cs2 Li3 I5'
_cell_volume   404.65111020
_cell_formula_units_Z   1
loop_
 _symmetry_equiv_pos_site_id
 _symmetry_equiv_pos_as_xyz
  1  'x, y, z'
loop_
 _atom_site_type_symbol
 _atom_site_label
 _atom_site_symmetry_multiplicity
 _atom_site_fract_x
 _atom_site_fract_y
 _atom_site_fract_z
 _atom_site_occupancy
  Cs  Cs0  1  0.681250  0.859411  0.772938  1
  Cs  Cs1  1  0.314040  0.145019  0.226813  1
  Li  Li2  1  0.046024  0.695052  0.205871  1
  Li  Li3  1  0.507874  0.500398  0.497406  1
  Li  Li4  1  0.943674  0.311751  0.793872  1
  I  I5  1  0.356748  0.477119  0.803558  1
  I  I6  1  0.098476  0.243068  0.561794  1
  I  I7  1  0.896980  0.763865  0.437688  1
  I  I8  1  0.634039  0.527169  0.199361  1
  I  I9  1  0.998076  0.002595  0.999532  1
