# generated using pymatgen
data_Rb3ZnH5
_symmetry_space_group_name_H-M   'P 1'
_cell_length_a   8.10673065
_cell_length_b   8.10673065
_cell_length_c   8.10673065
_cell_angle_alpha   121.22441763
_cell_angle_beta   121.22441763
_cell_angle_gamma   87.89201481
_symmetry_Int_Tables_number   1
_chemical_formula_structural   Rb3ZnH5
_chemical_formula_sum   'Rb6 Zn2 H10'
_cell_volume   369.47946893
_cell_formula_units_Z   2
loop_
 _symmetry_equiv_pos_site_id
 _symmetry_equiv_pos_as_xyz
  1  'x, y, z'
loop_
 _atom_site_type_symbol
 _atom_site_label
 _atom_site_symmetry_multiplicity
 _atom_site_fract_x
 _atom_site_fract_y
 _atom_site_fract_z
 _atom_site_occupancy
  Rb  Rb0  1  0.182342  0.682342  0.864684  1
  Rb  Rb1  1  0.817658  0.317658  0.135316  1
  Rb  Rb2  1  0.682342  0.817658  0.500000  1
  Rb  Rb3  1  0.317658  0.182342  0.500000  1
  Rb  Rb4  1  0.250000  0.250000  0.000000  1
  Rb  Rb5  1  0.750000  0.750000  0.000000  1
  Zn  Zn6  1  0.250000  0.750000  0.500000  1
  Zn  Zn7  1  0.750000  0.250000  0.500000  1
  H  H8  1  0.454253  0.954253  0.740052  1
  H  H9  1  0.214201  0.714201  0.259948  1
  H  H10  1  0.954253  0.214201  0.500000  1
  H  H11  1  0.714201  0.454253  0.500000  1
  H  H12  1  0.545747  0.045747  0.259948  1
  H  H13  1  0.785799  0.285799  0.740052  1
  H  H14  1  0.045747  0.785799  0.500000  1
  H  H15  1  0.285799  0.545747  0.500000  1
  H  H16  1  0.500000  0.500000  0.000000  1
  H  H17  1  0.000000  0.000000  0.000000  1
