# generated using pymatgen
data_Na9Sr2Nd9Ti20O60
_symmetry_space_group_name_H-M   'P 1'
_cell_length_a   5.49549849
_cell_length_b   5.53183786
_cell_length_c   38.81314823
_cell_angle_alpha   90.00000000
_cell_angle_beta   90.00000000
_cell_angle_gamma   90.03494173
_symmetry_Int_Tables_number   1
_chemical_formula_structural   Na9Sr2Nd9Ti20O60
_chemical_formula_sum   'Na9 Sr2 Nd9 Ti20 O60'
_cell_volume   1179.92750648
_cell_formula_units_Z   1
loop_
 _symmetry_equiv_pos_site_id
 _symmetry_equiv_pos_as_xyz
  1  'x, y, z'
loop_
 _atom_site_type_symbol
 _atom_site_label
 _atom_site_symmetry_multiplicity
 _atom_site_fract_x
 _atom_site_fract_y
 _atom_site_fract_z
 _atom_site_occupancy
  Na  Na0  1  0.510477  0.977812  0.150000  1
  Na  Na1  1  0.495448  0.995173  0.650000  1
  Na  Na2  1  0.490350  0.991891  0.449864  1
  Na  Na3  1  0.490350  0.991891  0.850136  1
  Na  Na4  1  0.011645  0.518384  0.250531  1
  Na  Na5  1  0.011645  0.518384  0.049469  1
  Na  Na6  1  0.003789  0.494918  0.650000  1
  Na  Na7  1  0.003999  0.487950  0.449429  1
  Na  Na8  1  0.003999  0.487950  0.850571  1
  Sr  Sr9  1  0.504209  0.985146  0.351865  1
  Sr  Sr10  1  0.504209  0.985146  0.948135  1
  Nd  Nd11  1  0.992462  0.461726  0.150000  1
  Nd  Nd12  1  -0.004590  0.471964  0.352174  1
  Nd  Nd13  1  0.992437  0.465191  0.550300  1
  Nd  Nd14  1  0.992437  0.465191  0.749700  1
  Nd  Nd15  1  -0.004590  0.471964  0.947826  1
  Nd  Nd16  1  0.504217  0.965142  0.550365  1
  Nd  Nd17  1  0.504217  0.965142  0.749635  1
  Nd  Nd18  1  0.493263  0.039773  0.050979  1
  Nd  Nd19  1  0.493263  0.039773  0.249021  1
  Ti  Ti20  1  0.006860  0.998828  0.000326  1
  Ti  Ti21  1  0.008921  0.995594  0.099835  1
  Ti  Ti22  1  0.008921  0.995594  0.200165  1
  Ti  Ti23  1  0.006860  0.998828  0.299674  1
  Ti  Ti24  1  0.000904  0.983635  0.403151  1
  Ti  Ti25  1  0.003194  0.983369  0.498320  1
  Ti  Ti26  1  0.004318  0.984738  0.602415  1
  Ti  Ti27  1  0.004318  0.984738  0.697585  1
  Ti  Ti28  1  0.003194  0.983369  0.801680  1
  Ti  Ti29  1  0.000904  0.983635  0.896849  1
  Ti  Ti30  1  0.509225  0.505486  0.100396  1
  Ti  Ti31  1  0.506826  0.505249  0.299795  1
  Ti  Ti32  1  0.506826  0.505249  0.000205  1
  Ti  Ti33  1  0.492093  0.483784  0.498546  1
  Ti  Ti34  1  0.499061  0.487638  0.896611  1
  Ti  Ti35  1  0.509225  0.505486  0.199604  1
  Ti  Ti36  1  0.493905  0.484594  0.697583  1
  Ti  Ti37  1  0.493905  0.484594  0.602417  1
  Ti  Ti38  1  0.499061  0.487638  0.403389  1
  Ti  Ti39  1  0.492093  0.483784  0.801454  1
  O  O40  1  0.065689  0.017042  0.150000  1
  O  O41  1  0.054424  0.019869  0.349193  1
  O  O42  1  0.072160  0.023308  0.550439  1
  O  O43  1  0.072160  0.023308  0.749561  1
  O  O44  1  0.054424  0.019869  0.950807  1
  O  O45  1  0.223405  0.272918  0.092808  1
  O  O46  1  0.234573  0.270574  0.292109  1
  O  O47  1  0.234573  0.270574  0.007891  1
  O  O48  1  0.217458  0.288803  0.495686  1
  O  O49  1  0.219222  0.288032  0.694961  1
  O  O50  1  0.223405  0.272918  0.207192  1
  O  O51  1  0.236836  0.268664  0.404722  1
  O  O52  1  0.236836  0.268664  0.895278  1
  O  O53  1  0.219222  0.288032  0.605039  1
  O  O54  1  0.217458  0.288803  0.804314  1
  O  O55  1  0.286232  0.787985  0.007981  1
  O  O56  1  0.276532  0.783164  0.091496  1
  O  O57  1  0.276532  0.783164  0.208504  1
  O  O58  1  0.286232  0.787985  0.292019  1
  O  O59  1  0.262807  0.766937  0.404946  1
  O  O60  1  0.278259  0.787975  0.604993  1
  O  O61  1  0.278147  0.788933  0.495935  1
  O  O62  1  0.278259  0.787975  0.695007  1
  O  O63  1  0.278147  0.788933  0.804065  1
  O  O64  1  0.262807  0.766937  0.895054  1
  O  O65  1  0.425701  0.506315  0.348807  1
  O  O66  1  0.415196  0.515968  0.150000  1
  O  O67  1  0.423989  0.522303  0.550408  1
  O  O68  1  0.423989  0.522303  0.749592  1
  O  O69  1  0.425701  0.506315  0.951193  1
  O  O70  1  0.566714  0.488562  0.050606  1
  O  O71  1  0.566714  0.488562  0.249394  1
  O  O72  1  0.569131  0.497659  0.650000  1
  O  O73  1  0.566167  0.500439  0.450985  1
  O  O74  1  0.566167  0.500439  0.849015  1
  O  O75  1  0.722462  0.229737  0.107476  1
  O  O76  1  0.731632  0.233950  0.306272  1
  O  O77  1  0.722462  0.229737  0.192524  1
  O  O78  1  0.743597  0.249444  0.392745  1
  O  O79  1  0.722824  0.235323  0.590435  1
  O  O80  1  0.721755  0.234871  0.510401  1
  O  O81  1  0.722824  0.235323  0.709565  1
  O  O82  1  0.743597  0.249444  0.907255  1
  O  O83  1  0.721755  0.234871  0.789599  1
  O  O84  1  0.731632  0.233950  0.993728  1
  O  O85  1  0.777093  0.720048  0.108761  1
  O  O86  1  0.777093  0.720048  0.191239  1
  O  O87  1  0.780967  0.723311  0.308435  1
  O  O88  1  0.770865  0.734429  0.391712  1
  O  O89  1  0.773930  0.735369  0.510576  1
  O  O90  1  0.774182  0.735475  0.590403  1
  O  O91  1  0.774182  0.735475  0.709597  1
  O  O92  1  0.773930  0.735369  0.789424  1
  O  O93  1  0.770865  0.734429  0.908288  1
  O  O94  1  0.780967  0.723311  0.991565  1
  O  O95  1  0.918010  0.989758  0.050376  1
  O  O96  1  0.918010  0.989758  0.249624  1
  O  O97  1  0.928663  -0.003626  0.450813  1
  O  O98  1  0.928922  -0.002752  0.650000  1
  O  O99  1  0.928663  -0.003626  0.849187  1
