# generated using pymatgen
data_Ce5B4C5
_symmetry_space_group_name_H-M   'P 1'
_cell_length_a   8.29700461
_cell_length_b   8.35482234
_cell_length_c   23.95831400
_cell_angle_alpha   89.99841209
_cell_angle_beta   90.00934654
_cell_angle_gamma   90.00217177
_symmetry_Int_Tables_number   1
_chemical_formula_structural   Ce5B4C5
_chemical_formula_sum   'Ce40 B32 C40'
_cell_volume   1660.79029029
_cell_formula_units_Z   8
loop_
 _symmetry_equiv_pos_site_id
 _symmetry_equiv_pos_as_xyz
  1  'x, y, z'
loop_
 _atom_site_type_symbol
 _atom_site_label
 _atom_site_symmetry_multiplicity
 _atom_site_fract_x
 _atom_site_fract_y
 _atom_site_fract_z
 _atom_site_occupancy
  Ce  Ce0  1  0.839660  0.200243  0.585825  1
  Ce  Ce1  1  0.140744  0.293759  0.935973  1
  Ce  Ce2  1  0.255155  0.989837  0.052188  1
  Ce  Ce3  1  0.339734  0.700248  0.914241  1
  Ce  Ce4  1  0.572374  0.494759  0.195660  1
  Ce  Ce5  1  0.954226  0.290358  0.196545  1
  Ce  Ce6  1  0.755029  0.489946  0.447840  1
  Ce  Ce7  1  0.241957  0.411957  0.800162  1
  Ce  Ce8  1  0.927584  0.494724  0.695700  1
  Ce  Ce9  1  0.427594  0.994650  0.804291  1
  Ce  Ce10  1  0.859159  0.793652  0.064056  1
  Ce  Ce11  1  0.629881  0.606759  0.802823  1
  Ce  Ce12  1  0.947704  0.910866  0.938806  1
  Ce  Ce13  1  0.665388  0.200901  0.318088  1
  Ce  Ce14  1  0.165458  0.700888  0.181870  1
  Ce  Ce15  1  0.447756  0.410927  0.561239  1
  Ce  Ce16  1  0.741918  0.911863  0.699791  1
  Ce  Ce17  1  0.744829  0.489949  0.947839  1
  Ce  Ce18  1  0.758041  0.911895  0.199781  1
  Ce  Ce19  1  0.244966  0.989837  0.552186  1
  Ce  Ce20  1  0.045505  0.596027  0.558732  1
  Ce  Ce21  1  0.454278  0.790351  0.303405  1
  Ce  Ce22  1  0.545765  0.290345  0.696572  1
  Ce  Ce23  1  0.834546  0.200945  0.818102  1
  Ce  Ce24  1  0.160351  0.700263  0.414185  1
  Ce  Ce25  1  0.258106  0.411864  0.300164  1
  Ce  Ce26  1  0.334605  0.700900  0.681885  1
  Ce  Ce27  1  0.545541  0.096029  0.941322  1
  Ce  Ce28  1  0.640803  0.793700  0.564067  1
  Ce  Ce29  1  0.870093  0.606759  0.302787  1
  Ce  Ce30  1  0.359238  0.293690  0.435949  1
  Ce  Ce31  1  0.954449  0.095997  0.441285  1
  Ce  Ce32  1  0.370092  0.106793  0.197139  1
  Ce  Ce33  1  0.660290  0.200283  0.085791  1
  Ce  Ce34  1  0.052292  0.410963  0.061285  1
  Ce  Ce35  1  0.129866  0.106783  0.697203  1
  Ce  Ce36  1  0.072393  0.994754  0.304260  1
  Ce  Ce37  1  0.045778  0.790286  0.803406  1
  Ce  Ce38  1  0.552313  0.910834  0.438819  1
  Ce  Ce39  1  0.454479  0.596038  0.058718  1
  B  B40  1  0.301332  0.379395  0.138669  1
  B  B41  1  0.357080  0.699616  0.515483  1
  B  B42  1  0.937660  0.898453  0.528399  1
  B  B43  1  0.953129  0.099606  0.032201  1
  B  B44  1  0.856898  0.199613  0.984550  1
  B  B45  1  0.143149  0.699590  0.015450  1
  B  B46  1  0.368610  0.290392  0.024166  1
  B  B47  1  0.658512  0.560355  0.640748  1
  B  B48  1  0.698673  0.879280  0.861312  1
  B  B49  1  0.457831  0.013471  0.643175  1
  B  B50  1  0.518582  0.328867  0.857503  1
  B  B51  1  0.868474  0.790366  0.475854  1
  B  B52  1  0.158569  0.060254  0.859267  1
  B  B53  1  0.546874  0.099559  0.532215  1
  B  B54  1  0.018588  0.828820  0.642532  1
  B  B55  1  0.341553  0.060305  0.359239  1
  B  B56  1  0.131451  0.290395  0.524164  1
  B  B57  1  0.453184  0.599591  0.467791  1
  B  B58  1  0.046807  0.599623  0.967805  1
  B  B59  1  0.841520  0.560339  0.140723  1
  B  B60  1  0.542204  0.513547  0.356842  1
  B  B61  1  0.198688  0.379311  0.638712  1
  B  B62  1  0.481377  0.828805  0.142504  1
  B  B63  1  0.437746  0.398593  0.971649  1
  B  B64  1  0.957689  0.513549  0.856853  1
  B  B65  1  0.631386  0.790280  0.975855  1
  B  B66  1  0.801277  0.879263  0.361301  1
  B  B67  1  0.642957  0.199554  0.484532  1
  B  B68  1  0.562247  0.898447  0.028373  1
  B  B69  1  0.062307  0.398469  0.471624  1
  B  B70  1  0.981445  0.328874  0.357459  1
  B  B71  1  0.042265  0.013549  0.143131  1
  C  C72  1  0.564978  0.498226  0.296196  1
  C  C73  1  0.537289  0.305112  0.797107  1
  C  C74  1  0.648492  0.802110  0.913746  1
  C  C75  1  0.467763  0.594006  0.405549  1
  C  C76  1  0.449049  0.387598  0.909855  1
  C  C77  1  0.245119  0.992324  0.908206  1
  C  C78  1  0.661368  0.197426  0.192477  1
  C  C79  1  0.838324  0.198766  0.922878  1
  C  C80  1  0.037294  0.805118  0.702917  1
  C  C81  1  0.838633  0.197473  0.692500  1
  C  C82  1  0.745157  0.492416  0.591801  1
  C  C83  1  0.148559  0.302155  0.586250  1
  C  C84  1  0.765015  0.898917  0.301609  1
  C  C85  1  0.338391  0.698732  0.577151  1
  C  C86  1  0.032234  0.593988  0.905549  1
  C  C87  1  0.632741  0.605125  0.699517  1
  C  C88  1  0.851429  0.802128  0.413758  1
  C  C89  1  0.234918  0.398981  0.698378  1
  C  C90  1  0.351508  0.302099  0.086245  1
  C  C91  1  0.161396  0.697366  0.307472  1
  C  C92  1  0.435030  0.998163  0.703789  1
  C  C93  1  0.734914  0.898968  0.801645  1
  C  C94  1  0.661669  0.198719  0.422876  1
  C  C95  1  0.132758  0.105093  0.800500  1
  C  C96  1  0.050926  0.387569  0.409841  1
  C  C97  1  0.254904  0.992337  0.408181  1
  C  C98  1  0.532269  0.093942  0.594468  1
  C  C99  1  0.161740  0.698738  0.077123  1
  C  C100  1  0.064948  0.998250  0.203757  1
  C  C101  1  0.462737  0.805233  0.202910  1
  C  C102  1  0.550950  0.887583  0.090138  1
  C  C103  1  0.367287  0.105111  0.300451  1
  C  C104  1  0.935045  0.498211  0.796221  1
  C  C105  1  0.967735  0.094006  0.094447  1
  C  C106  1  0.338611  0.697464  0.807536  1
  C  C107  1  0.962702  0.305205  0.297048  1
  C  C108  1  0.949019  0.887547  0.590167  1
  C  C109  1  0.265058  0.398857  0.198350  1
  C  C110  1  0.754793  0.492316  0.091798  1
  C  C111  1  0.867246  0.605069  0.199530  1
