# generated using pymatgen
data_NdVSb3
_symmetry_space_group_name_H-M   'P 1'
_cell_length_a   6.22842638
_cell_length_b   7.91224840
_cell_length_c   10.24615713
_cell_angle_alpha   90.00020092
_cell_angle_beta   89.99749898
_cell_angle_gamma   89.93995775
_symmetry_Int_Tables_number   1
_chemical_formula_structural   NdVSb3
_chemical_formula_sum   'Nd4 V4 Sb12'
_cell_volume   504.93912332
_cell_formula_units_Z   4
loop_
 _symmetry_equiv_pos_site_id
 _symmetry_equiv_pos_as_xyz
  1  'x, y, z'
loop_
 _atom_site_type_symbol
 _atom_site_label
 _atom_site_symmetry_multiplicity
 _atom_site_fract_x
 _atom_site_fract_y
 _atom_site_fract_z
 _atom_site_occupancy
  Nd  Nd0  1  0.250097  0.412590  0.248530  1
  Nd  Nd1  1  0.250057  0.912459  0.751497  1
  Nd  Nd2  1  0.750001  0.587546  0.751483  1
  Nd  Nd3  1  0.749782  0.087375  0.248512  1
  V  V4  1  -0.000020  0.750046  0.045116  1
  V  V5  1  0.999984  0.249960  0.955149  1
  V  V6  1  0.499998  0.749967  0.044169  1
  V  V7  1  0.499982  0.250037  0.955773  1
  Sb  Sb8  1  0.500058  0.749982  0.309008  1
  Sb  Sb9  1  0.749953  0.437312  0.422582  1
  Sb  Sb10  1  0.749458  0.466000  0.089564  1
  Sb  Sb11  1  0.000008  0.750022  0.310385  1
  Sb  Sb12  1  -0.000010  0.249984  0.689632  1
  Sb  Sb13  1  0.250891  0.534660  0.910510  1
  Sb  Sb14  1  0.250395  0.562723  0.577379  1
  Sb  Sb15  1  0.250647  0.034005  0.089568  1
  Sb  Sb16  1  0.250091  0.062661  0.422601  1
  Sb  Sb17  1  0.500007  0.250048  0.690675  1
  Sb  Sb18  1  0.749632  0.937257  0.577366  1
  Sb  Sb19  1  0.748989  0.965367  0.910502  1
