# generated using pymatgen
data_Ca2SiO4
_symmetry_space_group_name_H-M   'P 1'
_cell_length_a   5.48125200
_cell_length_b   11.44928015
_cell_length_c   9.07713110
_cell_angle_alpha   48.70934397
_cell_angle_beta   107.57334407
_cell_angle_gamma   118.60327302
_symmetry_Int_Tables_number   1
_chemical_formula_structural   Ca2SiO4
_chemical_formula_sum   'Ca8 Si4 O16'
_cell_volume   375.69582758
_cell_formula_units_Z   4
loop_
 _symmetry_equiv_pos_site_id
 _symmetry_equiv_pos_as_xyz
  1  'x, y, z'
loop_
 _atom_site_type_symbol
 _atom_site_label
 _atom_site_symmetry_multiplicity
 _atom_site_fract_x
 _atom_site_fract_y
 _atom_site_fract_z
 _atom_site_occupancy
  Ca  Ca0  1  0.350814  0.977226  0.679949  1
  Ca  Ca1  1  0.283588  0.477226  0.679949  1
  Ca  Ca2  1  0.000000  0.500000  0.000000  1
  Ca  Ca3  1  0.992142  0.750000  0.500000  1
  Ca  Ca4  1  0.716412  0.522774  0.320051  1
  Ca  Ca5  1  0.000000  0.000000  0.000000  1
  Ca  Ca6  1  0.007858  0.250000  0.500000  1
  Ca  Ca7  1  0.649186  0.022774  0.320051  1
  Si  Si8  1  0.323255  0.722488  0.203244  1
  Si  Si9  1  0.675035  0.777512  0.796756  1
  Si  Si10  1  0.324965  0.222488  0.203244  1
  Si  Si11  1  0.676745  0.277512  0.796756  1
  O  O12  1  0.181407  0.712457  0.350042  1
  O  O13  1  0.406451  0.787543  0.649958  1
  O  O14  1  0.566767  0.624925  0.021632  1
  O  O15  1  0.295285  0.875075  0.978368  1
  O  O16  1  0.808419  0.965014  0.750972  1
  O  O17  1  0.127419  0.534986  0.249028  1
  O  O18  1  0.645579  0.733269  0.280623  1
  O  O19  1  0.898417  0.766731  0.719377  1
  O  O20  1  0.101583  0.233269  0.280623  1
  O  O21  1  0.354421  0.266731  0.719377  1
  O  O22  1  0.872581  0.465014  0.750972  1
  O  O23  1  0.191581  0.034986  0.249028  1
  O  O24  1  0.704715  0.124925  0.021632  1
  O  O25  1  0.433233  0.375075  0.978368  1
  O  O26  1  0.593549  0.212457  0.350042  1
  O  O27  1  0.818593  0.287543  0.649958  1
