# generated using pymatgen
data_CsCu3As8H24C8(IO2)4
_symmetry_space_group_name_H-M   'P 1'
_cell_length_a   8.38846990
_cell_length_b   8.58192115
_cell_length_c   25.82384014
_cell_angle_alpha   94.84572597
_cell_angle_beta   92.39726597
_cell_angle_gamma   95.96515977
_symmetry_Int_Tables_number   1
_chemical_formula_structural   CsCu3As8H24C8(IO2)4
_chemical_formula_sum   'Cs2 Cu6 As16 H48 C16 I8 O16'
_cell_volume   1839.95876879
_cell_formula_units_Z   2
loop_
 _symmetry_equiv_pos_site_id
 _symmetry_equiv_pos_as_xyz
  1  'x, y, z'
loop_
 _atom_site_type_symbol
 _atom_site_label
 _atom_site_symmetry_multiplicity
 _atom_site_fract_x
 _atom_site_fract_y
 _atom_site_fract_z
 _atom_site_occupancy
  Cs  Cs0  1  0.422926  0.858211  0.765187  1
  Cs  Cs1  1  0.577074  0.141789  0.234813  1
  Cu  Cu2  1  0.249671  0.154047  0.371820  1
  Cu  Cu3  1  0.750329  0.845953  0.628180  1
  Cu  Cu4  1  0.751757  0.596686  0.862443  1
  Cu  Cu5  1  0.291599  0.555190  0.291229  1
  Cu  Cu6  1  0.708401  0.444810  0.708771  1
  Cu  Cu7  1  0.248243  0.403314  0.137557  1
  As  As8  1  0.017596  0.841775  0.662977  1
  As  As9  1  0.992581  0.503378  0.713890  1
  As  As10  1  0.765617  0.858601  0.536716  1
  As  As11  1  0.019883  0.650771  0.834853  1
  As  As12  1  0.929257  0.939324  0.777879  1
  As  As13  1  0.980117  0.349229  0.165147  1
  As  As14  1  0.955190  0.196649  0.544540  1
  As  As15  1  0.229643  0.545987  0.062755  1
  As  As16  1  0.044810  0.803351  0.455460  1
  As  As17  1  0.070743  0.060676  0.222121  1
  As  As18  1  0.037185  0.260698  0.991386  1
  As  As19  1  0.962815  0.739302  0.008614  1
  As  As20  1  0.007419  0.496622  0.286110  1
  As  As21  1  0.982404  0.158225  0.337023  1
  As  As22  1  0.234383  0.141399  0.463284  1
  As  As23  1  0.770357  0.454013  0.937245  1
  H  H24  1  0.794914  0.267517  0.086022  1
  H  H25  1  0.287375  0.653917  0.448097  1
  H  H26  1  0.439056  0.638458  0.001102  1
  H  H27  1  0.943343  0.167737  0.847299  1
  H  H28  1  0.693381  0.148876  0.365017  1
  H  H29  1  0.681059  0.345758  0.137586  1
  H  H30  1  0.078097  0.767603  0.216346  1
  H  H31  1  0.318941  0.654242  0.862414  1
  H  H32  1  0.642264  0.668045  0.462136  1
  H  H33  1  0.639914  0.196069  0.964667  1
  H  H34  1  0.489612  0.742022  0.501210  1
  H  H35  1  0.360086  0.803931  0.035333  1
  H  H36  1  0.586892  0.863264  0.455810  1
  H  H37  1  0.712625  0.346083  0.551903  1
  H  H38  1  0.827667  0.108314  0.416748  1
  H  H39  1  0.510388  0.257978  0.498790  1
  H  H40  1  0.807055  0.475231  0.101492  1
  H  H41  1  0.192945  0.524769  0.898508  1
  H  H42  1  0.881865  0.752201  0.286793  1
  H  H43  1  0.884881  0.814493  0.192544  1
  H  H44  1  0.764832  0.958017  0.365307  1
  H  H45  1  0.750991  0.796371  0.072761  1
  H  H46  1  0.205086  0.732483  0.913978  1
  H  H47  1  0.560944  0.361542  0.998898  1
  H  H48  1  0.081660  0.052563  0.918999  1
  H  H49  1  0.257671  0.405439  0.694237  1
  H  H50  1  0.921903  0.232397  0.783654  1
  H  H51  1  0.172333  0.891686  0.583252  1
  H  H52  1  0.106916  0.520733  0.439312  1
  H  H53  1  0.228329  0.055487  0.972205  1
  H  H54  1  0.413108  0.136736  0.544190  1
  H  H55  1  0.100338  0.309888  0.649035  1
  H  H56  1  0.056657  0.832263  0.152701  1
  H  H57  1  0.115119  0.185507  0.807456  1
  H  H58  1  0.357736  0.331955  0.537864  1
  H  H59  1  0.249009  0.203629  0.927239  1
  H  H60  1  0.825248  0.397225  0.496377  1
  H  H61  1  0.899662  0.690112  0.350965  1
  H  H62  1  0.235168  0.041983  0.634693  1
  H  H63  1  0.742329  0.594561  0.305763  1
  H  H64  1  0.504455  0.700638  0.067453  1
  H  H65  1  0.306619  0.851124  0.634984  1
  H  H66  1  0.118135  0.247799  0.713207  1
  H  H67  1  0.918340  0.947437  0.081001  1
  H  H68  1  0.495545  0.299362  0.932547  1
  H  H69  1  0.771671  0.944513  0.027795  1
  H  H70  1  0.174752  0.602775  0.503623  1
  H  H71  1  0.893084  0.479267  0.560688  1
  C  C72  1  0.403542  0.688991  0.038617  1
  C  C73  1  0.204825  0.915365  0.624918  1
  C  C74  1  0.865988  0.651582  0.310068  1
  C  C75  1  0.134012  0.348418  0.689932  1
  C  C76  1  0.163604  0.127465  0.947125  1
  C  C77  1  0.795175  0.084635  0.375082  1
  C  C78  1  0.984925  0.156279  0.807691  1
  C  C79  1  0.793726  0.360857  0.117648  1
  C  C80  1  0.832022  0.375776  0.537374  1
  C  C81  1  0.596458  0.311009  0.961383  1
  C  C82  1  0.601998  0.773063  0.482461  1
  C  C83  1  0.167978  0.624224  0.462626  1
  C  C84  1  0.398002  0.226937  0.517539  1
  C  C85  1  0.015075  0.843721  0.192309  1
  C  C86  1  0.836396  0.872535  0.052875  1
  C  C87  1  0.206274  0.639143  0.882352  1
  I  I88  1  0.333836  0.875569  0.334625  1
  I  I89  1  0.442568  0.582498  0.205783  1
  I  I90  1  0.446073  0.401183  0.357457  1
  I  I91  1  0.553927  0.598817  0.642543  1
  I  I92  1  0.323871  0.126490  0.105315  1
  I  I93  1  0.666164  0.124431  0.665375  1
  I  I94  1  0.557432  0.417502  0.794217  1
  I  I95  1  0.676129  0.873510  0.894685  1
  O  O96  1  0.905676  0.342191  0.321797  1
  O  O97  1  0.060460  0.233348  0.484787  1
  O  O98  1  0.103037  0.556525  0.776733  1
  O  O99  1  0.072715  0.959440  0.724474  1
  O  O100  1  0.896963  0.443475  0.223267  1
  O  O101  1  0.935729  0.332954  0.934803  1
  O  O102  1  0.194486  0.429647  0.000359  1
  O  O103  1  0.797643  0.050725  0.511765  1
  O  O104  1  0.094324  0.657809  0.678203  1
  O  O105  1  0.805514  0.570353  0.999641  1
  O  O106  1  0.927797  0.144464  0.178428  1
  O  O107  1  0.072204  0.855536  0.821572  1
  O  O108  1  0.939540  0.766652  0.515213  1
  O  O109  1  0.064271  0.667046  0.065197  1
  O  O110  1  0.927285  0.040560  0.275526  1
  O  O111  1  0.202357  0.949275  0.488235  1
