# generated using pymatgen
data_ZnH8(CO2)4
_symmetry_space_group_name_H-M   'P 1'
_cell_length_a   8.10423063
_cell_length_b   8.10423063
_cell_length_c   6.82767897
_cell_angle_alpha   84.79841268
_cell_angle_beta   95.20158732
_cell_angle_gamma   68.09932440
_symmetry_Int_Tables_number   1
_chemical_formula_structural   ZnH8(CO2)4
_chemical_formula_sum   'Zn2 H16 C8 O16'
_cell_volume   410.57915182
_cell_formula_units_Z   2
loop_
 _symmetry_equiv_pos_site_id
 _symmetry_equiv_pos_as_xyz
  1  'x, y, z'
loop_
 _atom_site_type_symbol
 _atom_site_label
 _atom_site_symmetry_multiplicity
 _atom_site_fract_x
 _atom_site_fract_y
 _atom_site_fract_z
 _atom_site_occupancy
  Zn  Zn0  1  0.500000  0.000000  0.500000  1
  Zn  Zn1  1  0.000000  0.500000  0.000000  1
  H  H2  1  0.860099  0.444399  0.627984  1
  H  H3  1  0.444399  0.860099  0.872016  1
  H  H4  1  0.139901  0.555601  0.372016  1
  H  H5  1  0.555601  0.139901  0.127984  1
  H  H6  1  0.841473  0.649856  0.619553  1
  H  H7  1  0.649856  0.841473  0.880447  1
  H  H8  1  0.158527  0.350144  0.380447  1
  H  H9  1  0.350144  0.158527  0.119553  1
  H  H10  1  0.589587  0.283339  0.547525  1
  H  H11  1  0.283339  0.589587  0.952475  1
  H  H12  1  0.410413  0.716661  0.452475  1
  H  H13  1  0.716661  0.410413  0.047525  1
  H  H14  1  0.235753  0.516820  0.758659  1
  H  H15  1  0.516820  0.235753  0.741341  1
  H  H16  1  0.764247  0.483180  0.241341  1
  H  H17  1  0.483180  0.764247  0.258659  1
  C  C18  1  0.101135  0.049164  0.495550  1
  C  C19  1  0.049164  0.101135  0.004450  1
  C  C20  1  0.898865  0.950836  0.504450  1
  C  C21  1  0.950836  0.898865  0.995550  1
  C  C22  1  0.906007  0.130812  0.497459  1
  C  C23  1  0.130812  0.906007  0.002541  1
  C  C24  1  0.093993  0.869188  0.502541  1
  C  C25  1  0.869188  0.093993  0.997459  1
  O  O26  1  0.530205  0.893701  0.799940  1
  O  O27  1  0.893701  0.530205  0.700060  1
  O  O28  1  0.469795  0.106299  0.200060  1
  O  O29  1  0.106299  0.469795  0.299940  1
  O  O30  1  0.492547  0.249045  0.596158  1
  O  O31  1  0.249045  0.492547  0.903842  1
  O  O32  1  0.507453  0.750955  0.403842  1
  O  O33  1  0.750955  0.507453  0.096158  1
  O  O34  1  0.219453  0.115658  0.489408  1
  O  O35  1  0.115658  0.219453  0.010592  1
  O  O36  1  0.780547  0.884342  0.510592  1
  O  O37  1  0.884342  0.780547  0.989408  1
  O  O38  1  0.794047  0.289636  0.496069  1
  O  O39  1  0.289636  0.794047  0.003931  1
  O  O40  1  0.205953  0.710364  0.503931  1
  O  O41  1  0.710364  0.205953  0.996069  1
