# generated using pymatgen
data_In2AsSe
_symmetry_space_group_name_H-M   'P 1'
_cell_length_a   9.02792230
_cell_length_b   11.92952396
_cell_length_c   7.84333229
_cell_angle_alpha   29.28159870
_cell_angle_beta   55.10229796
_cell_angle_gamma   41.14043628
_symmetry_Int_Tables_number   1
_chemical_formula_structural   In2AsSe
_chemical_formula_sum   'In4 As2 Se2'
_cell_volume   262.21720258
_cell_formula_units_Z   2
loop_
 _symmetry_equiv_pos_site_id
 _symmetry_equiv_pos_as_xyz
  1  'x, y, z'
loop_
 _atom_site_type_symbol
 _atom_site_label
 _atom_site_symmetry_multiplicity
 _atom_site_fract_x
 _atom_site_fract_y
 _atom_site_fract_z
 _atom_site_occupancy
  In  In0  1  0.999740  0.995532  0.003313  1
  In  In1  1  0.494673  0.017100  0.985249  1
  In  In2  1  0.263287  0.483517  0.017676  1
  In  In3  1  0.734510  0.516027  0.984117  1
  As  As4  1  0.627951  0.000553  0.245988  1
  As  As5  1  0.371890  0.503311  0.248426  1
  Se  Se6  1  0.123287  0.997862  0.258732  1
  Se  Se7  1  0.872713  0.506212  0.242619  1
