# generated using pymatgen
data_As3HO6
_symmetry_space_group_name_H-M   'P 1'
_cell_length_a   12.94650060
_cell_length_b   4.70990914
_cell_length_c   11.42978177
_cell_angle_alpha   90.00000000
_cell_angle_beta   116.86796517
_cell_angle_gamma   90.00000000
_symmetry_Int_Tables_number   1
_chemical_formula_structural   As3HO6
_chemical_formula_sum   'As12 H4 O24'
_cell_volume   621.71626959
_cell_formula_units_Z   4
loop_
 _symmetry_equiv_pos_site_id
 _symmetry_equiv_pos_as_xyz
  1  'x, y, z'
loop_
 _atom_site_type_symbol
 _atom_site_label
 _atom_site_symmetry_multiplicity
 _atom_site_fract_x
 _atom_site_fract_y
 _atom_site_fract_z
 _atom_site_occupancy
  As  As0  1  0.970353  0.246872  0.641474  1
  As  As1  1  0.029647  0.746872  0.858526  1
  As  As2  1  0.029647  0.753128  0.358526  1
  As  As3  1  0.970353  0.253128  0.141474  1
  As  As4  1  0.445686  0.555429  0.642368  1
  As  As5  1  0.554314  0.055429  0.857632  1
  As  As6  1  0.554314  0.444571  0.357632  1
  As  As7  1  0.445686  0.944571  0.142368  1
  As  As8  1  0.248787  0.380767  0.736367  1
  As  As9  1  0.751213  0.880767  0.763633  1
  As  As10  1  0.751213  0.619233  0.263633  1
  As  As11  1  0.248787  0.119233  0.236367  1
  H  H12  1  0.271966  0.842129  0.824805  1
  H  H13  1  0.728034  0.342129  0.675195  1
  H  H14  1  0.728034  0.157871  0.175195  1
  H  H15  1  0.271966  0.657871  0.324805  1
  O  O16  1  0.035772  0.109614  0.809744  1
  O  O17  1  0.964228  0.609614  0.690256  1
  O  O18  1  0.964228  0.890386  0.190256  1
  O  O19  1  0.035772  0.390386  0.309744  1
  O  O20  1  0.109162  0.267557  0.627250  1
  O  O21  1  0.890838  0.767557  0.872750  1
  O  O22  1  0.890838  0.732443  0.372750  1
  O  O23  1  0.109162  0.232443  0.127250  1
  O  O24  1  0.295310  0.533794  0.629483  1
  O  O25  1  0.704690  0.033794  0.870517  1
  O  O26  1  0.704690  0.466206  0.370517  1
  O  O27  1  0.295310  0.966206  0.129483  1
  O  O28  1  0.486035  0.189144  0.688317  1
  O  O29  1  0.513965  0.689144  0.811683  1
  O  O30  1  0.513965  0.810856  0.311683  1
  O  O31  1  0.486035  0.310856  0.188317  1
  O  O32  1  0.234893  0.648987  0.833911  1
  O  O33  1  0.765107  0.148987  0.666089  1
  O  O34  1  0.765107  0.351013  0.166089  1
  O  O35  1  0.234893  0.851013  0.333911  1
  O  O36  1  0.331106  0.109319  0.827763  1
  O  O37  1  0.668894  0.609319  0.672237  1
  O  O38  1  0.668894  0.890681  0.172237  1
  O  O39  1  0.331106  0.390681  0.327763  1
