# generated using pymatgen
data_HBr
_symmetry_space_group_name_H-M   'P 1'
_cell_length_a   4.44316861
_cell_length_b   5.64365550
_cell_length_c   4.44316861
_cell_angle_alpha   90.00000000
_cell_angle_beta   77.40165189
_cell_angle_gamma   90.00000000
_symmetry_Int_Tables_number   1
_chemical_formula_structural   HBr
_chemical_formula_sum   'H2 Br2'
_cell_volume   108.73307242
_cell_formula_units_Z   2
loop_
 _symmetry_equiv_pos_site_id
 _symmetry_equiv_pos_as_xyz
  1  'x, y, z'
loop_
 _atom_site_type_symbol
 _atom_site_label
 _atom_site_symmetry_multiplicity
 _atom_site_fract_x
 _atom_site_fract_y
 _atom_site_fract_z
 _atom_site_occupancy
  H  H0  1  0.936091  0.685923  0.063909  1
  H  H1  1  0.063909  0.185923  0.936091  1
  Br  Br2  1  0.760068  0.493077  0.239932  1
  Br  Br3  1  0.239932  0.993077  0.760068  1
