# generated using pymatgen
data_Eu(MgH3)2
_symmetry_space_group_name_H-M   'P 1'
_cell_length_a   3.74188805
_cell_length_b   3.74204048
_cell_length_c   8.02694954
_cell_angle_alpha   90.00048857
_cell_angle_beta   90.00247285
_cell_angle_gamma   89.99778837
_symmetry_Int_Tables_number   1
_chemical_formula_structural   Eu(MgH3)2
_chemical_formula_sum   'Eu1 Mg2 H6'
_cell_volume   112.39572779
_cell_formula_units_Z   1
loop_
 _symmetry_equiv_pos_site_id
 _symmetry_equiv_pos_as_xyz
  1  'x, y, z'
loop_
 _atom_site_type_symbol
 _atom_site_label
 _atom_site_symmetry_multiplicity
 _atom_site_fract_x
 _atom_site_fract_y
 _atom_site_fract_z
 _atom_site_occupancy
  Eu  Eu0  1  -0.000038  0.000078  0.000056  1
  Mg  Mg1  1  0.499998  0.499999  0.723829  1
  Mg  Mg2  1  0.500017  0.499959  0.276146  1
  H  H3  1  0.500004  -0.000022  0.790444  1
  H  H4  1  0.000013  0.499992  0.790441  1
  H  H5  1  0.500001  0.000002  0.209547  1
  H  H6  1  0.000007  0.499995  0.209546  1
  H  H7  1  0.499997  0.500001  -0.000009  1
  H  H8  1  0.500000  0.499995  0.500001  1
