# generated using pymatgen
data_BaGa2(SiO4)2
_symmetry_space_group_name_H-M   'P 1'
_cell_length_a   8.84834155
_cell_length_b   9.56994228
_cell_length_c   9.56994228
_cell_angle_alpha   88.89247751
_cell_angle_beta   82.26956385
_cell_angle_gamma   82.26956385
_symmetry_Int_Tables_number   1
_chemical_formula_structural   BaGa2(SiO4)2
_chemical_formula_sum   'Ba4 Ga8 Si8 O32'
_cell_volume   795.70162704
_cell_formula_units_Z   4
loop_
 _symmetry_equiv_pos_site_id
 _symmetry_equiv_pos_as_xyz
  1  'x, y, z'
loop_
 _atom_site_type_symbol
 _atom_site_label
 _atom_site_symmetry_multiplicity
 _atom_site_fract_x
 _atom_site_fract_y
 _atom_site_fract_z
 _atom_site_occupancy
  O  O0  1  0.008612  0.677213  0.912328  1
  O  O1  1  0.491388  0.587672  0.822787  1
  O  O2  1  0.991388  0.322787  0.087672  1
  O  O3  1  0.508612  0.412328  0.177213  1
  O  O4  1  0.505105  0.180529  0.440746  1
  O  O5  1  0.994895  0.059254  0.319471  1
  O  O6  1  0.494895  0.819471  0.559254  1
  O  O7  1  0.005105  0.940746  0.680529  1
  O  O8  1  0.109108  0.546441  0.185184  1
  O  O9  1  0.390892  0.314816  0.953559  1
  O  O10  1  0.890892  0.453559  0.814816  1
  O  O11  1  0.609108  0.685184  0.046441  1
  O  O12  1  0.600671  0.082827  0.683672  1
  O  O13  1  0.899329  0.816328  0.417173  1
  O  O14  1  0.399329  0.917173  0.316328  1
  O  O15  1  0.100671  0.183672  0.582827  1
  O  O16  1  0.303849  0.754677  0.020611  1
  O  O17  1  0.196151  0.479389  0.745323  1
  O  O18  1  0.696151  0.245323  0.979389  1
  O  O19  1  0.803849  0.520611  0.254677  1
  O  O20  1  0.995281  0.134004  0.865232  1
  O  O21  1  0.504719  0.634768  0.365996  1
  O  O22  1  0.004719  0.865996  0.134768  1
  O  O23  1  0.495281  0.365232  0.634004  1
  O  O24  1  0.531301  0.856949  0.856892  1
  O  O25  1  0.968699  0.643108  0.643051  1
  O  O26  1  0.468699  0.143051  0.143108  1
  O  O27  1  0.031301  0.356892  0.356949  1
  O  O28  1  0.265682  0.026207  0.762157  1
  O  O29  1  0.234318  0.737843  0.473793  1
  O  O30  1  0.734318  0.973793  0.237843  1
  O  O31  1  0.765682  0.262157  0.526207  1
  Si  Si32  1  0.478374  0.714329  0.938453  1
  Si  Si33  1  0.021626  0.561547  0.785671  1
  Si  Si34  1  0.521626  0.285671  0.061547  1
  Si  Si35  1  0.978374  0.438453  0.214329  1
  Si  Si36  1  0.904763  0.926635  0.285172  1
  Si  Si37  1  0.595237  0.214828  0.573365  1
  Si  Si38  1  0.095237  0.073365  0.714828  1
  Si  Si39  1  0.404763  0.785172  0.426635  1
  Ga  Ga40  1  0.113696  0.695691  0.064625  1
  Ga  Ga41  1  0.386304  0.435375  0.804309  1
  Ga  Ga42  1  0.886304  0.304309  0.935375  1
  Ga  Ga43  1  0.613696  0.564625  0.195691  1
  Ga  Ga44  1  0.535416  0.048692  0.299577  1
  Ga  Ga45  1  0.964584  0.200423  0.451308  1
  Ga  Ga46  1  0.464584  0.951308  0.700423  1
  Ga  Ga47  1  0.035416  0.799577  0.548692  1
  Ba  Ba48  1  0.285578  0.436132  0.434782  1
  Ba  Ba49  1  0.214422  0.065218  0.063868  1
  Ba  Ba50  1  0.714422  0.563868  0.565218  1
  Ba  Ba51  1  0.785578  0.934782  0.936132  1
