# generated using pymatgen
data_CoCu2(BO3)2
_symmetry_space_group_name_H-M   'P 1'
_cell_length_a   3.27059181
_cell_length_b   9.27057690
_cell_length_c   14.94114887
_cell_angle_alpha   90.00000000
_cell_angle_beta   90.00000000
_cell_angle_gamma   94.50943371
_symmetry_Int_Tables_number   1
_chemical_formula_structural   CoCu2(BO3)2
_chemical_formula_sum   'Co4 Cu8 B8 O24'
_cell_volume   451.61734427
_cell_formula_units_Z   4
loop_
 _symmetry_equiv_pos_site_id
 _symmetry_equiv_pos_as_xyz
  1  'x, y, z'
loop_
 _atom_site_type_symbol
 _atom_site_label
 _atom_site_symmetry_multiplicity
 _atom_site_fract_x
 _atom_site_fract_y
 _atom_site_fract_z
 _atom_site_occupancy
  Co  Co0  1  0.804755  0.621872  0.862990  1
  Co  Co1  1  0.195245  0.878128  0.362990  1
  Co  Co2  1  0.804755  0.121872  0.637010  1
  Co  Co3  1  0.195245  0.378128  0.137010  1
  Cu  Cu4  1  0.310564  0.363054  0.543176  1
  Cu  Cu5  1  0.310564  0.863054  0.956824  1
  Cu  Cu6  1  0.689436  0.636946  0.456824  1
  Cu  Cu7  1  0.689436  0.136946  0.043176  1
  Cu  Cu8  1  0.667089  0.124737  0.257588  1
  Cu  Cu9  1  0.332911  0.375263  0.757588  1
  Cu  Cu10  1  0.667089  0.624737  0.242412  1
  Cu  Cu11  1  0.332911  0.875263  0.742412  1
  B  B12  1  0.813428  0.595051  0.652198  1
  B  B13  1  0.863487  0.665172  0.079743  1
  B  B14  1  0.186572  0.404949  0.347802  1
  B  B15  1  0.136513  0.834828  0.579743  1
  B  B16  1  0.813428  0.095051  0.847802  1
  B  B17  1  0.863487  0.165172  0.420257  1
  B  B18  1  0.136513  0.334828  0.920257  1
  B  B19  1  0.186572  0.904949  0.152198  1
  O  O20  1  0.769056  0.530098  0.733485  1
  O  O21  1  0.769056  0.030098  0.766515  1
  O  O22  1  0.698167  0.037573  0.383766  1
  O  O23  1  0.301833  0.962427  0.616234  1
  O  O24  1  0.089891  0.297446  0.006238  1
  O  O25  1  0.664427  0.740136  0.346140  1
  O  O26  1  0.664427  0.240136  0.153860  1
  O  O27  1  0.089891  0.797446  0.493762  1
  O  O28  1  0.679646  0.536479  0.573235  1
  O  O29  1  0.301833  0.462427  0.883766  1
  O  O30  1  0.910109  0.202554  0.506238  1
  O  O31  1  0.015248  0.236387  0.848615  1
  O  O32  1  0.320354  0.963521  0.073235  1
  O  O33  1  0.335573  0.759864  0.846140  1
  O  O34  1  0.984752  0.763613  0.151385  1
  O  O35  1  0.230944  0.469902  0.266515  1
  O  O36  1  0.320354  0.463521  0.426765  1
  O  O37  1  0.015248  0.736387  0.651385  1
  O  O38  1  0.698167  0.537573  0.116234  1
  O  O39  1  0.230944  0.969902  0.233485  1
  O  O40  1  0.984752  0.263613  0.348615  1
  O  O41  1  0.910109  0.702554  0.993762  1
  O  O42  1  0.335573  0.259864  0.653860  1
  O  O43  1  0.679646  0.036479  0.926765  1
