# generated using pymatgen
data_U2CuP2(H4O5)4
_symmetry_space_group_name_H-M   'P 1'
_cell_length_a   7.02630669
_cell_length_b   7.02630669
_cell_length_c   17.68682028
_cell_angle_alpha   90.00000000
_cell_angle_beta   90.00000000
_cell_angle_gamma   90.00000000
_symmetry_Int_Tables_number   1
_chemical_formula_structural   U2CuP2(H4O5)4
_chemical_formula_sum   'U4 Cu2 P4 H32 O40'
_cell_volume   873.18037752
_cell_formula_units_Z   2
loop_
 _symmetry_equiv_pos_site_id
 _symmetry_equiv_pos_as_xyz
  1  'x, y, z'
loop_
 _atom_site_type_symbol
 _atom_site_label
 _atom_site_symmetry_multiplicity
 _atom_site_fract_x
 _atom_site_fract_y
 _atom_site_fract_z
 _atom_site_occupancy
  U  U0  1  0.750000  0.750000  0.948388  1
  U  U1  1  0.250000  0.250000  0.051612  1
  U  U2  1  0.750000  0.750000  0.450539  1
  U  U3  1  0.250000  0.250000  0.549461  1
  Cu  Cu4  1  0.750000  0.750000  0.687607  1
  Cu  Cu5  1  0.250000  0.250000  0.312393  1
  P  P6  1  0.250000  0.750000  0.000000  1
  P  P7  1  0.750000  0.250000  0.000000  1
  P  P8  1  0.250000  0.750000  0.500000  1
  P  P9  1  0.750000  0.250000  0.500000  1
  H  H10  1  0.419122  0.867928  0.142020  1
  H  H11  1  0.080878  0.632072  0.142020  1
  H  H12  1  0.867928  0.080878  0.142020  1
  H  H13  1  0.632072  0.419122  0.142020  1
  H  H14  1  0.580878  0.132072  0.857980  1
  H  H15  1  0.919122  0.367928  0.857980  1
  H  H16  1  0.132072  0.919122  0.857980  1
  H  H17  1  0.367928  0.580878  0.857980  1
  H  H18  1  0.638838  0.080486  0.645517  1
  H  H19  1  0.861162  0.419514  0.645517  1
  H  H20  1  0.080486  0.861162  0.645517  1
  H  H21  1  0.419514  0.638838  0.645517  1
  H  H22  1  0.361162  0.919514  0.354483  1
  H  H23  1  0.138838  0.580486  0.354483  1
  H  H24  1  0.919514  0.138838  0.354483  1
  H  H25  1  0.580486  0.361162  0.354483  1
  H  H26  1  0.626529  0.076281  0.736379  1
  H  H27  1  0.873471  0.423719  0.736379  1
  H  H28  1  0.076281  0.873471  0.736379  1
  H  H29  1  0.423719  0.626529  0.736379  1
  H  H30  1  0.373471  0.923719  0.263621  1
  H  H31  1  0.126529  0.576281  0.263621  1
  H  H32  1  0.923719  0.126529  0.263621  1
  H  H33  1  0.576281  0.373471  0.263621  1
  H  H34  1  0.531721  0.713106  0.189788  1
  H  H35  1  0.968279  0.786894  0.189788  1
  H  H36  1  0.713106  0.968279  0.189788  1
  H  H37  1  0.786894  0.531721  0.189788  1
  H  H38  1  0.468279  0.286894  0.810212  1
  H  H39  1  0.031721  0.213106  0.810212  1
  H  H40  1  0.286894  0.031721  0.810212  1
  H  H41  1  0.213106  0.468279  0.810212  1
  O  O42  1  0.750000  0.750000  0.554136  1
  O  O43  1  0.250000  0.250000  0.445864  1
  O  O44  1  0.750000  0.750000  0.050227  1
  O  O45  1  0.250000  0.250000  0.949773  1
  O  O46  1  0.750000  0.750000  0.348220  1
  O  O47  1  0.250000  0.250000  0.651780  1
  O  O48  1  0.750000  0.750000  0.845270  1
  O  O49  1  0.250000  0.250000  0.154730  1
  O  O50  1  0.076824  0.786877  0.947381  1
  O  O51  1  0.423176  0.713123  0.947381  1
  O  O52  1  0.786877  0.423176  0.947381  1
  O  O53  1  0.713123  0.076824  0.947381  1
  O  O54  1  0.923176  0.213123  0.052619  1
  O  O55  1  0.576824  0.286877  0.052619  1
  O  O56  1  0.213123  0.576824  0.052619  1
  O  O57  1  0.286877  0.923176  0.052619  1
  O  O58  1  0.076467  0.706100  0.448227  1
  O  O59  1  0.423533  0.793900  0.448227  1
  O  O60  1  0.706100  0.423533  0.448227  1
  O  O61  1  0.793900  0.076467  0.448227  1
  O  O62  1  0.923533  0.293900  0.551773  1
  O  O63  1  0.576467  0.206100  0.551773  1
  O  O64  1  0.293900  0.576467  0.551773  1
  O  O65  1  0.206100  0.923533  0.551773  1
  O  O66  1  0.701079  0.028918  0.691176  1
  O  O67  1  0.798921  0.471082  0.691176  1
  O  O68  1  0.028918  0.798921  0.691176  1
  O  O69  1  0.471082  0.701079  0.691176  1
  O  O70  1  0.298921  0.971082  0.308824  1
  O  O71  1  0.201079  0.528918  0.308824  1
  O  O72  1  0.971082  0.201079  0.308824  1
  O  O73  1  0.528918  0.298921  0.308824  1
  O  O74  1  0.490340  0.849159  0.189568  1
  O  O75  1  0.009660  0.650841  0.189568  1
  O  O76  1  0.849159  0.009660  0.189568  1
  O  O77  1  0.650841  0.490340  0.189568  1
  O  O78  1  0.509660  0.150841  0.810432  1
  O  O79  1  0.990340  0.349159  0.810432  1
  O  O80  1  0.150841  0.990340  0.810432  1
  O  O81  1  0.349159  0.509660  0.810432  1
