# generated using pymatgen
data_SrH4O3
_symmetry_space_group_name_H-M   'P 1'
_cell_length_a   3.83239241
_cell_length_b   5.59840617
_cell_length_c   7.30504502
_cell_angle_alpha   99.70133201
_cell_angle_beta   90.95226991
_cell_angle_gamma   94.63134219
_symmetry_Int_Tables_number   1
_chemical_formula_structural   SrH4O3
_chemical_formula_sum   'Sr2 H8 O6'
_cell_volume   153.91319583
_cell_formula_units_Z   2
loop_
 _symmetry_equiv_pos_site_id
 _symmetry_equiv_pos_as_xyz
  1  'x, y, z'
loop_
 _atom_site_type_symbol
 _atom_site_label
 _atom_site_symmetry_multiplicity
 _atom_site_fract_x
 _atom_site_fract_y
 _atom_site_fract_z
 _atom_site_occupancy
  Sr  Sr0  1  0.961347  0.631015  0.712991  1
  Sr  Sr1  1  0.944192  0.330408  0.242066  1
  H  H2  1  0.240669  0.130123  0.827099  1
  H  H3  1  0.818840  0.137433  0.826606  1
  H  H4  1  0.795286  0.828345  0.355520  1
  H  H5  1  0.286078  0.906390  0.298184  1
  H  H6  1  0.490373  0.956586  0.611721  1
  H  H7  1  0.442465  0.223629  0.497503  1
  H  H8  1  0.512797  0.786651  0.114201  1
  H  H9  1  0.375682  0.489089  0.979883  1
  O  O10  1  0.047152  0.238843  0.878925  1
  O  O11  1  0.005019  0.768285  0.408057  1
  O  O12  1  0.507486  0.949387  0.744856  1
  O  O13  1  0.458472  0.983215  0.213558  1
  O  O14  1  0.447008  0.400237  0.508801  1
  O  O15  1  0.584220  0.588763  0.034809  1
