# generated using pymatgen
data_Yb(HoS2)2
_symmetry_space_group_name_H-M   'P 1'
_cell_length_a   7.19842254
_cell_length_b   7.19842229
_cell_length_c   7.19842187
_cell_angle_alpha   109.39705393
_cell_angle_beta   109.61964339
_cell_angle_gamma   109.39705938
_symmetry_Int_Tables_number   1
_chemical_formula_structural   Yb(HoS2)2
_chemical_formula_sum   'Yb2 Ho4 S8'
_cell_volume   287.13617654
_cell_formula_units_Z   2
loop_
 _symmetry_equiv_pos_site_id
 _symmetry_equiv_pos_as_xyz
  1  'x, y, z'
loop_
 _atom_site_type_symbol
 _atom_site_label
 _atom_site_symmetry_multiplicity
 _atom_site_fract_x
 _atom_site_fract_y
 _atom_site_fract_z
 _atom_site_occupancy
  Yb  Yb0  1  0.125000  0.750000  0.875000  1
  Yb  Yb1  1  0.375000  0.250000  0.625000  1
  Ho  Ho2  1  0.250000  0.627203  0.377203  1
  Ho  Ho3  1  0.750000  0.872797  0.122797  1
  Ho  Ho4  1  0.622797  0.372797  0.250000  1
  Ho  Ho5  1  0.877203  0.127203  0.750000  1
  S  S6  1  0.994073  0.852636  0.494270  1
  S  S7  1  0.141438  0.147364  0.141635  1
  S  S8  1  0.505730  0.999803  0.358365  1
  S  S9  1  0.358562  0.500197  0.005927  1
  S  S10  1  0.641635  0.647364  0.641438  1
  S  S11  1  0.505927  0.000197  0.858562  1
  S  S12  1  0.858365  0.499803  0.005730  1
  S  S13  1  0.994270  0.352636  0.494073  1
