# generated using pymatgen
data_Y5Bi3
_symmetry_space_group_name_H-M   'P 1'
_cell_length_a   8.27945191
_cell_length_b   9.54376479
_cell_length_c   12.09777030
_cell_angle_alpha   90.00000000
_cell_angle_beta   90.00000000
_cell_angle_gamma   90.00000000
_symmetry_Int_Tables_number   1
_chemical_formula_structural   Y5Bi3
_chemical_formula_sum   'Y20 Bi12'
_cell_volume   955.93122907
_cell_formula_units_Z   4
loop_
 _symmetry_equiv_pos_site_id
 _symmetry_equiv_pos_as_xyz
  1  'x, y, z'
loop_
 _atom_site_type_symbol
 _atom_site_label
 _atom_site_symmetry_multiplicity
 _atom_site_fract_x
 _atom_site_fract_y
 _atom_site_fract_z
 _atom_site_occupancy
  Y  Y0  1  0.685762  0.750000  0.780506  1
  Y  Y1  1  0.854148  0.750000  0.286226  1
  Y  Y2  1  0.314238  0.250000  0.219494  1
  Y  Y3  1  0.805754  0.061498  0.559654  1
  Y  Y4  1  0.145852  0.250000  0.713774  1
  Y  Y5  1  0.694246  0.561498  0.059654  1
  Y  Y6  1  0.026318  0.750000  0.990012  1
  Y  Y7  1  0.973682  0.250000  0.009988  1
  Y  Y8  1  0.694246  0.938502  0.059654  1
  Y  Y9  1  0.645852  0.250000  0.786226  1
  Y  Y10  1  0.805754  0.438502  0.559654  1
  Y  Y11  1  0.526318  0.750000  0.509988  1
  Y  Y12  1  0.814238  0.250000  0.280506  1
  Y  Y13  1  0.305754  0.061498  0.940346  1
  Y  Y14  1  0.305754  0.438502  0.940346  1
  Y  Y15  1  0.194246  0.561498  0.440346  1
  Y  Y16  1  0.194246  0.938502  0.440346  1
  Y  Y17  1  0.185762  0.750000  0.719494  1
  Y  Y18  1  0.473682  0.250000  0.490012  1
  Y  Y19  1  0.354148  0.750000  0.213774  1
  Bi  Bi20  1  0.088974  0.250000  0.457431  1
  Bi  Bi21  1  0.566157  0.503448  0.325904  1
  Bi  Bi22  1  0.066157  0.996552  0.174096  1
  Bi  Bi23  1  0.933843  0.003448  0.825904  1
  Bi  Bi24  1  0.433843  0.003448  0.674096  1
  Bi  Bi25  1  0.411026  0.750000  0.957431  1
  Bi  Bi26  1  0.588974  0.250000  0.042569  1
  Bi  Bi27  1  0.933843  0.496552  0.825904  1
  Bi  Bi28  1  0.911026  0.750000  0.542569  1
  Bi  Bi29  1  0.566157  0.996552  0.325904  1
  Bi  Bi30  1  0.066157  0.503448  0.174096  1
  Bi  Bi31  1  0.433843  0.496552  0.674096  1
