# generated using pymatgen
data_Zr6Co16Si7
_symmetry_space_group_name_H-M   'P 1'
_cell_length_a   8.09310002
_cell_length_b   8.09303995
_cell_length_c   8.09336799
_cell_angle_alpha   60.00312911
_cell_angle_beta   60.00356563
_cell_angle_gamma   60.00278146
_symmetry_Int_Tables_number   1
_chemical_formula_structural   Zr6Co16Si7
_chemical_formula_sum   'Zr6 Co16 Si7'
_cell_volume   374.86248755
_cell_formula_units_Z   1
loop_
 _symmetry_equiv_pos_site_id
 _symmetry_equiv_pos_as_xyz
  1  'x, y, z'
loop_
 _atom_site_type_symbol
 _atom_site_label
 _atom_site_symmetry_multiplicity
 _atom_site_fract_x
 _atom_site_fract_y
 _atom_site_fract_z
 _atom_site_occupancy
  Zr  Zr0  1  0.793390  0.793425  0.206613  1
  Zr  Zr1  1  0.793488  0.206615  0.793439  1
  Zr  Zr2  1  0.206499  0.206516  0.793495  1
  Zr  Zr3  1  0.206614  0.793481  0.206516  1
  Zr  Zr4  1  0.206632  0.793480  0.793396  1
  Zr  Zr5  1  0.793489  0.206597  0.206481  1
  Co  Co6  1  0.620101  0.139673  0.620098  1
  Co  Co7  1  0.487138  0.170929  0.170966  1
  Co  Co8  1  0.379891  0.379902  0.860329  1
  Co  Co9  1  0.829045  0.829044  0.512813  1
  Co  Co10  1  0.170936  0.170922  0.487183  1
  Co  Co11  1  0.829017  0.512856  0.829057  1
  Co  Co12  1  0.170931  0.487162  0.170953  1
  Co  Co13  1  0.620057  0.620078  0.139782  1
  Co  Co14  1  0.170945  0.170930  0.170968  1
  Co  Co15  1  0.379917  0.860278  0.379903  1
  Co  Co16  1  0.620087  0.620107  0.620083  1
  Co  Co17  1  0.860324  0.379908  0.379884  1
  Co  Co18  1  0.379886  0.379896  0.379872  1
  Co  Co19  1  0.829023  0.829022  0.829062  1
  Co  Co20  1  0.139706  0.620104  0.620081  1
  Co  Co21  1  0.512844  0.829020  0.829061  1
  Si  Si22  1  0.999954  0.499994  0.500031  1
  Si  Si23  1  0.499989  -0.000068  0.500029  1
  Si  Si24  1  0.500036  0.500136  0.499908  1
  Si  Si25  1  -0.000006  0.499926  0.000059  1
  Si  Si26  1  0.499921  -0.000028  0.000088  1
  Si  Si27  1  0.500051  0.500053  -0.000054  1
  Si  Si28  1  0.000093  0.000042  0.499903  1
