# generated using pymatgen
data_Zr6NiCl15
_symmetry_space_group_name_H-M   'P 1'
_cell_length_a   8.95535521
_cell_length_b   8.95535477
_cell_length_c   8.95536228
_cell_angle_alpha   109.47118143
_cell_angle_beta   109.47156690
_cell_angle_gamma   109.47091066
_symmetry_Int_Tables_number   1
_chemical_formula_structural   Zr6NiCl15
_chemical_formula_sum   'Zr6 Ni1 Cl15'
_cell_volume   552.87492822
_cell_formula_units_Z   1
loop_
 _symmetry_equiv_pos_site_id
 _symmetry_equiv_pos_as_xyz
  1  'x, y, z'
loop_
 _atom_site_type_symbol
 _atom_site_label
 _atom_site_symmetry_multiplicity
 _atom_site_fract_x
 _atom_site_fract_y
 _atom_site_fract_z
 _atom_site_occupancy
  Zr  Zr0  1  -0.000000  0.757480  0.757480  1
  Zr  Zr1  1  0.757482  0.000002  0.757482  1
  Zr  Zr2  1  -0.000000  0.242520  0.242520  1
  Zr  Zr3  1  0.242519  0.000000  0.242518  1
  Zr  Zr4  1  0.757481  0.757481  0.000001  1
  Zr  Zr5  1  0.242520  0.242520  -0.000000  1
  Ni  Ni6  1  0.999998  0.999999  0.000001  1
  Cl  Cl7  1  0.248024  -0.000001  0.751976  1
  Cl  Cl8  1  1.000000  0.751976  0.248023  1
  Cl  Cl9  1  0.248023  0.496047  0.248024  1
  Cl  Cl10  1  0.503952  0.751976  0.751976  1
  Cl  Cl11  1  0.496048  0.248023  0.248025  1
  Cl  Cl12  1  0.000001  0.248025  0.751977  1
  Cl  Cl13  1  0.751976  0.248025  0.000000  1
  Cl  Cl14  1  0.248025  0.751975  0.000000  1
  Cl  Cl15  1  0.751975  0.503950  0.751976  1
  Cl  Cl16  1  0.500000  0.500000  1.000000  1
  Cl  Cl17  1  0.751975  0.751975  0.503949  1
  Cl  Cl18  1  0.000000  0.500000  0.499999  1
  Cl  Cl19  1  0.248025  0.248025  0.496050  1
  Cl  Cl20  1  0.751977  0.000002  0.248025  1
  Cl  Cl21  1  0.500000  0.000001  0.500000  1
