# generated using pymatgen
data_SbH12C5N3Cl4
_symmetry_space_group_name_H-M   'P 1'
_cell_length_a   10.12582250
_cell_length_b   15.60441992
_cell_length_c   17.46712236
_cell_angle_alpha   107.27871085
_cell_angle_beta   90.00000000
_cell_angle_gamma   90.00000000
_symmetry_Int_Tables_number   1
_chemical_formula_structural   SbH12C5N3Cl4
_chemical_formula_sum   'Sb8 H96 C40 N24 Cl32'
_cell_volume   2635.38523803
_cell_formula_units_Z   8
loop_
 _symmetry_equiv_pos_site_id
 _symmetry_equiv_pos_as_xyz
  1  'x, y, z'
loop_
 _atom_site_type_symbol
 _atom_site_label
 _atom_site_symmetry_multiplicity
 _atom_site_fract_x
 _atom_site_fract_y
 _atom_site_fract_z
 _atom_site_occupancy
  Sb  Sb0  1  0.466945  0.265144  0.667293  1
  Sb  Sb1  1  0.854130  0.783522  0.830929  1
  Sb  Sb2  1  0.966945  0.234856  0.332707  1
  Sb  Sb3  1  0.354130  0.716478  0.169071  1
  Sb  Sb4  1  0.645870  0.283522  0.830929  1
  Sb  Sb5  1  0.533055  0.734856  0.332707  1
  Sb  Sb6  1  0.145870  0.216478  0.169071  1
  Sb  Sb7  1  0.033055  0.765144  0.667293  1
  H  H8  1  0.185123  0.664251  0.352956  1
  H  H9  1  0.658161  0.608641  0.511069  1
  H  H10  1  0.378245  0.926224  0.843648  1
  H  H11  1  0.621755  0.073776  0.156352  1
  H  H12  1  0.540294  0.030776  0.585508  1
  H  H13  1  0.994369  0.886814  0.416723  1
  H  H14  1  0.075346  0.196396  0.664672  1
  H  H15  1  0.337641  0.004100  0.790596  1
  H  H16  1  0.817764  0.293488  0.170232  1
  H  H17  1  0.959706  0.530776  0.585508  1
  H  H18  1  0.903821  0.340534  0.736755  1
  H  H19  1  0.162359  0.504100  0.790596  1
  H  H20  1  0.783002  0.122125  0.978999  1
  H  H21  1  0.204279  0.465169  0.514387  1
  H  H22  1  0.351012  0.230491  0.935320  1
  H  H23  1  0.010035  0.014346  0.206363  1
  H  H24  1  0.518147  0.606707  0.682759  1
  H  H25  1  0.158161  0.891359  0.488931  1
  H  H26  1  0.424654  0.696396  0.664672  1
  H  H27  1  0.182236  0.706512  0.829768  1
  H  H28  1  0.707304  0.529629  0.019255  1
  H  H29  1  0.402547  0.577630  0.835902  1
  H  H30  1  0.148988  0.730491  0.935320  1
  H  H31  1  0.096179  0.659466  0.263245  1
  H  H32  1  0.685634  0.267811  0.098286  1
  H  H33  1  0.357492  0.906839  0.972579  1
  H  H34  1  0.510940  0.813846  0.643405  1
  H  H35  1  0.682236  0.793488  0.170232  1
  H  H36  1  0.326637  0.037494  0.399479  1
  H  H37  1  0.403821  0.159466  0.263245  1
  H  H38  1  0.283002  0.377875  0.021001  1
  H  H39  1  0.989965  0.985654  0.793637  1
  H  H40  1  0.651223  0.499107  0.525638  1
  H  H41  1  0.648988  0.769509  0.064680  1
  H  H42  1  0.837641  0.495900  0.209404  1
  H  H43  1  0.151223  0.000893  0.474362  1
  H  H44  1  0.575346  0.303604  0.335328  1
  H  H45  1  0.314877  0.164251  0.352956  1
  H  H46  1  0.841839  0.108641  0.511069  1
  H  H47  1  0.397664  0.955215  0.315124  1
  H  H48  1  0.317764  0.206512  0.829768  1
  H  H49  1  0.814877  0.335749  0.647044  1
  H  H50  1  0.367420  0.503197  0.738394  1
  H  H51  1  0.348777  0.500893  0.474362  1
  H  H52  1  0.207304  0.970371  0.980745  1
  H  H53  1  0.505631  0.386814  0.416723  1
  H  H54  1  0.341839  0.391359  0.488931  1
  H  H55  1  0.826637  0.462506  0.600521  1
  H  H56  1  0.597453  0.422370  0.164098  1
  H  H57  1  0.857492  0.593161  0.027421  1
  H  H58  1  0.685123  0.835749  0.647044  1
  H  H59  1  0.102336  0.455215  0.315124  1
  H  H60  1  0.828461  0.461631  0.102767  1
  H  H61  1  0.510035  0.485654  0.793637  1
  H  H62  1  0.295721  0.965169  0.514387  1
  H  H63  1  0.459706  0.969224  0.414492  1
  H  H64  1  0.673363  0.962506  0.600521  1
  H  H65  1  0.989060  0.313846  0.643405  1
  H  H66  1  0.897664  0.544785  0.684876  1
  H  H67  1  0.132580  0.003197  0.738394  1
  H  H68  1  0.314366  0.732189  0.901714  1
  H  H69  1  0.662359  0.995900  0.209404  1
  H  H70  1  0.704279  0.034831  0.485613  1
  H  H71  1  0.602336  0.044785  0.684876  1
  H  H72  1  0.216998  0.877875  0.021001  1
  H  H73  1  0.642508  0.093161  0.027421  1
  H  H74  1  0.795721  0.534831  0.485613  1
  H  H75  1  0.171540  0.538369  0.897233  1
  H  H76  1  0.814366  0.767811  0.098286  1
  H  H77  1  0.851012  0.269509  0.064680  1
  H  H78  1  0.005631  0.113186  0.583277  1
  H  H79  1  0.671539  0.961631  0.102767  1
  H  H80  1  0.494369  0.613186  0.583277  1
  H  H81  1  0.010940  0.686154  0.356595  1
  H  H82  1  0.018147  0.893293  0.317241  1
  H  H83  1  0.596179  0.840534  0.736755  1
  H  H84  1  0.924654  0.803604  0.335328  1
  H  H85  1  0.792696  0.029629  0.019255  1
  H  H86  1  0.489060  0.186154  0.356595  1
  H  H87  1  0.632580  0.496803  0.261606  1
  H  H88  1  0.328460  0.038369  0.897233  1
  H  H89  1  0.040294  0.469224  0.414492  1
  H  H90  1  0.481853  0.393293  0.317241  1
  H  H91  1  0.097453  0.077630  0.835902  1
  H  H92  1  0.121755  0.426224  0.843648  1
  H  H93  1  0.902547  0.922370  0.164098  1
  H  H94  1  0.848777  0.999107  0.525638  1
  H  H95  1  0.716998  0.622125  0.978999  1
  H  H96  1  0.981853  0.106707  0.682759  1
  H  H97  1  0.142508  0.406839  0.972579  1
  H  H98  1  0.173363  0.537494  0.399479  1
  H  H99  1  0.185634  0.232189  0.901714  1
  H  H100  1  0.489965  0.514346  0.206363  1
  H  H101  1  0.867420  0.996803  0.261606  1
  H  H102  1  0.878245  0.573776  0.156352  1
  H  H103  1  0.292696  0.470371  0.980745  1
  C  C104  1  0.812613  0.518144  0.157131  1
  C  C105  1  0.751200  0.096695  0.028404  1
  C  C106  1  0.251059  0.823693  0.343163  1
  C  C107  1  0.211200  0.746879  0.889906  1
  C  C108  1  0.687387  0.018144  0.157131  1
  C  C109  1  0.714119  0.557521  0.528529  1
  C  C110  1  0.136800  0.871990  0.840923  1
  C  C111  1  0.748800  0.596695  0.028404  1
  C  C112  1  0.785881  0.057521  0.528529  1
  C  C113  1  0.788800  0.253121  0.110094  1
  C  C114  1  0.128818  0.470232  0.378245  1
  C  C115  1  0.604455  0.806066  0.672330  1
  C  C116  1  0.751059  0.676307  0.656837  1
  C  C117  1  0.489417  0.347296  0.353982  1
  C  C118  1  0.628818  0.029768  0.621755  1
  C  C119  1  0.104455  0.693934  0.327670  1
  C  C120  1  0.010583  0.847296  0.353982  1
  C  C121  1  0.371182  0.970232  0.378245  1
  C  C122  1  0.248941  0.323693  0.343163  1
  C  C123  1  0.871182  0.529768  0.621755  1
  C  C124  1  0.312613  0.981856  0.842869  1
  C  C125  1  0.248800  0.903305  0.971596  1
  C  C126  1  0.092837  0.007421  0.798181  1
  C  C127  1  0.989417  0.152704  0.646018  1
  C  C128  1  0.187387  0.481856  0.842869  1
  C  C129  1  0.748941  0.176307  0.656837  1
  C  C130  1  0.251200  0.403305  0.971596  1
  C  C131  1  0.407163  0.507421  0.798181  1
  C  C132  1  0.395545  0.193934  0.327670  1
  C  C133  1  0.510583  0.652704  0.646018  1
  C  C134  1  0.907163  0.992579  0.201819  1
  C  C135  1  0.863200  0.128010  0.159077  1
  C  C136  1  0.711200  0.753121  0.110094  1
  C  C137  1  0.285881  0.442479  0.471471  1
  C  C138  1  0.288800  0.246879  0.889906  1
  C  C139  1  0.592837  0.492579  0.201819  1
  C  C140  1  0.363200  0.371990  0.840923  1
  C  C141  1  0.895545  0.306066  0.672330  1
  C  C142  1  0.214119  0.942479  0.471471  1
  C  C143  1  0.636800  0.628010  0.159077  1
  N  N144  1  0.727560  0.091678  0.608187  1
  N  N145  1  0.372267  0.290095  0.343190  1
  N  N146  1  0.825339  0.047280  0.165787  1
  N  N147  1  0.848520  0.725722  0.703702  1
  N  N148  1  0.460589  0.322186  0.793906  1
  N  N149  1  0.800022  0.158109  0.103382  1
  N  N150  1  0.325339  0.452720  0.834213  1
  N  N151  1  0.699978  0.658109  0.103382  1
  N  N152  1  0.227560  0.408322  0.391813  1
  N  N153  1  0.651480  0.225722  0.703702  1
  N  N154  1  0.627733  0.709905  0.656810  1
  N  N155  1  0.872267  0.209905  0.656810  1
  N  N156  1  0.151480  0.274278  0.296298  1
  N  N157  1  0.348520  0.774278  0.296298  1
  N  N158  1  0.127733  0.790095  0.343190  1
  N  N159  1  0.199978  0.841891  0.896618  1
  N  N160  1  0.174661  0.952720  0.834213  1
  N  N161  1  0.300022  0.341891  0.896618  1
  N  N162  1  0.674661  0.547280  0.165787  1
  N  N163  1  0.539411  0.677814  0.206094  1
  N  N164  1  0.960589  0.177814  0.206094  1
  N  N165  1  0.039411  0.822186  0.793906  1
  N  N166  1  0.772440  0.591678  0.608187  1
  N  N167  1  0.272440  0.908322  0.391813  1
  Cl  Cl168  1  0.427822  0.610560  0.366935  1
  Cl  Cl169  1  0.506164  0.816566  0.473016  1
  Cl  Cl170  1  0.595755  0.347421  0.972216  1
  Cl  Cl171  1  0.741252  0.669170  0.354846  1
  Cl  Cl172  1  0.572178  0.389440  0.633065  1
  Cl  Cl173  1  0.661383  0.862850  0.321604  1
  Cl  Cl174  1  0.080414  0.360825  0.155770  1
  Cl  Cl175  1  0.764888  0.929512  0.836912  1
  Cl  Cl176  1  0.919586  0.639175  0.844230  1
  Cl  Cl177  1  0.095755  0.152579  0.027784  1
  Cl  Cl178  1  0.235112  0.070488  0.163088  1
  Cl  Cl179  1  0.419586  0.860825  0.155770  1
  Cl  Cl180  1  0.072178  0.110560  0.366935  1
  Cl  Cl181  1  0.869078  0.240038  0.854417  1
  Cl  Cl182  1  0.904245  0.847421  0.972216  1
  Cl  Cl183  1  0.258748  0.330830  0.645154  1
  Cl  Cl184  1  0.264888  0.570488  0.163088  1
  Cl  Cl185  1  0.927822  0.889440  0.633065  1
  Cl  Cl186  1  0.493836  0.183434  0.526984  1
  Cl  Cl187  1  0.580414  0.139175  0.844230  1
  Cl  Cl188  1  0.338617  0.137150  0.678396  1
  Cl  Cl189  1  0.241252  0.830830  0.645154  1
  Cl  Cl190  1  0.838617  0.362850  0.321604  1
  Cl  Cl191  1  0.369078  0.259962  0.145583  1
  Cl  Cl192  1  0.161383  0.637150  0.678396  1
  Cl  Cl193  1  0.006164  0.683434  0.526984  1
  Cl  Cl194  1  0.758748  0.169170  0.354846  1
  Cl  Cl195  1  0.404245  0.652579  0.027784  1
  Cl  Cl196  1  0.993836  0.316566  0.473016  1
  Cl  Cl197  1  0.735112  0.429511  0.836912  1
  Cl  Cl198  1  0.630922  0.740038  0.854417  1
  Cl  Cl199  1  0.130922  0.759962  0.145583  1
