# generated using pymatgen
data_KB5O8
_symmetry_space_group_name_H-M   'P 1'
_cell_length_a   8.18169514
_cell_length_b   12.47873621
_cell_length_c   17.19859664
_cell_angle_alpha   90.00000000
_cell_angle_beta   90.00000000
_cell_angle_gamma   90.00000000
_symmetry_Int_Tables_number   1
_chemical_formula_structural   KB5O8
_chemical_formula_sum   'K8 B40 O64'
_cell_volume   1755.92882578
_cell_formula_units_Z   8
loop_
 _symmetry_equiv_pos_site_id
 _symmetry_equiv_pos_as_xyz
  1  'x, y, z'
loop_
 _atom_site_type_symbol
 _atom_site_label
 _atom_site_symmetry_multiplicity
 _atom_site_fract_x
 _atom_site_fract_y
 _atom_site_fract_z
 _atom_site_occupancy
  K  K0  1  0.598249  0.141370  0.824275  1
  K  K1  1  0.401751  0.858630  0.175725  1
  K  K2  1  0.098249  0.141370  0.675725  1
  K  K3  1  0.901751  0.858630  0.324275  1
  K  K4  1  0.901751  0.641370  0.824275  1
  K  K5  1  0.401751  0.641370  0.675725  1
  K  K6  1  0.098249  0.358630  0.175725  1
  K  K7  1  0.598249  0.358630  0.324275  1
  B  B8  1  0.534571  0.068996  0.554542  1
  B  B9  1  0.439249  0.776824  0.981291  1
  B  B10  1  0.767959  0.446801  0.491259  1
  B  B11  1  0.708634  0.860279  0.989133  1
  B  B12  1  0.291366  0.360279  0.510867  1
  B  B13  1  0.721905  0.228899  0.189311  1
  B  B14  1  0.939249  0.776824  0.518709  1
  B  B15  1  0.721905  0.271101  0.689311  1
  B  B16  1  0.232041  0.946801  0.008741  1
  B  B17  1  0.732041  0.553199  -0.008741  1
  B  B18  1  0.708634  0.639721  0.489133  1
  B  B19  1  0.465429  0.931004  0.445458  1
  B  B20  1  0.291366  0.139721  0.010867  1
  B  B21  1  0.534571  0.431004  0.054542  1
  B  B22  1  0.060751  0.223176  0.481291  1
  B  B23  1  0.439249  0.723176  0.481291  1
  B  B24  1  0.791366  0.139721  0.489133  1
  B  B25  1  0.965429  0.931004  0.054542  1
  B  B26  1  0.791366  0.360279  0.989133  1
  B  B27  1  0.267959  0.053199  0.508741  1
  B  B28  1  0.221905  0.271101  0.810689  1
  B  B29  1  0.034571  0.431004  0.445458  1
  B  B30  1  0.267959  0.446801  0.008741  1
  B  B31  1  0.965429  0.568996  0.554542  1
  B  B32  1  0.732041  0.946801  0.491259  1
  B  B33  1  0.208634  0.639721  0.010867  1
  B  B34  1  0.208634  0.860279  0.510867  1
  B  B35  1  0.034571  0.068996  0.945458  1
  B  B36  1  0.221905  0.228899  0.310689  1
  B  B37  1  0.767959  0.053199  -0.008741  1
  B  B38  1  0.278095  0.771101  0.810689  1
  B  B39  1  0.278095  0.728899  0.310689  1
  B  B40  1  0.778095  0.771101  0.689311  1
  B  B41  1  0.939249  0.723176  0.018709  1
  B  B42  1  0.060751  0.276824  0.981291  1
  B  B43  1  0.560751  0.276824  0.518709  1
  B  B44  1  0.560751  0.223176  0.018709  1
  B  B45  1  0.232041  0.553199  0.508741  1
  B  B46  1  0.778095  0.728899  0.189311  1
  B  B47  1  0.465429  0.568996  0.945458  1
  O  O48  1  0.843758  0.860001  0.509668  1
  O  O49  1  0.605742  0.776195  0.978190  1
  O  O50  1  0.879069  0.477194  0.556422  1
  O  O51  1  0.688994  0.709622  0.648486  1
  O  O52  1  0.188994  0.709622  0.851514  1
  O  O53  1  0.376253  0.678570  0.267137  1
  O  O54  1  0.877740  0.083211  0.923810  1
  O  O55  1  0.894258  0.223805  0.478190  1
  O  O56  1  0.894258  0.276195  0.978190  1
  O  O57  1  0.120931  0.522806  0.443578  1
  O  O58  1  0.311006  0.209622  0.851514  1
  O  O59  1  0.373962  0.664740  0.981406  1
  O  O60  1  0.670651  0.540147  0.470052  1
  O  O61  1  0.843758  0.639999  0.009668  1
  O  O62  1  0.105742  0.776195  0.521810  1
  O  O63  1  0.170651  0.540147  0.029948  1
  O  O64  1  0.873962  0.664740  0.518594  1
  O  O65  1  0.156242  0.139999  0.490332  1
  O  O66  1  0.623747  0.321430  0.732863  1
  O  O67  1  0.623747  0.178570  0.232863  1
  O  O68  1  0.122260  0.583211  0.576190  1
  O  O69  1  0.670651  0.959853  0.970052  1
  O  O70  1  0.379069  0.477194  0.943578  1
  O  O71  1  0.329349  0.040147  0.029948  1
  O  O72  1  0.620931  0.977194  0.556422  1
  O  O73  1  0.876253  0.678570  0.232863  1
  O  O74  1  0.373962  0.835260  0.481406  1
  O  O75  1  0.879069  0.022806  0.056422  1
  O  O76  1  0.126038  0.164740  0.981406  1
  O  O77  1  0.656242  0.139999  0.009668  1
  O  O78  1  0.376253  0.821430  0.767137  1
  O  O79  1  0.622260  0.916789  0.423810  1
  O  O80  1  0.156242  0.360001  0.990332  1
  O  O81  1  0.876253  0.821430  0.732863  1
  O  O82  1  0.123747  0.321430  0.767137  1
  O  O83  1  0.329349  0.459853  0.529948  1
  O  O84  1  0.123747  0.178570  0.267137  1
  O  O85  1  0.811006  0.209622  0.648486  1
  O  O86  1  0.311006  0.290378  0.351514  1
  O  O87  1  0.170651  0.959853  0.529948  1
  O  O88  1  0.873962  0.835260  0.018594  1
  O  O89  1  0.379069  0.022806  0.443578  1
  O  O90  1  0.394258  0.223805  0.021810  1
  O  O91  1  0.377740  0.083211  0.576190  1
  O  O92  1  0.120931  0.977194  0.943578  1
  O  O93  1  0.626038  0.335260  0.018594  1
  O  O94  1  0.105742  0.723805  0.021810  1
  O  O95  1  0.811006  0.290378  0.148486  1
  O  O96  1  0.829349  0.040147  0.470052  1
  O  O97  1  0.343758  0.639999  0.490332  1
  O  O98  1  0.622260  0.583211  0.923810  1
  O  O99  1  0.394258  0.276195  0.521810  1
  O  O100  1  0.656242  0.360001  0.509668  1
  O  O101  1  0.688994  0.790378  0.148486  1
  O  O102  1  0.188994  0.790378  0.351514  1
  O  O103  1  0.126038  0.335260  0.481406  1
  O  O104  1  0.620931  0.522806  0.056422  1
  O  O105  1  0.343758  0.860001  0.990332  1
  O  O106  1  0.377740  0.416789  0.076190  1
  O  O107  1  0.829349  0.459853  0.970052  1
  O  O108  1  0.122260  0.916789  0.076190  1
  O  O109  1  0.877740  0.416789  0.423810  1
  O  O110  1  0.605742  0.723805  0.478190  1
  O  O111  1  0.626038  0.164740  0.518594  1
