# generated using pymatgen
data_Gd3Se4
_symmetry_space_group_name_H-M   'P 1'
_cell_length_a   7.58828389
_cell_length_b   7.58839703
_cell_length_c   7.58823886
_cell_angle_alpha   109.46857868
_cell_angle_beta   109.47688294
_cell_angle_gamma   109.46890239
_symmetry_Int_Tables_number   1
_chemical_formula_structural   Gd3Se4
_chemical_formula_sum   'Gd6 Se8'
_cell_volume   336.36356955
_cell_formula_units_Z   2
loop_
 _symmetry_equiv_pos_site_id
 _symmetry_equiv_pos_as_xyz
  1  'x, y, z'
loop_
 _atom_site_type_symbol
 _atom_site_label
 _atom_site_symmetry_multiplicity
 _atom_site_fract_x
 _atom_site_fract_y
 _atom_site_fract_z
 _atom_site_occupancy
  Gd  Gd0  1  0.125000  0.749997  0.874997  1
  Gd  Gd1  1  0.624997  0.375002  0.249999  1
  Gd  Gd2  1  0.375001  0.249996  0.624998  1
  Gd  Gd3  1  0.750003  0.875001  0.125003  1
  Gd  Gd4  1  0.250002  0.625000  0.375002  1
  Gd  Gd5  1  0.874998  0.125004  0.750002  1
  Se  Se6  1  0.352042  0.499985  0.999993  1
  Se  Se7  1  0.499995  0.000005  0.352064  1
  Se  Se8  1  0.852043  0.499987  0.999999  1
  Se  Se9  1  0.647935  0.647939  0.647938  1
  Se  Se10  1  0.147963  0.147970  0.147964  1
  Se  Se11  1  0.000013  0.852057  0.500006  1
  Se  Se12  1  0.499999  0.000008  0.852036  1
  Se  Se13  1  0.000008  0.352049  0.499998  1
