# generated using pymatgen
data_Gd2CdSe4
_symmetry_space_group_name_H-M   'P 1'
_cell_length_a   7.64788194
_cell_length_b   7.64788166
_cell_length_c   7.64788151
_cell_angle_alpha   110.62691385
_cell_angle_beta   110.62691329
_cell_angle_gamma   107.18376976
_symmetry_Int_Tables_number   1
_chemical_formula_structural   Gd2CdSe4
_chemical_formula_sum   'Gd4 Cd2 Se8'
_cell_volume   343.94159198
_cell_formula_units_Z   2
loop_
 _symmetry_equiv_pos_site_id
 _symmetry_equiv_pos_as_xyz
  1  'x, y, z'
loop_
 _atom_site_type_symbol
 _atom_site_label
 _atom_site_symmetry_multiplicity
 _atom_site_fract_x
 _atom_site_fract_y
 _atom_site_fract_z
 _atom_site_occupancy
  Gd  Gd0  1  0.114789  0.750000  0.864789  1
  Gd  Gd1  1  0.250000  0.614789  0.364789  1
  Gd  Gd2  1  0.385211  0.250000  0.635211  1
  Gd  Gd3  1  0.750000  0.885211  0.135211  1
  Cd  Cd4  1  0.625000  0.375000  0.250000  1
  Cd  Cd5  1  0.875000  0.125000  0.750000  1
  Se  Se6  1  0.492687  0.003006  0.873427  1
  Se  Se7  1  0.119260  0.129579  0.126573  1
  Se  Se8  1  0.380740  0.507313  0.010319  1
  Se  Se9  1  0.629579  0.619260  0.626573  1
  Se  Se10  1  0.503006  0.992687  0.373427  1
  Se  Se11  1  0.007313  0.880740  0.510319  1
  Se  Se12  1  0.870421  0.496994  0.989681  1
  Se  Se13  1  0.996994  0.370421  0.489681  1
