# generated using pymatgen
data_U(HO2)2
_symmetry_space_group_name_H-M   'P 1'
_cell_length_a   4.16294602
_cell_length_b   6.07754116
_cell_length_c   6.18411420
_cell_angle_alpha   39.67125541
_cell_angle_beta   69.02229289
_cell_angle_gamma   70.88662746
_symmetry_Int_Tables_number   1
_chemical_formula_structural   U(HO2)2
_chemical_formula_sum   'U1 H2 O4'
_cell_volume   92.90782241
_cell_formula_units_Z   1
loop_
 _symmetry_equiv_pos_site_id
 _symmetry_equiv_pos_as_xyz
  1  'x, y, z'
loop_
 _atom_site_type_symbol
 _atom_site_label
 _atom_site_symmetry_multiplicity
 _atom_site_fract_x
 _atom_site_fract_y
 _atom_site_fract_z
 _atom_site_occupancy
  U  U0  1  0.000663  0.003077  0.996872  1
  H  H1  1  0.389450  0.915462  0.604391  1
  H  H2  1  0.912768  0.402738  0.075616  1
  O  O3  1  0.200531  0.804073  0.803898  1
  O  O4  1  0.807920  0.204200  0.186627  1
  O  O5  1  0.493773  0.000244  0.001920  1
  O  O6  1  0.999444  0.496653  0.501924  1
