# generated using pymatgen
data_Hg(Mo3S4)2
_symmetry_space_group_name_H-M   'P 1'
_cell_length_a   6.71557494
_cell_length_b   6.71557523
_cell_length_c   6.71557448
_cell_angle_alpha   93.91359199
_cell_angle_beta   93.91358734
_cell_angle_gamma   93.91358711
_symmetry_Int_Tables_number   1
_chemical_formula_structural   Hg(Mo3S4)2
_chemical_formula_sum   'Hg1 Mo6 S8'
_cell_volume   300.64464828
_cell_formula_units_Z   1
loop_
 _symmetry_equiv_pos_site_id
 _symmetry_equiv_pos_as_xyz
  1  'x, y, z'
loop_
 _atom_site_type_symbol
 _atom_site_label
 _atom_site_symmetry_multiplicity
 _atom_site_fract_x
 _atom_site_fract_y
 _atom_site_fract_z
 _atom_site_occupancy
  Hg  Hg0  1  0.000000  0.000000  0.000000  1
  Mo  Mo1  1  0.448028  0.769630  0.586904  1
  Mo  Mo2  1  0.586904  0.448028  0.769630  1
  Mo  Mo3  1  0.769630  0.586904  0.448028  1
  Mo  Mo4  1  0.230370  0.413096  0.551972  1
  Mo  Mo5  1  0.413096  0.551972  0.230370  1
  Mo  Mo6  1  0.551972  0.230370  0.413096  1
  S  S7  1  0.129048  0.716371  0.375394  1
  S  S8  1  0.375394  0.129048  0.716371  1
  S  S9  1  0.774469  0.774469  0.774469  1
  S  S10  1  0.716371  0.375394  0.129048  1
  S  S11  1  0.283629  0.624606  0.870952  1
  S  S12  1  0.225531  0.225531  0.225531  1
  S  S13  1  0.624606  0.870952  0.283629  1
  S  S14  1  0.870952  0.283629  0.624606  1
