# generated using pymatgen
data_Co4Pb(CO)16
_symmetry_space_group_name_H-M   'P 1'
_cell_length_a   12.25946862
_cell_length_b   12.34484804
_cell_length_c   17.28741051
_cell_angle_alpha   90.00000000
_cell_angle_beta   90.00000000
_cell_angle_gamma   90.00000000
_symmetry_Int_Tables_number   1
_chemical_formula_structural   Co4Pb(CO)16
_chemical_formula_sum   'Co16 Pb4 C64 O64'
_cell_volume   2616.29878546
_cell_formula_units_Z   4
loop_
 _symmetry_equiv_pos_site_id
 _symmetry_equiv_pos_as_xyz
  1  'x, y, z'
loop_
 _atom_site_type_symbol
 _atom_site_label
 _atom_site_symmetry_multiplicity
 _atom_site_fract_x
 _atom_site_fract_y
 _atom_site_fract_z
 _atom_site_occupancy
  Co  Co0  1  0.232735  0.933024  0.010191  1
  Co  Co1  1  0.937121  0.268189  0.177458  1
  Co  Co2  1  0.732734  0.433024  0.989809  1
  Co  Co3  1  0.437121  0.768189  0.822542  1
  Co  Co4  1  0.937121  0.231811  0.677458  1
  Co  Co5  1  0.767266  0.066976  0.989809  1
  Co  Co6  1  0.562879  0.268189  0.677458  1
  Co  Co7  1  0.267265  0.933024  0.510191  1
  Co  Co8  1  0.267265  0.566976  0.010191  1
  Co  Co9  1  0.062879  0.768189  0.322542  1
  Co  Co10  1  0.437121  0.731811  0.322542  1
  Co  Co11  1  0.562879  0.231811  0.177458  1
  Co  Co12  1  0.732734  0.066976  0.489809  1
  Co  Co13  1  0.767266  0.433024  0.489809  1
  Co  Co14  1  0.232735  0.566976  0.510191  1
  Co  Co15  1  0.062879  0.731811  0.822542  1
  Pb  Pb16  1  0.750000  0.250000  0.584509  1
  Pb  Pb17  1  0.750000  0.250000  0.084509  1
  Pb  Pb18  1  0.250000  0.750000  0.915491  1
  Pb  Pb19  1  0.250000  0.750000  0.415491  1
  C  C20  1  0.277612  0.495339  0.426523  1
  C  C21  1  0.282429  0.048702  0.568278  1
  C  C22  1  0.833426  0.370334  0.930846  1
  C  C23  1  0.646526  0.352559  0.735864  1
  C  C24  1  0.446209  0.277811  0.736818  1
  C  C25  1  0.404860  0.609685  0.019302  1
  C  C26  1  0.777612  0.504661  0.073477  1
  C  C27  1  0.932130  0.375558  0.680938  1
  C  C28  1  0.146526  0.852559  0.264136  1
  C  C29  1  0.722388  0.995339  0.073477  1
  C  C30  1  0.567870  0.375558  0.180938  1
  C  C31  1  0.666574  0.370334  0.430846  1
  C  C32  1  0.222388  0.495339  0.926523  1
  C  C33  1  0.567870  0.124442  0.680938  1
  C  C34  1  0.646526  0.147441  0.235864  1
  C  C35  1  0.782429  0.951298  0.931722  1
  C  C36  1  0.053791  0.222189  0.736818  1
  C  C37  1  0.333426  0.870334  0.069154  1
  C  C38  1  0.333426  0.629666  0.569154  1
  C  C39  1  0.853474  0.147441  0.735864  1
  C  C40  1  0.067870  0.624442  0.319062  1
  C  C41  1  0.595140  0.109685  0.480698  1
  C  C42  1  0.404860  0.890315  0.519302  1
  C  C43  1  0.995420  0.329358  0.094472  1
  C  C44  1  0.995420  0.170643  0.594472  1
  C  C45  1  0.004580  0.670643  0.905528  1
  C  C46  1  0.432130  0.875558  0.319062  1
  C  C47  1  0.932130  0.124442  0.180938  1
  C  C48  1  0.504580  0.329358  0.594472  1
  C  C49  1  0.146526  0.647441  0.764136  1
  C  C50  1  0.004580  0.829357  0.405528  1
  C  C51  1  0.166574  0.629666  0.069154  1
  C  C52  1  0.222388  0.004661  0.426523  1
  C  C53  1  0.166574  0.870334  0.569154  1
  C  C54  1  0.053791  0.277811  0.236818  1
  C  C55  1  0.282429  0.451298  0.068278  1
  C  C56  1  0.946209  0.722189  0.763182  1
  C  C57  1  0.432130  0.624442  0.819062  1
  C  C58  1  0.853474  0.352559  0.235864  1
  C  C59  1  0.504580  0.170643  0.094472  1
  C  C60  1  0.217571  0.451298  0.568278  1
  C  C61  1  0.717571  0.548702  0.931722  1
  C  C62  1  0.904860  0.390315  0.480698  1
  C  C63  1  0.782429  0.548702  0.431722  1
  C  C64  1  0.353474  0.647441  0.264136  1
  C  C65  1  0.553791  0.777811  0.763182  1
  C  C66  1  0.277612  0.004661  0.926523  1
  C  C67  1  0.495420  0.829357  0.905528  1
  C  C68  1  0.717571  0.951298  0.431722  1
  C  C69  1  0.904860  0.109685  0.980698  1
  C  C70  1  0.946209  0.777811  0.263182  1
  C  C71  1  0.722388  0.504661  0.573477  1
  C  C72  1  0.095140  0.890315  0.019302  1
  C  C73  1  0.095140  0.609685  0.519302  1
  C  C74  1  0.067870  0.875558  0.819062  1
  C  C75  1  0.553791  0.722189  0.263182  1
  C  C76  1  0.446209  0.222189  0.236818  1
  C  C77  1  0.777612  0.995339  0.573477  1
  C  C78  1  0.666574  0.129666  0.930846  1
  C  C79  1  0.833426  0.129666  0.430846  1
  C  C80  1  0.217571  0.048702  0.068278  1
  C  C81  1  0.495420  0.670643  0.405528  1
  C  C82  1  0.353474  0.852559  0.764136  1
  C  C83  1  0.595140  0.390315  0.980698  1
  O  O84  1  0.869909  0.784537  0.224451  1
  O  O85  1  0.130091  0.284537  0.275549  1
  O  O86  1  0.630091  0.715463  0.224451  1
  O  O87  1  0.305400  0.589675  0.223576  1
  O  O88  1  0.194042  0.057844  0.375083  1
  O  O89  1  0.059939  0.969118  0.815173  1
  O  O90  1  0.940061  0.030881  0.184827  1
  O  O91  1  0.194042  0.442156  0.875083  1
  O  O92  1  0.206550  0.124830  0.106453  1
  O  O93  1  0.559939  0.030881  0.684827  1
  O  O94  1  0.399010  0.838038  0.111659  1
  O  O95  1  0.100990  0.661962  0.111659  1
  O  O96  1  0.369909  0.284537  0.775549  1
  O  O97  1  0.899010  0.338038  0.888341  1
  O  O98  1  0.460609  0.127903  0.043450  1
  O  O99  1  0.206550  0.375170  0.606453  1
  O  O100  1  0.539391  0.872097  0.956550  1
  O  O101  1  0.460609  0.372097  0.543450  1
  O  O102  1  0.694042  0.942156  0.124917  1
  O  O103  1  0.805958  0.557844  0.124917  1
  O  O104  1  0.495792  0.868604  0.529983  1
  O  O105  1  0.793450  0.624830  0.393547  1
  O  O106  1  0.899010  0.161962  0.388341  1
  O  O107  1  0.293450  0.375170  0.106453  1
  O  O108  1  0.793450  0.875170  0.893547  1
  O  O109  1  0.694042  0.557844  0.624917  1
  O  O110  1  0.940061  0.469118  0.684827  1
  O  O111  1  0.504208  0.368604  0.970017  1
  O  O112  1  0.004208  0.631396  0.529983  1
  O  O113  1  0.495792  0.631396  0.029983  1
  O  O114  1  0.805400  0.410325  0.276424  1
  O  O115  1  0.059939  0.530882  0.315173  1
  O  O116  1  0.559939  0.469118  0.184827  1
  O  O117  1  0.004208  0.868604  0.029983  1
  O  O118  1  0.805958  0.942156  0.624917  1
  O  O119  1  0.305958  0.442156  0.375083  1
  O  O120  1  0.440061  0.530882  0.815173  1
  O  O121  1  0.100990  0.838038  0.611659  1
  O  O122  1  0.706550  0.875170  0.393547  1
  O  O123  1  0.440061  0.969118  0.315173  1
  O  O124  1  0.293450  0.124830  0.606453  1
  O  O125  1  0.600990  0.338038  0.388341  1
  O  O126  1  0.130091  0.215463  0.775549  1
  O  O127  1  0.630091  0.784537  0.724451  1
  O  O128  1  0.869909  0.715463  0.724451  1
  O  O129  1  0.039391  0.127903  0.543450  1
  O  O130  1  0.194600  0.589675  0.723576  1
  O  O131  1  0.694600  0.410325  0.776424  1
  O  O132  1  0.039391  0.372097  0.043450  1
  O  O133  1  0.805400  0.089675  0.776424  1
  O  O134  1  0.706550  0.624830  0.893547  1
  O  O135  1  0.995792  0.368604  0.470017  1
  O  O136  1  0.600990  0.161962  0.888341  1
  O  O137  1  0.960609  0.627903  0.956550  1
  O  O138  1  0.960609  0.872097  0.456550  1
  O  O139  1  0.194600  0.910325  0.223576  1
  O  O140  1  0.995792  0.131396  0.970017  1
  O  O141  1  0.399010  0.661962  0.611659  1
  O  O142  1  0.305958  0.057844  0.875083  1
  O  O143  1  0.369909  0.215463  0.275549  1
  O  O144  1  0.305400  0.910325  0.723576  1
  O  O145  1  0.694600  0.089675  0.276424  1
  O  O146  1  0.504208  0.131396  0.470017  1
  O  O147  1  0.539391  0.627903  0.456550  1
