# generated using pymatgen
data_La10Ga5Br4
_symmetry_space_group_name_H-M   'P 1'
_cell_length_a   8.20772694
_cell_length_b   8.20772728
_cell_length_c   17.29007197
_cell_angle_alpha   103.73040759
_cell_angle_beta   103.73040815
_cell_angle_gamma   90.00000184
_symmetry_Int_Tables_number   1
_chemical_formula_structural   La10Ga5Br4
_chemical_formula_sum   'La20 Ga10 Br8'
_cell_volume   1097.19626997
_cell_formula_units_Z   2
loop_
 _symmetry_equiv_pos_site_id
 _symmetry_equiv_pos_as_xyz
  1  'x, y, z'
loop_
 _atom_site_type_symbol
 _atom_site_label
 _atom_site_symmetry_multiplicity
 _atom_site_fract_x
 _atom_site_fract_y
 _atom_site_fract_z
 _atom_site_occupancy
  La  La0  1  0.629314  0.129314  0.592647  1
  La  La1  1  0.902064  0.402064  0.146410  1
  La  La2  1  0.244346  0.744346  0.146410  1
  La  La3  1  0.870686  0.036667  0.407353  1
  La  La4  1  0.536667  0.370686  0.407353  1
  La  La5  1  0.097936  0.597936  0.853590  1
  La  La6  1  0.402064  0.244346  0.146410  1
  La  La7  1  0.129314  0.963333  0.592647  1
  La  La8  1  0.153776  0.153776  0.307553  1
  La  La9  1  0.463333  0.629314  0.592647  1
  La  La10  1  0.346224  0.346224  0.692447  1
  La  La11  1  0.036667  0.536667  0.407353  1
  La  La12  1  0.255654  0.097936  0.853590  1
  La  La13  1  0.846224  0.846224  0.692447  1
  La  La14  1  0.755654  0.255654  0.853590  1
  La  La15  1  0.963333  0.463333  0.592647  1
  La  La16  1  0.370686  0.870686  0.407353  1
  La  La17  1  0.744346  0.902064  0.146410  1
  La  La18  1  0.653776  0.653776  0.307553  1
  La  La19  1  0.597936  0.755654  0.853590  1
  Ga  Ga20  1  0.987213  0.242618  0.729830  1
  Ga  Ga21  1  0.742618  0.487213  0.729830  1
  Ga  Ga22  1  0.757382  0.257382  0.270170  1
  Ga  Ga23  1  0.242618  0.742618  0.729830  1
  Ga  Ga24  1  0.257382  0.512787  0.270170  1
  Ga  Ga25  1  0.750000  0.750000  0.500000  1
  Ga  Ga26  1  0.487213  0.987213  0.729830  1
  Ga  Ga27  1  0.012787  0.757382  0.270170  1
  Ga  Ga28  1  0.250000  0.250000  0.500000  1
  Ga  Ga29  1  0.512787  0.012787  0.270170  1
  Br  Br30  1  0.555805  0.555805  0.111609  1
  Br  Br31  1  0.357191  0.857191  0.000000  1
  Br  Br32  1  0.142809  0.357191  0.000000  1
  Br  Br33  1  0.642809  0.142809  0.000000  1
  Br  Br34  1  0.944195  0.944195  0.888391  1
  Br  Br35  1  0.055805  0.055805  0.111609  1
  Br  Br36  1  0.857191  0.642809  0.000000  1
  Br  Br37  1  0.444195  0.444195  0.888391  1
