# generated using pymatgen
data_H8(NO2)3
_symmetry_space_group_name_H-M   'P 1'
_cell_length_a   5.01811242
_cell_length_b   5.78394664
_cell_length_c   5.57015158
_cell_angle_alpha   89.94272505
_cell_angle_beta   86.86070976
_cell_angle_gamma   91.51040396
_symmetry_Int_Tables_number   1
_chemical_formula_structural   H8(NO2)3
_chemical_formula_sum   'H8 N3 O6'
_cell_volume   161.37165173
_cell_formula_units_Z   1
loop_
 _symmetry_equiv_pos_site_id
 _symmetry_equiv_pos_as_xyz
  1  'x, y, z'
loop_
 _atom_site_type_symbol
 _atom_site_label
 _atom_site_symmetry_multiplicity
 _atom_site_fract_x
 _atom_site_fract_y
 _atom_site_fract_z
 _atom_site_occupancy
  H  H0  1  0.327420  0.065759  0.034964  1
  H  H1  1  0.287638  0.591006  0.476025  1
  H  H2  1  0.399751  0.320227  0.488370  1
  H  H3  1  0.580907  0.525611  0.335657  1
  H  H4  1  0.548937  0.529359  0.649793  1
  H  H5  1  0.610639  0.069022  0.175548  1
  H  H6  1  0.629743  0.110840  0.880412  1
  H  H7  1  0.549613  0.843733  0.992942  1
  N  N8  1  0.114780  0.480780  0.992257  1
  N  N9  1  0.524650  0.023314  0.019646  1
  N  N10  1  0.456832  0.491862  0.487235  1
  O  O11  1  0.867948  0.942515  0.488045  1
  O  O12  1  0.658758  0.570228  0.948858  1
  O  O13  1  0.901786  0.134512  0.626592  1
  O  O14  1  0.023563  0.322382  0.117637  1
  O  O15  1  0.936321  0.623000  0.895330  1
  O  O16  1  0.100714  0.855850  0.390691  1
