# generated using pymatgen
data_Mn7(PbO5)3
_symmetry_space_group_name_H-M   'P 1'
_cell_length_a   10.27942869
_cell_length_b   10.27942834
_cell_length_c   13.83318170
_cell_angle_alpha   90.00000000
_cell_angle_beta   90.00000000
_cell_angle_gamma   120.70680596
_symmetry_Int_Tables_number   1
_chemical_formula_structural   Mn7(PbO5)3
_chemical_formula_sum   'Mn28 Pb12 O60'
_cell_volume   1256.76255063
_cell_formula_units_Z   4
loop_
 _symmetry_equiv_pos_site_id
 _symmetry_equiv_pos_as_xyz
  1  'x, y, z'
loop_
 _atom_site_type_symbol
 _atom_site_label
 _atom_site_symmetry_multiplicity
 _atom_site_fract_x
 _atom_site_fract_y
 _atom_site_fract_z
 _atom_site_occupancy
  Mn  Mn0  1  0.830929  0.665177  0.500096  1
  Mn  Mn1  1  0.830929  0.665177  0.999904  1
  Mn  Mn2  1  0.669310  0.336572  0.646683  1
  Mn  Mn3  1  0.166203  0.833797  0.500000  1
  Mn  Mn4  1  0.330690  0.663428  0.353317  1
  Mn  Mn5  1  0.169071  0.334823  0.499904  1
  Mn  Mn6  1  0.500000  0.000000  0.500000  1
  Mn  Mn7  1  0.669310  0.336572  0.853317  1
  Mn  Mn8  1  0.169071  0.334823  0.000096  1
  Mn  Mn9  1  0.833797  0.166203  0.000000  1
  Mn  Mn10  1  0.500000  0.500000  0.500000  1
  Mn  Mn11  1  0.500000  0.500000  0.000000  1
  Mn  Mn12  1  0.334823  0.169071  0.499904  1
  Mn  Mn13  1  0.000000  0.500000  0.500000  1
  Mn  Mn14  1  0.330690  0.663428  0.146683  1
  Mn  Mn15  1  0.336572  0.669310  0.646683  1
  Mn  Mn16  1  0.000000  0.500000  0.000000  1
  Mn  Mn17  1  0.000000  0.000000  0.000000  1
  Mn  Mn18  1  0.663428  0.330690  0.353317  1
  Mn  Mn19  1  0.336572  0.669310  0.853317  1
  Mn  Mn20  1  0.665177  0.830929  0.500096  1
  Mn  Mn21  1  0.500000  0.000000  0.000000  1
  Mn  Mn22  1  0.334823  0.169071  0.000096  1
  Mn  Mn23  1  0.663428  0.330690  0.146683  1
  Mn  Mn24  1  0.166203  0.833797  0.000000  1
  Mn  Mn25  1  0.665177  0.830929  0.999904  1
  Mn  Mn26  1  0.833797  0.166203  0.500000  1
  Mn  Mn27  1  0.000000  0.000000  0.500000  1
  Pb  Pb28  1  0.728287  0.996772  0.250000  1
  Pb  Pb29  1  0.736666  0.736666  0.750000  1
  Pb  Pb30  1  0.002695  0.612783  0.750000  1
  Pb  Pb31  1  0.604931  0.604931  0.250000  1
  Pb  Pb32  1  0.263334  0.263334  0.250000  1
  Pb  Pb33  1  0.996772  0.728287  0.250000  1
  Pb  Pb34  1  0.271713  0.003228  0.750000  1
  Pb  Pb35  1  0.387217  0.997305  0.250000  1
  Pb  Pb36  1  0.003228  0.271713  0.750000  1
  Pb  Pb37  1  0.997305  0.387217  0.250000  1
  Pb  Pb38  1  0.612783  0.002695  0.750000  1
  Pb  Pb39  1  0.395069  0.395069  0.750000  1
  O  O40  1  0.668234  0.513166  0.077210  1
  O  O41  1  0.000072  0.163456  0.428334  1
  O  O42  1  0.354885  0.837193  0.750000  1
  O  O43  1  0.162807  0.645115  0.250000  1
  O  O44  1  0.003159  0.326508  0.925874  1
  O  O45  1  0.486834  0.331766  0.577210  1
  O  O46  1  0.530329  0.180839  0.750000  1
  O  O47  1  0.331766  0.486834  0.577210  1
  O  O48  1  -0.000072  0.836544  0.571666  1
  O  O49  1  0.180839  0.530329  0.750000  1
  O  O50  1  0.996841  0.673492  0.074126  1
  O  O51  1  0.331766  0.486834  0.922790  1
  O  O52  1  0.672715  0.672715  0.925513  1
  O  O53  1  0.836544  -0.000072  0.571666  1
  O  O54  1  0.837193  0.354885  0.750000  1
  O  O55  1  0.996841  0.673492  0.425874  1
  O  O56  1  0.162576  0.488725  0.077806  1
  O  O57  1  0.836544  -0.000072  0.928334  1
  O  O58  1  0.819161  0.469671  0.250000  1
  O  O59  1  0.668234  0.513166  0.422790  1
  O  O60  1  -0.000072  0.836544  0.928334  1
  O  O61  1  0.515284  0.345293  0.250000  1
  O  O62  1  0.673492  0.996841  0.074126  1
  O  O63  1  0.163456  0.000072  0.428334  1
  O  O64  1  0.000072  0.163456  0.071666  1
  O  O65  1  0.329402  0.845389  0.422971  1
  O  O66  1  0.486834  0.331766  0.922790  1
  O  O67  1  0.163456  0.000072  0.071666  1
  O  O68  1  0.488725  0.162576  0.077806  1
  O  O69  1  0.845389  0.329402  0.077029  1
  O  O70  1  0.835832  0.835832  0.428484  1
  O  O71  1  0.511275  0.837424  0.577806  1
  O  O72  1  0.488725  0.162576  0.422194  1
  O  O73  1  0.513166  0.668234  0.077210  1
  O  O74  1  0.845389  0.329402  0.422971  1
  O  O75  1  0.837424  0.511275  0.922194  1
  O  O76  1  0.469671  0.819161  0.250000  1
  O  O77  1  0.326508  0.003159  0.574126  1
  O  O78  1  0.154611  0.670598  0.577029  1
  O  O79  1  0.670598  0.154611  0.577029  1
  O  O80  1  0.329402  0.845389  0.077029  1
  O  O81  1  0.164168  0.164168  0.571516  1
  O  O82  1  0.003159  0.326508  0.574126  1
  O  O83  1  0.327285  0.327285  0.425513  1
  O  O84  1  0.645115  0.162807  0.250000  1
  O  O85  1  0.345293  0.515284  0.250000  1
  O  O86  1  0.513166  0.668234  0.422790  1
  O  O87  1  0.835832  0.835832  0.071516  1
  O  O88  1  0.164168  0.164168  0.928484  1
  O  O89  1  0.670598  0.154611  0.922971  1
  O  O90  1  0.654707  0.484716  0.750000  1
  O  O91  1  0.154611  0.670598  0.922971  1
  O  O92  1  0.326508  0.003159  0.925874  1
  O  O93  1  0.673492  0.996841  0.425874  1
  O  O94  1  0.837424  0.511275  0.577806  1
  O  O95  1  0.484716  0.654707  0.750000  1
  O  O96  1  0.511275  0.837424  0.922194  1
  O  O97  1  0.672715  0.672715  0.574487  1
  O  O98  1  0.162576  0.488725  0.422194  1
  O  O99  1  0.327285  0.327285  0.074487  1
