# generated using pymatgen
data_Ta22(CuS12)3
_symmetry_space_group_name_H-M   'P 1'
_cell_length_a   13.30023906
_cell_length_b   13.30023919
_cell_length_c   119.63271875
_cell_angle_alpha   14.39967200
_cell_angle_beta   14.39966999
_cell_angle_gamma   14.38856952
_symmetry_Int_Tables_number   1
_chemical_formula_structural   Ta22(CuS12)3
_chemical_formula_sum   'Ta22 Cu3 S36'
_cell_volume   1138.82300237
_cell_formula_units_Z   1
loop_
 _symmetry_equiv_pos_site_id
 _symmetry_equiv_pos_as_xyz
  1  'x, y, z'
loop_
 _atom_site_type_symbol
 _atom_site_label
 _atom_site_symmetry_multiplicity
 _atom_site_fract_x
 _atom_site_fract_y
 _atom_site_fract_z
 _atom_site_occupancy
  Ta  Ta0  1  0.093497  0.093497  0.006247  1
  Ta  Ta1  1  0.084534  0.084534  0.119567  1
  Ta  Ta2  1  0.083718  0.083718  0.230818  1
  Ta  Ta3  1  0.925370  0.925370  0.100505  1
  Ta  Ta4  1  0.072634  0.072634  0.344493  1
  Ta  Ta5  1  0.920061  0.920061  0.212918  1
  Ta  Ta6  1  0.086892  0.086892  0.452356  1
  Ta  Ta7  1  0.913719  0.913719  0.325342  1
  Ta  Ta8  1  0.967321  0.967321  0.562683  1
  Ta  Ta9  1  0.079036  0.079036  0.565586  1
  Ta  Ta10  1  0.906336  0.906336  0.438292  1
  Ta  Ta11  1  0.034298  0.034298  0.659195  1
  Ta  Ta12  1  0.079108  0.079108  0.677088  1
  Ta  Ta13  1  0.915453  0.915453  0.546477  1
  Ta  Ta14  1  0.082064  0.082064  0.787460  1
  Ta  Ta15  1  0.917600  0.917600  0.657059  1
  Ta  Ta16  1  0.032365  0.032365  0.881834  1
  Ta  Ta17  1  0.965737  0.965737  0.785240  1
  Ta  Ta18  1  0.084106  0.084106  0.898082  1
  Ta  Ta19  1  0.920463  0.920463  0.767454  1
  Ta  Ta20  1  0.920486  0.920486  0.878998  1
  Ta  Ta21  1  0.914884  0.914884  0.991727  1
  Cu  Cu22  1  0.856649  0.856649  0.091118  1
  Cu  Cu23  1  0.844921  0.844921  0.204797  1
  Cu  Cu24  1  0.836574  0.836574  0.317853  1
  S  S25  1  0.222720  0.222720  0.020820  1
  S  S26  1  0.289873  0.289873  0.032692  1
  S  S27  1  0.214623  0.214623  0.133831  1
  S  S28  1  0.291876  0.291876  0.143140  1
  S  S29  1  0.716697  0.716697  0.077309  1
  S  S30  1  0.796596  0.796596  0.085663  1
  S  S31  1  0.208789  0.208789  0.246292  1
  S  S32  1  0.286747  0.286747  0.255445  1
  S  S33  1  0.712090  0.712090  0.189317  1
  S  S34  1  0.789197  0.789197  0.198494  1
  S  S35  1  0.195425  0.195425  0.360422  1
  S  S36  1  0.284669  0.284669  0.366953  1
  S  S37  1  0.709222  0.709222  0.301323  1
  S  S38  1  0.786572  0.786572  0.310211  1
  S  S39  1  0.211898  0.211898  0.468011  1
  S  S40  1  0.280567  0.280567  0.479840  1
  S  S41  1  0.708621  0.708621  0.412016  1
  S  S42  1  0.785519  0.785519  0.421678  1
  S  S43  1  0.210032  0.210032  0.578876  1
  S  S44  1  0.293339  0.293339  0.586989  1
  S  S45  1  0.706704  0.706704  0.523047  1
  S  S46  1  0.787890  0.787890  0.531948  1
  S  S47  1  0.213222  0.213222  0.689336  1
  S  S48  1  0.295887  0.295887  0.698609  1
  S  S49  1  0.705179  0.705179  0.635558  1
  S  S50  1  0.790048  0.790048  0.643271  1
  S  S51  1  0.209335  0.209335  0.801313  1
  S  S52  1  0.294448  0.294448  0.808969  1
  S  S53  1  0.703872  0.703872  0.745882  1
  S  S54  1  0.786422  0.786422  0.755191  1
  S  S55  1  0.214002  0.214002  0.912071  1
  S  S56  1  0.292801  0.292801  0.921561  1
  S  S57  1  0.706583  0.706583  0.857478  1
  S  S58  1  0.789658  0.789658  0.865650  1
  S  S59  1  0.719501  0.719501  0.964637  1
  S  S60  1  0.786547  0.786547  0.976857  1
