# generated using pymatgen
data_BaCa(CO3)2
_symmetry_space_group_name_H-M   'P 1'
_cell_length_a   5.24419573
_cell_length_b   6.82893626
_cell_length_c   8.76640068
_cell_angle_alpha   108.68777144
_cell_angle_beta   90.00000000
_cell_angle_gamma   90.00000000
_symmetry_Int_Tables_number   1
_chemical_formula_structural   BaCa(CO3)2
_chemical_formula_sum   'Ba2 Ca2 C4 O12'
_cell_volume   297.39319949
_cell_formula_units_Z   2
loop_
 _symmetry_equiv_pos_site_id
 _symmetry_equiv_pos_as_xyz
  1  'x, y, z'
loop_
 _atom_site_type_symbol
 _atom_site_label
 _atom_site_symmetry_multiplicity
 _atom_site_fract_x
 _atom_site_fract_y
 _atom_site_fract_z
 _atom_site_occupancy
  Ba  Ba0  1  0.997888  0.275492  0.636681  1
  Ba  Ba1  1  0.497888  0.724508  0.363319  1
  Ca  Ca2  1  0.496323  0.773298  0.884291  1
  Ca  Ca3  1  0.996323  0.226702  0.115709  1
  C  C4  1  0.009660  0.749710  0.110950  1
  C  C5  1  0.492050  0.239335  0.359881  1
  C  C6  1  0.509660  0.250290  0.889050  1
  C  C7  1  0.992050  0.760665  0.640119  1
  O  O8  1  0.925210  0.608419  0.167134  1
  O  O9  1  0.748402  0.734054  0.655072  1
  O  O10  1  0.248402  0.265946  0.344928  1
  O  O11  1  0.653444  0.330285  0.293022  1
  O  O12  1  0.153444  0.669715  0.706978  1
  O  O13  1  0.352013  0.131538  0.935009  1
  O  O14  1  0.425210  0.391581  0.832866  1
  O  O15  1  0.753054  0.220948  0.895596  1
  O  O16  1  0.571957  0.130304  0.446919  1
  O  O17  1  0.852013  0.868462  0.064991  1
  O  O18  1  0.253054  0.779052  0.104404  1
  O  O19  1  0.071957  0.869696  0.553081  1
