# generated using pymatgen
data_Ba10Pr5Nb(Sn2O15)2
_symmetry_space_group_name_H-M   'P 1'
_cell_length_a   31.04356705
_cell_length_b   16.40762425
_cell_length_c   10.73766177
_cell_angle_alpha   29.36995857
_cell_angle_beta   30.13886625
_cell_angle_gamma   19.18259210
_symmetry_Int_Tables_number   1
_chemical_formula_structural   Ba10Pr5Nb(Sn2O15)2
_chemical_formula_sum   'Ba10 Pr5 Nb1 Sn4 O30'
_cell_volume   851.31405550
_cell_formula_units_Z   1
loop_
 _symmetry_equiv_pos_site_id
 _symmetry_equiv_pos_as_xyz
  1  'x, y, z'
loop_
 _atom_site_type_symbol
 _atom_site_label
 _atom_site_symmetry_multiplicity
 _atom_site_fract_x
 _atom_site_fract_y
 _atom_site_fract_z
 _atom_site_occupancy
  Ba  Ba0  1  0.099764  0.250720  0.250384  1
  Ba  Ba1  1  0.298038  0.254628  0.249531  1
  Ba  Ba2  1  0.100236  0.749280  0.749616  1
  Ba  Ba3  1  0.499272  0.249168  0.254605  1
  Ba  Ba4  1  0.298711  0.750418  0.751015  1
  Ba  Ba5  1  0.700568  0.248500  0.249227  1
  Ba  Ba6  1  0.499432  0.751500  0.750773  1
  Ba  Ba7  1  0.901289  0.249582  0.248985  1
  Ba  Ba8  1  0.700728  0.750832  0.745395  1
  Ba  Ba9  1  0.901962  0.745372  0.750469  1
  Pr  Pr10  1  0.999613  0.000718  -0.000151  1
  Pr  Pr11  1  0.200387  0.999282  0.000151  1
  Pr  Pr12  1  0.399116  0.000925  0.001195  1
  Pr  Pr13  1  0.600000  0.000000  0.000000  1
  Pr  Pr14  1  0.800884  -0.000925  0.998805  1
  Nb  Nb15  1  0.600000  0.500000  0.500000  1
  Sn  Sn16  1  0.999890  0.500327  0.499773  1
  Sn  Sn17  1  0.200110  0.499673  0.500227  1
  Sn  Sn18  1  0.399622  0.500712  0.500253  1
  Sn  Sn19  1  0.800378  0.499288  0.499747  1
  O  O20  1  0.996680  0.222025  0.306464  1
  O  O21  1  0.197174  0.220156  0.309444  1
  O  O22  1  0.076792  0.265165  0.778551  1
  O  O23  1  0.025208  0.692656  0.266978  1
  O  O24  1  0.174792  0.307344  0.733022  1
  O  O25  1  0.123208  0.734835  0.221449  1
  O  O26  1  0.397070  0.220812  0.307404  1
  O  O27  1  0.277219  0.264793  0.777974  1
  O  O28  1  0.226420  0.691585  0.264047  1
  O  O29  1  0.375011  0.306343  0.734747  1
  O  O30  1  0.324813  0.732450  0.220490  1
  O  O31  1  0.203320  0.777975  0.693536  1
  O  O32  1  0.596855  0.221350  0.307248  1
  O  O33  1  0.476781  0.264536  0.779512  1
  O  O34  1  0.426555  0.690823  0.265990  1
  O  O35  1  0.574705  0.315384  0.725625  1
  O  O36  1  0.527043  0.725508  0.229630  1
  O  O37  1  0.409929  0.770338  0.684144  1
  O  O38  1  0.790071  0.229662  0.315856  1
  O  O39  1  0.672957  0.274492  0.770370  1
  O  O40  1  0.625295  0.684616  0.274375  1
  O  O41  1  0.773445  0.309177  0.734010  1
  O  O42  1  0.723219  0.735464  0.220488  1
  O  O43  1  0.603145  0.778650  0.692752  1
  O  O44  1  0.875187  0.267550  0.779510  1
  O  O45  1  0.824989  0.693657  0.265253  1
  O  O46  1  0.973580  0.308415  0.735953  1
  O  O47  1  0.922781  0.735207  0.222026  1
  O  O48  1  0.802930  0.779188  0.692596  1
  O  O49  1  0.002826  0.779845  0.690556  1
