# generated using pymatgen
data_NaCa2V3(CuO6)2
_symmetry_space_group_name_H-M   'P 1'
_cell_length_a   10.84457758
_cell_length_b   10.84457822
_cell_length_c   10.84457809
_cell_angle_alpha   109.40210184
_cell_angle_beta   109.60954154
_cell_angle_gamma   109.40210646
_symmetry_Int_Tables_number   1
_chemical_formula_structural   NaCa2V3(CuO6)2
_chemical_formula_sum   'Na4 Ca8 V12 Cu8 O48'
_cell_volume   981.77999838
_cell_formula_units_Z   4
loop_
 _symmetry_equiv_pos_site_id
 _symmetry_equiv_pos_as_xyz
  1  'x, y, z'
loop_
 _atom_site_type_symbol
 _atom_site_label
 _atom_site_symmetry_multiplicity
 _atom_site_fract_x
 _atom_site_fract_y
 _atom_site_fract_z
 _atom_site_occupancy
  Na  Na0  1  0.125000  0.250000  0.375000  1
  Na  Na1  1  0.375000  0.750000  0.125000  1
  Na  Na2  1  0.625000  0.250000  0.875000  1
  Na  Na3  1  0.875000  0.750000  0.625000  1
  Ca  Ca4  1  0.250000  0.876517  0.626517  1
  Ca  Ca5  1  0.126517  0.376517  0.750000  1
  Ca  Ca6  1  0.250000  0.376517  0.126517  1
  Ca  Ca7  1  0.626517  0.876517  0.750000  1
  Ca  Ca8  1  0.373483  0.123483  0.250000  1
  Ca  Ca9  1  0.750000  0.623483  0.873483  1
  Ca  Ca10  1  0.750000  0.123483  0.373483  1
  Ca  Ca11  1  0.873483  0.623483  0.250000  1
  V  V12  1  0.125000  0.750000  0.875000  1
  V  V13  1  0.124949  0.874949  0.250000  1
  V  V14  1  0.250000  0.125051  0.875051  1
  V  V15  1  0.375051  0.625051  0.750000  1
  V  V16  1  0.250000  0.625051  0.375051  1
  V  V17  1  0.375000  0.250000  0.625000  1
  V  V18  1  0.625000  0.750000  0.375000  1
  V  V19  1  0.750000  0.374949  0.624949  1
  V  V20  1  0.624949  0.374949  0.250000  1
  V  V21  1  0.750000  0.874949  0.124949  1
  V  V22  1  0.875051  0.125051  0.750000  1
  V  V23  1  0.875000  0.250000  0.125000  1
  Cu  Cu24  1  0.000000  0.500000  0.500000  1
  Cu  Cu25  1  0.000000  0.500000  0.000000  1
  Cu  Cu26  1  0.000000  0.000000  0.500000  1
  Cu  Cu27  1  0.000000  0.000000  0.000000  1
  Cu  Cu28  1  0.500000  0.500000  0.500000  1
  Cu  Cu29  1  0.500000  0.000000  0.500000  1
  Cu  Cu30  1  0.500000  0.500000  0.000000  1
  Cu  Cu31  1  0.500000  0.000000  0.000000  1
  O  O32  1  0.104730  0.987348  0.691939  1
  O  O33  1  0.017736  0.310070  0.898060  1
  O  O34  1  0.112604  0.598804  0.906908  1
  O  O35  1  0.093092  0.705696  0.691896  1
  O  O36  1  0.087990  0.880324  0.398060  1
  O  O37  1  0.101940  0.619676  0.412010  1
  O  O38  1  0.191939  0.487348  0.604730  1
  O  O39  1  0.412010  0.810070  0.792334  1
  O  O40  1  0.292334  0.310070  0.912010  1
  O  O41  1  0.382617  0.587209  0.895270  1
  O  O42  1  0.308061  0.912791  0.295409  1
  O  O43  1  0.013800  0.205696  0.112604  1
  O  O44  1  0.191896  0.205696  0.593092  1
  O  O45  1  0.204591  0.587209  0.191939  1
  O  O46  1  0.398060  0.810070  0.517736  1
  O  O47  1  0.308104  0.901196  0.013800  1
  O  O48  1  0.295409  0.487348  0.382617  1
  O  O49  1  0.117383  0.012652  0.204591  1
  O  O50  1  0.395270  0.087208  0.882618  1
  O  O51  1  0.517736  0.619676  0.707666  1
  O  O52  1  0.513800  0.401196  0.808104  1
  O  O53  1  0.387396  0.294304  0.486200  1
  O  O54  1  0.593092  0.901196  0.387396  1
  O  O55  1  0.207666  0.119676  0.017736  1
  O  O56  1  0.792334  0.880324  0.982264  1
  O  O57  1  0.406908  0.098804  0.612604  1
  O  O58  1  0.612604  0.705696  0.513800  1
  O  O59  1  0.486200  0.598804  0.191896  1
  O  O60  1  0.482264  0.380324  0.292334  1
  O  O61  1  0.604730  0.912791  0.117383  1
  O  O62  1  0.882618  0.987348  0.795409  1
  O  O63  1  0.704591  0.512652  0.617382  1
  O  O64  1  0.691896  0.098804  0.986200  1
  O  O65  1  0.601940  0.189930  0.482264  1
  O  O66  1  0.795409  0.412791  0.808061  1
  O  O67  1  0.808104  0.794304  0.406908  1
  O  O68  1  0.986200  0.794304  0.887396  1
  O  O69  1  0.691939  0.087208  0.704591  1
  O  O70  1  0.617382  0.412791  0.104730  1
  O  O71  1  0.707666  0.689930  0.087990  1
  O  O72  1  0.587990  0.189930  0.207666  1
  O  O73  1  0.808061  0.512652  0.395270  1
  O  O74  1  0.898060  0.380324  0.587990  1
  O  O75  1  0.912010  0.119676  0.601940  1
  O  O76  1  0.906908  0.294304  0.308104  1
  O  O77  1  0.982264  0.689930  0.101940  1
  O  O78  1  0.887396  0.401196  0.093092  1
  O  O79  1  0.895270  0.012652  0.308061  1
