# generated using pymatgen
data_Nb6HI11
_symmetry_space_group_name_H-M   'P 1'
_cell_length_a   11.56044858
_cell_length_b   15.91985562
_cell_length_c   13.87533427
_cell_angle_alpha   90.00000000
_cell_angle_beta   90.00000000
_cell_angle_gamma   90.00000000
_symmetry_Int_Tables_number   1
_chemical_formula_structural   Nb6HI11
_chemical_formula_sum   'Nb24 H4 I44'
_cell_volume   2553.62584738
_cell_formula_units_Z   4
loop_
 _symmetry_equiv_pos_site_id
 _symmetry_equiv_pos_as_xyz
  1  'x, y, z'
loop_
 _atom_site_type_symbol
 _atom_site_label
 _atom_site_symmetry_multiplicity
 _atom_site_fract_x
 _atom_site_fract_y
 _atom_site_fract_z
 _atom_site_occupancy
  Nb  Nb0  1  0.100875  0.397371  0.475098  1
  Nb  Nb1  1  0.399125  0.102629  0.475098  1
  Nb  Nb2  1  0.600875  0.602629  0.024902  1
  Nb  Nb3  1  0.899125  0.897371  0.024902  1
  Nb  Nb4  1  0.899125  0.602629  0.524902  1
  Nb  Nb5  1  0.600875  0.897371  0.524902  1
  Nb  Nb6  1  0.399125  0.397371  0.975098  1
  Nb  Nb7  1  0.100875  0.102629  0.975098  1
  Nb  Nb8  1  0.133114  0.550569  0.580269  1
  Nb  Nb9  1  0.366886  0.949431  0.580269  1
  Nb  Nb10  1  0.633114  0.449431  0.919731  1
  Nb  Nb11  1  0.866886  0.050569  0.919731  1
  Nb  Nb12  1  0.866886  0.449431  0.419731  1
  Nb  Nb13  1  0.633114  0.050569  0.419731  1
  Nb  Nb14  1  0.366886  0.550569  0.080269  1
  Nb  Nb15  1  0.133114  0.949431  0.080269  1
  Nb  Nb16  1  0.931568  0.449456  0.623240  1
  Nb  Nb17  1  0.568432  0.050544  0.623240  1
  Nb  Nb18  1  0.431568  0.550544  0.876760  1
  Nb  Nb19  1  0.068432  0.949456  0.876760  1
  Nb  Nb20  1  0.068432  0.550544  0.376760  1
  Nb  Nb21  1  0.431568  0.949456  0.376760  1
  Nb  Nb22  1  0.568432  0.449456  0.123240  1
  Nb  Nb23  1  0.931568  0.050544  0.123240  1
  H  H24  1  0.000000  0.500000  0.500000  1
  H  H25  1  0.500000  0.000000  0.500000  1
  H  H26  1  0.500000  0.500000  0.000000  1
  H  H27  1  0.000000  0.000000  0.000000  1
  I  I28  1  0.158798  0.390697  0.676440  1
  I  I29  1  0.341202  0.109303  0.676440  1
  I  I30  1  0.658798  0.609303  0.823560  1
  I  I31  1  0.841202  0.890697  0.823560  1
  I  I32  1  0.841202  0.609303  0.323560  1
  I  I33  1  0.658798  0.890697  0.323560  1
  I  I34  1  0.341202  0.390697  0.176440  1
  I  I35  1  0.158798  0.109303  0.176440  1
  I  I36  1  0.026141  0.394313  0.276046  1
  I  I37  1  0.473859  0.105687  0.276046  1
  I  I38  1  0.526141  0.605687  0.223954  1
  I  I39  1  0.973859  0.894313  0.223954  1
  I  I40  1  0.973859  0.605687  0.723954  1
  I  I41  1  0.526141  0.894313  0.723954  1
  I  I42  1  0.473859  0.394313  0.776046  1
  I  I43  1  0.026141  0.105687  0.776046  1
  I  I44  1  0.907180  0.290747  0.521387  1
  I  I45  1  0.592820  0.209253  0.521387  1
  I  I46  1  0.407180  0.709253  0.978613  1
  I  I47  1  0.092820  0.790747  0.978613  1
  I  I48  1  0.092820  0.709253  0.478613  1
  I  I49  1  0.407180  0.790747  0.478613  1
  I  I50  1  0.592820  0.290747  0.021387  1
  I  I51  1  0.907180  0.209253  0.021387  1
  I  I52  1  0.298047  0.504119  0.436028  1
  I  I53  1  0.201953  0.995881  0.436028  1
  I  I54  1  0.798047  0.495881  0.063972  1
  I  I55  1  0.701953  0.004119  0.063972  1
  I  I56  1  0.701953  0.495881  0.563972  1
  I  I57  1  0.798047  0.004119  0.563972  1
  I  I58  1  0.201953  0.504119  0.936028  1
  I  I59  1  0.298047  0.995881  0.936028  1
  I  I60  1  0.830767  0.377283  0.803645  1
  I  I61  1  0.669233  0.122717  0.803645  1
  I  I62  1  0.330767  0.622717  0.696355  1
  I  I63  1  0.169233  0.877283  0.696355  1
  I  I64  1  0.169233  0.622717  0.196355  1
  I  I65  1  0.330767  0.877283  0.196355  1
  I  I66  1  0.669233  0.377283  0.303645  1
  I  I67  1  0.830767  0.122717  0.303645  1
  I  I68  1  0.250000  0.250000  0.423566  1
  I  I69  1  0.750000  0.750000  0.076434  1
  I  I70  1  0.750000  0.750000  0.576434  1
  I  I71  1  0.250000  0.250000  0.923566  1
