# generated using pymatgen
data_K2Ba(Ge4O9)2
_symmetry_space_group_name_H-M   'P 1'
_cell_length_a   11.90796467
_cell_length_b   11.90796471
_cell_length_c   19.58686561
_cell_angle_alpha   90.00000000
_cell_angle_beta   90.00000000
_cell_angle_gamma   119.99999993
_symmetry_Int_Tables_number   1
_chemical_formula_structural   K2Ba(Ge4O9)2
_chemical_formula_sum   'K12 Ba6 Ge48 O108'
_cell_volume   2405.30775651
_cell_formula_units_Z   6
loop_
 _symmetry_equiv_pos_site_id
 _symmetry_equiv_pos_as_xyz
  1  'x, y, z'
loop_
 _atom_site_type_symbol
 _atom_site_label
 _atom_site_symmetry_multiplicity
 _atom_site_fract_x
 _atom_site_fract_y
 _atom_site_fract_z
 _atom_site_occupancy
  K  K0  1  0.662679  0.998298  0.539349  1
  K  K1  1  0.001702  0.664382  0.539349  1
  K  K2  1  0.998298  0.335618  0.460651  1
  K  K3  1  0.664382  0.662679  0.460651  1
  K  K4  1  0.335618  0.998298  0.039349  1
  K  K5  1  0.001702  0.337321  0.039349  1
  K  K6  1  0.337321  0.335618  0.960651  1
  K  K7  1  0.662679  0.664382  0.039349  1
  K  K8  1  0.664382  0.001702  0.960651  1
  K  K9  1  0.335618  0.337321  0.539349  1
  K  K10  1  0.337321  0.001702  0.460651  1
  K  K11  1  0.998298  0.662679  0.960651  1
  Ba  Ba12  1  0.335134  0.000000  0.250000  1
  Ba  Ba13  1  0.664866  0.000000  0.750000  1
  Ba  Ba14  1  0.664866  0.664866  0.250000  1
  Ba  Ba15  1  0.335134  0.335134  0.750000  1
  Ba  Ba16  1  0.000000  0.335134  0.250000  1
  Ba  Ba17  1  1.000000  0.664866  0.750000  1
  Ge  Ge18  1  0.144817  0.661552  0.149241  1
  Ge  Ge19  1  0.338448  0.855183  0.649241  1
  Ge  Ge20  1  0.661552  0.516735  0.850759  1
  Ge  Ge21  1  0.154849  0.666419  0.391264  1
  Ge  Ge22  1  0.177807  0.003605  0.872675  1
  Ge  Ge23  1  0.003605  0.825798  0.127325  1
  Ge  Ge24  1  0.174202  0.177807  0.127325  1
  Ge  Ge25  1  0.003605  0.177807  0.627325  1
  Ge  Ge26  1  0.177807  0.174202  0.372675  1
  Ge  Ge27  1  0.333333  0.666667  0.022231  1
  Ge  Ge28  1  0.845151  0.333581  0.608736  1
  Ge  Ge29  1  0.333581  0.488430  0.391264  1
  Ge  Ge30  1  0.666419  0.511570  0.608736  1
  Ge  Ge31  1  0.666419  0.154849  0.108736  1
  Ge  Ge32  1  0.488430  0.333581  0.108736  1
  Ge  Ge33  1  0.996395  0.822193  0.372675  1
  Ge  Ge34  1  0.666667  0.333333  0.727945  1
  Ge  Ge35  1  0.822193  0.825798  0.627325  1
  Ge  Ge36  1  0.174202  0.996395  0.627325  1
  Ge  Ge37  1  0.338448  0.483265  0.149241  1
  Ge  Ge38  1  0.333333  0.666667  0.522231  1
  Ge  Ge39  1  0.333581  0.845151  0.891264  1
  Ge  Ge40  1  0.483265  0.144817  0.850759  1
  Ge  Ge41  1  0.516735  0.855183  0.149241  1
  Ge  Ge42  1  0.000000  0.000000  0.250000  1
  Ge  Ge43  1  0.483265  0.338448  0.350759  1
  Ge  Ge44  1  0.144817  0.483265  0.649241  1
  Ge  Ge45  1  0.333333  0.666667  0.272055  1
  Ge  Ge46  1  0.825798  0.822193  0.872675  1
  Ge  Ge47  1  0.822193  0.996395  0.127325  1
  Ge  Ge48  1  0.154849  0.488430  0.891264  1
  Ge  Ge49  1  0.666667  0.333333  0.477769  1
  Ge  Ge50  1  0.488430  0.154849  0.608736  1
  Ge  Ge51  1  0.000000  0.000000  0.000000  1
  Ge  Ge52  1  0.000000  0.000000  0.500000  1
  Ge  Ge53  1  0.855183  0.338448  0.850759  1
  Ge  Ge54  1  0.666667  0.333333  0.227945  1
  Ge  Ge55  1  0.845151  0.511570  0.108736  1
  Ge  Ge56  1  0.333333  0.666667  0.772055  1
  Ge  Ge57  1  0.666667  0.333333  0.977769  1
  Ge  Ge58  1  0.511570  0.845151  0.391264  1
  Ge  Ge59  1  0.000000  0.000000  0.750000  1
  Ge  Ge60  1  0.511570  0.666419  0.891264  1
  Ge  Ge61  1  0.825798  0.003605  0.372675  1
  Ge  Ge62  1  0.516735  0.661552  0.649241  1
  Ge  Ge63  1  0.855183  0.516735  0.350759  1
  Ge  Ge64  1  0.996395  0.174202  0.872675  1
  Ge  Ge65  1  0.661552  0.144817  0.350759  1
  O  O66  1  0.151525  0.067640  0.441421  1
  O  O67  1  0.991178  0.515615  0.135914  1
  O  O68  1  0.120676  0.325484  0.672513  1
  O  O69  1  0.782967  0.107237  0.084529  1
  O  O70  1  0.589603  0.406648  0.782590  1
  O  O71  1  0.395094  0.818822  0.967255  1
  O  O72  1  0.484385  0.475563  0.135914  1
  O  O73  1  0.756957  0.273525  0.170910  1
  O  O74  1  0.675730  0.892763  0.415471  1
  O  O75  1  0.151525  0.083886  0.941421  1
  O  O76  1  0.083886  0.151525  0.558579  1
  O  O77  1  0.484385  0.008822  0.635914  1
  O  O78  1  0.795192  0.674516  0.827487  1
  O  O79  1  0.067640  0.916114  0.558579  1
  O  O80  1  0.067640  0.151525  0.058579  1
  O  O81  1  0.181178  0.604906  0.467255  1
  O  O82  1  0.817045  0.410397  0.782590  1
  O  O83  1  0.513283  0.240789  0.923638  1
  O  O84  1  0.120676  0.795192  0.172513  1
  O  O85  1  0.273525  0.756957  0.329090  1
  O  O86  1  0.513283  0.272494  0.423638  1
  O  O87  1  0.936764  0.848888  0.691938  1
  O  O88  1  0.182955  0.593352  0.717410  1
  O  O89  1  0.795192  0.120676  0.327487  1
  O  O90  1  0.936764  0.087876  0.191938  1
  O  O91  1  0.325484  0.204808  0.327487  1
  O  O92  1  0.818822  0.423728  0.032745  1
  O  O93  1  0.576272  0.181178  0.532745  1
  O  O94  1  0.240789  0.513283  0.576362  1
  O  O95  1  0.217033  0.324270  0.415471  1
  O  O96  1  0.756957  0.483431  0.670910  1
  O  O97  1  0.576272  0.395094  0.032745  1
  O  O98  1  0.515615  0.524437  0.864086  1
  O  O99  1  0.324270  0.217033  0.084529  1
  O  O100  1  0.151112  0.087876  0.691938  1
  O  O101  1  0.727506  0.486717  0.923638  1
  O  O102  1  0.410397  0.817045  0.717410  1
  O  O103  1  0.727506  0.240789  0.423638  1
  O  O104  1  0.675730  0.782967  0.915471  1
  O  O105  1  0.151112  0.063236  0.191938  1
  O  O106  1  0.475563  0.991178  0.864086  1
  O  O107  1  0.879324  0.204808  0.827487  1
  O  O108  1  0.083886  0.932360  0.058579  1
  O  O109  1  0.483431  0.726475  0.329090  1
  O  O110  1  0.817045  0.406648  0.282590  1
  O  O111  1  0.848475  0.932360  0.558579  1
  O  O112  1  0.406648  0.589603  0.717410  1
  O  O113  1  0.932360  0.848475  0.941421  1
  O  O114  1  0.593352  0.410397  0.282590  1
  O  O115  1  0.604906  0.181178  0.032745  1
  O  O116  1  0.726475  0.483431  0.170910  1
  O  O117  1  0.243043  0.726475  0.829090  1
  O  O118  1  0.243043  0.516569  0.329090  1
  O  O119  1  0.593352  0.182955  0.782590  1
  O  O120  1  0.204808  0.879324  0.672513  1
  O  O121  1  0.524437  0.515615  0.635914  1
  O  O122  1  0.406648  0.817045  0.217410  1
  O  O123  1  0.272494  0.759211  0.576362  1
  O  O124  1  0.674516  0.795192  0.672513  1
  O  O125  1  0.204808  0.325484  0.172513  1
  O  O126  1  0.991178  0.475563  0.635914  1
  O  O127  1  0.818822  0.395094  0.532745  1
  O  O128  1  0.759211  0.272494  0.923638  1
  O  O129  1  0.324270  0.107237  0.584529  1
  O  O130  1  0.848888  0.912124  0.308062  1
  O  O131  1  0.604906  0.423728  0.532745  1
  O  O132  1  0.932360  0.083886  0.441421  1
  O  O133  1  0.892763  0.675730  0.084529  1
  O  O134  1  0.087876  0.151112  0.808062  1
  O  O135  1  0.516569  0.273525  0.670910  1
  O  O136  1  0.008822  0.484385  0.864086  1
  O  O137  1  0.181178  0.576272  0.967255  1
  O  O138  1  0.087876  0.936764  0.308062  1
  O  O139  1  0.475563  0.484385  0.364086  1
  O  O140  1  0.063236  0.912124  0.808062  1
  O  O141  1  0.325484  0.120676  0.827487  1
  O  O142  1  0.916114  0.848475  0.441421  1
  O  O143  1  0.912124  0.063236  0.691938  1
  O  O144  1  0.848475  0.916114  0.058579  1
  O  O145  1  0.423728  0.604906  0.967255  1
  O  O146  1  0.515615  0.991178  0.364086  1
  O  O147  1  0.912124  0.848888  0.191938  1
  O  O148  1  0.217033  0.892763  0.915471  1
  O  O149  1  0.272494  0.513283  0.076362  1
  O  O150  1  0.589603  0.182955  0.282590  1
  O  O151  1  0.107237  0.782967  0.415471  1
  O  O152  1  0.410397  0.593352  0.217410  1
  O  O153  1  0.063236  0.151112  0.308062  1
  O  O154  1  0.483431  0.756957  0.829090  1
  O  O155  1  0.423728  0.818822  0.467255  1
  O  O156  1  0.486717  0.759211  0.076362  1
  O  O157  1  0.516569  0.243043  0.170910  1
  O  O158  1  0.892763  0.217033  0.584529  1
  O  O159  1  0.726475  0.243043  0.670910  1
  O  O160  1  0.879324  0.674516  0.327487  1
  O  O161  1  0.916114  0.067640  0.941421  1
  O  O162  1  0.395094  0.576272  0.467255  1
  O  O163  1  0.782967  0.675730  0.584529  1
  O  O164  1  0.273525  0.516569  0.829090  1
  O  O165  1  0.240789  0.727506  0.076362  1
  O  O166  1  0.674516  0.879324  0.172513  1
  O  O167  1  0.759211  0.486717  0.423638  1
  O  O168  1  0.107237  0.324270  0.915471  1
  O  O169  1  0.848888  0.936764  0.808062  1
  O  O170  1  0.524437  0.008822  0.135914  1
  O  O171  1  0.008822  0.524437  0.364086  1
  O  O172  1  0.182955  0.589603  0.217410  1
  O  O173  1  0.486717  0.727506  0.576362  1
