# generated using pymatgen
data_TaSe2
_symmetry_space_group_name_H-M   'P 1'
_cell_length_a   12.57244980
_cell_length_b   12.57244991
_cell_length_c   27.35353212
_cell_angle_alpha   90.00000000
_cell_angle_beta   90.00000000
_cell_angle_gamma   119.99999974
_symmetry_Int_Tables_number   1
_chemical_formula_structural   TaSe2
_chemical_formula_sum   'Ta52 Se104'
_cell_volume   3744.41409188
_cell_formula_units_Z   52
loop_
 _symmetry_equiv_pos_site_id
 _symmetry_equiv_pos_as_xyz
  1  'x, y, z'
loop_
 _atom_site_type_symbol
 _atom_site_label
 _atom_site_symmetry_multiplicity
 _atom_site_fract_x
 _atom_site_fract_y
 _atom_site_fract_z
 _atom_site_occupancy
  Ta  Ta0  1  0.460744  0.845083  0.250000  1
  Ta  Ta1  1  0.715285  0.784548  0.999964  1
  Ta  Ta2  1  0.847302  0.361079  0.999371  1
  Ta  Ta3  1  0.153189  0.614608  0.750000  1
  Ta  Ta4  1  0.152698  0.638921  0.499372  1
  Ta  Ta5  1  0.921488  0.690148  0.750000  1
  Ta  Ta6  1  0.784548  0.069263  0.499964  1
  Ta  Ta7  1  0.638921  0.486223  0.999371  1
  Ta  Ta8  1  0.152698  0.638921  0.000629  1
  Ta  Ta9  1  0.361079  0.513777  0.000629  1
  Ta  Ta10  1  0.930737  0.715285  0.499964  1
  Ta  Ta11  1  0.845083  0.384339  0.750000  1
  Ta  Ta12  1  0.076366  0.309174  0.750000  1
  Ta  Ta13  1  0.930737  0.715285  0.000036  1
  Ta  Ta14  1  0.486223  0.847302  0.499372  1
  Ta  Ta15  1  0.615661  0.460744  0.750000  1
  Ta  Ta16  1  0.215452  0.930737  0.999964  1
  Ta  Ta17  1  0.638921  0.486223  0.500629  1
  Ta  Ta18  1  0.231341  0.921488  0.250000  1
  Ta  Ta19  1  0.539256  0.154917  0.750000  1
  Ta  Ta20  1  0.069263  0.284715  0.999964  1
  Ta  Ta21  1  0.784548  0.069263  0.000036  1
  Ta  Ta22  1  0.309174  0.232808  0.250000  1
  Ta  Ta23  1  0.923634  0.690826  0.250000  1
  Ta  Ta24  1  0.215452  0.930737  0.500036  1
  Ta  Ta25  1  0.767192  0.076366  0.250000  1
  Ta  Ta26  1  0.000000  0.000000  0.500000  1
  Ta  Ta27  1  0.232808  0.923634  0.750000  1
  Ta  Ta28  1  0.846811  0.385392  0.250000  1
  Ta  Ta29  1  0.847302  0.361079  0.500629  1
  Ta  Ta30  1  0.385392  0.538581  0.750000  1
  Ta  Ta31  1  0.000000  0.000000  0.250000  1
  Ta  Ta32  1  0.768659  0.078512  0.750000  1
  Ta  Ta33  1  0.154917  0.615661  0.250000  1
  Ta  Ta34  1  0.538581  0.153189  0.250000  1
  Ta  Ta35  1  0.284715  0.215452  0.000036  1
  Ta  Ta36  1  0.384339  0.539256  0.250000  1
  Ta  Ta37  1  0.614608  0.461419  0.250000  1
  Ta  Ta38  1  0.513777  0.152698  0.500629  1
  Ta  Ta39  1  0.000000  0.000000  0.750000  1
  Ta  Ta40  1  0.069263  0.284715  0.500036  1
  Ta  Ta41  1  0.513777  0.152698  0.999371  1
  Ta  Ta42  1  0.078512  0.309852  0.250000  1
  Ta  Ta43  1  0.361079  0.513777  0.499372  1
  Ta  Ta44  1  0.309852  0.231341  0.750000  1
  Ta  Ta45  1  0.715285  0.784548  0.500036  1
  Ta  Ta46  1  0.284715  0.215452  0.499964  1
  Ta  Ta47  1  0.000000  0.000000  0.000000  1
  Ta  Ta48  1  0.461419  0.846811  0.750000  1
  Ta  Ta49  1  0.486223  0.847302  0.000629  1
  Ta  Ta50  1  0.690148  0.768659  0.250000  1
  Ta  Ta51  1  0.690826  0.767192  0.750000  1
  Se  Se52  1  0.196245  0.485122  0.441814  1
  Se  Se53  1  0.876062  0.825549  0.934155  1
  Se  Se54  1  0.281588  0.794384  0.688652  1
  Se  Se55  1  0.711123  0.196245  0.558186  1
  Se  Se56  1  0.102585  0.743119  0.311364  1
  Se  Se57  1  0.803755  0.514878  0.941814  1
  Se  Se58  1  0.589073  0.025366  0.811278  1
  Se  Se59  1  0.563707  0.589073  0.188722  1
  Se  Se60  1  0.196245  0.485122  0.058186  1
  Se  Se61  1  0.564135  0.593348  0.556912  1
  Se  Se62  1  0.974634  0.563707  0.688722  1
  Se  Se63  1  0.333333  0.666667  0.311703  1
  Se  Se64  1  0.333333  0.666667  0.557240  1
  Se  Se65  1  0.949488  0.123938  0.934155  1
  Se  Se66  1  0.563707  0.589073  0.311278  1
  Se  Se67  1  0.718412  0.205616  0.311348  1
  Se  Se68  1  0.174451  0.050512  0.565845  1
  Se  Se69  1  0.050932  0.870715  0.810729  1
  Se  Se70  1  0.050512  0.876062  0.434155  1
  Se  Se71  1  0.180217  0.050932  0.189271  1
  Se  Se72  1  0.123938  0.174451  0.065845  1
  Se  Se73  1  0.406652  0.970787  0.556912  1
  Se  Se74  1  0.666667  0.333333  0.688297  1
  Se  Se75  1  0.666667  0.333333  0.811703  1
  Se  Se76  1  0.029213  0.435865  0.943088  1
  Se  Se77  1  0.593348  0.029213  0.443088  1
  Se  Se78  1  0.487205  0.281588  0.188652  1
  Se  Se79  1  0.205616  0.487205  0.688652  1
  Se  Se80  1  0.485122  0.288877  0.941814  1
  Se  Se81  1  0.050932  0.870715  0.689271  1
  Se  Se82  1  0.174451  0.050512  0.934155  1
  Se  Se83  1  0.436293  0.410927  0.811278  1
  Se  Se84  1  0.025366  0.436293  0.311278  1
  Se  Se85  1  0.333333  0.666667  0.942760  1
  Se  Se86  1  0.897415  0.256881  0.688636  1
  Se  Se87  1  0.281588  0.794384  0.811348  1
  Se  Se88  1  0.974634  0.563707  0.811278  1
  Se  Se89  1  0.564135  0.593348  0.943088  1
  Se  Se90  1  0.025366  0.436293  0.188722  1
  Se  Se91  1  0.640534  0.897415  0.188636  1
  Se  Se92  1  0.589073  0.025366  0.688722  1
  Se  Se93  1  0.803755  0.514878  0.558186  1
  Se  Se94  1  0.718412  0.205616  0.188652  1
  Se  Se95  1  0.870715  0.819783  0.310729  1
  Se  Se96  1  0.876062  0.825549  0.565845  1
  Se  Se97  1  0.514878  0.711123  0.441814  1
  Se  Se98  1  0.794384  0.512795  0.311348  1
  Se  Se99  1  0.749802  0.647524  0.435806  1
  Se  Se100  1  0.406652  0.970787  0.943088  1
  Se  Se101  1  0.593348  0.029213  0.056912  1
  Se  Se102  1  0.819783  0.949068  0.689271  1
  Se  Se103  1  0.123938  0.174451  0.434155  1
  Se  Se104  1  0.512795  0.718412  0.811348  1
  Se  Se105  1  0.666667  0.333333  0.442760  1
  Se  Se106  1  0.485122  0.288877  0.558186  1
  Se  Se107  1  0.512795  0.718412  0.688652  1
  Se  Se108  1  0.435865  0.406652  0.056912  1
  Se  Se109  1  0.794384  0.512795  0.188652  1
  Se  Se110  1  0.359466  0.102585  0.688636  1
  Se  Se111  1  0.250198  0.352476  0.564194  1
  Se  Se112  1  0.050512  0.876062  0.065845  1
  Se  Se113  1  0.102585  0.743119  0.188636  1
  Se  Se114  1  0.102278  0.749802  0.935806  1
  Se  Se115  1  0.647524  0.897722  0.935806  1
  Se  Se116  1  0.205616  0.487205  0.811348  1
  Se  Se117  1  0.970787  0.564135  0.443088  1
  Se  Se118  1  0.029213  0.435865  0.556912  1
  Se  Se119  1  0.487205  0.281588  0.311348  1
  Se  Se120  1  0.897415  0.256881  0.811364  1
  Se  Se121  1  0.970787  0.564135  0.056912  1
  Se  Se122  1  0.825549  0.949488  0.065845  1
  Se  Se123  1  0.825549  0.949488  0.434155  1
  Se  Se124  1  0.436293  0.410927  0.688722  1
  Se  Se125  1  0.129285  0.180217  0.689271  1
  Se  Se126  1  0.352476  0.102278  0.435806  1
  Se  Se127  1  0.743119  0.640534  0.811364  1
  Se  Se128  1  0.180217  0.050932  0.310729  1
  Se  Se129  1  0.819783  0.949068  0.810729  1
  Se  Se130  1  0.897722  0.250198  0.064194  1
  Se  Se131  1  0.129285  0.180217  0.810729  1
  Se  Se132  1  0.514878  0.711123  0.058186  1
  Se  Se133  1  0.333333  0.666667  0.188297  1
  Se  Se134  1  0.256881  0.359466  0.311364  1
  Se  Se135  1  0.743119  0.640534  0.688636  1
  Se  Se136  1  0.711123  0.196245  0.941814  1
  Se  Se137  1  0.640534  0.897415  0.311364  1
  Se  Se138  1  0.666667  0.333333  0.057240  1
  Se  Se139  1  0.949488  0.123938  0.565845  1
  Se  Se140  1  0.949068  0.129285  0.310729  1
  Se  Se141  1  0.410927  0.974634  0.188722  1
  Se  Se142  1  0.647524  0.897722  0.564194  1
  Se  Se143  1  0.102278  0.749802  0.564194  1
  Se  Se144  1  0.250198  0.352476  0.935806  1
  Se  Se145  1  0.897722  0.250198  0.435806  1
  Se  Se146  1  0.359466  0.102585  0.811364  1
  Se  Se147  1  0.410927  0.974634  0.311278  1
  Se  Se148  1  0.288877  0.803755  0.058186  1
  Se  Se149  1  0.870715  0.819783  0.189271  1
  Se  Se150  1  0.749802  0.647524  0.064194  1
  Se  Se151  1  0.435865  0.406652  0.443088  1
  Se  Se152  1  0.949068  0.129285  0.189271  1
  Se  Se153  1  0.352476  0.102278  0.064194  1
  Se  Se154  1  0.288877  0.803755  0.441814  1
  Se  Se155  1  0.256881  0.359466  0.188636  1
