# generated using pymatgen
data_Li11TiP5
_symmetry_space_group_name_H-M   'P 1'
_cell_length_a   4.11262301
_cell_length_b   21.03624724
_cell_length_c   11.16724438
_cell_angle_alpha   18.77454888
_cell_angle_beta   56.46727245
_cell_angle_gamma   60.74126292
_symmetry_Int_Tables_number   1
_chemical_formula_structural   Li11TiP5
_chemical_formula_sum   'Li11 Ti1 P5'
_cell_volume   257.06961118
_cell_formula_units_Z   1
loop_
 _symmetry_equiv_pos_site_id
 _symmetry_equiv_pos_as_xyz
  1  'x, y, z'
loop_
 _atom_site_type_symbol
 _atom_site_label
 _atom_site_symmetry_multiplicity
 _atom_site_fract_x
 _atom_site_fract_y
 _atom_site_fract_z
 _atom_site_occupancy
  Li  Li0  1  0.274961  0.319794  0.283702  1
  Li  Li1  1  0.507532  0.305876  0.485186  1
  Li  Li2  1  0.257827  0.564656  0.220355  1
  Li  Li3  1  0.752149  0.051065  0.746793  1
  Li  Li4  1  0.735730  0.237141  0.780945  1
  Li  Li5  1  0.281238  0.779495  0.180017  1
  Li  Li6  1  0.474804  0.706390  0.506147  1
  Li  Li7  1  0.775336  0.473483  0.693972  1
  Li  Li8  1  0.214124  0.936362  0.296648  1
  Li  Li9  1  0.718549  0.672058  0.734204  1
  Li  Li10  1  0.759052  0.823499  0.788133  1
  Ti  Ti11  1  0.238290  0.151548  0.255227  1
  P  P12  1  0.992274  0.992600  0.017484  1
  P  P13  1  0.967953  0.194772  0.030077  1
  P  P14  1  0.024502  0.399517  0.984471  1
  P  P15  1  0.008935  0.565729  0.051162  1
  P  P16  1  0.016743  0.826016  0.945478  1
