# generated using pymatgen
data_KH4F5
_symmetry_space_group_name_H-M   'P 1'
_cell_length_a   6.90457723
_cell_length_b   6.90457723
_cell_length_c   6.90457723
_cell_angle_alpha   123.32009581
_cell_angle_beta   123.32009581
_cell_angle_gamma   84.33960724
_symmetry_Int_Tables_number   1
_chemical_formula_structural   KH4F5
_chemical_formula_sum   'K2 H8 F10'
_cell_volume   219.89966817
_cell_formula_units_Z   2
loop_
 _symmetry_equiv_pos_site_id
 _symmetry_equiv_pos_as_xyz
  1  'x, y, z'
loop_
 _atom_site_type_symbol
 _atom_site_label
 _atom_site_symmetry_multiplicity
 _atom_site_fract_x
 _atom_site_fract_y
 _atom_site_fract_z
 _atom_site_occupancy
  K  K0  1  0.375000  0.125000  0.250000  1
  K  K1  1  0.625000  0.875000  0.750000  1
  H  H2  1  0.790705  0.834161  0.366399  1
  H  H3  1  -0.032239  0.424305  0.133601  1
  H  H4  1  0.924305  0.290705  0.456544  1
  H  H5  1  0.334161  0.467761  0.043456  1
  H  H6  1  0.209295  0.165839  0.633601  1
  H  H7  1  0.032239  0.575695  0.866399  1
  H  H8  1  0.075695  0.709295  0.543456  1
  H  H9  1  0.665839  0.532239  0.956544  1
  F  F10  1  0.875000  0.625000  0.250000  1
  F  F11  1  0.125000  0.375000  0.750000  1
  F  F12  1  0.729464  0.968234  0.445997  1
  F  F13  1  0.022237  0.283468  0.054003  1
  F  F14  1  0.783468  0.229464  0.261231  1
  F  F15  1  0.468234  0.522237  0.238769  1
  F  F16  1  0.270536  0.031766  0.554003  1
  F  F17  1  -0.022237  0.716532  0.945997  1
  F  F18  1  0.216532  0.770536  0.738769  1
  F  F19  1  0.531766  0.477763  0.761231  1
