# generated using pymatgen
data_LiNi9S10
_symmetry_space_group_name_H-M   'P 1'
_cell_length_a   17.22165249
_cell_length_b   5.99834281
_cell_length_c   8.60174260
_cell_angle_alpha   90.12094668
_cell_angle_beta   37.46091745
_cell_angle_gamma   90.05467776
_symmetry_Int_Tables_number   1
_chemical_formula_structural   LiNi9S10
_chemical_formula_sum   'Li2 Ni18 S20'
_cell_volume   540.44569324
_cell_formula_units_Z   2
loop_
 _symmetry_equiv_pos_site_id
 _symmetry_equiv_pos_as_xyz
  1  'x, y, z'
loop_
 _atom_site_type_symbol
 _atom_site_label
 _atom_site_symmetry_multiplicity
 _atom_site_fract_x
 _atom_site_fract_y
 _atom_site_fract_z
 _atom_site_occupancy
  Li  Li0  1  0.997629  0.001549  0.004991  1
  Li  Li1  1  0.500037  0.499700  0.501190  1
  Ni  Ni2  1  0.095993  0.504560  0.000096  1
  Ni  Ni3  1  0.999021  0.000767  0.502273  1
  Ni  Ni4  1  0.192911  0.992696  0.009564  1
  Ni  Ni5  1  0.298014  0.498592  0.997213  1
  Ni  Ni6  1  0.097012  0.498126  0.496105  1
  Ni  Ni7  1  0.401924  0.998140  0.007757  1
  Ni  Ni8  1  0.199949  -0.000665  0.506214  1
  Ni  Ni9  1  0.305461  0.492022  0.493369  1
  Ni  Ni10  1  0.498147  0.499691  0.002891  1
  Ni  Ni11  1  0.595479  0.004189  0.998889  1
  Ni  Ni12  1  0.401836  0.003795  0.503970  1
  Ni  Ni13  1  0.700641  0.502696  0.005123  1
  Ni  Ni14  1  0.805622  0.007870  -0.005538  1
  Ni  Ni15  1  0.595174  0.996627  0.502553  1
  Ni  Ni16  1  0.692596  0.508541  0.510868  1
  Ni  Ni17  1  0.902377  0.498700  0.002534  1
  Ni  Ni18  1  0.796645  0.002925  0.501583  1
  Ni  Ni19  1  0.901317  0.504370  0.506076  1
  S  S20  1  0.987826  0.836261  0.281182  1
  S  S21  1  0.104065  0.335631  0.233344  1
  S  S22  1  0.192624  0.824222  0.263700  1
  S  S23  1  0.105779  0.653428  0.733070  1
  S  S24  1  0.305686  0.322799  0.239244  1
  S  S25  1  0.209363  0.171029  0.735176  1
  S  S26  1  0.394010  0.836739  0.269973  1
  S  S27  1  0.288400  0.670929  0.769799  1
  S  S28  1  0.511126  0.335899  0.221741  1
  S  S29  1  0.606714  0.848918  0.232283  1
  S  S30  1  0.391438  0.152355  0.772540  1
  S  S31  1  0.710965  0.330731  0.231222  1
  S  S32  1  0.486587  0.665350  0.783746  1
  S  S33  1  0.787219  0.830861  0.272538  1
  S  S34  1  0.603178  0.165651  0.736004  1
  S  S35  1  0.891439  0.349581  0.271884  1
  S  S36  1  0.691332  0.679210  0.767183  1
  S  S37  1  0.805904  0.178669  0.738957  1
  S  S38  1  0.894736  0.666941  0.768226  1
  S  S39  1  0.010446  0.166012  0.722281  1
