# generated using pymatgen
data_Mn2PC11SO8F9
_symmetry_space_group_name_H-M   'P 1'
_cell_length_a   9.23914814
_cell_length_b   14.70219120
_cell_length_c   15.37272842
_cell_angle_alpha   107.18331909
_cell_angle_beta   90.00000000
_cell_angle_gamma   90.00000000
_symmetry_Int_Tables_number   1
_chemical_formula_structural   Mn2PC11SO8F9
_chemical_formula_sum   'Mn8 P4 C44 S4 O32 F36'
_cell_volume   1994.95917146
_cell_formula_units_Z   4
loop_
 _symmetry_equiv_pos_site_id
 _symmetry_equiv_pos_as_xyz
  1  'x, y, z'
loop_
 _atom_site_type_symbol
 _atom_site_label
 _atom_site_symmetry_multiplicity
 _atom_site_fract_x
 _atom_site_fract_y
 _atom_site_fract_z
 _atom_site_occupancy
  Mn  Mn0  1  0.262099  0.737811  0.671603  1
  Mn  Mn1  1  0.009428  0.213270  0.141241  1
  Mn  Mn2  1  0.490572  0.713270  0.141241  1
  Mn  Mn3  1  0.509428  0.286730  0.858759  1
  Mn  Mn4  1  0.237901  0.237811  0.671603  1
  Mn  Mn5  1  0.762099  0.762189  0.328397  1
  Mn  Mn6  1  0.990572  0.786730  0.858759  1
  Mn  Mn7  1  0.737901  0.262189  0.328397  1
  P  P8  1  0.035206  0.691280  0.710101  1
  P  P9  1  0.964794  0.308720  0.289899  1
  P  P10  1  0.464794  0.191280  0.710101  1
  P  P11  1  0.535206  0.808720  0.289899  1
  C  C12  1  0.854775  0.845233  0.274571  1
  C  C13  1  0.982908  0.868343  0.975293  1
  C  C14  1  0.017092  0.131657  0.024707  1
  C  C15  1  0.179376  0.822126  0.615729  1
  C  C16  1  0.439314  0.788198  0.657607  1
  C  C17  1  0.113064  0.304035  0.374443  1
  C  C18  1  0.483881  0.058322  0.693839  1
  C  C19  1  0.016119  0.558322  0.693839  1
  C  C20  1  0.886936  0.695965  0.625557  1
  C  C21  1  0.650710  0.134892  0.102299  1
  C  C22  1  0.320624  0.322126  0.615729  1
  C  C23  1  0.645225  0.345233  0.274571  1
  C  C24  1  0.773271  0.854759  0.437961  1
  C  C25  1  0.411078  0.199516  0.903576  1
  C  C26  1  0.088922  0.699516  0.903576  1
  C  C27  1  0.588922  0.800484  0.096424  1
  C  C28  1  0.517092  0.368343  0.975293  1
  C  C29  1  0.819875  0.729138  0.869672  1
  C  C30  1  0.939314  0.711802  0.342393  1
  C  C31  1  0.273271  0.645241  0.562039  1
  C  C32  1  0.482908  0.631657  0.024707  1
  C  C33  1  0.145225  0.154767  0.725429  1
  C  C34  1  0.726729  0.354759  0.437961  1
  C  C35  1  0.150710  0.365108  0.897701  1
  C  C36  1  0.613064  0.195965  0.625557  1
  C  C37  1  0.849290  0.634892  0.102299  1
  C  C38  1  0.983881  0.441678  0.306161  1
  C  C39  1  0.679376  0.677874  0.384271  1
  C  C40  1  0.680125  0.229138  0.869672  1
  C  C41  1  0.560686  0.211802  0.342393  1
  C  C42  1  0.516119  0.941678  0.306161  1
  C  C43  1  0.111166  0.121837  0.179304  1
  C  C44  1  0.388834  0.621837  0.179304  1
  C  C45  1  0.888834  0.878163  0.820696  1
  C  C46  1  0.911078  0.300484  0.096424  1
  C  C47  1  0.180125  0.270862  0.130328  1
  C  C48  1  0.354775  0.654767  0.725429  1
  C  C49  1  0.319875  0.770862  0.130328  1
  C  C50  1  0.820624  0.177874  0.384271  1
  C  C51  1  0.060686  0.288198  0.657607  1
  C  C52  1  0.386936  0.804035  0.374443  1
  C  C53  1  0.611166  0.378163  0.820696  1
  C  C54  1  0.226729  0.145241  0.562039  1
  C  C55  1  0.349290  0.865108  0.897701  1
  S  S56  1  0.205776  0.857175  0.814878  1
  S  S57  1  0.794224  0.142825  0.185122  1
  S  S58  1  0.705776  0.642825  0.185122  1
  S  S59  1  0.294224  0.357175  0.814878  1
  O  O60  1  0.289646  0.307033  0.123940  1
  O  O61  1  0.364958  0.374957  0.579291  1
  O  O62  1  0.717444  0.414334  0.506700  1
  O  O63  1  0.675990  0.437385  0.802697  1
  O  O64  1  0.449374  0.180609  0.353500  1
  O  O65  1  0.143060  0.646127  0.935794  1
  O  O66  1  0.210354  0.807033  0.123940  1
  O  O67  1  0.419147  0.602220  0.753746  1
  O  O68  1  0.175990  0.062615  0.197303  1
  O  O69  1  0.525373  0.419234  0.048783  1
  O  O70  1  0.050626  0.680609  0.353500  1
  O  O71  1  0.282556  0.585666  0.493300  1
  O  O72  1  0.356940  0.146127  0.935794  1
  O  O73  1  0.856940  0.353873  0.064206  1
  O  O74  1  0.550626  0.819391  0.646500  1
  O  O75  1  0.474627  0.580766  0.951217  1
  O  O76  1  0.974627  0.919234  0.048783  1
  O  O77  1  0.580853  0.397780  0.246254  1
  O  O78  1  0.080853  0.102220  0.753746  1
  O  O79  1  0.643060  0.853873  0.064206  1
  O  O80  1  0.789646  0.192967  0.876060  1
  O  O81  1  0.324010  0.562615  0.197303  1
  O  O82  1  0.864958  0.125043  0.420709  1
  O  O83  1  0.217444  0.085666  0.493300  1
  O  O84  1  0.949374  0.319391  0.646500  1
  O  O85  1  0.919147  0.897780  0.246254  1
  O  O86  1  0.782556  0.914334  0.506700  1
  O  O87  1  0.635042  0.625043  0.420709  1
  O  O88  1  0.824010  0.937385  0.802697  1
  O  O89  1  0.710354  0.692967  0.876060  1
  O  O90  1  0.025373  0.080766  0.951217  1
  O  O91  1  0.135042  0.874957  0.579291  1
  F  F92  1  0.613655  0.035117  0.723314  1
  F  F93  1  0.421045  0.854269  0.461901  1
  F  F94  1  0.378835  0.029214  0.742879  1
  F  F95  1  0.475509  0.894335  0.868416  1
  F  F96  1  0.975509  0.605665  0.131584  1
  F  F97  1  0.886345  0.535117  0.723314  1
  F  F98  1  0.185256  0.429828  0.978958  1
  F  F99  1  0.967073  0.494981  0.394628  1
  F  F100  1  0.878835  0.470786  0.257121  1
  F  F101  1  0.578955  0.145731  0.538099  1
  F  F102  1  0.879174  0.718741  0.083812  1
  F  F103  1  0.120826  0.281259  0.916188  1
  F  F104  1  0.756792  0.662999  0.645764  1
  F  F105  1  0.467073  0.005019  0.605372  1
  F  F106  1  0.685256  0.070172  0.021042  1
  F  F107  1  0.524491  0.105665  0.131584  1
  F  F108  1  0.386345  0.964883  0.276686  1
  F  F109  1  0.866004  0.788198  0.625844  1
  F  F110  1  0.113655  0.464883  0.276686  1
  F  F111  1  0.121165  0.529214  0.742879  1
  F  F112  1  0.314744  0.929828  0.978958  1
  F  F113  1  0.243208  0.337001  0.354236  1
  F  F114  1  0.532927  0.994981  0.394628  1
  F  F115  1  0.379174  0.781259  0.916188  1
  F  F116  1  0.032927  0.505019  0.605372  1
  F  F117  1  0.921045  0.645731  0.538099  1
  F  F118  1  0.133996  0.211802  0.374156  1
  F  F119  1  0.633996  0.288198  0.625844  1
  F  F120  1  0.024491  0.394335  0.868416  1
  F  F121  1  0.621165  0.970786  0.257121  1
  F  F122  1  0.366004  0.711802  0.374156  1
  F  F123  1  0.078955  0.354269  0.461901  1
  F  F124  1  0.620826  0.218741  0.083812  1
  F  F125  1  0.256792  0.837001  0.354236  1
  F  F126  1  0.743208  0.162999  0.645764  1
  F  F127  1  0.814744  0.570172  0.021042  1
