# generated using pymatgen
data_CaLaMnSnO6
_symmetry_space_group_name_H-M   'P 1'
_cell_length_a   5.61198194
_cell_length_b   5.83265427
_cell_length_c   7.84442181
_cell_angle_alpha   90.00000000
_cell_angle_beta   89.57986392
_cell_angle_gamma   90.00000000
_symmetry_Int_Tables_number   1
_chemical_formula_structural   CaLaMnSnO6
_chemical_formula_sum   'Ca2 La2 Mn2 Sn2 O12'
_cell_volume   256.76259797
_cell_formula_units_Z   2
loop_
 _symmetry_equiv_pos_site_id
 _symmetry_equiv_pos_as_xyz
  1  'x, y, z'
loop_
 _atom_site_type_symbol
 _atom_site_label
 _atom_site_symmetry_multiplicity
 _atom_site_fract_x
 _atom_site_fract_y
 _atom_site_fract_z
 _atom_site_occupancy
  Ca  Ca0  1  0.484829  0.443573  0.748810  1
  Ca  Ca1  1  0.984829  0.056427  0.248810  1
  La  La2  1  0.013399  0.949915  0.750951  1
  La  La3  1  0.513399  0.550085  0.250951  1
  Mn  Mn4  1  0.500561  0.001522  0.001190  1
  Mn  Mn5  1  0.000561  0.498478  0.501190  1
  Sn  Sn6  1  0.001347  0.497946  0.998563  1
  Sn  Sn7  1  0.501347  0.002054  0.498563  1
  O  O8  1  0.093588  0.468373  0.258866  1
  O  O9  1  0.213752  0.201437  0.953200  1
  O  O10  1  0.214249  0.200405  0.553393  1
  O  O11  1  0.289569  0.699492  0.548257  1
  O  O12  1  0.289910  0.695519  0.945470  1
  O  O13  1  0.398795  0.970976  0.241300  1
  O  O14  1  0.593588  0.031627  0.758866  1
  O  O15  1  0.714249  0.299595  0.053393  1
  O  O16  1  0.713752  0.298563  0.453200  1
  O  O17  1  0.789569  0.800508  0.048257  1
  O  O18  1  0.789910  0.804481  0.445470  1
  O  O19  1  0.898795  0.529024  0.741300  1
