# generated using pymatgen
data_H7NO6
_symmetry_space_group_name_H-M   'P 1'
_cell_length_a   9.75483795
_cell_length_b   15.51980221
_cell_length_c   3.67617191
_cell_angle_alpha   89.97680603
_cell_angle_beta   88.95082794
_cell_angle_gamma   89.97737786
_symmetry_Int_Tables_number   1
_chemical_formula_structural   H7NO6
_chemical_formula_sum   'H28 N4 O24'
_cell_volume   556.45387296
_cell_formula_units_Z   4
loop_
 _symmetry_equiv_pos_site_id
 _symmetry_equiv_pos_as_xyz
  1  'x, y, z'
loop_
 _atom_site_type_symbol
 _atom_site_label
 _atom_site_symmetry_multiplicity
 _atom_site_fract_x
 _atom_site_fract_y
 _atom_site_fract_z
 _atom_site_occupancy
  H  H0  1  0.841197  0.615404  0.297375  1
  H  H1  1  0.725110  0.665328  0.080683  1
  H  H2  1  0.910924  0.644299  0.813804  1
  H  H3  1  0.683537  0.349006  0.753799  1
  H  H4  1  0.790115  0.336962  0.419795  1
  H  H5  1  0.316624  0.848850  0.746625  1
  H  H6  1  0.210060  0.836965  0.080574  1
  H  H7  1  0.275118  0.165898  0.417364  1
  H  H8  1  0.161435  0.113489  0.203945  1
  H  H9  1  0.088306  0.144449  0.686012  1
  H  H10  1  0.777068  0.927281  0.155161  1
  H  H11  1  0.669124  0.002689  0.137806  1
  H  H12  1  0.723644  0.083902  0.636376  1
  H  H13  1  0.819512  0.003204  0.653074  1
  H  H14  1  0.275923  0.583946  0.862794  1
  H  H15  1  0.180392  0.503150  0.846794  1
  H  H16  1  0.222919  0.427297  0.345095  1
  H  H17  1  0.330834  0.502699  0.361497  1
  H  H18  1  0.411869  0.854870  0.207348  1
  H  H19  1  0.531162  0.796507  0.469475  1
  H  H20  1  0.578956  0.891275  0.264662  1
  H  H21  1  0.975351  0.202886  0.978751  1
  H  H22  1  0.920505  0.110559  0.758999  1
  H  H23  1  0.078696  0.610332  0.738979  1
  H  H24  1  0.024572  0.703046  0.521723  1
  H  H25  1  0.421206  0.391292  0.235337  1
  H  H26  1  0.469121  0.296522  0.030929  1
  H  H27  1  0.588334  0.354907  0.292961  1
  N  N28  1  0.961225  0.838170  0.330792  1
  N  N29  1  0.537590  0.164347  0.840641  1
  N  N30  1  0.462815  0.664240  0.660824  1
  N  N31  1  0.039018  0.338006  0.169381  1
  O  O32  1  0.855872  0.811155  0.495155  1
  O  O33  1  0.640489  0.192258  0.005674  1
  O  O34  1  0.359928  0.692281  0.495478  1
  O  O35  1  0.144352  0.310972  0.004916  1
  O  O36  1  0.070467  0.790402  0.325425  1
  O  O37  1  0.426479  0.209297  0.840429  1
  O  O38  1  0.573922  0.709133  0.661189  1
  O  O39  1  0.929798  0.290303  0.175024  1
  O  O40  1  0.963399  0.910040  0.169916  1
  O  O41  1  0.541900  0.093220  0.673228  1
  O  O42  1  0.458355  0.593103  0.828111  1
  O  O43  1  0.036872  0.409884  0.330181  1
  O  O44  1  0.800933  0.624375  0.057375  1
  O  O45  1  0.703993  0.365867  0.503420  1
  O  O46  1  0.296180  0.865859  0.996557  1
  O  O47  1  0.200102  0.124419  0.443847  1
  O  O48  1  0.683973  0.942552  0.069151  1
  O  O49  1  0.818252  0.063329  0.572772  1
  O  O50  1  0.181345  0.563322  0.926012  1
  O  O51  1  0.316038  0.442601  0.430756  1
  O  O52  1  0.498840  0.856180  0.385669  1
  O  O53  1  0.004558  0.143679  0.877480  1
  O  O54  1  0.994852  0.643769  0.621168  1
  O  O55  1  0.501365  0.356223  0.114512  1
