# generated using pymatgen
data_Cu(Mo3S4)2
_symmetry_space_group_name_H-M   'P 1'
_cell_length_a   6.48808214
_cell_length_b   6.47256494
_cell_length_c   12.99815885
_cell_angle_alpha   94.66392258
_cell_angle_beta   94.03848913
_cell_angle_gamma   93.65097418
_symmetry_Int_Tables_number   1
_chemical_formula_structural   Cu(Mo3S4)2
_chemical_formula_sum   'Cu2 Mo12 S16'
_cell_volume   541.36933802
_cell_formula_units_Z   2
loop_
 _symmetry_equiv_pos_site_id
 _symmetry_equiv_pos_as_xyz
  1  'x, y, z'
loop_
 _atom_site_type_symbol
 _atom_site_label
 _atom_site_symmetry_multiplicity
 _atom_site_fract_x
 _atom_site_fract_y
 _atom_site_fract_z
 _atom_site_occupancy
  Cu  Cu0  1  0.065076  0.896577  0.018429  1
  Cu  Cu1  1  0.896918  0.038729  0.532255  1
  Mo  Mo2  1  0.212043  0.407279  0.773684  1
  Mo  Mo3  1  0.214300  0.402893  0.271249  1
  Mo  Mo4  1  0.405057  0.543693  0.605761  1
  Mo  Mo5  1  0.458503  0.782198  0.797394  1
  Mo  Mo6  1  0.403454  0.543319  0.106537  1
  Mo  Mo7  1  0.451817  0.786358  0.297229  1
  Mo  Mo8  1  0.542650  0.217501  0.702866  1
  Mo  Mo9  1  0.595388  0.453622  0.893270  1
  Mo  Mo10  1  0.546503  0.213880  0.202247  1
  Mo  Mo11  1  0.595068  0.457209  0.392656  1
  Mo  Mo12  1  0.788856  0.591628  0.727536  1
  Mo  Mo13  1  0.783588  0.596652  0.227630  1
  S  S14  1  0.138494  0.724775  0.689647  1
  S  S15  1  0.130397  0.728755  0.188485  1
  S  S16  1  0.274000  0.628105  0.933271  1
  S  S17  1  0.199735  0.207777  0.605253  1
  S  S18  1  0.273533  0.620864  0.431442  1
  S  S19  1  0.210118  0.200017  0.102170  1
  S  S20  1  0.377095  0.135544  0.861665  1
  S  S21  1  0.379474  0.137111  0.361493  1
  S  S22  1  0.627735  0.863033  0.636389  1
  S  S23  1  0.618481  0.863194  0.137882  1
  S  S24  1  0.799896  0.787177  0.897871  1
  S  S25  1  0.728902  0.375923  0.565305  1
  S  S26  1  0.786592  0.797917  0.398995  1
  S  S27  1  0.724049  0.378126  0.067886  1
  S  S28  1  0.863351  0.273840  0.810507  1
  S  S29  1  0.866527  0.277203  0.309644  1
