# generated using pymatgen
data_NaErF4
_symmetry_space_group_name_H-M   'P 1'
_cell_length_a   7.71395098
_cell_length_b   10.14428380
_cell_length_c   6.58832353
_cell_angle_alpha   29.30484025
_cell_angle_beta   54.16694371
_cell_angle_gamma   40.50045908
_symmetry_Int_Tables_number   1
_chemical_formula_structural   NaErF4
_chemical_formula_sum   'Na2 Er2 F8'
_cell_volume   158.91691193
_cell_formula_units_Z   2
loop_
 _symmetry_equiv_pos_site_id
 _symmetry_equiv_pos_as_xyz
  1  'x, y, z'
loop_
 _atom_site_type_symbol
 _atom_site_label
 _atom_site_symmetry_multiplicity
 _atom_site_fract_x
 _atom_site_fract_y
 _atom_site_fract_z
 _atom_site_occupancy
  Na  Na0  1  0.000058  -0.000055  0.000055  1
  Na  Na1  1  0.749952  0.500056  0.999940  1
  Er  Er2  1  0.500002  0.000019  -0.000001  1
  Er  Er3  1  0.250010  0.499998  -0.000002  1
  F  F4  1  0.146784  0.978180  0.271852  1
  F  F5  1  0.603197  0.021819  0.228135  1
  F  F6  1  0.374995  0.021816  0.728165  1
  F  F7  1  0.375008  0.478161  0.271828  1
  F  F8  1  0.146803  0.478176  0.771865  1
  F  F9  1  0.875001  0.978156  0.771854  1
  F  F10  1  0.874992  0.521833  0.228168  1
  F  F11  1  0.603197  0.521841  0.728141  1
