# generated using pymatgen
data_YbCe9O20
_symmetry_space_group_name_H-M   'P 1'
_cell_length_a   7.71776870
_cell_length_b   19.33446300
_cell_length_c   10.22801916
_cell_angle_alpha   19.07193070
_cell_angle_beta   55.42354523
_cell_angle_gamma   59.91540117
_symmetry_Int_Tables_number   1
_chemical_formula_structural   YbCe9O20
_chemical_formula_sum   'Yb1 Ce9 O20'
_cell_volume   407.10798896
_cell_formula_units_Z   1
loop_
 _symmetry_equiv_pos_site_id
 _symmetry_equiv_pos_as_xyz
  1  'x, y, z'
loop_
 _atom_site_type_symbol
 _atom_site_label
 _atom_site_symmetry_multiplicity
 _atom_site_fract_x
 _atom_site_fract_y
 _atom_site_fract_z
 _atom_site_occupancy
  Yb  Yb0  1  0.000000  0.000000  0.000000  1
  Ce  Ce1  1  0.000163  0.198970  0.999502  1
  Ce  Ce2  1  0.500000  0.000000  0.000000  1
  Ce  Ce3  1  0.000221  0.400865  0.000009  1
  Ce  Ce4  1  0.503117  0.199106  0.998992  1
  Ce  Ce5  1  0.496990  0.396717  0.007544  1
  Ce  Ce6  1  0.999837  0.801030  0.000498  1
  Ce  Ce7  1  0.503010  0.603283  0.992456  1
  Ce  Ce8  1  0.496883  0.800894  0.001008  1
  Ce  Ce9  1  0.999779  0.599135  -0.000009  1
  O  O10  1  0.126424  0.149710  0.249327  1
  O  O11  1  0.128330  0.356933  0.234665  1
  O  O12  1  0.624522  0.149086  0.251320  1
  O  O13  1  0.382832  0.050945  0.744983  1
  O  O14  1  0.126339  0.550937  0.248108  1
  O  O15  1  0.624027  0.351549  0.247787  1
  O  O16  1  0.376048  0.251912  0.745735  1
  O  O17  1  0.127291  0.745030  0.255333  1
  O  O18  1  0.872495  0.051086  0.744806  1
  O  O19  1  0.376153  0.449055  0.751289  1
  O  O20  1  0.127505  0.948914  0.255194  1
  O  O21  1  0.623847  0.550945  0.248711  1
  O  O22  1  0.872709  0.254970  0.744667  1
  O  O23  1  0.375973  0.648451  0.752213  1
  O  O24  1  0.623952  0.748088  0.254265  1
  O  O25  1  0.617168  0.949055  0.255017  1
  O  O26  1  0.873661  0.449063  0.751892  1
  O  O27  1  0.375478  0.850914  0.748680  1
  O  O28  1  0.871670  0.643067  0.765335  1
  O  O29  1  0.873576  0.850290  0.750673  1
