# generated using pymatgen
data_U2Te3
_symmetry_space_group_name_H-M   'P 1'
_cell_length_a   23.94430716
_cell_length_b   9.20513883
_cell_length_c   9.20513840
_cell_angle_alpha   90.00000000
_cell_angle_beta   54.78408243
_cell_angle_gamma   54.78408251
_symmetry_Int_Tables_number   1
_chemical_formula_structural   U2Te3
_chemical_formula_sum   'U16 Te24'
_cell_volume   1174.19093669
_cell_formula_units_Z   8
loop_
 _symmetry_equiv_pos_site_id
 _symmetry_equiv_pos_as_xyz
  1  'x, y, z'
loop_
 _atom_site_type_symbol
 _atom_site_label
 _atom_site_symmetry_multiplicity
 _atom_site_fract_x
 _atom_site_fract_y
 _atom_site_fract_z
 _atom_site_occupancy
  U  U0  1  0.000357  0.122710  0.752004  1
  U  U1  1  0.080676  0.628986  0.378986  1
  U  U2  1  0.166667  0.250000  0.628342  1
  U  U3  1  0.332976  0.377290  0.253074  1
  U  U4  1  0.252657  0.871014  0.121014  1
  U  U5  1  0.166667  0.750000  0.871658  1
  U  U6  1  0.332976  0.123781  0.747996  1
  U  U7  1  0.500357  0.252004  0.622710  1
  U  U8  1  0.666667  0.371658  0.250000  1
  U  U9  1  0.580676  0.878986  0.128986  1
  U  U10  1  0.500357  0.746926  0.876219  1
  U  U11  1  0.666667  0.128342  0.750000  1
  U  U12  1  0.752657  0.621014  0.371014  1
  U  U13  1  0.832976  0.247996  0.623781  1
  U  U14  1  0.000357  0.376219  0.246926  1
  U  U15  1  0.832976  0.753074  0.877290  1
  Te  Te16  1  0.051940  0.000121  0.343638  1
  Te  Te17  1  0.117146  0.497999  0.998218  1
  Te  Te18  1  0.051940  0.344058  0.500541  1
  Te  Te19  1  0.281393  0.155942  0.156362  1
  Te  Te20  1  0.281393  0.499879  0.999459  1
  Te  Te21  1  0.216187  0.002001  0.849656  1
  Te  Te22  1  0.117146  0.650563  0.650344  1
  Te  Te23  1  0.385314  0.997755  0.342321  1
  Te  Te24  1  0.216187  0.849437  0.501782  1
  Te  Te25  1  0.448020  0.498262  0.002245  1
  Te  Te26  1  0.385314  0.346304  0.501738  1
  Te  Te27  1  0.617146  0.150344  0.150563  1
  Te  Te28  1  0.617146  0.498218  0.997999  1
  Te  Te29  1  0.551940  0.000541  0.844058  1
  Te  Te30  1  0.448020  0.657679  0.653696  1
  Te  Te31  1  0.716187  0.001782  0.349437  1
  Te  Te32  1  0.551940  0.843638  0.500121  1
  Te  Te33  1  0.781393  0.499459  -0.000121  1
  Te  Te34  1  0.716187  0.349656  0.502001  1
  Te  Te35  1  0.948020  0.153696  0.157679  1
  Te  Te36  1  0.948020  0.502245  0.998262  1
  Te  Te37  1  0.885314  0.001738  0.846304  1
  Te  Te38  1  0.781393  0.656362  0.655942  1
  Te  Te39  1  0.885314  0.842321  0.497755  1
