# generated using pymatgen
data_CsH(CO2)2
_symmetry_space_group_name_H-M   'P 1'
_cell_length_a   10.49723231
_cell_length_b   7.06778100
_cell_length_c   7.05843322
_cell_angle_alpha   90.00000000
_cell_angle_beta   97.91341410
_cell_angle_gamma   90.00000000
_symmetry_Int_Tables_number   1
_chemical_formula_structural   CsH(CO2)2
_chemical_formula_sum   'Cs4 H4 C8 O16'
_cell_volume   518.69338709
_cell_formula_units_Z   4
loop_
 _symmetry_equiv_pos_site_id
 _symmetry_equiv_pos_as_xyz
  1  'x, y, z'
loop_
 _atom_site_type_symbol
 _atom_site_label
 _atom_site_symmetry_multiplicity
 _atom_site_fract_x
 _atom_site_fract_y
 _atom_site_fract_z
 _atom_site_occupancy
  Cs  Cs0  1  0.771092  0.017075  0.006318  1
  Cs  Cs1  1  0.228908  0.517075  0.493682  1
  Cs  Cs2  1  0.228908  0.982925  0.993682  1
  Cs  Cs3  1  0.771092  0.482925  0.506318  1
  H  H4  1  0.287124  0.428150  0.058654  1
  H  H5  1  0.712876  0.928150  0.441346  1
  H  H6  1  0.712876  0.571850  0.941346  1
  H  H7  1  0.287124  0.071850  0.558654  1
  C  C8  1  0.066776  0.982073  0.463635  1
  C  C9  1  0.933224  0.482073  0.036365  1
  C  C10  1  0.933224  0.017927  0.536365  1
  C  C11  1  0.066776  0.517927  0.963635  1
  C  C12  1  0.497498  0.083500  0.571659  1
  C  C13  1  0.502502  0.583500  0.928341  1
  C  C14  1  0.502502  0.916500  0.428341  1
  C  C15  1  0.497498  0.416500  0.071659  1
  O  O16  1  0.161438  0.068863  0.563534  1
  O  O17  1  0.838562  0.568863  0.936466  1
  O  O18  1  0.838562  0.931137  0.436466  1
  O  O19  1  0.161438  0.431137  0.063534  1
  O  O20  1  0.927937  0.377239  0.177238  1
  O  O21  1  0.072063  0.877239  0.322762  1
  O  O22  1  0.072063  0.622761  0.822762  1
  O  O23  1  0.927937  0.122761  0.677238  1
  O  O24  1  0.384921  0.365728  0.112101  1
  O  O25  1  0.615079  0.865728  0.387899  1
  O  O26  1  0.615079  0.634272  0.887899  1
  O  O27  1  0.384921  0.134272  0.612101  1
  O  O28  1  0.402124  0.662367  0.857589  1
  O  O29  1  0.597876  0.162367  0.642411  1
  O  O30  1  0.597876  0.337633  0.142411  1
  O  O31  1  0.402124  0.837633  0.357589  1
