# generated using pymatgen
data_Na3(VSe2)5
_symmetry_space_group_name_H-M   'P 1'
_cell_length_a   38.01660943
_cell_length_b   22.29953139
_cell_length_c   14.77093146
_cell_angle_alpha   12.26883920
_cell_angle_beta   13.58720872
_cell_angle_gamma   9.06245544
_symmetry_Int_Tables_number   1
_chemical_formula_structural   Na3(VSe2)5
_chemical_formula_sum   'Na3 V5 Se10'
_cell_volume   409.72373294
_cell_formula_units_Z   1
loop_
 _symmetry_equiv_pos_site_id
 _symmetry_equiv_pos_as_xyz
  1  'x, y, z'
loop_
 _atom_site_type_symbol
 _atom_site_label
 _atom_site_symmetry_multiplicity
 _atom_site_fract_x
 _atom_site_fract_y
 _atom_site_fract_z
 _atom_site_occupancy
  Na  Na0  1  0.346016  0.141046  0.168466  1
  Na  Na1  1  0.575753  0.120975  0.129758  1
  Na  Na2  1  0.736815  0.178363  0.142788  1
  V  V3  1  0.029406  0.940323  0.015471  1
  V  V4  1  0.193925  0.036887  0.963267  1
  V  V5  1  0.363538  0.041425  0.028854  1
  V  V6  1  0.565767  0.012851  0.065208  1
  V  V7  1  0.830086  0.988571  0.941259  1
  Se  Se8  1  0.028805  0.402590  0.429207  1
  Se  Se9  1  0.234577  0.400062  0.425788  1
  Se  Se10  1  0.162570  0.614320  0.566399  1
  Se  Se11  1  0.446515  0.388277  0.394300  1
  Se  Se12  1  0.355102  0.606236  0.595829  1
  Se  Se13  1  0.638871  0.384790  0.415872  1
  Se  Se14  1  0.554860  0.599193  0.610826  1
  Se  Se15  1  0.840395  0.406700  0.392091  1
  Se  Se16  1  0.755105  0.612545  0.604939  1
  Se  Se17  1  0.941854  0.624947  0.609777  1
