# generated using pymatgen
data_CuH6(CO2)4
_symmetry_space_group_name_H-M   'P 1'
_cell_length_a   7.96385356
_cell_length_b   8.55829936
_cell_length_c   12.44731334
_cell_angle_alpha   90.00000000
_cell_angle_beta   90.00000000
_cell_angle_gamma   90.00000000
_symmetry_Int_Tables_number   1
_chemical_formula_structural   CuH6(CO2)4
_chemical_formula_sum   'Cu4 H24 C16 O32'
_cell_volume   848.37206838
_cell_formula_units_Z   4
loop_
 _symmetry_equiv_pos_site_id
 _symmetry_equiv_pos_as_xyz
  1  'x, y, z'
loop_
 _atom_site_type_symbol
 _atom_site_label
 _atom_site_symmetry_multiplicity
 _atom_site_fract_x
 _atom_site_fract_y
 _atom_site_fract_z
 _atom_site_occupancy
  Cu  Cu0  1  0.000000  0.500000  0.500000  1
  Cu  Cu1  1  0.500000  0.500000  0.000000  1
  Cu  Cu2  1  0.500000  0.000000  0.500000  1
  Cu  Cu3  1  0.000000  0.000000  0.000000  1
  H  H4  1  0.101120  0.122088  0.768443  1
  H  H5  1  0.195626  0.795831  0.556587  1
  H  H6  1  0.898880  0.877912  0.231557  1
  H  H7  1  0.117448  0.023884  0.387204  1
  H  H8  1  0.101120  0.377912  0.268443  1
  H  H9  1  0.898880  0.622088  0.731557  1
  H  H10  1  0.601120  0.377912  0.231557  1
  H  H11  1  0.117448  0.476116  0.887204  1
  H  H12  1  0.695626  0.795831  0.943413  1
  H  H13  1  0.382552  0.523884  0.387204  1
  H  H14  1  0.304374  0.204169  0.056587  1
  H  H15  1  0.804374  0.295831  0.943413  1
  H  H16  1  0.398880  0.877912  0.268443  1
  H  H17  1  0.617448  0.023884  0.112796  1
  H  H18  1  0.882552  0.523884  0.112796  1
  H  H19  1  0.882552  0.976116  0.612796  1
  H  H20  1  0.195626  0.704169  0.056587  1
  H  H21  1  0.304374  0.295831  0.556587  1
  H  H22  1  0.398880  0.622088  0.768443  1
  H  H23  1  0.601120  0.122088  0.731557  1
  H  H24  1  0.695626  0.704169  0.443413  1
  H  H25  1  0.804374  0.204169  0.443413  1
  H  H26  1  0.382552  0.976116  0.887204  1
  H  H27  1  0.617448  0.476116  0.612796  1
  C  C28  1  0.003856  0.546741  0.757201  1
  C  C29  1  0.767933  0.737224  0.007092  1
  C  C30  1  0.503856  0.953259  0.242799  1
  C  C31  1  0.996144  0.453259  0.242799  1
  C  C32  1  0.996144  0.046741  0.742799  1
  C  C33  1  0.267933  0.737224  0.492908  1
  C  C34  1  0.732067  0.237224  0.007092  1
  C  C35  1  0.232067  0.237224  0.492908  1
  C  C36  1  0.732067  0.262776  0.507092  1
  C  C37  1  0.232067  0.262776  0.992908  1
  C  C38  1  0.496144  0.453259  0.257201  1
  C  C39  1  0.003856  0.953259  0.257201  1
  C  C40  1  0.503856  0.546741  0.742799  1
  C  C41  1  0.496144  0.046741  0.757201  1
  C  C42  1  0.767933  0.762776  0.507092  1
  C  C43  1  0.267933  0.762776  0.992908  1
  O  O44  1  0.406427  0.976984  0.692879  1
  O  O45  1  0.400169  0.799745  0.456182  1
  O  O46  1  0.406427  0.523016  0.192879  1
  O  O47  1  0.020239  0.543575  0.863194  1
  O  O48  1  0.593573  0.023016  0.307121  1
  O  O49  1  0.520239  0.956425  0.136806  1
  O  O50  1  0.479761  0.456425  0.363194  1
  O  O51  1  0.099831  0.299745  0.456182  1
  O  O52  1  0.020239  0.956425  0.363194  1
  O  O53  1  0.283275  0.393930  0.956462  1
  O  O54  1  0.283275  0.106070  0.456462  1
  O  O55  1  0.479761  0.043575  0.863194  1
  O  O56  1  0.520239  0.543575  0.636806  1
  O  O57  1  0.906427  0.523016  0.307121  1
  O  O58  1  0.979761  0.043575  0.636806  1
  O  O59  1  0.979761  0.456425  0.136806  1
  O  O60  1  0.599831  0.200255  0.543818  1
  O  O61  1  0.906427  0.976984  0.807121  1
  O  O62  1  0.593573  0.476984  0.807121  1
  O  O63  1  0.099831  0.200255  0.956182  1
  O  O64  1  0.900169  0.700255  0.543818  1
  O  O65  1  0.900169  0.799745  0.043818  1
  O  O66  1  0.783275  0.393930  0.543538  1
  O  O67  1  0.716725  0.606070  0.043538  1
  O  O68  1  0.400169  0.700255  0.956182  1
  O  O69  1  0.599831  0.299745  0.043818  1
  O  O70  1  0.093573  0.023016  0.192879  1
  O  O71  1  0.216725  0.893930  0.956462  1
  O  O72  1  0.716725  0.893930  0.543538  1
  O  O73  1  0.093573  0.476984  0.692879  1
  O  O74  1  0.783275  0.106070  0.043538  1
  O  O75  1  0.216725  0.606070  0.456462  1
