# generated using pymatgen
data_Cs2CaAl4(SiO4)4
_symmetry_space_group_name_H-M   'P 1'
_cell_length_a   12.55172748
_cell_length_b   12.35067934
_cell_length_c   12.23582815
_cell_angle_alpha   90.08573540
_cell_angle_beta   90.46639250
_cell_angle_gamma   88.45106625
_symmetry_Int_Tables_number   1
_chemical_formula_structural   Cs2CaAl4(SiO4)4
_chemical_formula_sum   'Cs6 Ca3 Al12 Si12 O48'
_cell_volume   1896.06951435
_cell_formula_units_Z   3
loop_
 _symmetry_equiv_pos_site_id
 _symmetry_equiv_pos_as_xyz
  1  'x, y, z'
loop_
 _atom_site_type_symbol
 _atom_site_label
 _atom_site_symmetry_multiplicity
 _atom_site_fract_x
 _atom_site_fract_y
 _atom_site_fract_z
 _atom_site_occupancy
  Cs  Cs0  1  0.032515  0.521029  0.506346  1
  Cs  Cs1  1  0.455805  0.467518  0.007976  1
  Cs  Cs2  1  0.495701  0.035818  0.489083  1
  Cs  Cs3  1  0.521419  0.730831  0.241006  1
  Cs  Cs4  1  0.623692  0.632433  0.786949  1
  Cs  Cs5  1  0.908093  0.110928  0.099576  1
  Ca  Ca6  1  0.772780  0.192822  0.809082  1
  Ca  Ca7  1  0.796441  0.824383  0.180878  1
  Ca  Ca8  1  0.828074  0.851017  0.835528  1
  Al  Al9  1  0.018770  0.817081  0.366322  1
  Al  Al10  1  0.004955  0.630570  0.813778  1
  Al  Al11  1  0.179058  0.365688  0.999832  1
  Al  Al12  1  0.371876  0.808831  0.001207  1
  Al  Al13  1  0.623483  0.015023  0.191321  1
  Al  Al14  1  0.624906  0.187875  0.010205  1
  Al  Al15  1  0.620985  0.991171  0.810801  1
  Al  Al16  1  0.619852  0.813918  0.995412  1
  Al  Al17  1  0.827420  0.991100  0.367974  1
  Al  Al18  1  0.838549  0.004615  0.633564  1
  Al  Al19  1  0.818477  0.375463  0.984936  1
  Al  Al20  1  0.834511  0.636506  -0.000002  1
  Si  Si21  1  0.996727  0.369029  0.181384  1
  Si  Si22  1  0.004811  0.190216  0.625349  1
  Si  Si23  1  0.014405  0.621629  0.193719  1
  Si  Si24  1  0.020477  0.819644  0.630157  1
  Si  Si25  1  0.189946  0.004623  0.624417  1
  Si  Si26  1  0.186934  0.619595  0.009303  1
  Si  Si27  1  0.189414  0.007077  0.371261  1
  Si  Si28  1  0.374281  0.001278  0.187140  1
  Si  Si29  1  0.373202  0.179068  0.997091  1
  Si  Si30  1  0.377337  0.997203  0.810324  1
  Si  Si31  1  0.997078  0.182833  0.368320  1
  Si  Si32  1  0.999345  0.373180  0.805277  1
  O  O33  1  0.993691  0.224581  0.496227  1
  O  O34  1  0.991867  0.494589  0.228274  1
  O  O35  1  0.017691  0.303831  0.689627  1
  O  O36  1  0.023553  0.687179  0.307421  1
  O  O37  1  0.980948  0.498201  0.766465  1
  O  O38  1  0.031419  0.708127  0.697939  1
  O  O39  1  0.109448  0.113468  0.350679  1
  O  O40  1  0.104529  0.340800  0.117209  1
  O  O41  1  0.099400  0.351593  0.883763  1
  O  O42  1  0.132915  0.894105  0.353120  1
  O  O43  1  0.106834  0.107323  0.644537  1
  O  O44  1  0.125135  0.632681  0.128181  1
  O  O45  1  0.101800  0.642121  0.912485  1
  O  O46  1  0.129513  0.891185  0.639849  1
  O  O47  1  0.237722  0.015146  0.499207  1
  O  O48  1  0.234775  0.495615  0.004716  1
  O  O49  1  0.290024  0.279000  0.992997  1
  O  O50  1  0.289649  0.008534  0.708753  1
  O  O51  1  0.284949  0.701896  0.006907  1
  O  O52  1  0.292970  0.016504  0.292285  1
  O  O53  1  0.349211  0.100385  0.102315  1
  O  O54  1  0.365080  0.106945  0.884235  1
  O  O55  1  0.364606  0.884491  0.126771  1
  O  O56  1  0.361371  0.890464  0.883334  1
  O  O57  1  0.492328  0.009858  0.244633  1
  O  O58  1  0.490946  0.230901  0.007767  1
  O  O59  1  0.501459  0.743975  0.002689  1
  O  O60  1  0.494299  0.995888  0.748938  1
  O  O61  1  0.665730  0.133847  0.134269  1
  O  O62  1  0.649387  0.097471  0.899505  1
  O  O63  1  0.641839  0.906011  0.099505  1
  O  O64  1  0.649995  0.858821  0.861620  1
  O  O65  1  0.738053  0.006403  0.731974  1
  O  O66  1  0.711394  0.289027  0.964228  1
  O  O67  1  0.731922  0.730965  0.026627  1
  O  O68  1  0.712653  0.964409  0.291159  1
  O  O69  1  0.794683  0.988631  0.503941  1
  O  O70  1  0.783070  0.510747  0.976558  1
  O  O71  1  0.895548  0.111801  0.337097  1
  O  O72  1  0.892353  0.344466  0.105583  1
  O  O73  1  0.889452  0.326528  0.862195  1
  O  O74  1  0.908879  0.886536  0.307354  1
  O  O75  1  0.896508  0.132695  0.668857  1
  O  O76  1  0.911369  0.667857  0.120697  1
  O  O77  1  0.886273  0.687155  0.874203  1
  O  O78  1  0.922719  0.895721  0.685757  1
  O  O79  1  0.994321  0.291662  0.292496  1
  O  O80  1  0.994798  0.791069  0.504736  1
