# generated using pymatgen
data_Ag13(PbO3)6
_symmetry_space_group_name_H-M   'P 1'
_cell_length_a   6.00226847
_cell_length_b   12.04024991
_cell_length_c   19.46632693
_cell_angle_alpha   90.20868186
_cell_angle_beta   90.04204247
_cell_angle_gamma   120.28043073
_symmetry_Int_Tables_number   1
_chemical_formula_structural   Ag13(PbO3)6
_chemical_formula_sum   'Ag26 Pb12 O36'
_cell_volume   1214.86096501
_cell_formula_units_Z   2
loop_
 _symmetry_equiv_pos_site_id
 _symmetry_equiv_pos_as_xyz
  1  'x, y, z'
loop_
 _atom_site_type_symbol
 _atom_site_label
 _atom_site_symmetry_multiplicity
 _atom_site_fract_x
 _atom_site_fract_y
 _atom_site_fract_z
 _atom_site_occupancy
  Ag  Ag0  1  0.999750  0.998410  0.411180  1
  Ag  Ag1  1  0.000427  0.006076  0.744380  1
  Ag  Ag2  1  0.000021  0.749318  0.000261  1
  Ag  Ag3  1  0.985826  0.499791  0.254972  1
  Ag  Ag4  1  0.999600  0.505893  0.744243  1
  Ag  Ag5  1  0.502305  0.750209  0.000741  1
  Ag  Ag6  1  0.496476  0.747348  0.334711  1
  Ag  Ag7  1  0.501327  0.750493  0.666381  1
  Ag  Ag8  1  0.499755  0.499690  0.999065  1
  Ag  Ag9  1  0.499944  0.499955  0.666731  1
  Ag  Ag10  1  0.002331  0.999859  0.255323  1
  Ag  Ag11  1  0.001478  0.993977  0.587828  1
  Ag  Ag12  1  0.999223  0.001629  0.919901  1
  Ag  Ag13  1  0.996415  0.746709  0.332614  1
  Ag  Ag14  1  0.501783  0.250548  0.999447  1
  Ag  Ag15  1  0.498924  0.250170  0.665944  1
  Ag  Ag16  1  0.502674  0.253070  0.333532  1
  Ag  Ag17  1  0.998329  0.500141  0.077788  1
  Ag  Ag18  1  0.002160  0.493739  0.588060  1
  Ag  Ag19  1  0.012538  0.498447  0.412695  1
  Ag  Ag20  1  0.000906  0.501533  0.922042  1
  Ag  Ag21  1  0.496315  0.999626  0.000107  1
  Ag  Ag22  1  0.499583  0.000334  0.334394  1
  Ag  Ag23  1  0.499686  0.000171  0.666519  1
  Ag  Ag24  1  0.003044  0.253039  0.333868  1
  Ag  Ag25  1  0.001211  0.249574  0.001512  1
  Pb  Pb26  1  0.324924  0.832325  0.502216  1
  Pb  Pb27  1  0.339529  0.834839  0.164990  1
  Pb  Pb28  1  0.328317  0.830394  0.831387  1
  Pb  Pb29  1  0.663471  0.664696  0.167881  1
  Pb  Pb30  1  0.671836  0.666613  0.831039  1
  Pb  Pb31  1  0.666125  0.665898  0.500306  1
  Pb  Pb32  1  0.335450  0.335351  0.167967  1
  Pb  Pb33  1  0.330632  0.337800  0.500418  1
  Pb  Pb34  1  0.327835  0.330028  0.830922  1
  Pb  Pb35  1  0.667911  0.165044  0.164977  1
  Pb  Pb36  1  0.671663  0.171016  0.502420  1
  Pb  Pb37  1  0.671566  0.166318  0.831330  1
  O  O38  1  0.998715  0.687573  0.103095  1
  O  O39  1  0.999575  0.686855  0.771074  1
  O  O40  1  0.998420  0.685102  0.434836  1
  O  O41  1  0.627250  0.001421  0.564215  1
  O  O42  1  0.626255  0.000694  0.231127  1
  O  O43  1  0.617733  0.997867  0.896594  1
  O  O44  1  0.372376  0.687350  0.231571  1
  O  O45  1  0.372240  0.688030  0.564146  1
  O  O46  1  0.383851  0.689297  0.896359  1
  O  O47  1  0.617738  0.805021  0.104300  1
  O  O48  1  0.617563  0.812278  0.437673  1
  O  O49  1  0.627521  0.812597  0.769170  1
  O  O50  1  0.006129  0.193958  0.104436  1
  O  O51  1  0.998660  0.187117  0.435595  1
  O  O52  1  0.998373  0.186623  0.770859  1
  O  O53  1  0.372976  0.499301  0.101798  1
  O  O54  1  0.380823  0.503000  0.438661  1
  O  O55  1  0.370603  0.498265  0.769078  1
  O  O56  1  0.623646  0.500781  0.227964  1
  O  O57  1  0.631744  0.501598  0.565317  1
  O  O58  1  0.619833  0.497776  0.895415  1
  O  O59  1  0.004921  0.812546  0.230073  1
  O  O60  1  0.993695  0.811020  0.560984  1
  O  O61  1  0.000558  0.813220  0.897864  1
  O  O62  1  0.380556  0.188449  0.230143  1
  O  O63  1  0.370343  0.189143  0.563063  1
  O  O64  1  0.381273  0.188133  0.895769  1
  O  O65  1  0.622760  0.311406  0.103051  1
  O  O66  1  0.621080  0.313909  0.437025  1
  O  O67  1  0.627270  0.312054  0.768966  1
  O  O68  1  0.382140  0.999190  0.103045  1
  O  O69  1  0.380051  0.002547  0.438210  1
  O  O70  1  0.371677  0.998104  0.769049  1
  O  O71  1  0.998712  0.313686  0.231513  1
  O  O72  1  0.000703  0.312069  0.562827  1
  O  O73  1  0.000944  0.311952  0.898408  1
