# generated using pymatgen
data_La3GaGe5O16
_symmetry_space_group_name_H-M   'P 1'
_cell_length_a   4.88895768
_cell_length_b   8.21302821
_cell_length_c   15.86603152
_cell_angle_alpha   90.74481984
_cell_angle_beta   94.27823820
_cell_angle_gamma   89.96125691
_symmetry_Int_Tables_number   1
_chemical_formula_structural   La3GaGe5O16
_chemical_formula_sum   'La6 Ga2 Ge10 O32'
_cell_volume   635.24222227
_cell_formula_units_Z   2
loop_
 _symmetry_equiv_pos_site_id
 _symmetry_equiv_pos_as_xyz
  1  'x, y, z'
loop_
 _atom_site_type_symbol
 _atom_site_label
 _atom_site_symmetry_multiplicity
 _atom_site_fract_x
 _atom_site_fract_y
 _atom_site_fract_z
 _atom_site_occupancy
  La  La0  1  0.022274  0.134707  0.249482  1
  La  La1  1  0.026919  0.735811  0.454940  1
  La  La2  1  0.973081  0.264189  0.545060  1
  La  La3  1  0.021330  0.737675  0.035403  1
  La  La4  1  0.977726  0.865293  0.750518  1
  La  La5  1  0.978670  0.262325  0.964597  1
  Ga  Ga6  1  0.506364  0.193325  0.743405  1
  Ga  Ga7  1  0.493636  0.806675  0.256595  1
  Ge  Ge8  1  0.520165  0.944408  0.911496  1
  Ge  Ge9  1  0.009743  0.567382  0.243872  1
  Ge  Ge10  1  0.484224  0.944135  0.585649  1
  Ge  Ge11  1  0.478615  0.437867  0.126080  1
  Ge  Ge12  1  0.552997  0.433273  0.361343  1
  Ge  Ge13  1  0.990257  0.432618  0.756128  1
  Ge  Ge14  1  0.515776  0.055865  0.414351  1
  Ge  Ge15  1  0.447003  0.566727  0.638657  1
  Ge  Ge16  1  0.479835  0.055592  0.088504  1
  Ge  Ge17  1  0.521385  0.562133  0.873920  1
  O  O18  1  0.129013  0.918806  0.594668  1
  O  O19  1  0.207165  0.720764  0.186481  1
  O  O20  1  0.689940  0.065642  0.663677  1
  O  O21  1  0.189122  0.282713  0.692501  1
  O  O22  1  0.810878  0.717287  0.307499  1
  O  O23  1  0.238356  0.523310  0.546412  1
  O  O24  1  0.118749  0.062831  0.094750  1
  O  O25  1  0.748460  0.521845  0.961941  1
  O  O26  1  0.744902  0.584239  0.147172  1
  O  O27  1  0.792835  0.279236  0.813519  1
  O  O28  1  0.761644  0.476690  0.453588  1
  O  O29  1  0.667974  0.251567  0.109719  1
  O  O30  1  0.870987  0.081195  0.405332  1
  O  O31  1  0.551082  0.854427  0.481635  1
  O  O32  1  0.713908  0.417957  0.658219  1
  O  O33  1  0.310060  0.934358  0.336323  1
  O  O34  1  0.546489  0.864627  0.033266  1
  O  O35  1  0.795776  0.393420  0.282600  1
  O  O36  1  0.448918  0.145573  0.518365  1
  O  O37  1  0.453511  0.135373  0.966734  1
  O  O38  1  0.332026  0.748433  0.890281  1
  O  O39  1  0.604361  0.992355  0.196681  1
  O  O40  1  0.204224  0.606580  0.717400  1
  O  O41  1  0.255098  0.415761  0.852828  1
  O  O42  1  0.762502  0.607533  0.796596  1
  O  O43  1  0.395639  0.007645  0.803319  1
  O  O44  1  0.371312  0.244866  0.360746  1
  O  O45  1  0.286092  0.582043  0.341781  1
  O  O46  1  0.881251  0.937169  0.905250  1
  O  O47  1  0.237498  0.392467  0.203404  1
  O  O48  1  0.251540  0.478155  0.038059  1
  O  O49  1  0.628688  0.755134  0.639254  1
