# generated using pymatgen
data_K3Mo3Se14
_symmetry_space_group_name_H-M   'P 1'
_cell_length_a   15.15262986
_cell_length_b   15.15263028
_cell_length_c   20.84948366
_cell_angle_alpha   90.00000000
_cell_angle_beta   90.00000000
_cell_angle_gamma   106.70805539
_symmetry_Int_Tables_number   1
_chemical_formula_structural   K3Mo3Se14
_chemical_formula_sum   'K24 Mo24 Se112'
_cell_volume   4584.98642748
_cell_formula_units_Z   8
loop_
 _symmetry_equiv_pos_site_id
 _symmetry_equiv_pos_as_xyz
  1  'x, y, z'
loop_
 _atom_site_type_symbol
 _atom_site_label
 _atom_site_symmetry_multiplicity
 _atom_site_fract_x
 _atom_site_fract_y
 _atom_site_fract_z
 _atom_site_occupancy
  K  K0  1  0.807554  0.556069  0.619130  1
  K  K1  1  0.337697  0.584887  0.329568  1
  K  K2  1  0.944233  0.686747  0.122642  1
  K  K3  1  0.518485  0.518485  0.094395  1
  K  K4  1  0.192446  0.443931  0.119130  1
  K  K5  1  0.971031  0.475434  0.339701  1
  K  K6  1  0.820289  0.063459  0.360564  1
  K  K7  1  0.475434  0.971031  0.339701  1
  K  K8  1  0.662303  0.415113  0.829568  1
  K  K9  1  0.313253  0.055767  0.622642  1
  K  K10  1  0.524566  0.028969  0.839701  1
  K  K11  1  0.936541  0.179711  0.860564  1
  K  K12  1  0.481515  0.481515  0.594395  1
  K  K13  1  0.055767  0.313253  0.622642  1
  K  K14  1  0.966425  0.966425  0.634640  1
  K  K15  1  0.028969  0.524566  0.839701  1
  K  K16  1  0.686747  0.944233  0.122642  1
  K  K17  1  0.415113  0.662303  0.829568  1
  K  K18  1  0.179711  0.936541  0.860564  1
  K  K19  1  0.556069  0.807554  0.619130  1
  K  K20  1  0.584887  0.337697  0.329568  1
  K  K21  1  0.063459  0.820289  0.360564  1
  K  K22  1  0.443931  0.192446  0.119130  1
  K  K23  1  0.033575  0.033575  0.134640  1
  Mo  Mo24  1  0.290553  0.177995  0.391725  1
  Mo  Mo25  1  0.762815  0.255755  0.186526  1
  Mo  Mo26  1  0.751657  0.636826  0.394010  1
  Mo  Mo27  1  0.744245  0.237185  0.686526  1
  Mo  Mo28  1  0.177995  0.290553  0.391725  1
  Mo  Mo29  1  0.237185  0.744245  0.686526  1
  Mo  Mo30  1  0.750226  0.750226  0.289374  1
  Mo  Mo31  1  0.140962  0.767798  0.577371  1
  Mo  Mo32  1  0.351964  0.749142  0.074100  1
  Mo  Mo33  1  0.254796  0.254796  0.277472  1
  Mo  Mo34  1  0.709447  0.822005  0.891725  1
  Mo  Mo35  1  0.859038  0.232202  0.077371  1
  Mo  Mo36  1  0.232202  0.859038  0.077371  1
  Mo  Mo37  1  0.248343  0.363174  0.894010  1
  Mo  Mo38  1  0.250858  0.648036  0.574100  1
  Mo  Mo39  1  0.749142  0.351964  0.074100  1
  Mo  Mo40  1  0.249774  0.249774  0.789374  1
  Mo  Mo41  1  0.745204  0.745204  0.777472  1
  Mo  Mo42  1  0.363174  0.248343  0.894010  1
  Mo  Mo43  1  0.822005  0.709447  0.891725  1
  Mo  Mo44  1  0.767798  0.140962  0.577371  1
  Mo  Mo45  1  0.636826  0.751657  0.394010  1
  Mo  Mo46  1  0.648036  0.250858  0.574100  1
  Mo  Mo47  1  0.255755  0.762815  0.186526  1
  Se  Se48  1  0.423822  0.423822  0.905154  1
  Se  Se49  1  0.190059  0.190059  0.898785  1
  Se  Se50  1  0.652176  0.652176  0.867272  1
  Se  Se51  1  0.123675  0.123675  0.725254  1
  Se  Se52  1  0.347824  0.347824  0.367272  1
  Se  Se53  1  0.690137  0.172222  0.470294  1
  Se  Se54  1  0.293478  0.426015  0.779543  1
  Se  Se55  1  0.379321  0.162549  0.285500  1
  Se  Se56  1  0.179512  0.446197  0.444828  1
  Se  Se57  1  0.132992  0.912807  0.510126  1
  Se  Se58  1  0.812109  0.431757  0.181383  1
  Se  Se59  1  0.524028  0.748495  0.049569  1
  Se  Se60  1  0.989173  0.799315  0.530391  1
  Se  Se61  1  0.738044  0.229913  0.814898  1
  Se  Se62  1  0.479372  0.479372  0.769024  1
  Se  Se63  1  0.078763  0.212111  0.296626  1
  Se  Se64  1  0.034226  0.331710  0.448758  1
  Se  Se65  1  0.314561  0.821338  0.585530  1
  Se  Se66  1  0.965774  0.668290  0.948758  1
  Se  Se67  1  0.649577  0.359139  0.672898  1
  Se  Se68  1  0.763473  0.763473  0.649010  1
  Se  Se69  1  0.145600  0.868789  0.681832  1
  Se  Se70  1  0.005022  0.512690  0.674739  1
  Se  Se71  1  0.403495  0.922065  0.051349  1
  Se  Se72  1  0.525661  0.225471  0.934183  1
  Se  Se73  1  0.573985  0.706522  0.279543  1
  Se  Se74  1  0.640861  0.350423  0.172898  1
  Se  Se75  1  0.234671  0.234671  0.497918  1
  Se  Se76  1  0.799315  0.989173  0.530391  1
  Se  Se77  1  0.656160  0.872025  0.299754  1
  Se  Se78  1  0.765329  0.765329  0.997918  1
  Se  Se79  1  0.010827  0.200685  0.030391  1
  Se  Se80  1  0.309863  0.827778  0.970294  1
  Se  Se81  1  0.475972  0.251505  0.549569  1
  Se  Se82  1  0.359139  0.649577  0.672898  1
  Se  Se83  1  0.620679  0.837451  0.785500  1
  Se  Se84  1  0.596505  0.077935  0.551349  1
  Se  Se85  1  0.343350  0.343350  0.996584  1
  Se  Se86  1  0.706522  0.573985  0.279543  1
  Se  Se87  1  0.939163  0.295509  0.183139  1
  Se  Se88  1  0.261956  0.770087  0.314898  1
  Se  Se89  1  0.178662  0.685439  0.085530  1
  Se  Se90  1  0.770087  0.261956  0.314898  1
  Se  Se91  1  0.087193  0.867008  0.010126  1
  Se  Se92  1  0.787889  0.921237  0.796626  1
  Se  Se93  1  0.809941  0.809941  0.398785  1
  Se  Se94  1  0.343840  0.127975  0.799754  1
  Se  Se95  1  0.912807  0.132992  0.510126  1
  Se  Se96  1  0.854400  0.131211  0.181832  1
  Se  Se97  1  0.060837  0.704491  0.683139  1
  Se  Se98  1  0.765542  0.765542  0.163337  1
  Se  Se99  1  0.668290  0.965774  0.948758  1
  Se  Se100  1  0.970720  0.970720  0.822272  1
  Se  Se101  1  0.921237  0.787889  0.796626  1
  Se  Se102  1  0.295509  0.939163  0.183139  1
  Se  Se103  1  0.225471  0.525661  0.934183  1
  Se  Se104  1  0.187891  0.568243  0.681383  1
  Se  Se105  1  0.553803  0.820488  0.944828  1
  Se  Se106  1  0.127975  0.343840  0.799754  1
  Se  Se107  1  0.876325  0.876325  0.225254  1
  Se  Se108  1  0.389420  0.634959  0.497100  1
  Se  Se109  1  0.774529  0.474339  0.434183  1
  Se  Se110  1  0.212111  0.078763  0.296626  1
  Se  Se111  1  0.350423  0.640861  0.172898  1
  Se  Se112  1  0.884815  0.621274  0.469770  1
  Se  Se113  1  0.922065  0.403495  0.051349  1
  Se  Se114  1  0.378726  0.115185  0.969770  1
  Se  Se115  1  0.837451  0.620679  0.785500  1
  Se  Se116  1  0.867008  0.087193  0.010126  1
  Se  Se117  1  0.426015  0.293478  0.779543  1
  Se  Se118  1  0.576178  0.576178  0.405154  1
  Se  Se119  1  0.331710  0.034226  0.448758  1
  Se  Se120  1  0.647393  0.145205  0.266803  1
  Se  Se121  1  0.512690  0.005022  0.674739  1
  Se  Se122  1  0.359727  0.359727  0.190315  1
  Se  Se123  1  0.229913  0.738044  0.814898  1
  Se  Se124  1  0.704491  0.060837  0.683139  1
  Se  Se125  1  0.200685  0.010827  0.030391  1
  Se  Se126  1  0.685439  0.178662  0.085530  1
  Se  Se127  1  0.854795  0.352607  0.766803  1
  Se  Se128  1  0.446197  0.179512  0.444828  1
  Se  Se129  1  0.821338  0.314561  0.585530  1
  Se  Se130  1  0.868789  0.145600  0.681832  1
  Se  Se131  1  0.634959  0.389420  0.497100  1
  Se  Se132  1  0.352607  0.854795  0.766803  1
  Se  Se133  1  0.234458  0.234458  0.663337  1
  Se  Se134  1  0.621274  0.884815  0.469770  1
  Se  Se135  1  0.656650  0.656650  0.496584  1
  Se  Se136  1  0.640273  0.640273  0.690315  1
  Se  Se137  1  0.236527  0.236527  0.149010  1
  Se  Se138  1  0.251505  0.475972  0.549569  1
  Se  Se139  1  0.474339  0.774529  0.434183  1
  Se  Se140  1  0.029280  0.029280  0.322272  1
  Se  Se141  1  0.487310  0.994978  0.174739  1
  Se  Se142  1  0.610580  0.365041  0.997100  1
  Se  Se143  1  0.431757  0.812109  0.181383  1
  Se  Se144  1  0.748495  0.524028  0.049569  1
  Se  Se145  1  0.520628  0.520628  0.269024  1
  Se  Se146  1  0.872025  0.656160  0.299754  1
  Se  Se147  1  0.115185  0.378726  0.969770  1
  Se  Se148  1  0.568243  0.187891  0.681383  1
  Se  Se149  1  0.145205  0.647393  0.266803  1
  Se  Se150  1  0.994978  0.487310  0.174739  1
  Se  Se151  1  0.172222  0.690137  0.470294  1
  Se  Se152  1  0.123683  0.123683  0.431695  1
  Se  Se153  1  0.131211  0.854400  0.181832  1
  Se  Se154  1  0.820488  0.553803  0.944828  1
  Se  Se155  1  0.827778  0.309863  0.970294  1
  Se  Se156  1  0.876317  0.876317  0.931695  1
  Se  Se157  1  0.077935  0.596505  0.551349  1
  Se  Se158  1  0.365041  0.610580  0.997100  1
  Se  Se159  1  0.162549  0.379321  0.285500  1
