# generated using pymatgen
data_CeBeSiHO5
_symmetry_space_group_name_H-M   'P 1'
_cell_length_a   5.52019851
_cell_length_b   7.68774517
_cell_length_c   8.58752896
_cell_angle_alpha   90.00000000
_cell_angle_beta   101.99029644
_cell_angle_gamma   90.00000000
_symmetry_Int_Tables_number   1
_chemical_formula_structural   CeBeSiHO5
_chemical_formula_sum   'Ce4 Be4 Si4 H4 O20'
_cell_volume   356.48553370
_cell_formula_units_Z   4
loop_
 _symmetry_equiv_pos_site_id
 _symmetry_equiv_pos_as_xyz
  1  'x, y, z'
loop_
 _atom_site_type_symbol
 _atom_site_label
 _atom_site_symmetry_multiplicity
 _atom_site_fract_x
 _atom_site_fract_y
 _atom_site_fract_z
 _atom_site_occupancy
  Ce  Ce0  1  0.012304  0.123630  0.318966  1
  Ce  Ce1  1  0.012304  0.376370  0.818966  1
  Ce  Ce2  1  0.987696  0.623630  0.181034  1
  Ce  Ce3  1  0.987696  0.876370  0.681034  1
  Be  Be4  1  0.600865  0.100436  0.950236  1
  Be  Be5  1  0.600865  0.399564  0.450236  1
  Be  Be6  1  0.399135  0.600436  0.549764  1
  Be  Be7  1  0.399135  0.899564  0.049764  1
  Si  Si8  1  0.534611  0.700832  0.829350  1
  Si  Si9  1  0.534611  0.799168  0.329350  1
  Si  Si10  1  0.465389  0.200832  0.670650  1
  Si  Si11  1  0.465389  0.299168  0.170650  1
  H  H12  1  0.013559  0.414124  0.466472  1
  H  H13  1  0.013559  0.085876  0.966472  1
  H  H14  1  0.986441  0.914124  0.033528  1
  H  H15  1  0.986441  0.585876  0.533528  1
  O  O16  1  0.480087  0.402892  0.607539  1
  O  O17  1  0.480087  0.097108  0.107539  1
  O  O18  1  0.586913  0.737053  0.651563  1
  O  O19  1  0.586913  0.762947  0.151563  1
  O  O20  1  0.233667  0.417671  0.083202  1
  O  O21  1  0.233667  0.082329  0.583202  1
  O  O22  1  0.255824  0.877785  0.300897  1
  O  O23  1  0.255824  0.622215  0.800897  1
  O  O24  1  0.107596  0.648077  0.485971  1
  O  O25  1  0.107596  0.851923  -0.014029  1
  O  O26  1  0.892404  0.148077  0.014029  1
  O  O27  1  0.892404  0.351923  0.514029  1
  O  O28  1  0.744176  0.377785  0.199103  1
  O  O29  1  0.744176  0.122215  0.699103  1
  O  O30  1  0.766333  0.917671  0.416798  1
  O  O31  1  0.766333  0.582329  0.916798  1
  O  O32  1  0.413087  0.237053  0.848437  1
  O  O33  1  0.413087  0.262947  0.348437  1
  O  O34  1  0.519913  0.902892  0.892461  1
  O  O35  1  0.519913  0.597108  0.392461  1
