# generated using pymatgen
data_KIn(MoO4)2
_symmetry_space_group_name_H-M   'P 1'
_cell_length_a   5.98681712
_cell_length_b   8.88772615
_cell_length_c   15.06652303
_cell_angle_alpha   90.00024193
_cell_angle_beta   89.99999767
_cell_angle_gamma   90.00000564
_symmetry_Int_Tables_number   1
_chemical_formula_structural   KIn(MoO4)2
_chemical_formula_sum   'K4 In4 Mo8 O32'
_cell_volume   801.67750270
_cell_formula_units_Z   4
loop_
 _symmetry_equiv_pos_site_id
 _symmetry_equiv_pos_as_xyz
  1  'x, y, z'
loop_
 _atom_site_type_symbol
 _atom_site_label
 _atom_site_symmetry_multiplicity
 _atom_site_fract_x
 _atom_site_fract_y
 _atom_site_fract_z
 _atom_site_occupancy
  K  K0  1  0.749994  0.046898  0.376249  1
  K  K1  1  0.749998  0.453096  0.876241  1
  K  K2  1  0.250003  0.953103  0.623757  1
  K  K3  1  0.249998  0.546903  0.123758  1
  In  In4  1  0.750001  0.195470  0.105577  1
  In  In5  1  0.250000  0.695470  0.394422  1
  In  In6  1  0.750000  0.304529  0.605577  1
  In  In7  1  0.250000  0.804529  0.894423  1
  Mo  Mo8  1  0.750001  0.496874  0.283564  1
  Mo  Mo9  1  0.249999  0.503122  0.716437  1
  Mo  Mo10  1  0.250000  0.996875  0.216432  1
  Mo  Mo11  1  0.750001  0.717464  0.538374  1
  Mo  Mo12  1  0.249998  0.217463  0.961624  1
  Mo  Mo13  1  0.750002  0.782538  0.038375  1
  Mo  Mo14  1  0.249999  0.282534  0.461624  1
  Mo  Mo15  1  0.750001  0.003128  0.783569  1
  O  O16  1  0.250001  0.591246  0.825935  1
  O  O17  1  0.749999  0.091247  0.674064  1
  O  O18  1  0.750000  0.781676  0.647783  1
  O  O19  1  0.006045  0.294699  0.018827  1
  O  O20  1  0.250001  0.908752  0.325936  1
  O  O21  1  0.001900  0.605275  0.303960  1
  O  O22  1  0.993955  0.794699  0.481174  1
  O  O23  1  0.750000  0.150257  0.859583  1
  O  O24  1  0.006046  0.205300  0.518826  1
  O  O25  1  0.993956  0.705301  0.981173  1
  O  O26  1  0.250001  0.218323  0.352218  1
  O  O27  1  0.750000  0.408754  0.174064  1
  O  O28  1  0.501901  0.394725  0.696040  1
  O  O29  1  0.506045  0.705301  0.981173  1
  O  O30  1  0.249999  0.650260  0.640415  1
  O  O31  1  0.498098  0.605276  0.303960  1
  O  O32  1  0.493956  0.294700  0.018826  1
  O  O33  1  0.250001  0.015919  0.966470  1
  O  O34  1  0.749999  0.349741  0.359584  1
  O  O35  1  0.250000  0.484081  0.466470  1
  O  O36  1  0.001900  0.894724  0.803960  1
  O  O37  1  0.998100  0.394723  0.696040  1
  O  O38  1  0.750000  0.984081  0.033530  1
  O  O39  1  0.501900  0.105276  0.196041  1
  O  O40  1  0.250000  0.281677  0.852217  1
  O  O41  1  0.750000  0.515919  0.533530  1
  O  O42  1  0.506047  0.794700  0.481174  1
  O  O43  1  0.998099  0.105277  0.196040  1
  O  O44  1  0.750000  0.718323  0.147782  1
  O  O45  1  0.493955  0.205299  0.518826  1
  O  O46  1  0.498100  0.894725  0.803959  1
  O  O47  1  0.250000  0.849745  0.140417  1
