# generated using pymatgen
data_VO2
_symmetry_space_group_name_H-M   'P 1'
_cell_length_a   4.83382481
_cell_length_b   6.60151686
_cell_length_c   8.71134709
_cell_angle_alpha   88.15558699
_cell_angle_beta   84.29421388
_cell_angle_gamma   87.88005471
_symmetry_Int_Tables_number   1
_chemical_formula_structural   VO2
_chemical_formula_sum   'V4 O8'
_cell_volume   276.30390245
_cell_formula_units_Z   4
loop_
 _symmetry_equiv_pos_site_id
 _symmetry_equiv_pos_as_xyz
  1  'x, y, z'
loop_
 _atom_site_type_symbol
 _atom_site_label
 _atom_site_symmetry_multiplicity
 _atom_site_fract_x
 _atom_site_fract_y
 _atom_site_fract_z
 _atom_site_occupancy
  V  V0  1  0.007568  0.833179  0.004617  1
  V  V1  1  0.369687  0.002482  0.204110  1
  V  V2  1  0.630313  0.997518  0.795890  1
  V  V3  1  0.992432  0.166821  0.995383  1
  O  O4  1  0.690245  0.996071  0.611512  1
  O  O5  1  0.245085  0.998626  0.860627  1
  O  O6  1  0.738572  0.243838  0.861033  1
  O  O7  1  0.261428  0.756162  0.138967  1
  O  O8  1  0.760886  0.752164  0.874594  1
  O  O9  1  0.754915  0.001374  0.139373  1
  O  O10  1  0.239114  0.247836  0.125406  1
  O  O11  1  0.309755  0.003929  0.388488  1
