# generated using pymatgen
data_CdH16C4S4(N4Cl)2
_symmetry_space_group_name_H-M   'P 1'
_cell_length_a   14.11382077
_cell_length_b   14.11382074
_cell_length_c   9.45011258
_cell_angle_alpha   89.99999868
_cell_angle_beta   90.00000107
_cell_angle_gamma   89.99999631
_symmetry_Int_Tables_number   1
_chemical_formula_structural   CdH16C4S4(N4Cl)2
_chemical_formula_sum   'Cd4 H64 C16 S16 N32 Cl8'
_cell_volume   1882.46182400
_cell_formula_units_Z   4
loop_
 _symmetry_equiv_pos_site_id
 _symmetry_equiv_pos_as_xyz
  1  'x, y, z'
loop_
 _atom_site_type_symbol
 _atom_site_label
 _atom_site_symmetry_multiplicity
 _atom_site_fract_x
 _atom_site_fract_y
 _atom_site_fract_z
 _atom_site_occupancy
  Cd  Cd0  1  0.000000  0.500000  0.000000  1
  Cd  Cd1  1  0.500000  0.000000  0.000000  1
  Cd  Cd2  1  0.000000  0.000000  0.500000  1
  Cd  Cd3  1  0.500000  0.500000  0.500000  1
  H  H4  1  0.005704  0.200624  0.223742  1
  H  H5  1  0.494296  0.299376  0.223742  1
  H  H6  1  0.700624  0.994296  0.723742  1
  H  H7  1  0.799376  0.505704  0.723742  1
  H  H8  1  0.994296  0.799376  0.776258  1
  H  H9  1  0.505704  0.700624  0.776258  1
  H  H10  1  0.299376  0.005704  0.276258  1
  H  H11  1  0.200624  0.494296  0.276258  1
  H  H12  1  0.332928  0.296705  0.966230  1
  H  H13  1  0.167072  0.203295  0.966230  1
  H  H14  1  0.796705  0.667072  0.466230  1
  H  H15  1  0.703295  0.832928  0.466230  1
  H  H16  1  0.667072  0.703295  0.033770  1
  H  H17  1  0.832928  0.796705  0.033770  1
  H  H18  1  0.203295  0.332928  0.533770  1
  H  H19  1  0.296705  0.167072  0.533770  1
  H  H20  1  0.309222  0.507782  0.770556  1
  H  H21  1  0.190778  0.992218  0.770556  1
  H  H22  1  0.007782  0.690778  0.270556  1
  H  H23  1  0.492218  0.809222  0.270556  1
  H  H24  1  0.690778  0.492218  0.229444  1
  H  H25  1  0.809222  0.007782  0.229444  1
  H  H26  1  0.992218  0.309222  0.729444  1
  H  H27  1  0.507782  0.190778  0.729444  1
  H  H28  1  0.199367  0.538983  0.842929  1
  H  H29  1  0.300633  0.961017  0.842929  1
  H  H30  1  0.038983  0.800633  0.342929  1
  H  H31  1  0.461017  0.699367  0.342929  1
  H  H32  1  0.800633  0.461017  0.157071  1
  H  H33  1  0.699367  0.038983  0.157071  1
  H  H34  1  0.961017  0.199367  0.657071  1
  H  H35  1  0.538983  0.300633  0.657071  1
  H  H36  1  0.388844  0.379388  0.853857  1
  H  H37  1  0.111156  0.120612  0.853858  1
  H  H38  1  0.879388  0.611156  0.353858  1
  H  H39  1  0.620612  0.888844  0.353858  1
  H  H40  1  0.611156  0.620612  0.146143  1
  H  H41  1  0.888844  0.879388  0.146142  1
  H  H42  1  0.120612  0.388844  0.646142  1
  H  H43  1  0.379388  0.111156  0.646142  1
  H  H44  1  0.927771  0.107618  0.069261  1
  H  H45  1  0.572229  0.392382  0.069261  1
  H  H46  1  0.607618  0.072229  0.569261  1
  H  H47  1  0.892382  0.427771  0.569261  1
  H  H48  1  0.072229  0.892382  0.930739  1
  H  H49  1  0.427771  0.607618  0.930739  1
  H  H50  1  0.392382  0.927771  0.430739  1
  H  H51  1  0.107618  0.572229  0.430739  1
  H  H52  1  0.996178  0.324934  0.218489  1
  H  H53  1  0.503822  0.175066  0.218489  1
  H  H54  1  0.824934  0.003822  0.718489  1
  H  H55  1  0.675066  0.496178  0.718489  1
  H  H56  1  0.003822  0.675066  0.781511  1
  H  H57  1  0.496178  0.824934  0.781511  1
  H  H58  1  0.175066  0.996178  0.281511  1
  H  H59  1  0.324934  0.503822  0.281511  1
  H  H60  1  0.853898  0.157158  0.939081  1
  H  H61  1  0.646102  0.342842  0.939081  1
  H  H62  1  0.657158  0.146102  0.439081  1
  H  H63  1  0.842842  0.353898  0.439081  1
  H  H64  1  0.146102  0.842842  0.060919  1
  H  H65  1  0.353898  0.657158  0.060919  1
  H  H66  1  0.342842  0.853898  0.560919  1
  H  H67  1  0.157158  0.646102  0.560919  1
  C  C68  1  0.252766  0.412237  0.911375  1
  C  C69  1  0.247234  0.087764  0.911375  1
  C  C70  1  0.912237  0.747234  0.411375  1
  C  C71  1  0.587764  0.752766  0.411375  1
  C  C72  1  0.747234  0.587763  0.088625  1
  C  C73  1  0.752766  0.912236  0.088625  1
  C  C74  1  0.087763  0.252766  0.588625  1
  C  C75  1  0.412236  0.247234  0.588625  1
  C  C76  1  0.922469  0.253040  0.064105  1
  C  C77  1  0.577531  0.246960  0.064104  1
  C  C78  1  0.753040  0.077531  0.564104  1
  C  C79  1  0.746960  0.422469  0.564104  1
  C  C80  1  0.077531  0.746960  0.935895  1
  C  C81  1  0.422469  0.753040  0.935896  1
  C  C82  1  0.246960  0.922469  0.435896  1
  C  C83  1  0.253040  0.577531  0.435896  1
  S  S84  1  0.160361  0.381762  0.019707  1
  S  S85  1  0.339639  0.118238  0.019707  1
  S  S86  1  0.881763  0.839639  0.519707  1
  S  S87  1  0.618238  0.660361  0.519707  1
  S  S88  1  0.839639  0.618238  0.980293  1
  S  S89  1  0.660361  0.881762  0.980293  1
  S  S90  1  0.118237  0.160361  0.480293  1
  S  S91  1  0.381762  0.339639  0.480293  1
  S  S92  1  0.879399  0.349348  0.973750  1
  S  S93  1  0.620601  0.150652  0.973750  1
  S  S94  1  0.849348  0.120601  0.473750  1
  S  S95  1  0.650652  0.379400  0.473750  1
  S  S96  1  0.120601  0.650652  0.026250  1
  S  S97  1  0.379399  0.849348  0.026250  1
  S  S98  1  0.150652  0.879399  0.526250  1
  S  S99  1  0.349348  0.620600  0.526250  1
  N  N100  1  0.329889  0.357108  0.907158  1
  N  N101  1  0.170111  0.142891  0.907158  1
  N  N102  1  0.857108  0.670111  0.407158  1
  N  N103  1  0.642892  0.829889  0.407158  1
  N  N104  1  0.670111  0.642892  0.092842  1
  N  N105  1  0.829889  0.857109  0.092842  1
  N  N106  1  0.142892  0.329889  0.592842  1
  N  N107  1  0.357108  0.170111  0.592842  1
  N  N108  1  0.251383  0.489823  0.829358  1
  N  N109  1  0.248617  0.010177  0.829358  1
  N  N110  1  0.989823  0.748617  0.329358  1
  N  N111  1  0.510177  0.751383  0.329358  1
  N  N112  1  0.748617  0.510177  0.170642  1
  N  N113  1  0.751383  0.989823  0.170642  1
  N  N114  1  0.010177  0.251383  0.670642  1
  N  N115  1  0.489823  0.248617  0.670642  1
  N  N116  1  0.900823  0.165939  0.018999  1
  N  N117  1  0.599177  0.334061  0.018999  1
  N  N118  1  0.665939  0.099177  0.518999  1
  N  N119  1  0.834061  0.400823  0.518999  1
  N  N120  1  0.099177  0.834061  0.981001  1
  N  N121  1  0.400823  0.665939  0.981001  1
  N  N122  1  0.334061  0.900823  0.481001  1
  N  N123  1  0.165939  0.599177  0.481001  1
  N  N124  1  0.978348  0.260211  0.178535  1
  N  N125  1  0.521651  0.239789  0.178535  1
  N  N126  1  0.760211  0.021652  0.678535  1
  N  N127  1  0.739789  0.478349  0.678535  1
  N  N128  1  0.021652  0.739789  0.821465  1
  N  N129  1  0.478349  0.760211  0.821465  1
  N  N130  1  0.239789  0.978348  0.321465  1
  N  N131  1  0.260211  0.521652  0.321465  1
  Cl  Cl132  1  0.000058  0.487395  0.284190  1
  Cl  Cl133  1  0.499942  0.012605  0.284190  1
  Cl  Cl134  1  0.987395  -0.000059  0.784190  1
  Cl  Cl135  1  0.512605  0.500058  0.784190  1
  Cl  Cl136  1  -0.000058  0.512605  0.715810  1
  Cl  Cl137  1  0.500058  0.987395  0.715810  1
  Cl  Cl138  1  0.012605  0.000059  0.215810  1
  Cl  Cl139  1  0.487395  0.499942  0.215810  1
