# generated using pymatgen
data_Hf8FeTe6
_symmetry_space_group_name_H-M   'P 1'
_cell_length_a   3.73826629
_cell_length_b   7.69172530
_cell_length_c   26.07673618
_cell_angle_alpha   90.00025660
_cell_angle_beta   90.00019146
_cell_angle_gamma   89.99987534
_symmetry_Int_Tables_number   1
_chemical_formula_structural   Hf8FeTe6
_chemical_formula_sum   'Hf16 Fe2 Te12'
_cell_volume   749.80310285
_cell_formula_units_Z   2
loop_
 _symmetry_equiv_pos_site_id
 _symmetry_equiv_pos_as_xyz
  1  'x, y, z'
loop_
 _atom_site_type_symbol
 _atom_site_label
 _atom_site_symmetry_multiplicity
 _atom_site_fract_x
 _atom_site_fract_y
 _atom_site_fract_z
 _atom_site_occupancy
  Hf  Hf0  1  0.750001  0.760801  0.683885  1
  Hf  Hf1  1  0.250001  0.239197  0.316123  1
  Hf  Hf2  1  0.750000  0.426224  0.750003  1
  Hf  Hf3  1  0.249998  0.442316  0.051537  1
  Hf  Hf4  1  0.250001  0.239193  0.183871  1
  Hf  Hf5  1  0.750001  0.557683  0.948470  1
  Hf  Hf6  1  0.749998  0.556130  0.150605  1
  Hf  Hf7  1  0.250000  0.443866  0.849393  1
  Hf  Hf8  1  0.249999  0.443874  0.650613  1
  Hf  Hf9  1  0.750001  0.557679  0.551538  1
  Hf  Hf10  1  0.250001  0.040780  0.750004  1
  Hf  Hf11  1  0.250002  0.573791  0.249994  1
  Hf  Hf12  1  0.750001  0.959221  0.249996  1
  Hf  Hf13  1  0.249998  0.442315  0.448463  1
  Hf  Hf14  1  0.750000  0.556132  0.349386  1
  Hf  Hf15  1  0.749998  0.760798  0.816120  1
  Fe  Fe16  1  0.249998  0.683835  0.749999  1
  Fe  Fe17  1  0.750006  0.316189  0.249994  1
  Te  Te18  1  0.250000  0.800599  0.594134  1
  Te  Te19  1  0.250001  0.850684  0.332138  1
  Te  Te20  1  0.749999  0.149311  0.667863  1
  Te  Te21  1  0.250000  0.850682  0.167857  1
  Te  Te22  1  0.749998  0.199399  0.405867  1
  Te  Te23  1  0.749999  0.199407  0.094130  1
  Te  Te24  1  0.750000  0.724524  0.452504  1
  Te  Te25  1  0.250001  0.275472  0.952508  1
  Te  Te26  1  0.250000  0.275470  0.547497  1
  Te  Te27  1  0.749999  0.149306  0.832141  1
  Te  Te28  1  0.750000  0.724526  0.047498  1
  Te  Te29  1  0.249999  0.800597  0.905868  1
