# generated using pymatgen
data_LuAgS2
_symmetry_space_group_name_H-M   'P 1'
_cell_length_a   7.59548173
_cell_length_b   10.35871750
_cell_length_c   7.03786801
_cell_angle_alpha   28.61593504
_cell_angle_beta   57.24109077
_cell_angle_gamma   42.76681766
_symmetry_Int_Tables_number   1
_chemical_formula_structural   LuAgS2
_chemical_formula_sum   'Lu2 Ag2 S4'
_cell_volume   170.74317041
_cell_formula_units_Z   2
loop_
 _symmetry_equiv_pos_site_id
 _symmetry_equiv_pos_as_xyz
  1  'x, y, z'
loop_
 _atom_site_type_symbol
 _atom_site_label
 _atom_site_symmetry_multiplicity
 _atom_site_fract_x
 _atom_site_fract_y
 _atom_site_fract_z
 _atom_site_occupancy
  Lu  Lu0  1  0.007535  0.995212  0.004342  1
  Lu  Lu1  1  0.757844  0.492054  0.007833  1
  Ag  Ag2  1  0.497933  0.000778  0.991966  1
  Ag  Ag3  1  0.247494  0.506337  0.992899  1
  S  S4  1  0.233890  0.996683  0.548114  1
  S  S5  1  0.773774  0.999512  0.454929  1
  S  S6  1  0.528554  0.491297  0.463909  1
  S  S7  1  0.975153  0.503178  0.541884  1
