# generated using pymatgen
data_Hf3(MnGa3)2
_symmetry_space_group_name_H-M   'P 1'
_cell_length_a   5.41719867
_cell_length_b   7.74600316
_cell_length_c   8.77839705
_cell_angle_alpha   90.00428116
_cell_angle_beta   89.97803533
_cell_angle_gamma   89.99908764
_symmetry_Int_Tables_number   1
_chemical_formula_structural   Hf3(MnGa3)2
_chemical_formula_sum   'Hf6 Mn4 Ga12'
_cell_volume   368.35589089
_cell_formula_units_Z   2
loop_
 _symmetry_equiv_pos_site_id
 _symmetry_equiv_pos_as_xyz
  1  'x, y, z'
loop_
 _atom_site_type_symbol
 _atom_site_label
 _atom_site_symmetry_multiplicity
 _atom_site_fract_x
 _atom_site_fract_y
 _atom_site_fract_z
 _atom_site_occupancy
  Hf  Hf0  1  0.250118  0.154597  0.968215  1
  Hf  Hf1  1  0.750328  0.845178  0.468222  1
  Hf  Hf2  1  0.249806  0.717934  0.250024  1
  Hf  Hf3  1  0.249629  0.154897  0.531883  1
  Hf  Hf4  1  0.749830  0.845291  0.031720  1
  Hf  Hf5  1  0.750194  0.282133  0.749955  1
  Mn  Mn6  1  -0.000067  0.499917  0.500106  1
  Mn  Mn7  1  0.000122  0.499919  0.000077  1
  Mn  Mn8  1  0.500126  0.499963  0.999874  1
  Mn  Mn9  1  0.499996  0.499910  0.499964  1
  Ga  Ga10  1  0.249779  0.437935  0.750065  1
  Ga  Ga11  1  0.249353  0.366230  0.249993  1
  Ga  Ga12  1  0.011075  0.041826  0.249647  1
  Ga  Ga13  1  0.249883  0.764190  0.563557  1
  Ga  Ga14  1  0.750202  0.562191  0.249954  1
  Ga  Ga15  1  0.750155  0.235780  0.436433  1
  Ga  Ga16  1  0.511162  0.958079  0.749782  1
  Ga  Ga17  1  0.750718  0.633807  0.749989  1
  Ga  Ga18  1  0.250078  0.764084  0.936618  1
  Ga  Ga19  1  0.749879  0.235781  0.063354  1
  Ga  Ga20  1  0.988866  0.958280  0.750327  1
  Ga  Ga21  1  0.488767  0.042079  0.250241  1
