# generated using pymatgen
data_Ba4Sm2Cu2O9
_symmetry_space_group_name_H-M   'P 1'
_cell_length_a   3.89166394
_cell_length_b   12.05105214
_cell_length_c   12.05105214
_cell_angle_alpha   90.00000000
_cell_angle_beta   90.00000000
_cell_angle_gamma   90.00000000
_symmetry_Int_Tables_number   1
_chemical_formula_structural   Ba4Sm2Cu2O9
_chemical_formula_sum   'Ba8 Sm4 Cu4 O18'
_cell_volume   565.17801682
_cell_formula_units_Z   2
loop_
 _symmetry_equiv_pos_site_id
 _symmetry_equiv_pos_as_xyz
  1  'x, y, z'
loop_
 _atom_site_type_symbol
 _atom_site_label
 _atom_site_symmetry_multiplicity
 _atom_site_fract_x
 _atom_site_fract_y
 _atom_site_fract_z
 _atom_site_occupancy
  Ba  Ba0  1  0.259101  0.171988  0.886729  1
  Ba  Ba1  1  0.240899  0.613271  0.328012  1
  Ba  Ba2  1  0.259101  0.828012  0.113271  1
  Ba  Ba3  1  0.740899  0.886729  0.828012  1
  Ba  Ba4  1  0.740899  0.113271  0.171988  1
  Ba  Ba5  1  0.759101  0.328012  0.386729  1
  Ba  Ba6  1  0.759101  0.671988  0.613271  1
  Ba  Ba7  1  0.240899  0.386729  0.671988  1
  Sm  Sm8  1  0.250000  0.389531  0.110469  1
  Sm  Sm9  1  0.250000  0.610469  0.889531  1
  Sm  Sm10  1  0.750000  0.889531  0.389531  1
  Sm  Sm11  1  0.750000  0.110469  0.610469  1
  Cu  Cu12  1  0.750000  0.403194  0.903194  1
  Cu  Cu13  1  0.250000  0.096806  0.403194  1
  Cu  Cu14  1  0.750000  0.596806  0.096806  1
  Cu  Cu15  1  0.250000  0.903194  0.596806  1
  O  O16  1  0.249698  0.975046  0.291918  1
  O  O17  1  0.750302  0.291918  0.024955  1
  O  O18  1  0.250302  0.208082  0.524954  1
  O  O19  1  0.750000  0.242752  0.742752  1
  O  O20  1  0.250302  0.791918  0.475046  1
  O  O21  1  0.250000  0.742752  0.757248  1
  O  O22  1  0.250000  0.257248  0.242752  1
  O  O23  1  0.750302  0.708082  0.975046  1
  O  O24  1  0.250000  0.590936  0.090936  1
  O  O25  1  0.250000  0.409064  0.909064  1
  O  O26  1  0.500000  0.000000  0.000000  1
  O  O27  1  0.750000  0.909064  0.590936  1
  O  O28  1  0.749698  0.524954  0.791918  1
  O  O29  1  0.750000  0.090936  0.409064  1
  O  O30  1  0.000000  0.500000  0.500000  1
  O  O31  1  0.750000  0.757248  0.257248  1
  O  O32  1  0.749698  0.475046  0.208082  1
  O  O33  1  0.249698  0.024955  0.708082  1
