# generated using pymatgen
data_Os5(CO)19
_symmetry_space_group_name_H-M   'P 1'
_cell_length_a   8.96848373
_cell_length_b   10.36883979
_cell_length_c   16.72358435
_cell_angle_alpha   99.90585338
_cell_angle_beta   93.63337145
_cell_angle_gamma   110.12759111
_symmetry_Int_Tables_number   1
_chemical_formula_structural   Os5(CO)19
_chemical_formula_sum   'Os10 C38 O38'
_cell_volume   1425.74109718
_cell_formula_units_Z   2
loop_
 _symmetry_equiv_pos_site_id
 _symmetry_equiv_pos_as_xyz
  1  'x, y, z'
loop_
 _atom_site_type_symbol
 _atom_site_label
 _atom_site_symmetry_multiplicity
 _atom_site_fract_x
 _atom_site_fract_y
 _atom_site_fract_z
 _atom_site_occupancy
  Os  Os0  1  0.163041  0.480496  0.765135  1
  Os  Os1  1  0.980190  0.187508  0.674846  1
  Os  Os2  1  0.188228  0.733037  0.887779  1
  Os  Os3  1  0.566934  0.243113  0.222130  1
  Os  Os4  1  0.678268  0.688404  0.339354  1
  Os  Os5  1  0.019810  0.812492  0.325154  1
  Os  Os6  1  0.836959  0.519504  0.234865  1
  Os  Os7  1  0.321732  0.311596  0.660646  1
  Os  Os8  1  0.811772  0.266963  0.112221  1
  Os  Os9  1  0.433066  0.756887  0.777870  1
  C  C10  1  0.064083  0.742400  0.422515  1
  C  C11  1  0.696371  0.170418  0.286533  1
  C  C12  1  0.023183  0.136936  0.779069  1
  C  C13  1  0.758554  0.143101  0.685960  1
  C  C14  1  0.962637  0.010833  0.611082  1
  C  C15  1  0.330430  0.162242  0.578800  1
  C  C16  1  0.919720  0.456349  0.324663  1
  C  C17  1  0.450341  0.329236  0.159079  1
  C  C18  1  0.457128  0.267641  0.314596  1
  C  C19  1  0.935917  0.257600  0.577485  1
  C  C20  1  0.037417  0.757593  0.807493  1
  C  C21  1  0.649864  0.783780  0.251524  1
  C  C22  1  0.546351  0.421699  0.679064  1
  C  C23  1  0.965922  0.423924  0.808188  1
  C  C24  1  0.549659  0.670764  0.840921  1
  C  C25  1  0.080280  0.543651  0.675337  1
  C  C26  1  0.978011  0.332719  0.046278  1
  C  C27  1  0.453649  0.578301  0.320937  1
  C  C28  1  0.718984  0.584282  0.420510  1
  C  C29  1  0.727602  0.572623  0.149544  1
  C  C30  1  0.303629  0.829582  0.713467  1
  C  C31  1  0.034078  0.576076  0.191812  1
  C  C32  1  0.429622  0.058757  0.167628  1
  C  C33  1  0.570378  0.941243  0.832372  1
  C  C34  1  0.734192  0.073197  0.060539  1
  C  C35  1  0.962583  0.242407  0.192507  1
  C  C36  1  0.281016  0.415718  0.579490  1
  C  C37  1  0.021989  0.667281  0.953722  1
  C  C38  1  0.241446  0.856899  0.314040  1
  C  C39  1  0.265808  0.926803  0.939461  1
  C  C40  1  0.350136  0.216220  0.748476  1
  C  C41  1  0.037363  0.989167  0.388918  1
  C  C42  1  0.542872  0.732359  0.685404  1
  C  C43  1  0.334413  0.692965  0.964029  1
  C  C44  1  0.976817  0.863064  0.220931  1
  C  C45  1  0.669570  0.837758  0.421200  1
  C  C46  1  0.272398  0.427377  0.850456  1
  C  C47  1  0.665587  0.307035  0.035971  1
  O  O48  1  0.153772  0.609247  0.163236  1
  O  O49  1  0.893767  0.289798  0.519908  1
  O  O50  1  0.333388  0.395641  0.903314  1
  O  O51  1  0.684424  0.480852  0.689313  1
  O  O52  1  0.368631  0.372271  0.123868  1
  O  O53  1  0.023754  0.580110  0.623043  1
  O  O54  1  0.238278  0.878836  0.672797  1
  O  O55  1  0.058195  0.224963  0.234795  1
  O  O56  1  0.657917  0.052337  0.865555  1
  O  O57  1  0.037598  0.101639  0.840243  1
  O  O58  1  0.666612  0.604359  0.096686  1
  O  O59  1  0.339239  0.073439  0.528520  1
  O  O60  1  0.411533  0.672508  0.014696  1
  O  O61  1  0.976246  0.419890  0.376957  1
  O  O62  1  0.846228  0.390753  0.836764  1
  O  O63  1  0.962402  0.898361  0.159757  1
  O  O64  1  0.660761  0.926561  0.471480  1
  O  O65  1  0.949001  0.901784  0.572997  1
  O  O66  1  0.761722  0.121164  0.327203  1
  O  O67  1  0.926215  0.632370  0.996880  1
  O  O68  1  0.342083  0.947663  0.134445  1
  O  O69  1  0.691221  0.955318  0.028954  1
  O  O70  1  0.389166  0.272571  0.371374  1
  O  O71  1  0.620866  0.110942  0.686320  1
  O  O72  1  0.106233  0.710202  0.480092  1
  O  O73  1  0.588467  0.327492  0.985304  1
  O  O74  1  0.732296  0.524109  0.471164  1
  O  O75  1  0.379134  0.889058  0.313680  1
  O  O76  1  0.315576  0.519148  0.310687  1
  O  O77  1  0.073785  0.367629  0.003120  1
  O  O78  1  0.308779  0.044682  0.971046  1
  O  O79  1  0.941805  0.775037  0.765205  1
  O  O80  1  0.631369  0.627729  0.876132  1
  O  O81  1  0.624244  0.841734  0.202025  1
  O  O82  1  0.375756  0.158266  0.797975  1
  O  O83  1  0.050999  0.098216  0.427003  1
  O  O84  1  0.267704  0.475891  0.528836  1
  O  O85  1  0.610834  0.727429  0.628626  1
