# generated using pymatgen
data_Se2SN2Cl
_symmetry_space_group_name_H-M   'P 1'
_cell_length_a   8.28275343
_cell_length_b   8.85177632
_cell_length_c   15.51892412
_cell_angle_alpha   90.00000000
_cell_angle_beta   90.00000000
_cell_angle_gamma   90.00000000
_symmetry_Int_Tables_number   1
_chemical_formula_structural   Se2SN2Cl
_chemical_formula_sum   'Se16 S8 N16 Cl8'
_cell_volume   1137.80221171
_cell_formula_units_Z   8
loop_
 _symmetry_equiv_pos_site_id
 _symmetry_equiv_pos_as_xyz
  1  'x, y, z'
loop_
 _atom_site_type_symbol
 _atom_site_label
 _atom_site_symmetry_multiplicity
 _atom_site_fract_x
 _atom_site_fract_y
 _atom_site_fract_z
 _atom_site_occupancy
  Se  Se0  1  0.820531  0.964339  0.921883  1
  Se  Se1  1  0.320531  0.035661  0.578117  1
  Se  Se2  1  0.054053  0.299321  0.454739  1
  Se  Se3  1  0.554053  0.200679  0.454739  1
  Se  Se4  1  0.054053  0.799321  0.045261  1
  Se  Se5  1  0.945947  0.200679  0.954739  1
  Se  Se6  1  0.945947  0.700679  0.545261  1
  Se  Se7  1  0.554053  0.700679  0.045261  1
  Se  Se8  1  0.179469  0.035661  0.078117  1
  Se  Se9  1  0.445947  0.299321  0.954739  1
  Se  Se10  1  0.679469  0.964339  0.421883  1
  Se  Se11  1  0.445947  0.799321  0.545261  1
  Se  Se12  1  0.179469  0.535661  0.421883  1
  Se  Se13  1  0.820531  0.464339  0.578117  1
  Se  Se14  1  0.679469  0.464339  0.078117  1
  Se  Se15  1  0.320531  0.535661  0.921883  1
  S  S16  1  0.513010  0.409759  0.780861  1
  S  S17  1  0.513010  0.909759  0.719139  1
  S  S18  1  0.986990  0.909759  0.219139  1
  S  S19  1  0.486990  0.090241  0.280861  1
  S  S20  1  0.486990  0.590241  0.219139  1
  S  S21  1  0.013010  0.590241  0.719139  1
  S  S22  1  0.013010  0.090241  0.780861  1
  S  S23  1  0.986990  0.409759  0.280861  1
  N  N24  1  0.540256  0.281099  0.848846  1
  N  N25  1  0.101016  0.040380  0.187842  1
  N  N26  1  0.959744  0.281099  0.348846  1
  N  N27  1  0.398984  0.540380  0.812158  1
  N  N28  1  0.601016  0.959620  0.312158  1
  N  N29  1  0.898984  0.959620  0.812158  1
  N  N30  1  0.959744  0.781099  0.151154  1
  N  N31  1  0.540256  0.781099  0.651154  1
  N  N32  1  0.398984  0.040380  0.687842  1
  N  N33  1  0.601016  0.459620  0.187842  1
  N  N34  1  0.040256  0.218901  0.848846  1
  N  N35  1  0.101016  0.540380  0.312158  1
  N  N36  1  0.459744  0.718901  0.151154  1
  N  N37  1  0.898984  0.459620  0.687842  1
  N  N38  1  0.040256  0.718901  0.651154  1
  N  N39  1  0.459744  0.218901  0.348846  1
  Cl  Cl40  1  0.280987  0.904220  0.915517  1
  Cl  Cl41  1  0.280987  0.404220  0.584483  1
  Cl  Cl42  1  0.780987  0.595780  0.915517  1
  Cl  Cl43  1  0.719013  0.595780  0.415517  1
  Cl  Cl44  1  0.219013  0.904220  0.415517  1
  Cl  Cl45  1  0.219013  0.404220  0.084483  1
  Cl  Cl46  1  0.780987  0.095780  0.584483  1
  Cl  Cl47  1  0.719013  0.095780  0.084483  1
