# generated using pymatgen
data_Cu2H3NO6
_symmetry_space_group_name_H-M   'P 1'
_cell_length_a   6.00126595
_cell_length_b   5.94341037
_cell_length_c   8.18104941
_cell_angle_alpha   90.00000000
_cell_angle_beta   88.92452789
_cell_angle_gamma   90.00000000
_symmetry_Int_Tables_number   1
_chemical_formula_structural   Cu2H3NO6
_chemical_formula_sum   'Cu4 H6 N2 O12'
_cell_volume   291.75015419
_cell_formula_units_Z   2
loop_
 _symmetry_equiv_pos_site_id
 _symmetry_equiv_pos_as_xyz
  1  'x, y, z'
loop_
 _atom_site_type_symbol
 _atom_site_label
 _atom_site_symmetry_multiplicity
 _atom_site_fract_x
 _atom_site_fract_y
 _atom_site_fract_z
 _atom_site_occupancy
  Cu  Cu0  1  -0.001148  0.479066  0.998492  1
  Cu  Cu1  1  0.001148  0.979066  0.001508  1
  Cu  Cu2  1  0.493935  0.726092  0.986904  1
  Cu  Cu3  1  0.506065  0.226092  0.013096  1
  H  H4  1  0.988208  0.829966  0.500032  1
  H  H5  1  0.011792  0.329966  0.499968  1
  H  H6  1  0.707472  0.548589  0.541379  1
  H  H7  1  0.292528  0.048589  0.458621  1
  H  H8  1  0.112780  0.503609  0.622698  1
  H  H9  1  0.887220  0.003609  0.377302  1
  N  N10  1  0.581817  0.672148  0.562841  1
  N  N11  1  0.418183  0.172148  0.437159  1
  O  O12  1  0.039594  0.731525  0.879606  1
  O  O13  1  0.960406  0.231525  0.120394  1
  O  O14  1  0.692796  0.481038  0.978320  1
  O  O15  1  0.307204  -0.018962  0.021680  1
  O  O16  1  0.307050  0.464935  0.978004  1
  O  O17  1  0.692950  0.964935  0.021996  1
  O  O18  1  0.597423  0.778700  0.691355  1
  O  O19  1  0.402577  0.278700  0.308645  1
  O  O20  1  0.436963  0.701146  0.458734  1
  O  O21  1  0.563037  0.201146  0.541266  1
  O  O22  1  -0.002084  0.483487  0.541657  1
  O  O23  1  0.002084  0.983487  0.458343  1
