# generated using pymatgen
data_Ti5ZnBi2(Pb2O9)2
_symmetry_space_group_name_H-M   'P 1'
_cell_length_a   23.13831975
_cell_length_b   5.46427191
_cell_length_c   6.00543915
_cell_angle_alpha   62.93869393
_cell_angle_beta   50.14376823
_cell_angle_gamma   44.88939771
_symmetry_Int_Tables_number   1
_chemical_formula_structural   Ti5ZnBi2(Pb2O9)2
_chemical_formula_sum   'Ti5 Zn1 Bi2 Pb4 O18'
_cell_volume   411.35743666
_cell_formula_units_Z   1
loop_
 _symmetry_equiv_pos_site_id
 _symmetry_equiv_pos_as_xyz
  1  'x, y, z'
loop_
 _atom_site_type_symbol
 _atom_site_label
 _atom_site_symmetry_multiplicity
 _atom_site_fract_x
 _atom_site_fract_y
 _atom_site_fract_z
 _atom_site_occupancy
  Ti  Ti0  1  0.084732  0.485345  0.520918  1
  Ti  Ti1  1  0.245153  0.499565  0.529952  1
  Ti  Ti2  1  0.413168  0.497186  0.526619  1
  Ti  Ti3  1  0.577719  0.500239  0.533210  1
  Ti  Ti4  1  0.914164  0.491222  0.532568  1
  Zn  Zn5  1  0.746551  0.521285  0.478126  1
  Bi  Bi6  1  0.684050  0.986884  0.921932  1
  Bi  Bi7  1  0.838954  0.020038  0.926196  1
  Pb  Pb8  1  0.992846  0.024362  -0.005801  1
  Pb  Pb9  1  0.172312  0.994607  0.976918  1
  Pb  Pb10  1  0.338444  0.995627  0.978081  1
  Pb  Pb11  1  0.508286  0.984793  0.980697  1
  O  O12  1  0.144010  0.002527  0.627618  1
  O  O13  1  0.147052  0.490544  0.136600  1
  O  O14  1  0.144010  0.505799  0.627618  1
  O  O15  1  0.307766  0.504010  0.145386  1
  O  O16  1  0.310798  0.001037  0.631164  1
  O  O17  1  0.310798  0.503011  0.631164  1
  O  O18  1  0.479220  -0.000251  0.626833  1
  O  O19  1  0.475118  0.501840  0.145608  1
  O  O20  1  0.479220  0.498099  0.626833  1
  O  O21  1  0.640426  0.010786  0.658909  1
  O  O22  1  0.652917  0.466867  0.148762  1
  O  O23  1  0.640426  0.487750  0.658909  1
  O  O24  1  0.810827  -0.001212  0.634031  1
  O  O25  1  0.823320  0.500585  0.058910  1
  O  O26  1  0.810827  0.502216  0.634031  1
  O  O27  1  0.977374  0.995107  0.623631  1
  O  O28  1  0.970871  0.513114  0.148545  1
  O  O29  1  0.977374  0.517019  0.623631  1
