# generated using pymatgen
data_Li3(Nb2Cl5)8
_symmetry_space_group_name_H-M   'P 1'
_cell_length_a   18.20012205
_cell_length_b   18.14291195
_cell_length_c   18.20086386
_cell_angle_alpha   109.40078570
_cell_angle_beta   109.52885293
_cell_angle_gamma   109.41865679
_symmetry_Int_Tables_number   1
_chemical_formula_structural   Li3(Nb2Cl5)8
_chemical_formula_sum   'Li9 Nb48 Cl120'
_cell_volume   4630.21099497
_cell_formula_units_Z   3
loop_
 _symmetry_equiv_pos_site_id
 _symmetry_equiv_pos_as_xyz
  1  'x, y, z'
loop_
 _atom_site_type_symbol
 _atom_site_label
 _atom_site_symmetry_multiplicity
 _atom_site_fract_x
 _atom_site_fract_y
 _atom_site_fract_z
 _atom_site_occupancy
  Li  Li0  1  0.249699  0.414127  0.163926  1
  Li  Li1  1  0.585625  0.249848  0.835515  1
  Li  Li2  1  0.413360  0.163574  0.249497  1
  Li  Li3  1  0.807664  0.750895  0.558117  1
  Li  Li4  1  0.943565  0.750624  0.693841  1
  Li  Li5  1  0.750296  0.192725  0.443061  1
  Li  Li6  1  0.807323  0.556913  0.249509  1
  Li  Li7  1  0.943343  0.693085  0.249843  1
  Li  Li8  1  0.749948  0.056911  0.306789  1
  Nb  Nb9  1  0.025515  0.482813  0.891999  1
  Nb  Nb10  1  0.109880  0.976882  0.518942  1
  Nb  Nb11  1  0.020184  0.475543  0.609831  1
  Nb  Nb12  1  0.109859  0.633122  0.590924  1
  Nb  Nb13  1  0.091503  0.457225  0.483943  1
  Nb  Nb14  1  0.392033  0.908948  0.866255  1
  Nb  Nb15  1  0.091521  0.134472  0.607739  1
  Nb  Nb16  1  0.020444  0.044640  0.410350  1
  Nb  Nb17  1  0.390998  0.980651  0.523812  1
  Nb  Nb18  1  0.132298  0.608730  0.089501  1
  Nb  Nb19  1  0.041907  0.411701  0.016306  1
  Nb  Nb20  1  0.366510  0.410218  0.890887  1
  Nb  Nb21  1  0.589454  0.980671  0.956422  1
  Nb  Nb22  1  0.024088  0.042377  0.132901  1
  Nb  Nb23  1  0.041214  0.130321  0.025548  1
  Nb  Nb24  1  0.408878  0.890960  0.367100  1
  Nb  Nb25  1  0.516132  0.908678  0.542087  1
  Nb  Nb26  1  0.366797  0.457684  0.476408  1
  Nb  Nb27  1  0.522142  0.393526  0.981217  1
  Nb  Nb28  1  0.540937  0.517821  0.908562  1
  Nb  Nb29  1  0.129533  0.023890  0.042279  1
  Nb  Nb30  1  0.522606  0.632639  0.542815  1
  Nb  Nb31  1  0.542067  0.525644  0.633606  1
  Nb  Nb32  1  0.516574  0.104441  0.974068  1
  Nb  Nb33  1  0.481002  0.890044  0.022170  1
  Nb  Nb34  1  0.458445  0.476725  0.371087  1
  Nb  Nb35  1  0.474403  0.369923  0.459151  1
  Nb  Nb36  1  0.866924  0.974887  0.958457  1
  Nb  Nb37  1  0.457258  0.482880  0.087346  1
  Nb  Nb38  1  0.473995  0.607617  0.016428  1
  Nb  Nb39  1  0.628543  0.542007  0.525824  1
  Nb  Nb40  1  0.480849  0.087526  0.458511  1
  Nb  Nb41  1  0.587742  0.104655  0.629687  1
  Nb  Nb42  1  0.957830  0.868090  0.977466  1
  Nb  Nb43  1  0.974636  0.958451  0.871816  1
  Nb  Nb44  1  0.410615  0.015476  0.040229  1
  Nb  Nb45  1  0.628079  0.587506  0.102778  1
  Nb  Nb46  1  0.958520  0.590662  0.980808  1
  Nb  Nb47  1  0.869804  0.395041  0.910692  1
  Nb  Nb48  1  0.602948  0.015225  0.474510  1
  Nb  Nb49  1  0.985300  0.958674  0.588170  1
  Nb  Nb50  1  0.913960  0.871662  0.395722  1
  Nb  Nb51  1  0.603742  0.086264  0.127413  1
  Nb  Nb52  1  0.914089  0.542711  0.518423  1
  Nb  Nb53  1  0.897591  0.370462  0.413925  1
  Nb  Nb54  1  0.985287  0.526521  0.397351  1
  Nb  Nb55  1  0.897520  0.026960  0.483724  1
  Nb  Nb56  1  0.975935  0.517343  0.103879  1
  Cl  Cl57  1  0.125009  0.984296  0.895869  1
  Cl  Cl58  1  0.023681  0.709360  0.627639  1
  Cl  Cl59  1  0.106126  0.921399  0.626298  1
  Cl  Cl60  1  0.023512  0.814765  0.396172  1
  Cl  Cl61  1  0.051419  0.448667  0.749883  1
  Cl  Cl62  1  0.078307  0.374319  0.894875  1
  Cl  Cl63  1  0.183675  0.605817  0.979373  1
  Cl  Cl64  1  0.269630  0.910681  0.895858  1
  Cl  Cl65  1  0.141925  0.627162  0.730458  1
  Cl  Cl66  1  0.014776  0.103370  0.873931  1
  Cl  Cl67  1  0.106010  0.684651  0.479666  1
  Cl  Cl68  1  0.250223  0.948764  0.551046  1
  Cl  Cl69  1  0.249740  0.800895  0.698438  1
  Cl  Cl70  1  0.127443  0.420876  0.606196  1
  Cl  Cl71  1  0.088380  0.485273  0.359458  1
  Cl  Cl72  1  0.103504  0.873034  0.014910  1
  Cl  Cl73  1  0.088529  0.103249  0.729285  1
  Cl  Cl74  1  0.357328  0.768232  0.872239  1
  Cl  Cl75  1  0.014907  0.411669  0.141112  1
  Cl  Cl76  1  0.103720  0.731456  0.088935  1
  Cl  Cl77  1  0.230623  0.603612  0.588538  1
  Cl  Cl78  1  0.125635  0.641303  0.229983  1
  Cl  Cl79  1  0.295707  0.373495  0.978618  1
  Cl  Cl80  1  0.316210  0.521071  0.894352  1
  Cl  Cl81  1  0.199021  0.301859  0.750325  1
  Cl  Cl82  1  0.268803  0.857825  0.372690  1
  Cl  Cl83  1  0.127399  0.206402  0.521342  1
  Cl  Cl84  1  0.394247  0.873561  0.578113  1
  Cl  Cl85  1  0.199637  0.397516  0.448903  1
  Cl  Cl86  1  0.051337  0.102691  0.301652  1
  Cl  Cl87  1  0.479025  0.873409  0.795416  1
  Cl  Cl88  1  0.373524  0.979156  0.295896  1
  Cl  Cl89  1  0.077978  0.204075  0.183530  1
  Cl  Cl90  1  0.589106  0.857777  0.985456  1
  Cl  Cl91  1  0.230969  0.127242  0.642288  1
  Cl  Cl92  1  0.103490  0.302112  0.051033  1
  Cl  Cl93  1  0.300857  0.749896  0.198626  1
  Cl  Cl94  1  0.206293  0.521583  0.127236  1
  Cl  Cl95  1  0.372778  0.269354  0.857827  1
  Cl  Cl96  1  0.514903  0.642301  0.911002  1
  Cl  Cl97  1  0.371965  0.603627  0.514550  1
  Cl  Cl98  1  0.142324  0.014647  0.411398  1
  Cl  Cl99  1  0.396042  0.410796  0.768816  1
  Cl  Cl100  1  0.410830  0.768858  0.396142  1
  Cl  Cl101  1  0.396009  0.485072  0.627156  1
  Cl  Cl102  1  0.293834  0.421182  0.315243  1
  Cl  Cl103  1  0.374197  0.894240  0.077956  1
  Cl  Cl104  1  0.316354  0.295935  0.421782  1
  Cl  Cl105  1  0.698304  0.948660  0.897474  1
  Cl  Cl106  1  0.551023  0.800617  0.602482  1
  Cl  Cl107  1  0.183027  0.077658  0.204365  1
  Cl  Cl108  1  0.577996  0.683881  0.704423  1
  Cl  Cl109  1  0.394631  0.020530  0.816488  1
  Cl  Cl110  1  0.520340  0.894641  0.316614  1
  Cl  Cl111  1  0.203732  0.182844  0.077794  1
  Cl  Cl112  1  0.485143  0.627138  0.396620  1
  Cl  Cl113  1  0.602174  0.551238  0.801261  1
  Cl  Cl114  1  0.552288  0.251138  0.948937  1
  Cl  Cl115  1  0.578834  0.393821  0.872591  1
  Cl  Cl116  1  0.357738  0.088537  0.485061  1
  Cl  Cl117  1  0.641210  0.911107  0.514785  1
  Cl  Cl118  1  0.421996  0.605385  0.125677  1
  Cl  Cl119  1  0.448669  0.750198  0.051019  1
  Cl  Cl120  1  0.396743  0.447827  0.199019  1
  Cl  Cl121  1  0.514791  0.373595  0.603883  1
  Cl  Cl122  1  0.795751  0.816035  0.922134  1
  Cl  Cl123  1  0.478425  0.105660  0.684650  1
  Cl  Cl124  1  0.603421  0.976678  0.183946  1
  Cl  Cl125  1  0.420923  0.315384  0.294137  1
  Cl  Cl126  1  0.816645  0.921877  0.796332  1
  Cl  Cl127  1  0.447650  0.198356  0.396651  1
  Cl  Cl128  1  0.301942  0.050891  0.103325  1
  Cl  Cl129  1  0.683971  0.707573  0.580733  1
  Cl  Cl130  1  0.626423  0.105253  0.922221  1
  Cl  Cl131  1  0.703543  0.578088  0.683268  1
  Cl  Cl132  1  0.604431  0.515715  0.374941  1
  Cl  Cl133  1  0.588301  0.229678  0.603169  1
  Cl  Cl134  1  0.604181  0.588564  0.229035  1
  Cl  Cl135  1  0.859828  0.984705  0.588219  1
  Cl  Cl136  1  0.625931  0.396848  0.485158  1
  Cl  Cl137  1  0.484949  0.358714  0.088610  1
  Cl  Cl138  1  0.626600  0.730083  0.141090  1
  Cl  Cl139  1  0.796277  0.479951  0.874115  1
  Cl  Cl140  1  0.697954  0.249059  0.801364  1
  Cl  Cl141  1  0.897901  0.698662  0.948990  1
  Cl  Cl142  1  0.771618  0.874982  0.359756  1
  Cl  Cl143  1  0.411634  0.140941  0.014889  1
  Cl  Cl144  1  0.919159  0.792544  0.816045  1
  Cl  Cl145  1  0.625528  0.020256  0.703623  1
  Cl  Cl146  1  0.521383  0.127031  0.206046  1
  Cl  Cl147  1  0.806634  0.613484  0.556730  1
  Cl  Cl148  1  0.943123  0.886355  0.693036  1
  Cl  Cl149  1  0.603178  0.126525  0.419424  1
  Cl  Cl150  1  0.873113  0.791575  0.476695  1
  Cl  Cl151  1  0.729404  0.140477  0.624834  1
  Cl  Cl152  1  0.806773  0.693312  0.249978  1
  Cl  Cl153  1  0.683759  0.476702  0.103088  1
  Cl  Cl154  1  0.703588  0.625635  0.020001  1
  Cl  Cl155  1  0.873663  0.358911  0.769911  1
  Cl  Cl156  1  0.772047  0.396860  0.412077  1
  Cl  Cl157  1  0.896280  0.270481  0.911398  1
  Cl  Cl158  1  0.985420  0.589195  0.857436  1
  Cl  Cl159  1  0.641147  0.229487  0.126211  1
  Cl  Cl160  1  0.911717  0.896373  0.270810  1
  Cl  Cl161  1  0.896334  0.126547  0.985179  1
  Cl  Cl162  1  0.911796  0.515171  0.640664  1
  Cl  Cl163  1  0.873166  0.581815  0.396279  1
  Cl  Cl164  1  0.749876  0.193146  0.306576  1
  Cl  Cl165  1  0.749825  0.056687  0.443170  1
  Cl  Cl166  1  0.896406  0.313993  0.523432  1
  Cl  Cl167  1  0.985067  0.896047  0.127853  1
  Cl  Cl168  1  0.860074  0.375283  0.272064  1
  Cl  Cl169  1  0.729817  0.088506  0.104167  1
  Cl  Cl170  1  0.817214  0.395106  0.020963  1
  Cl  Cl171  1  0.919440  0.626810  0.103337  1
  Cl  Cl172  1  0.943169  0.556759  0.249914  1
  Cl  Cl173  1  0.979720  0.184489  0.605482  1
  Cl  Cl174  1  0.896480  0.081916  0.373220  1
  Cl  Cl175  1  0.979942  0.295147  0.374334  1
  Cl  Cl176  1  0.872957  0.014726  0.104117  1
