# generated using pymatgen
data_EuPPt
_symmetry_space_group_name_H-M   'P 1'
_cell_length_a   4.14017241
_cell_length_b   4.13932678
_cell_length_c   8.58413596
_cell_angle_alpha   90.06656540
_cell_angle_beta   89.90570030
_cell_angle_gamma   120.08009019
_symmetry_Int_Tables_number   1
_chemical_formula_structural   EuPPt
_chemical_formula_sum   'Eu2 P2 Pt2'
_cell_volume   127.29861494
_cell_formula_units_Z   2
loop_
 _symmetry_equiv_pos_site_id
 _symmetry_equiv_pos_as_xyz
  1  'x, y, z'
loop_
 _atom_site_type_symbol
 _atom_site_label
 _atom_site_symmetry_multiplicity
 _atom_site_fract_x
 _atom_site_fract_y
 _atom_site_fract_z
 _atom_site_occupancy
  Eu  Eu0  1  0.000000  0.000000  0.999999  1
  Eu  Eu1  1  1.000000  -0.000000  0.500001  1
  P  P2  1  0.333414  0.666689  0.749955  1
  P  P3  1  0.666586  0.333311  0.250045  1
  Pt  Pt4  1  0.666609  0.333327  0.749932  1
  Pt  Pt5  1  0.333391  0.666673  0.250068  1
