# generated using pymatgen
data_Ti2H2CSe4Cl16O5
_symmetry_space_group_name_H-M   'P 1'
_cell_length_a   11.21697861
_cell_length_b   12.08204811
_cell_length_c   11.19685908
_cell_angle_alpha   101.11095054
_cell_angle_beta   90.00000000
_cell_angle_gamma   90.00000000
_symmetry_Int_Tables_number   1
_chemical_formula_structural   Ti2H2CSe4Cl16O5
_chemical_formula_sum   'Ti4 H4 C2 Se8 Cl32 O10'
_cell_volume   1489.00077615
_cell_formula_units_Z   2
loop_
 _symmetry_equiv_pos_site_id
 _symmetry_equiv_pos_as_xyz
  1  'x, y, z'
loop_
 _atom_site_type_symbol
 _atom_site_label
 _atom_site_symmetry_multiplicity
 _atom_site_fract_x
 _atom_site_fract_y
 _atom_site_fract_z
 _atom_site_occupancy
  Ti  Ti0  1  0.134513  0.567696  0.985258  1
  Ti  Ti1  1  0.134513  0.932304  0.514742  1
  Ti  Ti2  1  0.865487  0.067696  0.485258  1
  Ti  Ti3  1  0.865487  0.432304  0.014742  1
  H  H4  1  0.150520  0.050143  0.087133  1
  H  H5  1  0.150520  0.449857  0.412867  1
  H  H6  1  0.849480  0.550143  0.587133  1
  H  H7  1  0.849480  0.949857  0.912867  1
  C  C8  1  0.077248  0.750000  0.750000  1
  C  C9  1  0.922752  0.250000  0.250000  1
  Se  Se10  1  0.664093  0.631598  0.630663  1
  Se  Se11  1  0.664093  0.868402  0.869337  1
  Se  Se12  1  0.638639  0.847721  0.650277  1
  Se  Se13  1  0.638639  0.652279  0.849723  1
  Se  Se14  1  0.361361  0.347721  0.150277  1
  Se  Se15  1  0.361361  0.152279  0.349723  1
  Se  Se16  1  0.335907  0.131598  0.130663  1
  Se  Se17  1  0.335907  0.368402  0.369337  1
  Cl  Cl18  1  0.594061  0.718923  0.095751  1
  Cl  Cl19  1  0.594061  0.781077  0.404249  1
  Cl  Cl20  1  0.693459  0.050438  0.398697  1
  Cl  Cl21  1  0.693459  0.449562  0.101303  1
  Cl  Cl22  1  0.635076  0.195052  0.166077  1
  Cl  Cl23  1  0.635076  0.304948  0.333923  1
  Cl  Cl24  1  0.367645  0.922903  0.088492  1
  Cl  Cl25  1  0.367645  0.577097  0.411508  1
  Cl  Cl26  1  0.804770  0.400460  0.825100  1
  Cl  Cl27  1  0.804770  0.099540  0.674900  1
  Cl  Cl28  1  0.745481  0.648232  0.366105  1
  Cl  Cl29  1  0.745481  0.851768  0.133895  1
  Cl  Cl30  1  0.925612  0.881864  0.461487  1
  Cl  Cl31  1  0.925612  0.618136  0.038513  1
  Cl  Cl32  1  0.901499  0.522604  0.342434  1
  Cl  Cl33  1  0.901499  0.977396  0.157566  1
  Cl  Cl34  1  0.098501  0.022604  0.842434  1
  Cl  Cl35  1  0.098501  0.477396  0.657566  1
  Cl  Cl36  1  0.074388  0.381864  0.961487  1
  Cl  Cl37  1  0.074388  0.118136  0.538513  1
  Cl  Cl38  1  0.254519  0.148232  0.866105  1
  Cl  Cl39  1  0.254519  0.351768  0.633895  1
  Cl  Cl40  1  0.195230  0.900460  0.325100  1
  Cl  Cl41  1  0.195230  0.599540  0.174900  1
  Cl  Cl42  1  0.632355  0.422903  0.588492  1
  Cl  Cl43  1  0.632355  0.077097  0.911508  1
  Cl  Cl44  1  0.364924  0.695052  0.666077  1
  Cl  Cl45  1  0.364924  0.804948  0.833923  1
  Cl  Cl46  1  0.306541  0.550438  0.898697  1
  Cl  Cl47  1  0.306541  0.949562  0.601303  1
  Cl  Cl48  1  0.405939  0.218923  0.595751  1
  Cl  Cl49  1  0.405939  0.281077  0.904249  1
  O  O50  1  0.076558  0.782021  0.656963  1
  O  O51  1  0.076558  0.717979  0.843037  1
  O  O52  1  0.173746  0.122600  0.139570  1
  O  O53  1  0.173746  0.377400  0.360430  1
  O  O54  1  0.854945  0.250000  0.750000  1
  O  O55  1  0.145055  0.750000  0.250000  1
  O  O56  1  0.826254  0.622600  0.639570  1
  O  O57  1  0.826254  0.877400  0.860430  1
  O  O58  1  0.923442  0.282021  0.156963  1
  O  O59  1  0.923442  0.217979  0.343037  1
