# generated using pymatgen
data_NaAsH4O5
_symmetry_space_group_name_H-M   'P 1'
_cell_length_a   5.91831971
_cell_length_b   7.22273832
_cell_length_c   5.63177708
_cell_angle_alpha   90.00000000
_cell_angle_beta   92.50687332
_cell_angle_gamma   90.00000000
_symmetry_Int_Tables_number   1
_chemical_formula_structural   NaAsH4O5
_chemical_formula_sum   'Na2 As2 H8 O10'
_cell_volume   240.50822437
_cell_formula_units_Z   2
loop_
 _symmetry_equiv_pos_site_id
 _symmetry_equiv_pos_as_xyz
  1  'x, y, z'
loop_
 _atom_site_type_symbol
 _atom_site_label
 _atom_site_symmetry_multiplicity
 _atom_site_fract_x
 _atom_site_fract_y
 _atom_site_fract_z
 _atom_site_occupancy
  Na  Na0  1  0.000000  0.500000  0.000000  1
  Na  Na1  1  0.000000  0.000000  0.000000  1
  As  As2  1  0.475729  0.250000  0.685566  1
  As  As3  1  0.524271  0.750000  0.314434  1
  H  H4  1  0.587067  0.556171  0.737159  1
  H  H5  1  0.412933  0.056171  0.262841  1
  H  H6  1  0.412933  0.443829  0.262841  1
  H  H7  1  0.587067  0.943829  0.737159  1
  H  H8  1  0.800504  0.250000  0.330171  1
  H  H9  1  0.199496  0.750000  0.669829  1
  H  H10  1  0.047558  0.250000  0.444708  1
  H  H11  1  0.952442  0.750000  0.555292  1
  O  O12  1  0.643686  0.431990  0.802415  1
  O  O13  1  0.356314  0.931990  0.197585  1
  O  O14  1  0.356314  0.568010  0.197585  1
  O  O15  1  0.643686  0.068010  0.802415  1
  O  O16  1  0.206567  0.250000  0.770399  1
  O  O17  1  0.793433  0.750000  0.229601  1
  O  O18  1  0.499485  0.250000  0.381782  1
  O  O19  1  0.500515  0.750000  0.618218  1
  O  O20  1  0.962580  0.250000  0.290002  1
  O  O21  1  0.037420  0.750000  0.709998  1
