# generated using pymatgen
data_BaNaIn2(PO4)3
_symmetry_space_group_name_H-M   'P 1'
_cell_length_a   10.29542611
_cell_length_b   10.29542611
_cell_length_c   10.29542611
_cell_angle_alpha   90.00000000
_cell_angle_beta   90.00000000
_cell_angle_gamma   90.00000000
_symmetry_Int_Tables_number   1
_chemical_formula_structural   BaNaIn2(PO4)3
_chemical_formula_sum   'Ba4 Na4 In8 P12 O48'
_cell_volume   1091.27191438
_cell_formula_units_Z   4
loop_
 _symmetry_equiv_pos_site_id
 _symmetry_equiv_pos_as_xyz
  1  'x, y, z'
loop_
 _atom_site_type_symbol
 _atom_site_label
 _atom_site_symmetry_multiplicity
 _atom_site_fract_x
 _atom_site_fract_y
 _atom_site_fract_z
 _atom_site_occupancy
  Ba  Ba0  1  0.194171  0.305829  0.694171  1
  Ba  Ba1  1  0.305829  0.694171  0.194171  1
  Ba  Ba2  1  0.694171  0.194171  0.305829  1
  Ba  Ba3  1  0.805829  0.805829  0.805829  1
  Na  Na4  1  0.074411  0.074411  0.074411  1
  Na  Na5  1  0.425589  0.925589  0.574411  1
  Na  Na6  1  0.574411  0.425589  0.925589  1
  Na  Na7  1  0.925589  0.574411  0.425589  1
  In  In8  1  0.089850  0.910150  0.410150  1
  In  In9  1  0.169201  0.669201  0.830799  1
  In  In10  1  0.330799  0.330799  0.330799  1
  In  In11  1  0.410150  0.089850  0.910150  1
  In  In12  1  0.589850  0.589850  0.589850  1
  In  In13  1  0.669201  0.830799  0.169201  1
  In  In14  1  0.830799  0.169201  0.669201  1
  In  In15  1  0.910150  0.410150  0.089850  1
  P  P16  1  0.013567  0.224069  0.373068  1
  P  P17  1  0.126932  0.986433  0.724069  1
  P  P18  1  0.224069  0.373068  0.013567  1
  P  P19  1  0.275931  0.626932  0.513567  1
  P  P20  1  0.373068  0.013567  0.224069  1
  P  P21  1  0.486433  0.775931  0.873068  1
  P  P22  1  0.513567  0.275931  0.626932  1
  P  P23  1  0.626932  0.513567  0.275931  1
  P  P24  1  0.724069  0.126932  0.986433  1
  P  P25  1  0.775931  0.873068  0.486433  1
  P  P26  1  0.873068  0.486433  0.775931  1
  P  P27  1  0.986433  0.724069  0.126932  1
  O  O28  1  0.025881  0.086071  0.310629  1
  O  O29  1  0.014776  0.085443  0.719758  1
  O  O30  1  0.047101  0.818043  0.225653  1
  O  O31  1  0.077196  0.851653  0.771263  1
  O  O32  1  0.086071  0.310629  0.025881  1
  O  O33  1  0.085443  0.719758  0.014776  1
  O  O34  1  0.148347  0.271263  0.422804  1
  O  O35  1  0.181957  0.725653  0.452899  1
  O  O36  1  0.219758  0.485224  0.914557  1
  O  O37  1  0.189371  0.974119  0.586071  1
  O  O38  1  0.225653  0.047101  0.818043  1
  O  O39  1  0.228737  0.577196  0.648347  1
  O  O40  1  0.271263  0.422804  0.148347  1
  O  O41  1  0.274347  0.952899  0.318043  1
  O  O42  1  0.310629  0.025881  0.086071  1
  O  O43  1  0.280242  0.514776  0.414557  1
  O  O44  1  0.318043  0.274347  0.952899  1
  O  O45  1  0.351653  0.728737  0.922804  1
  O  O46  1  0.414557  0.280242  0.514776  1
  O  O47  1  0.413929  0.689371  0.525881  1
  O  O48  1  0.422804  0.148347  0.271263  1
  O  O49  1  0.452899  0.181957  0.725653  1
  O  O50  1  0.485224  0.914557  0.219758  1
  O  O51  1  0.474119  0.913929  0.810629  1
  O  O52  1  0.525881  0.413929  0.689371  1
  O  O53  1  0.514776  0.414557  0.280242  1
  O  O54  1  0.547101  0.681957  0.774347  1
  O  O55  1  0.577196  0.648347  0.228737  1
  O  O56  1  0.586071  0.189371  0.974119  1
  O  O57  1  0.585443  0.780242  0.985224  1
  O  O58  1  0.648347  0.228737  0.577196  1
  O  O59  1  0.681957  0.774347  0.547101  1
  O  O60  1  0.719758  0.014776  0.085443  1
  O  O61  1  0.689371  0.525881  0.413929  1
  O  O62  1  0.725653  0.452899  0.181957  1
  O  O63  1  0.728737  0.922804  0.351653  1
  O  O64  1  0.771263  0.077196  0.851653  1
  O  O65  1  0.774347  0.547101  0.681957  1
  O  O66  1  0.810629  0.474119  0.913929  1
  O  O67  1  0.780242  0.985224  0.585443  1
  O  O68  1  0.818043  0.225653  0.047101  1
  O  O69  1  0.851653  0.771263  0.077196  1
  O  O70  1  0.914557  0.219758  0.485224  1
  O  O71  1  0.913929  0.810629  0.474119  1
  O  O72  1  0.922804  0.351653  0.728737  1
  O  O73  1  0.952899  0.318043  0.274347  1
  O  O74  1  0.985224  0.585443  0.780242  1
  O  O75  1  0.974119  0.586071  0.189371  1
