# generated using pymatgen
data_LiAlSiH2O5
_symmetry_space_group_name_H-M   'P 1'
_cell_length_a   5.31133126
_cell_length_b   8.15795934
_cell_length_c   11.59711976
_cell_angle_alpha   90.00000000
_cell_angle_beta   90.00000000
_cell_angle_gamma   90.00000000
_symmetry_Int_Tables_number   1
_chemical_formula_structural   LiAlSiH2O5
_chemical_formula_sum   'Li4 Al4 Si4 H8 O20'
_cell_volume   502.49884402
_cell_formula_units_Z   4
loop_
 _symmetry_equiv_pos_site_id
 _symmetry_equiv_pos_as_xyz
  1  'x, y, z'
loop_
 _atom_site_type_symbol
 _atom_site_label
 _atom_site_symmetry_multiplicity
 _atom_site_fract_x
 _atom_site_fract_y
 _atom_site_fract_z
 _atom_site_occupancy
  Li  Li0  1  0.336300  0.976780  0.591496  1
  Li  Li1  1  0.836300  0.476780  0.908504  1
  Li  Li2  1  0.836300  0.023220  0.408504  1
  Li  Li3  1  0.336300  0.523220  0.091496  1
  Al  Al4  1  0.620681  0.657351  0.287467  1
  Al  Al5  1  0.120681  0.157351  0.212533  1
  Al  Al6  1  0.620681  0.842649  0.787467  1
  Al  Al7  1  0.120681  0.342649  0.712533  1
  Si  Si8  1  0.098598  0.435284  0.293102  1
  Si  Si9  1  0.598598  0.935284  0.206898  1
  Si  Si10  1  0.598598  0.564716  0.706898  1
  Si  Si11  1  0.098598  0.064716  0.793102  1
  H  H12  1  0.784947  0.136458  0.594568  1
  H  H13  1  0.284947  0.636458  0.905432  1
  H  H14  1  0.284947  0.863542  0.405432  1
  H  H15  1  0.563826  0.237358  0.533492  1
  H  H16  1  0.063826  0.762642  0.466508  1
  H  H17  1  0.063826  0.737358  0.966508  1
  H  H18  1  0.784947  0.363542  0.094568  1
  H  H19  1  0.563826  0.262642  0.033492  1
  O  O20  1  0.375112  0.449242  0.657582  1
  O  O21  1  0.875112  0.949242  0.842418  1
  O  O22  1  0.631815  0.373077  0.041341  1
  O  O23  1  0.053638  0.138265  0.656796  1
  O  O24  1  0.853256  0.040477  0.221153  1
  O  O25  1  0.853256  0.459523  0.721153  1
  O  O26  1  0.641127  0.745792  0.647196  1
  O  O27  1  0.641127  0.754208  0.147196  1
  O  O28  1  0.353256  0.540477  0.278847  1
  O  O29  1  0.353256  0.959523  0.778847  1
  O  O30  1  0.131815  0.626923  0.958659  1
  O  O31  1  0.631815  0.126923  0.541341  1
  O  O32  1  0.131815  0.873077  0.458659  1
  O  O33  1  0.141127  0.245792  0.852804  1
  O  O34  1  0.875112  0.550758  0.342418  1
  O  O35  1  0.053638  0.361735  0.156796  1
  O  O36  1  0.553638  0.861735  0.343204  1
  O  O37  1  0.141127  0.254208  0.352804  1
  O  O38  1  0.375112  0.050758  0.157582  1
  O  O39  1  0.553638  0.638265  0.843204  1
