# generated using pymatgen
data_H7ClO3
_symmetry_space_group_name_H-M   'P 1'
_cell_length_a   6.72187354
_cell_length_b   6.64303894
_cell_length_c   6.13661526
_cell_angle_alpha   70.10285581
_cell_angle_beta   110.87787623
_cell_angle_gamma   74.86778743
_symmetry_Int_Tables_number   1
_chemical_formula_structural   H7ClO3
_chemical_formula_sum   'H14 Cl2 O6'
_cell_volume   216.75500228
_cell_formula_units_Z   2
loop_
 _symmetry_equiv_pos_site_id
 _symmetry_equiv_pos_as_xyz
  1  'x, y, z'
loop_
 _atom_site_type_symbol
 _atom_site_label
 _atom_site_symmetry_multiplicity
 _atom_site_fract_x
 _atom_site_fract_y
 _atom_site_fract_z
 _atom_site_occupancy
  H  H0  1  0.230158  0.965810  0.395603  1
  H  H1  1  0.465314  0.727782  0.574954  1
  H  H2  1  0.082153  0.795317  0.914899  1
  H  H3  1  0.088549  0.547284  0.177315  1
  H  H4  1  0.313928  0.541509  0.063165  1
  H  H5  1  0.788252  0.330375  0.746576  1
  H  H6  1  0.567274  0.465427  0.451273  1
  H  H7  1  0.656215  0.218287  0.227181  1
  H  H8  1  0.544771  0.433190  0.939528  1
  H  H9  1  0.573014  0.161599  0.736972  1
  H  H10  1  0.576789  0.978793  0.000801  1
  H  H11  1  0.461679  0.940726  0.708554  1
  H  H12  1  0.979713  0.552267  0.405625  1
  H  H13  1  0.869899  0.437456  0.231330  1
  Cl  Cl14  1  0.794658  0.864701  0.424567  1
  Cl  Cl15  1  0.116921  0.168003  0.978662  1
  O  O16  1  0.350730  0.847509  0.585582  1
  O  O17  1  0.184485  0.641939  0.078158  1
  O  O18  1  0.606375  0.402252  0.637881  1
  O  O19  1  0.590658  0.398116  0.123132  1
  O  O20  1  0.578983  0.999604  0.833003  1
  O  O21  1  0.016351  0.452173  0.322191  1
