# generated using pymatgen
data_H4N2O3
_symmetry_space_group_name_H-M   'P 1'
_cell_length_a   7.72710050
_cell_length_b   7.49722956
_cell_length_c   6.32494244
_cell_angle_alpha   90.00000000
_cell_angle_beta   90.00000000
_cell_angle_gamma   90.00000000
_symmetry_Int_Tables_number   1
_chemical_formula_structural   H4N2O3
_chemical_formula_sum   'H16 N8 O12'
_cell_volume   366.41559317
_cell_formula_units_Z   4
loop_
 _symmetry_equiv_pos_site_id
 _symmetry_equiv_pos_as_xyz
  1  'x, y, z'
loop_
 _atom_site_type_symbol
 _atom_site_label
 _atom_site_symmetry_multiplicity
 _atom_site_fract_x
 _atom_site_fract_y
 _atom_site_fract_z
 _atom_site_occupancy
  H  H0  1  0.707301  0.514335  0.140514  1
  H  H1  1  0.792699  0.014335  0.140514  1
  H  H2  1  0.292699  0.485665  0.640514  1
  H  H3  1  0.207301  0.985665  0.640514  1
  H  H4  1  0.643698  0.243711  0.946890  1
  H  H5  1  0.896181  0.624944  0.401600  1
  H  H6  1  0.837812  0.889860  0.636890  1
  H  H7  1  0.356302  0.756289  0.446889  1
  H  H8  1  0.103819  0.375056  0.901600  1
  H  H9  1  0.162188  0.110140  0.136890  1
  H  H10  1  0.396181  0.875056  0.901600  1
  H  H11  1  0.337812  0.610140  0.136890  1
  H  H12  1  0.143698  0.256289  0.446889  1
  H  H13  1  0.603819  0.124944  0.401600  1
  H  H14  1  0.662188  0.389860  0.636890  1
  H  H15  1  0.856302  0.743711  0.946890  1
  N  N16  1  0.224353  0.025306  0.244233  1
  N  N17  1  0.275647  0.525306  0.244233  1
  N  N18  1  0.775647  0.974694  0.744233  1
  N  N19  1  0.724353  0.474694  0.744233  1
  N  N20  1  0.550152  0.322921  0.217433  1
  N  N21  1  0.949848  0.822921  0.217433  1
  N  N22  1  0.449848  0.677079  0.717433  1
  N  N23  1  0.050152  0.177079  0.717433  1
  O  O24  1  0.711497  0.418431  0.246634  1
  O  O25  1  0.788503  0.918431  0.246634  1
  O  O26  1  0.288503  0.581569  0.746634  1
  O  O27  1  0.211497  0.081569  0.746634  1
  O  O28  1  0.588135  0.181223  0.067171  1
  O  O29  1  0.975067  0.729310  0.404658  1
  O  O30  1  0.411865  0.818777  0.567171  1
  O  O31  1  0.024933  0.270690  0.904658  1
  O  O32  1  0.475067  0.770690  0.904658  1
  O  O33  1  0.088135  0.318777  0.567171  1
  O  O34  1  0.524933  0.229310  0.404658  1
  O  O35  1  0.911865  0.681223  0.067171  1
