# generated using pymatgen
data_VInCuO5
_symmetry_space_group_name_H-M   'P 1'
_cell_length_a   6.24506936
_cell_length_b   8.92283435
_cell_length_c   15.48860643
_cell_angle_alpha   106.68500977
_cell_angle_beta   90.00000000
_cell_angle_gamma   90.00000000
_symmetry_Int_Tables_number   1
_chemical_formula_structural   VInCuO5
_chemical_formula_sum   'V8 In8 Cu8 O40'
_cell_volume   826.74494155
_cell_formula_units_Z   8
loop_
 _symmetry_equiv_pos_site_id
 _symmetry_equiv_pos_as_xyz
  1  'x, y, z'
loop_
 _atom_site_type_symbol
 _atom_site_label
 _atom_site_symmetry_multiplicity
 _atom_site_fract_x
 _atom_site_fract_y
 _atom_site_fract_z
 _atom_site_occupancy
  V  V0  1  0.152962  0.070009  0.147599  1
  V  V1  1  0.652962  0.929991  0.352401  1
  V  V2  1  0.847038  0.929991  0.852401  1
  V  V3  1  0.347038  0.070009  0.647599  1
  V  V4  1  0.872256  0.322878  0.645827  1
  V  V5  1  0.627744  0.322878  0.145827  1
  V  V6  1  0.127744  0.677122  0.354173  1
  V  V7  1  0.372256  0.677122  0.854173  1
  In  In8  1  0.121835  0.375936  0.045482  1
  In  In9  1  0.110550  0.702945  0.651752  1
  In  In10  1  0.889450  0.297055  0.348248  1
  In  In11  1  0.389450  0.702945  0.151752  1
  In  In12  1  0.610550  0.297055  0.848248  1
  In  In13  1  0.621835  0.624064  0.454518  1
  In  In14  1  0.378165  0.375936  0.545482  1
  In  In15  1  0.878165  0.624064  0.954518  1
  Cu  Cu16  1  0.357088  0.068662  0.935700  1
  Cu  Cu17  1  0.142912  0.068662  0.435700  1
  Cu  Cu18  1  0.857088  0.931338  0.564300  1
  Cu  Cu19  1  0.111278  0.288940  0.836000  1
  Cu  Cu20  1  0.642912  0.931338  0.064300  1
  Cu  Cu21  1  0.611278  0.711060  0.664000  1
  Cu  Cu22  1  0.388722  0.288940  0.336000  1
  Cu  Cu23  1  0.888722  0.711060  0.164000  1
  O  O24  1  0.376964  0.944195  0.143197  1
  O  O25  1  0.882801  0.148722  0.561425  1
  O  O26  1  0.623036  0.055805  0.856803  1
  O  O27  1  0.123036  0.944195  0.643197  1
  O  O28  1  0.127754  0.720412  0.248472  1
  O  O29  1  0.830324  0.711923  0.570638  1
  O  O30  1  0.617199  0.148722  0.061425  1
  O  O31  1  0.075098  0.027950  0.849186  1
  O  O32  1  0.105988  0.628981  0.066361  1
  O  O33  1  0.894012  0.371019  0.933639  1
  O  O34  1  0.863725  0.419743  0.141091  1
  O  O35  1  0.575098  0.972050  0.650814  1
  O  O36  1  0.844120  0.861603  0.949936  1
  O  O37  1  0.669676  0.711923  0.070638  1
  O  O38  1  0.909173  0.552432  0.365951  1
  O  O39  1  0.363725  0.580257  0.358909  1
  O  O40  1  0.153164  0.235856  0.247596  1
  O  O41  1  0.155880  0.138397  0.050064  1
  O  O42  1  0.872246  0.279588  0.751528  1
  O  O43  1  0.590827  0.552432  0.865951  1
  O  O44  1  0.117199  0.851278  0.438575  1
  O  O45  1  0.372246  0.720412  0.748472  1
  O  O46  1  0.846836  0.764144  0.752404  1
  O  O47  1  0.627754  0.279588  0.251528  1
  O  O48  1  0.605988  0.371019  0.433639  1
  O  O49  1  0.424902  0.027950  0.349186  1
  O  O50  1  0.090827  0.447568  0.634049  1
  O  O51  1  0.394012  0.628981  0.566361  1
  O  O52  1  0.636275  0.419743  0.641091  1
  O  O53  1  0.169676  0.288077  0.429362  1
  O  O54  1  0.136275  0.580257  0.858909  1
  O  O55  1  0.346836  0.235856  0.747596  1
  O  O56  1  0.330324  0.288077  0.929362  1
  O  O57  1  0.344120  0.138397  0.550064  1
  O  O58  1  0.653164  0.764144  0.252404  1
  O  O59  1  0.409173  0.447568  0.134049  1
  O  O60  1  0.876964  0.055805  0.356803  1
  O  O61  1  0.924902  0.972050  0.150814  1
  O  O62  1  0.655880  0.861603  0.449936  1
  O  O63  1  0.382801  0.851278  0.938575  1
