# generated using pymatgen
data_MoCl4
_symmetry_space_group_name_H-M   'P 1'
_cell_length_a   6.43053529
_cell_length_b   13.07682679
_cell_length_c   12.42200403
_cell_angle_alpha   90.03505852
_cell_angle_beta   89.92870666
_cell_angle_gamma   119.45569779
_symmetry_Int_Tables_number   1
_chemical_formula_structural   MoCl4
_chemical_formula_sum   'Mo6 Cl24'
_cell_volume   909.55176461
_cell_formula_units_Z   6
loop_
 _symmetry_equiv_pos_site_id
 _symmetry_equiv_pos_as_xyz
  1  'x, y, z'
loop_
 _atom_site_type_symbol
 _atom_site_label
 _atom_site_symmetry_multiplicity
 _atom_site_fract_x
 _atom_site_fract_y
 _atom_site_fract_z
 _atom_site_occupancy
  Cl  Cl0  1  0.020991  0.815856  0.648787  1
  Cl  Cl1  1  0.330773  0.975058  0.863521  1
  Cl  Cl2  1  0.025174  0.668402  0.864363  1
  Cl  Cl3  1  0.311630  0.668402  0.635637  1
  Cl  Cl4  1  0.028094  0.350544  0.638161  1
  Cl  Cl5  1  0.389279  0.684144  0.148787  1
  Cl  Cl6  1  0.619342  0.975058  0.636479  1
  Cl  Cl7  1  0.329279  0.496912  0.856295  1
  Cl  Cl8  1  0.380658  0.524942  0.363521  1
  Cl  Cl9  1  0.610721  0.815856  0.851213  1
  Cl  Cl10  1  0.688370  0.831598  0.364363  1
  Cl  Cl11  1  0.058033  0.199588  0.868465  1
  Cl  Cl12  1  0.974826  0.831598  0.135637  1
  Cl  Cl13  1  0.341142  0.199588  0.631535  1
  Cl  Cl14  1  0.327006  0.149456  0.138161  1
  Cl  Cl15  1  0.669227  0.524942  0.136479  1
  Cl  Cl16  1  0.664545  0.496912  0.643705  1
  Cl  Cl17  1  0.335455  0.003088  0.356295  1
  Cl  Cl18  1  0.672994  0.350544  0.861839  1
  Cl  Cl19  1  0.979009  0.684144  0.351213  1
  Cl  Cl20  1  0.658858  0.300412  0.368465  1
  Cl  Cl21  1  0.941967  0.300412  0.131535  1
  Cl  Cl22  1  0.670721  0.003088  0.143705  1
  Cl  Cl23  1  0.971906  0.149456  0.361839  1
  Mo  Mo24  1  0.005520  0.505520  0.750000  1
  Mo  Mo25  1  0.338819  0.838819  0.750000  1
  Mo  Mo26  1  0.994480  0.994480  0.250000  1
  Mo  Mo27  1  0.661181  0.661181  0.250000  1
  Mo  Mo28  1  0.332899  0.332899  0.750000  1
  Mo  Mo29  1  0.667101  0.167101  0.250000  1
