# generated using pymatgen
data_C2IO
_symmetry_space_group_name_H-M   'P 1'
_cell_length_a   6.03636014
_cell_length_b   6.03636014
_cell_length_c   39.41841999
_cell_angle_alpha   90.00000000
_cell_angle_beta   90.00000000
_cell_angle_gamma   90.00000000
_symmetry_Int_Tables_number   1
_chemical_formula_structural   C2IO
_chemical_formula_sum   'C32 I16 O16'
_cell_volume   1436.31434438
_cell_formula_units_Z   16
loop_
 _symmetry_equiv_pos_site_id
 _symmetry_equiv_pos_as_xyz
  1  'x, y, z'
loop_
 _atom_site_type_symbol
 _atom_site_label
 _atom_site_symmetry_multiplicity
 _atom_site_fract_x
 _atom_site_fract_y
 _atom_site_fract_z
 _atom_site_occupancy
  C  C0  1  0.822709  0.142032  0.845361  1
  C  C1  1  0.048191  0.091286  0.674883  1
  C  C2  1  0.477739  0.748194  0.049586  1
  C  C3  1  0.142032  0.822709  0.154639  1
  C  C4  1  0.522261  0.251806  0.549586  1
  C  C5  1  0.853914  0.673754  0.933624  1
  C  C6  1  0.173754  0.646086  0.183624  1
  C  C7  1  0.022261  0.248194  0.700414  1
  C  C8  1  0.353914  0.826246  0.316376  1
  C  C9  1  0.091286  0.048191  0.325117  1
  C  C10  1  0.357968  0.322709  0.595361  1
  C  C11  1  0.977739  0.751806  0.200414  1
  C  C12  1  0.642032  0.677291  0.095361  1
  C  C13  1  0.322709  0.357968  0.404639  1
  C  C14  1  0.326246  0.146086  0.566376  1
  C  C15  1  0.248194  0.022261  0.299586  1
  C  C16  1  0.591286  0.451809  0.924883  1
  C  C17  1  0.826246  0.353914  0.683624  1
  C  C18  1  0.951809  0.908714  0.174883  1
  C  C19  1  0.673754  0.853914  0.066376  1
  C  C20  1  0.408714  0.548191  0.424883  1
  C  C21  1  0.908714  0.951809  0.825117  1
  C  C22  1  0.857968  0.177291  0.654639  1
  C  C23  1  0.251806  0.522261  0.450414  1
  C  C24  1  0.177291  0.857968  0.345361  1
  C  C25  1  0.748194  0.477739  0.950414  1
  C  C26  1  0.146086  0.326246  0.433624  1
  C  C27  1  0.751806  0.977739  0.799586  1
  C  C28  1  0.677291  0.642032  0.904639  1
  C  C29  1  0.451809  0.591286  0.075117  1
  C  C30  1  0.548191  0.408714  0.575117  1
  C  C31  1  0.646086  0.173754  0.816376  1
  I  I32  1  0.698214  0.201032  0.505827  1
  I  I33  1  0.240324  0.333111  0.082771  1
  I  I34  1  0.333111  0.240324  0.917229  1
  I  I35  1  0.166889  0.740324  0.832771  1
  I  I36  1  0.833111  0.259676  0.332771  1
  I  I37  1  0.759676  0.666889  0.582771  1
  I  I38  1  0.259676  0.833111  0.667229  1
  I  I39  1  0.201032  0.698214  0.494173  1
  I  I40  1  0.666889  0.759676  0.417229  1
  I  I41  1  0.198214  0.298968  0.744173  1
  I  I42  1  0.298968  0.198214  0.255827  1
  I  I43  1  0.701032  0.801786  0.755827  1
  I  I44  1  0.798968  0.301786  0.994173  1
  I  I45  1  0.740324  0.166889  0.167229  1
  I  I46  1  0.301786  0.798968  0.005827  1
  I  I47  1  0.801786  0.701032  0.244173  1
  O  O48  1  0.699464  0.505366  0.689760  1
  O  O49  1  0.994634  0.199464  0.439760  1
  O  O50  1  0.494634  0.300536  0.810240  1
  O  O51  1  0.371124  0.269331  0.377988  1
  O  O52  1  0.730669  0.628876  0.122012  1
  O  O53  1  0.269331  0.371124  0.622012  1
  O  O54  1  0.800536  0.005366  0.060240  1
  O  O55  1  0.128876  0.769331  0.372012  1
  O  O56  1  0.005366  0.800536  0.939760  1
  O  O57  1  0.871124  0.230669  0.872012  1
  O  O58  1  0.628876  0.730669  0.877988  1
  O  O59  1  0.199464  0.994634  0.560240  1
  O  O60  1  0.769331  0.128876  0.627988  1
  O  O61  1  0.230669  0.871124  0.127988  1
  O  O62  1  0.505366  0.699464  0.310240  1
  O  O63  1  0.300536  0.494634  0.189760  1
