# generated using pymatgen
data_Sr7SmFe4(MoO6)4
_symmetry_space_group_name_H-M   'P 1'
_cell_length_a   5.63251593
_cell_length_b   22.51364373
_cell_length_c   5.67799012
_cell_angle_alpha   119.39302596
_cell_angle_beta   119.53525915
_cell_angle_gamma   90.45155568
_symmetry_Int_Tables_number   1
_chemical_formula_structural   Sr7SmFe4(MoO6)4
_chemical_formula_sum   'Sr7 Sm1 Fe4 Mo4 O24'
_cell_volume   515.31972035
_cell_formula_units_Z   1
loop_
 _symmetry_equiv_pos_site_id
 _symmetry_equiv_pos_as_xyz
  1  'x, y, z'
loop_
 _atom_site_type_symbol
 _atom_site_label
 _atom_site_symmetry_multiplicity
 _atom_site_fract_x
 _atom_site_fract_y
 _atom_site_fract_z
 _atom_site_occupancy
  Sr  Sr0  1  0.256518  0.191258  0.509821  1
  Sr  Sr1  1  0.249374  0.436446  0.495593  1
  Sr  Sr2  1  0.256932  0.696169  0.523069  1
  Sr  Sr3  1  0.230436  0.925009  0.466277  1
  Sr  Sr4  1  0.757838  0.313346  0.501480  1
  Sr  Sr5  1  0.754972  0.063703  0.509738  1
  Sr  Sr6  1  0.742364  0.561280  0.494398  1
  Sm  Sm7  1  0.768776  0.813265  0.501090  1
  Fe  Fe8  1  -0.004109  0.249197  -0.001290  1
  Fe  Fe9  1  0.000668  0.499807  -0.004579  1
  Fe  Fe10  1  -0.001073  0.750757  0.003162  1
  Fe  Fe11  1  0.492768  0.870640  0.994381  1
  Mo  Mo12  1  0.996595  0.997341  0.997232  1
  Mo  Mo13  1  0.504990  0.126619  0.006152  1
  Mo  Mo14  1  0.504552  0.375819  -0.000070  1
  Mo  Mo15  1  0.497685  0.625195  -0.001421  1
  O  O16  1  0.254422  0.059728  0.500738  1
  O  O17  1  0.261678  0.315379  0.503289  1
  O  O18  1  0.258961  0.564864  0.511822  1
  O  O19  1  0.181643  0.811582  0.506780  1
  O  O20  1  0.208491  0.176491  -0.003291  1
  O  O21  1  0.214938  0.430342  0.008513  1
  O  O22  1  0.210792  0.670316  -0.001516  1
  O  O23  1  0.184253  0.922243  0.993622  1
  O  O24  1  0.283195  0.047624  0.001503  1
  O  O25  1  0.302752  0.307911  0.005884  1
  O  O26  1  0.302465  0.552506  -0.000183  1
  O  O27  1  0.343253  0.804635  0.068091  1
  O  O28  1  0.760298  0.187984  0.500438  1
  O  O29  1  0.756945  0.440235  0.507034  1
  O  O30  1  0.748767  0.684939  0.473396  1
  O  O31  1  0.764155  0.934232  0.501671  1
  O  O32  1  0.706858  0.201785  0.000935  1
  O  O33  1  0.712129  0.449507  0.012494  1
  O  O34  1  0.688057  0.696361  -0.004786  1
  O  O35  1  0.703164  0.951956  -0.002865  1
  O  O36  1  0.803455  0.075041  0.006976  1
  O  O37  1  0.796727  0.324861  -0.002748  1
  O  O38  1  0.784479  0.573924  -0.002274  1
  O  O39  1  0.758838  0.819702  0.919444  1
