# generated using pymatgen
data_Sr2La2MgTi3O12
_symmetry_space_group_name_H-M   'P 1'
_cell_length_a   5.61780888
_cell_length_b   5.59718159
_cell_length_c   15.72831460
_cell_angle_alpha   89.91797478
_cell_angle_beta   90.00000000
_cell_angle_gamma   90.00000000
_symmetry_Int_Tables_number   1
_chemical_formula_structural   Sr2La2MgTi3O12
_chemical_formula_sum   'Sr4 La4 Mg2 Ti6 O24'
_cell_volume   494.55898872
_cell_formula_units_Z   2
loop_
 _symmetry_equiv_pos_site_id
 _symmetry_equiv_pos_as_xyz
  1  'x, y, z'
loop_
 _atom_site_type_symbol
 _atom_site_label
 _atom_site_symmetry_multiplicity
 _atom_site_fract_x
 _atom_site_fract_y
 _atom_site_fract_z
 _atom_site_occupancy
  Sr  Sr0  1  0.000888  0.996341  0.372754  1
  Sr  Sr1  1  0.499112  0.496341  0.372754  1
  Sr  Sr2  1  0.500888  0.503659  0.127246  1
  Sr  Sr3  1  -0.000888  0.003659  0.127246  1
  La  La4  1  0.014559  0.983651  0.867224  1
  La  La5  1  0.485441  0.483651  0.867224  1
  La  La6  1  0.514559  0.516349  0.632776  1
  La  La7  1  0.985441  0.016349  0.632776  1
  Mg  Mg8  1  0.000000  0.500000  0.750000  1
  Mg  Mg9  1  0.500000  0.000000  0.750000  1
  Ti  Ti10  1  0.000000  0.500000  0.250000  1
  Ti  Ti11  1  0.509754  0.988698  0.999346  1
  Ti  Ti12  1  0.500000  0.000000  0.250000  1
  Ti  Ti13  1  0.490246  0.011302  0.500654  1
  Ti  Ti14  1  0.990246  0.488698  0.999346  1
  Ti  Ti15  1  0.009754  0.511302  0.500654  1
  O  O16  1  0.053108  0.502305  0.125530  1
  O  O17  1  0.081483  0.486356  0.617928  1
  O  O18  1  0.243243  0.236663  0.482086  1
  O  O19  1  0.239481  0.248212  0.979435  1
  O  O20  1  0.245945  0.245704  0.262944  1
  O  O21  1  0.233277  0.233222  0.773695  1
  O  O22  1  0.256757  0.736663  0.482086  1
  O  O23  1  0.254055  0.745704  0.262944  1
  O  O24  1  0.260519  0.748212  0.979435  1
  O  O25  1  0.266723  0.733222  0.773695  1
  O  O26  1  0.446892  0.002305  0.125530  1
  O  O27  1  0.418517  0.986356  0.617928  1
  O  O28  1  0.581483  0.013644  0.882072  1
  O  O29  1  0.553108  0.997695  0.374470  1
  O  O30  1  0.739481  0.251788  0.520565  1
  O  O31  1  0.743243  0.263337  0.017914  1
  O  O32  1  0.745945  0.254296  0.237056  1
  O  O33  1  0.733277  0.266778  0.726305  1
  O  O34  1  0.754055  0.754296  0.237056  1
  O  O35  1  0.766723  0.766778  0.726305  1
  O  O36  1  0.756757  0.763337  0.017914  1
  O  O37  1  0.760519  0.751788  0.520565  1
  O  O38  1  0.946892  0.497695  0.374470  1
  O  O39  1  0.918517  0.513644  0.882072  1
