# generated using pymatgen
data_Ce12C6I17
_symmetry_space_group_name_H-M   'P 1'
_cell_length_a   11.74281072
_cell_length_b   11.74281042
_cell_length_c   19.27021441
_cell_angle_alpha   89.79755026
_cell_angle_beta   89.79755027
_cell_angle_gamma   64.65347776
_symmetry_Int_Tables_number   1
_chemical_formula_structural   Ce12C6I17
_chemical_formula_sum   'Ce24 C12 I34'
_cell_volume   2401.41977834
_cell_formula_units_Z   2
loop_
 _symmetry_equiv_pos_site_id
 _symmetry_equiv_pos_as_xyz
  1  'x, y, z'
loop_
 _atom_site_type_symbol
 _atom_site_label
 _atom_site_symmetry_multiplicity
 _atom_site_fract_x
 _atom_site_fract_y
 _atom_site_fract_z
 _atom_site_occupancy
  Ce  Ce0  1  0.072889  0.019796  0.154651  1
  Ce  Ce1  1  0.573671  0.098267  0.884478  1
  Ce  Ce2  1  0.701824  0.285740  0.978021  1
  Ce  Ce3  1  0.098267  0.573671  0.384478  1
  Ce  Ce4  1  0.019796  0.072889  0.654651  1
  Ce  Ce5  1  0.357337  0.356873  0.049117  1
  Ce  Ce6  1  0.927111  0.980204  0.845349  1
  Ce  Ce7  1  0.643127  0.642663  0.450883  1
  Ce  Ce8  1  0.545385  0.536018  0.126873  1
  Ce  Ce9  1  0.454615  0.463982  0.873127  1
  Ce  Ce10  1  0.356873  0.357337  0.549117  1
  Ce  Ce11  1  0.285740  0.701824  0.478021  1
  Ce  Ce12  1  0.901733  0.426329  0.615522  1
  Ce  Ce13  1  0.536018  0.545385  0.626873  1
  Ce  Ce14  1  0.714260  0.298176  0.521979  1
  Ce  Ce15  1  0.806037  0.338275  0.787596  1
  Ce  Ce16  1  0.426329  0.901733  0.115522  1
  Ce  Ce17  1  0.980204  0.927111  0.345349  1
  Ce  Ce18  1  0.642663  0.643127  0.950883  1
  Ce  Ce19  1  0.463982  0.454615  0.373127  1
  Ce  Ce20  1  0.661725  0.193963  0.712404  1
  Ce  Ce21  1  0.193963  0.661725  0.212404  1
  Ce  Ce22  1  0.338275  0.806037  0.287596  1
  Ce  Ce23  1  0.298176  0.714260  0.021979  1
  C  C24  1  0.278074  0.633036  0.348943  1
  C  C25  1  0.533651  0.533453  0.988453  1
  C  C26  1  0.165003  0.744734  0.346462  1
  C  C27  1  0.255266  0.834997  0.153538  1
  C  C28  1  0.533453  0.533651  0.488453  1
  C  C29  1  0.466547  0.466349  0.511547  1
  C  C30  1  0.633036  0.278074  0.848943  1
  C  C31  1  0.366964  0.721926  0.151057  1
  C  C32  1  0.834997  0.255266  0.653538  1
  C  C33  1  0.721926  0.366964  0.651057  1
  C  C34  1  0.466349  0.466547  0.011547  1
  C  C35  1  0.744734  0.165003  0.846462  1
  I  I36  1  0.395733  0.900425  0.442366  1
  I  I37  1  0.793262  0.813690  0.899292  1
  I  I38  1  0.910519  0.398702  0.448240  1
  I  I39  1  0.398702  0.910519  0.948240  1
  I  I40  1  0.284263  0.806086  0.639963  1
  I  I41  1  0.115162  0.098857  0.304761  1
  I  I42  1  0.604267  0.099575  0.557634  1
  I  I43  1  0.308908  0.286366  0.396987  1
  I  I44  1  0.884838  0.901143  0.695239  1
  I  I45  1  0.971600  0.501328  0.756418  1
  I  I46  1  0.423663  0.372578  0.208910  1
  I  I47  1  0.186310  0.206738  0.600708  1
  I  I48  1  0.806086  0.284263  0.139963  1
  I  I49  1  0.713634  0.691092  0.103013  1
  I  I50  1  0.089481  0.601298  0.551760  1
  I  I51  1  0.028400  0.498672  0.243582  1
  I  I52  1  0.691092  0.713634  0.603013  1
  I  I53  1  0.715737  0.193914  0.360037  1
  I  I54  1  0.286366  0.308908  0.896987  1
  I  I55  1  0.627422  0.576337  0.291090  1
  I  I56  1  0.098857  0.115162  0.804761  1
  I  I57  1  0.206738  0.186310  0.100708  1
  I  I58  1  0.601298  0.089481  0.051760  1
  I  I59  1  0.498672  0.028400  0.743582  1
  I  I60  1  0.813690  0.793262  0.399292  1
  I  I61  1  0.099575  0.604267  0.057634  1
  I  I62  1  0.501328  0.971600  0.256418  1
  I  I63  1  0.576337  0.627422  0.791090  1
  I  I64  1  0.372578  0.423663  0.708910  1
  I  I65  1  0.900425  0.395733  0.942366  1
  I  I66  1  0.901143  0.884838  0.195239  1
  I  I67  1  0.193914  0.715737  0.860037  1
  I  I68  1  0.000000  0.000000  0.000000  1
  I  I69  1  0.000000  0.000000  0.500000  1
