# generated using pymatgen
data_H7BrO3
_symmetry_space_group_name_H-M   'P 1'
_cell_length_a   6.12895592
_cell_length_b   6.67008376
_cell_length_c   6.67008376
_cell_angle_alpha   58.54625479
_cell_angle_beta   91.84635240
_cell_angle_gamma   91.84635240
_symmetry_Int_Tables_number   1
_chemical_formula_structural   H7BrO3
_chemical_formula_sum   'H14 Br2 O6'
_cell_volume   232.45188142
_cell_formula_units_Z   2
loop_
 _symmetry_equiv_pos_site_id
 _symmetry_equiv_pos_as_xyz
  1  'x, y, z'
loop_
 _atom_site_type_symbol
 _atom_site_label
 _atom_site_symmetry_multiplicity
 _atom_site_fract_x
 _atom_site_fract_y
 _atom_site_fract_z
 _atom_site_occupancy
  H  H0  1  0.457858  0.980930  0.861926  1
  H  H1  1  0.612282  0.821189  0.815042  1
  H  H2  1  0.957858  0.361926  0.480930  1
  H  H3  1  0.112282  0.315042  0.321189  1
  H  H4  1  0.864331  0.536151  0.978515  1
  H  H5  1  0.745840  0.568709  0.741677  1
  H  H6  1  0.232501  0.745812  0.523882  1
  H  H7  1  0.033640  0.763355  0.680429  1
  H  H8  1  0.302410  0.855750  0.690139  1
  H  H9  1  0.732502  0.023882  0.245812  1
  H  H10  1  0.533640  0.180429  0.263355  1
  H  H11  1  0.802410  0.190139  0.355750  1
  H  H12  1  0.364331  0.478515  0.036151  1
  H  H13  1  0.245840  0.241677  0.068709  1
  Br  Br14  1  0.500216  0.487593  0.547807  1
  Br  Br15  1  0.000216  0.047807  0.987593  1
  O  O16  1  0.461126  0.839204  0.851347  1
  O  O17  1  0.961126  0.351347  0.339204  1
  O  O18  1  0.833392  0.649788  0.811724  1
  O  O19  1  0.173566  0.846016  0.580053  1
  O  O20  1  0.673566  0.080053  0.346016  1
  O  O21  1  0.333392  0.311724  0.149788  1
