# generated using pymatgen
data_TeS7Cl2
_symmetry_space_group_name_H-M   'P 1'
_cell_length_a   9.20488591
_cell_length_b   9.89320013
_cell_length_c   14.32853042
_cell_angle_alpha   90.00000000
_cell_angle_beta   90.00000000
_cell_angle_gamma   90.00000000
_symmetry_Int_Tables_number   1
_chemical_formula_structural   TeS7Cl2
_chemical_formula_sum   'Te4 S28 Cl8'
_cell_volume   1304.83877719
_cell_formula_units_Z   4
loop_
 _symmetry_equiv_pos_site_id
 _symmetry_equiv_pos_as_xyz
  1  'x, y, z'
loop_
 _atom_site_type_symbol
 _atom_site_label
 _atom_site_symmetry_multiplicity
 _atom_site_fract_x
 _atom_site_fract_y
 _atom_site_fract_z
 _atom_site_occupancy
  Te  Te0  1  0.750000  0.823707  0.103600  1
  Te  Te1  1  0.250000  0.676293  0.603600  1
  Te  Te2  1  0.250000  0.176293  0.896400  1
  Te  Te3  1  0.750000  0.323707  0.396400  1
  S  S4  1  0.567976  0.135737  0.685133  1
  S  S5  1  0.567976  0.635737  0.814867  1
  S  S6  1  0.035436  0.303667  0.959865  1
  S  S7  1  0.750000  0.721226  0.755498  1
  S  S8  1  0.977548  0.233734  0.086409  1
  S  S9  1  0.067976  0.864263  0.314867  1
  S  S10  1  0.535436  0.696333  0.040135  1
  S  S11  1  0.977548  0.733734  0.413591  1
  S  S12  1  0.250000  0.778774  0.255498  1
  S  S13  1  0.522452  0.233734  0.086409  1
  S  S14  1  0.477548  0.266266  0.586409  1
  S  S15  1  0.022453  0.266266  0.586409  1
  S  S16  1  0.477548  0.766266  0.913591  1
  S  S17  1  0.522452  0.733734  0.413591  1
  S  S18  1  0.464564  0.803667  0.540135  1
  S  S19  1  0.432024  0.864263  0.314867  1
  S  S20  1  0.067976  0.364263  0.185133  1
  S  S21  1  0.932024  0.635737  0.814867  1
  S  S22  1  0.250000  0.278774  0.244502  1
  S  S23  1  0.932024  0.135737  0.685133  1
  S  S24  1  0.432024  0.364263  0.185133  1
  S  S25  1  0.964564  0.696333  0.040135  1
  S  S26  1  0.750000  0.221226  0.744502  1
  S  S27  1  0.035436  0.803667  0.540135  1
  S  S28  1  0.022453  0.766266  0.913591  1
  S  S29  1  0.464564  0.303667  0.959865  1
  S  S30  1  0.535436  0.196333  0.459865  1
  S  S31  1  0.964564  0.196333  0.459865  1
  Cl  Cl32  1  0.250000  0.381683  0.790132  1
  Cl  Cl33  1  0.750000  0.485463  0.525880  1
  Cl  Cl34  1  0.250000  0.514537  0.474120  1
  Cl  Cl35  1  0.750000  0.618317  0.209868  1
  Cl  Cl36  1  0.750000  0.985463  0.974120  1
  Cl  Cl37  1  0.250000  0.014537  0.025880  1
  Cl  Cl38  1  0.750000  0.118317  0.290132  1
  Cl  Cl39  1  0.250000  0.881683  0.709868  1
