# generated using pymatgen
data_SiO2
_symmetry_space_group_name_H-M   'P 1'
_cell_length_a   7.21342400
_cell_length_b   7.21342400
_cell_length_c   42.29034175
_cell_angle_alpha   90.00000000
_cell_angle_beta   90.00000000
_cell_angle_gamma   90.00000000
_symmetry_Int_Tables_number   1
_chemical_formula_structural   SiO2
_chemical_formula_sum   'Si36 O72'
_cell_volume   2200.51389709
_cell_formula_units_Z   36
loop_
 _symmetry_equiv_pos_site_id
 _symmetry_equiv_pos_as_xyz
  1  'x, y, z'
loop_
 _atom_site_type_symbol
 _atom_site_label
 _atom_site_symmetry_multiplicity
 _atom_site_fract_x
 _atom_site_fract_y
 _atom_site_fract_z
 _atom_site_occupancy
  Si  Si0  1  0.293056  0.000000  0.189123  1
  Si  Si1  1  0.500000  0.293056  0.939123  1
  Si  Si2  1  0.500000  0.706944  0.939123  1
  Si  Si3  1  0.793056  0.000000  0.560877  1
  Si  Si4  1  0.206944  0.000000  0.560877  1
  Si  Si5  1  0.706944  0.000000  0.189123  1
  Si  Si6  1  0.000000  0.293056  0.810877  1
  Si  Si7  1  0.000000  0.706944  0.810877  1
  Si  Si8  1  0.793056  0.500000  0.689123  1
  Si  Si9  1  0.000000  0.793056  0.439123  1
  Si  Si10  1  0.000000  0.206944  0.439123  1
  Si  Si11  1  0.293056  0.500000  0.060877  1
  Si  Si12  1  0.706944  0.500000  0.060877  1
  Si  Si13  1  0.206944  0.500000  0.689123  1
  Si  Si14  1  0.500000  0.793056  0.310877  1
  Si  Si15  1  0.500000  0.206944  0.310877  1
  Si  Si16  1  0.000000  0.219025  0.087029  1
  Si  Si17  1  0.280975  0.000000  0.837029  1
  Si  Si18  1  0.719025  0.000000  0.837029  1
  Si  Si19  1  0.500000  0.780975  0.662971  1
  Si  Si20  1  0.500000  0.219025  0.662971  1
  Si  Si21  1  0.000000  0.780975  0.087029  1
  Si  Si22  1  0.219025  0.000000  0.912971  1
  Si  Si23  1  0.780975  0.000000  0.912971  1
  Si  Si24  1  0.500000  0.719025  0.587029  1
  Si  Si25  1  0.780975  0.500000  0.337029  1
  Si  Si26  1  0.219025  0.500000  0.337029  1
  Si  Si27  1  0.000000  0.280975  0.162971  1
  Si  Si28  1  0.000000  0.719025  0.162971  1
  Si  Si29  1  0.500000  0.280975  0.587029  1
  Si  Si30  1  0.719025  0.500000  0.412971  1
  Si  Si31  1  0.280975  0.500000  0.412971  1
  Si  Si32  1  0.500000  0.000000  0.250000  1
  Si  Si33  1  0.500000  0.500000  0.000000  1
  Si  Si34  1  0.000000  0.000000  0.500000  1
  Si  Si35  1  0.000000  0.500000  0.750000  1
  O  O36  1  0.315251  0.000000  0.227682  1
  O  O37  1  0.500000  0.315251  0.977682  1
  O  O38  1  0.500000  0.684749  0.977682  1
  O  O39  1  0.815251  0.000000  0.522318  1
  O  O40  1  0.184749  0.000000  0.522318  1
  O  O41  1  0.684749  0.000000  0.227682  1
  O  O42  1  0.000000  0.315251  0.772318  1
  O  O43  1  0.000000  0.684749  0.772318  1
  O  O44  1  0.815251  0.500000  0.727682  1
  O  O45  1  0.000000  0.815251  0.477682  1
  O  O46  1  0.000000  0.184749  0.477682  1
  O  O47  1  0.315251  0.500000  0.022318  1
  O  O48  1  0.684749  0.500000  0.022318  1
  O  O49  1  0.184749  0.500000  0.727682  1
  O  O50  1  0.500000  0.815251  0.272318  1
  O  O51  1  0.500000  0.184749  0.272318  1
  O  O52  1  0.183884  0.814304  0.178200  1
  O  O53  1  0.685696  0.183884  0.928200  1
  O  O54  1  0.314304  0.816116  0.928200  1
  O  O55  1  0.683884  0.185696  0.571800  1
  O  O56  1  0.316116  0.814304  0.571800  1
  O  O57  1  0.816116  0.185696  0.178200  1
  O  O58  1  0.814304  0.183884  0.821800  1
  O  O59  1  0.185696  0.816116  0.821800  1
  O  O60  1  0.316116  0.185696  0.571800  1
  O  O61  1  0.814304  0.816116  0.821800  1
  O  O62  1  0.185696  0.183884  0.821800  1
  O  O63  1  0.816116  0.814304  0.178200  1
  O  O64  1  0.183884  0.185696  0.178200  1
  O  O65  1  0.683884  0.814304  0.571800  1
  O  O66  1  0.685696  0.816116  0.928200  1
  O  O67  1  0.314304  0.183884  0.928200  1
  O  O68  1  0.683884  0.314304  0.678200  1
  O  O69  1  0.185696  0.683884  0.428200  1
  O  O70  1  0.814304  0.316116  0.428200  1
  O  O71  1  0.183884  0.685696  0.071800  1
  O  O72  1  0.816116  0.314304  0.071800  1
  O  O73  1  0.316116  0.685696  0.678200  1
  O  O74  1  0.314304  0.683884  0.321800  1
  O  O75  1  0.685696  0.316116  0.321800  1
  O  O76  1  0.816116  0.685696  0.071800  1
  O  O77  1  0.314304  0.316116  0.321800  1
  O  O78  1  0.685696  0.683884  0.321800  1
  O  O79  1  0.316116  0.314304  0.678200  1
  O  O80  1  0.683884  0.685696  0.678200  1
  O  O81  1  0.183884  0.314304  0.071800  1
  O  O82  1  0.185696  0.316116  0.428200  1
  O  O83  1  0.814304  0.683884  0.428200  1
  O  O84  1  0.500000  0.000000  0.173390  1
  O  O85  1  0.500000  0.500000  0.923390  1
  O  O86  1  0.000000  0.000000  0.576610  1
  O  O87  1  0.000000  0.500000  0.826610  1
  O  O88  1  0.000000  0.500000  0.673390  1
  O  O89  1  0.000000  0.000000  0.423390  1
  O  O90  1  0.500000  0.500000  0.076610  1
  O  O91  1  0.500000  0.000000  0.326610  1
  O  O92  1  0.000000  0.000000  0.078697  1
  O  O93  1  0.500000  0.000000  0.828697  1
  O  O94  1  0.500000  0.000000  0.671303  1
  O  O95  1  0.000000  0.000000  0.921303  1
  O  O96  1  0.500000  0.500000  0.578697  1
  O  O97  1  0.000000  0.500000  0.328697  1
  O  O98  1  0.000000  0.500000  0.171303  1
  O  O99  1  0.500000  0.500000  0.421303  1
  O  O100  1  0.000000  0.250000  0.125000  1
  O  O101  1  0.250000  0.000000  0.875000  1
  O  O102  1  0.750000  0.000000  0.875000  1
  O  O103  1  0.500000  0.750000  0.625000  1
  O  O104  1  0.500000  0.250000  0.625000  1
  O  O105  1  0.000000  0.750000  0.125000  1
  O  O106  1  0.750000  0.500000  0.375000  1
  O  O107  1  0.250000  0.500000  0.375000  1
