# generated using pymatgen
data_Ho5NiSb2
_symmetry_space_group_name_H-M   'P 1'
_cell_length_a   7.88184115
_cell_length_b   8.81454280
_cell_length_c   12.02321010
_cell_angle_alpha   89.99997499
_cell_angle_beta   89.98955850
_cell_angle_gamma   90.00103000
_symmetry_Int_Tables_number   1
_chemical_formula_structural   Ho5NiSb2
_chemical_formula_sum   'Ho20 Ni4 Sb8'
_cell_volume   835.31041792
_cell_formula_units_Z   4
loop_
 _symmetry_equiv_pos_site_id
 _symmetry_equiv_pos_as_xyz
  1  'x, y, z'
loop_
 _atom_site_type_symbol
 _atom_site_label
 _atom_site_symmetry_multiplicity
 _atom_site_fract_x
 _atom_site_fract_y
 _atom_site_fract_z
 _atom_site_occupancy
  Ho  Ho0  1  0.320372  0.043304  0.565062  1
  Ho  Ho1  1  0.873028  0.750003  0.198866  1
  Ho  Ho2  1  0.179553  0.043230  0.065034  1
  Ho  Ho3  1  0.320372  0.456695  0.565062  1
  Ho  Ho4  1  0.126961  0.250000  0.801120  1
  Ho  Ho5  1  0.840780  0.250001  0.207223  1
  Ho  Ho6  1  0.372992  0.250000  0.301040  1
  Ho  Ho7  1  0.955361  0.249999  0.499337  1
  Ho  Ho8  1  0.455361  0.750000  0.000651  1
  Ho  Ho9  1  0.679600  0.956806  0.434934  1
  Ho  Ho10  1  0.820419  0.543249  0.934975  1
  Ho  Ho11  1  0.659166  0.249999  0.707229  1
  Ho  Ho12  1  0.544588  0.249999  0.999355  1
  Ho  Ho13  1  0.044551  0.750000  0.500651  1
  Ho  Ho14  1  0.679599  0.543195  0.434930  1
  Ho  Ho15  1  0.179555  0.456770  0.065034  1
  Ho  Ho16  1  0.627046  0.750000  0.699012  1
  Ho  Ho17  1  0.340761  0.750001  0.292690  1
  Ho  Ho18  1  0.820421  0.956755  0.934978  1
  Ho  Ho19  1  0.159167  0.749999  0.792817  1
  Ni  Ni20  1  0.917302  0.249996  0.983637  1
  Ni  Ni21  1  0.582948  0.249997  0.483469  1
  Ni  Ni22  1  0.082974  0.750000  0.016540  1
  Ni  Ni23  1  0.417295  0.750002  0.516347  1
  Sb  Sb24  1  0.929416  0.990541  0.673089  1
  Sb  Sb25  1  0.429412  0.009478  0.826939  1
  Sb  Sb26  1  0.429414  0.490520  0.826938  1
  Sb  Sb27  1  0.570544  0.990532  0.173064  1
  Sb  Sb28  1  0.070541  0.009464  0.326911  1
  Sb  Sb29  1  0.570543  0.509468  0.173065  1
  Sb  Sb30  1  0.929415  0.509461  0.673089  1
  Sb  Sb31  1  0.070542  0.490536  0.326911  1
