# generated using pymatgen
data_KCu2H2(SeO5)2
_symmetry_space_group_name_H-M   'P 1'
_cell_length_a   6.41214375
_cell_length_b   6.41214375
_cell_length_c   8.47691156
_cell_angle_alpha   60.21425762
_cell_angle_beta   119.78574238
_cell_angle_gamma   117.65678068
_symmetry_Int_Tables_number   1
_chemical_formula_structural   KCu2H2(SeO5)2
_chemical_formula_sum   'K1 Cu2 H2 Se2 O10'
_cell_volume   251.35321754
_cell_formula_units_Z   1
loop_
 _symmetry_equiv_pos_site_id
 _symmetry_equiv_pos_as_xyz
  1  'x, y, z'
loop_
 _atom_site_type_symbol
 _atom_site_label
 _atom_site_symmetry_multiplicity
 _atom_site_fract_x
 _atom_site_fract_y
 _atom_site_fract_z
 _atom_site_occupancy
  K  K0  1  0.500000  0.500000  0.500000  1
  Cu  Cu1  1  0.000000  0.500000  0.000000  1
  Cu  Cu2  1  0.500000  0.000000  0.000000  1
  H  H3  1  0.297646  0.702353  0.625236  1
  H  H4  1  0.702353  0.297646  0.374764  1
  Se  Se5  1  0.918563  0.081437  0.694203  1
  Se  Se6  1  0.081437  0.918563  0.305797  1
  O  O7  1  0.806282  0.193718  0.764104  1
  O  O8  1  0.193718  0.806282  0.235896  1
  O  O9  1  0.809918  0.190082  0.433006  1
  O  O10  1  0.190082  0.809918  0.566994  1
  O  O11  1  0.229455  0.191401  0.749611  1
  O  O12  1  0.808599  0.770545  0.749611  1
  O  O13  1  0.770545  0.808599  0.250389  1
  O  O14  1  0.191401  0.229455  0.250389  1
  O  O15  1  0.307365  0.692635  0.989906  1
  O  O16  1  0.692635  0.307365  0.010094  1
