# generated using pymatgen
data_Sb16Te3
_symmetry_space_group_name_H-M   'P 1'
_cell_length_a   36.65335917
_cell_length_b   36.65335904
_cell_length_c   36.65335986
_cell_angle_alpha   6.88843624
_cell_angle_beta   6.88843787
_cell_angle_gamma   6.88843730
_symmetry_Int_Tables_number   1
_chemical_formula_structural   Sb16Te3
_chemical_formula_sum   'Sb16 Te3'
_cell_volume   614.18250521
_cell_formula_units_Z   1
loop_
 _symmetry_equiv_pos_site_id
 _symmetry_equiv_pos_as_xyz
  1  'x, y, z'
loop_
 _atom_site_type_symbol
 _atom_site_label
 _atom_site_symmetry_multiplicity
 _atom_site_fract_x
 _atom_site_fract_y
 _atom_site_fract_z
 _atom_site_occupancy
  Sb  Sb0  1  0.208089  0.208089  0.208089  1
  Sb  Sb1  1  0.315139  0.315139  0.315139  1
  Sb  Sb2  1  0.055823  0.055823  0.055823  1
  Sb  Sb3  1  0.576233  0.576233  0.576233  1
  Sb  Sb4  1  0.896199  0.896199  0.896199  1
  Sb  Sb5  1  0.264013  0.264013  0.264013  1
  Sb  Sb6  1  0.944177  0.944177  0.944177  1
  Sb  Sb7  1  0.471932  0.471932  0.471932  1
  Sb  Sb8  1  0.103801  0.103801  0.103801  1
  Sb  Sb9  1  0.840000  0.840000  0.840000  1
  Sb  Sb10  1  0.528068  0.528068  0.528068  1
  Sb  Sb11  1  0.735987  0.735987  0.735987  1
  Sb  Sb12  1  0.791911  0.791911  0.791911  1
  Sb  Sb13  1  0.160000  0.160000  0.160000  1
  Sb  Sb14  1  0.423767  0.423767  0.423767  1
  Sb  Sb15  1  0.684861  0.684861  0.684861  1
  Te  Te16  1  0.633216  0.633216  0.633216  1
  Te  Te17  1  0.000000  0.000000  0.000000  1
  Te  Te18  1  0.366784  0.366784  0.366784  1
