# generated using pymatgen
data_CoAg3(CN)6
_symmetry_space_group_name_H-M   'P 1'
_cell_length_a   7.48897715
_cell_length_b   7.48897715
_cell_length_c   6.80579227
_cell_angle_alpha   90.00000000
_cell_angle_beta   90.00000000
_cell_angle_gamma   120.00000003
_symmetry_Int_Tables_number   1
_chemical_formula_structural   CoAg3(CN)6
_chemical_formula_sum   'Co1 Ag3 C6 N6'
_cell_volume   330.56306895
_cell_formula_units_Z   1
loop_
 _symmetry_equiv_pos_site_id
 _symmetry_equiv_pos_as_xyz
  1  'x, y, z'
loop_
 _atom_site_type_symbol
 _atom_site_label
 _atom_site_symmetry_multiplicity
 _atom_site_fract_x
 _atom_site_fract_y
 _atom_site_fract_z
 _atom_site_occupancy
  C  C0  1  0.799005  0.000000  0.836808  1
  C  C1  1  0.200995  0.200995  0.836808  1
  C  C2  1  0.000000  0.799005  0.836808  1
  C  C3  1  0.799005  0.799005  0.163192  1
  C  C4  1  0.200995  0.000000  0.163192  1
  C  C5  1  0.000000  0.200995  0.163192  1
  N  N6  1  0.679018  0.679018  0.273056  1
  N  N7  1  0.000000  0.679018  0.726944  1
  N  N8  1  0.320982  0.320982  0.726944  1
  N  N9  1  0.679018  0.000000  0.726944  1
  N  N10  1  0.320982  0.000000  0.273056  1
  N  N11  1  0.000000  0.320982  0.273056  1
  Co  Co12  1  0.000000  0.000000  0.000000  1
  Ag  Ag13  1  0.500000  0.500000  0.500000  1
  Ag  Ag14  1  0.000000  0.500000  0.500000  1
  Ag  Ag15  1  0.500000  0.000000  0.500000  1
