# generated using pymatgen
data_FeSbPt
_symmetry_space_group_name_H-M   'P 1'
_cell_length_a   6.13797115
_cell_length_b   6.13910947
_cell_length_c   6.14077311
_cell_angle_alpha   90.03087303
_cell_angle_beta   89.98043962
_cell_angle_gamma   90.00340825
_symmetry_Int_Tables_number   1
_chemical_formula_structural   FeSbPt
_chemical_formula_sum   'Fe4 Sb4 Pt4'
_cell_volume   231.39458023
_cell_formula_units_Z   4
loop_
 _symmetry_equiv_pos_site_id
 _symmetry_equiv_pos_as_xyz
  1  'x, y, z'
loop_
 _atom_site_type_symbol
 _atom_site_label
 _atom_site_symmetry_multiplicity
 _atom_site_fract_x
 _atom_site_fract_y
 _atom_site_fract_z
 _atom_site_occupancy
  Fe  Fe0  1  0.121595  0.878215  0.378090  1
  Fe  Fe1  1  0.878306  0.378443  0.121615  1
  Fe  Fe2  1  0.621685  0.621814  0.621778  1
  Fe  Fe3  1  0.378514  0.121458  0.878401  1
  Sb  Sb4  1  0.613391  0.886566  0.113416  1
  Sb  Sb5  1  0.113260  0.613301  0.886721  1
  Sb  Sb6  1  0.886684  0.113245  0.613434  1
  Sb  Sb7  1  0.386952  0.386838  0.386780  1
  Pt  Pt8  1  0.966985  0.532855  0.467087  1
  Pt  Pt9  1  0.466879  0.967066  0.532774  1
  Pt  Pt10  1  0.532872  0.467073  0.967004  1
  Pt  Pt11  1  0.032878  0.033126  0.032898  1
