# generated using pymatgen
data_Li2UBr6
_symmetry_space_group_name_H-M   'P 1'
_cell_length_a   7.11379848
_cell_length_b   28.04034714
_cell_length_c   7.15687368
_cell_angle_alpha   59.30487923
_cell_angle_beta   110.70383343
_cell_angle_gamma   100.39714549
_symmetry_Int_Tables_number   1
_chemical_formula_structural   Li2UBr6
_chemical_formula_sum   'Li8 U4 Br24'
_cell_volume   1148.31469846
_cell_formula_units_Z   4
loop_
 _symmetry_equiv_pos_site_id
 _symmetry_equiv_pos_as_xyz
  1  'x, y, z'
loop_
 _atom_site_type_symbol
 _atom_site_label
 _atom_site_symmetry_multiplicity
 _atom_site_fract_x
 _atom_site_fract_y
 _atom_site_fract_z
 _atom_site_occupancy
  Li  Li0  1  0.000000  0.914863  0.670274  1
  Li  Li1  1  0.000000  0.833748  0.332504  1
  Li  Li2  1  0.000000  0.416710  0.666580  1
  Li  Li3  1  0.500000  0.577892  0.844215  1
  Li  Li4  1  0.500000  0.671139  0.157722  1
  Li  Li5  1  0.500000  0.329179  0.841642  1
  Li  Li6  1  0.500000  0.079830  0.840339  1
  Li  Li7  1  0.500000  0.171690  0.156621  1
  U  U8  1  0.000000  0.748844  0.002312  1
  U  U9  1  0.000000  0.499693  0.000614  1
  U  U10  1  0.000000  0.249133  0.001734  1
  U  U11  1  0.000000  0.001272  0.997456  1
  Br  Br12  1  0.233549  0.749662  0.757025  1
  Br  Br13  1  0.228055  0.916595  0.415904  1
  Br  Br14  1  0.232084  0.500601  0.755810  1
  Br  Br15  1  0.230503  0.832692  0.081317  1
  Br  Br16  1  0.266248  0.668278  0.388207  1
  Br  Br17  1  0.771945  0.916595  0.917714  1
  Br  Br18  1  0.246277  0.250110  0.765282  1
  Br  Br19  1  0.266897  0.581754  0.058996  1
  Br  Br20  1  0.234704  0.419091  0.420521  1
  Br  Br21  1  0.769497  0.832692  0.587914  1
  Br  Br22  1  0.733752  0.668278  0.938681  1
  Br  Br23  1  0.231292  0.000230  0.756358  1
  Br  Br24  1  0.768708  0.000230  0.242723  1
  Br  Br25  1  0.254140  0.334052  0.054091  1
  Br  Br26  1  0.263625  0.168027  0.393053  1
  Br  Br27  1  0.733103  0.581754  0.613987  1
  Br  Br28  1  0.765296  0.419091  0.903116  1
  Br  Br29  1  0.766451  0.749662  0.244326  1
  Br  Br30  1  0.269153  0.081911  0.062351  1
  Br  Br31  1  0.745860  0.334052  0.609699  1
  Br  Br32  1  0.736375  0.168027  0.934841  1
  Br  Br33  1  0.767916  0.500601  0.241787  1
  Br  Br34  1  0.730847  0.081911  0.610005  1
  Br  Br35  1  0.753723  0.250110  0.234279  1
