# generated using pymatgen
data_U3As4
_symmetry_space_group_name_H-M   'P 1'
_cell_length_a   7.35953704
_cell_length_b   7.35953704
_cell_length_c   7.35953704
_cell_angle_alpha   109.47122061
_cell_angle_beta   109.47122062
_cell_angle_gamma   109.47122065
_symmetry_Int_Tables_number   1
_chemical_formula_structural   U3As4
_chemical_formula_sum   'U6 As8'
_cell_volume   306.85245006
_cell_formula_units_Z   2
loop_
 _symmetry_equiv_pos_site_id
 _symmetry_equiv_pos_as_xyz
  1  'x, y, z'
loop_
 _atom_site_type_symbol
 _atom_site_label
 _atom_site_symmetry_multiplicity
 _atom_site_fract_x
 _atom_site_fract_y
 _atom_site_fract_z
 _atom_site_occupancy
  As  As0  1  0.658286  0.658286  0.658286  1
  As  As1  1  0.341714  0.500000  0.000000  1
  As  As2  1  0.500000  0.000000  0.341714  1
  As  As3  1  0.000000  0.341714  0.500000  1
  As  As4  1  0.500000  0.000000  0.841714  1
  As  As5  1  0.000000  0.841714  0.500000  1
  As  As6  1  0.158286  0.158286  0.158286  1
  As  As7  1  0.841714  0.500000  0.000000  1
  U  U8  1  0.750000  0.875000  0.125000  1
  U  U9  1  0.625000  0.375000  0.250000  1
  U  U10  1  0.875000  0.125000  0.750000  1
  U  U11  1  0.125000  0.750000  0.875000  1
  U  U12  1  0.375000  0.250000  0.625000  1
  U  U13  1  0.250000  0.625000  0.375000  1
