# generated using pymatgen
data_Cs3AlP2
_symmetry_space_group_name_H-M   'P 1'
_cell_length_a   8.76759212
_cell_length_b   11.42269954
_cell_length_c   19.23268310
_cell_angle_alpha   100.36024420
_cell_angle_beta   90.00000000
_cell_angle_gamma   90.00000000
_symmetry_Int_Tables_number   1
_chemical_formula_structural   Cs3AlP2
_chemical_formula_sum   'Cs24 Al8 P16'
_cell_volume   1894.74202998
_cell_formula_units_Z   8
loop_
 _symmetry_equiv_pos_site_id
 _symmetry_equiv_pos_as_xyz
  1  'x, y, z'
loop_
 _atom_site_type_symbol
 _atom_site_label
 _atom_site_symmetry_multiplicity
 _atom_site_fract_x
 _atom_site_fract_y
 _atom_site_fract_z
 _atom_site_occupancy
  Cs  Cs0  1  0.931318  0.376199  0.111472  1
  Cs  Cs1  1  0.257314  0.639261  0.711069  1
  Cs  Cs2  1  0.913289  0.735796  0.078797  1
  Cs  Cs3  1  0.568682  0.376199  0.611471  1
  Cs  Cs4  1  0.881251  0.710224  0.338874  1
  Cs  Cs5  1  0.586711  0.735796  0.578797  1
  Cs  Cs6  1  0.524640  0.150135  0.967372  1
  Cs  Cs7  1  0.442026  0.082215  0.743979  1
  Cs  Cs8  1  0.068682  0.623801  0.888529  1
  Cs  Cs9  1  0.475360  0.849865  0.032628  1
  Cs  Cs10  1  0.618749  0.710224  0.838874  1
  Cs  Cs11  1  0.118749  0.289776  0.661126  1
  Cs  Cs12  1  0.757314  0.360739  0.788931  1
  Cs  Cs13  1  0.242686  0.639261  0.211069  1
  Cs  Cs14  1  0.413289  0.264204  0.421203  1
  Cs  Cs15  1  0.057974  0.082215  0.243979  1
  Cs  Cs16  1  0.381251  0.289776  0.161126  1
  Cs  Cs17  1  0.024640  0.849865  0.532628  1
  Cs  Cs18  1  0.942026  0.917785  0.756021  1
  Cs  Cs19  1  0.086711  0.264204  0.921203  1
  Cs  Cs20  1  0.557974  0.917785  0.256021  1
  Cs  Cs21  1  0.975360  0.150135  0.467372  1
  Cs  Cs22  1  0.742686  0.360739  0.288931  1
  Cs  Cs23  1  0.431318  0.623801  0.388528  1
  Al  Al24  1  0.946577  0.536075  0.572636  1
  Al  Al25  1  0.887347  0.043330  0.054547  1
  Al  Al26  1  0.553423  0.536075  0.072636  1
  Al  Al27  1  0.112653  0.956670  0.945453  1
  Al  Al28  1  0.612653  0.043330  0.554547  1
  Al  Al29  1  0.387347  0.956670  0.445453  1
  Al  Al30  1  0.446577  0.463925  0.927364  1
  Al  Al31  1  0.053423  0.463925  0.427364  1
  P  P32  1  0.656251  0.946215  0.437278  1
  P  P33  1  0.202002  0.506280  0.531662  1
  P  P34  1  0.787006  0.103629  0.639884  1
  P  P35  1  0.361323  0.404493  0.814648  1
  P  P36  1  0.843749  0.946215  0.937278  1
  P  P37  1  0.797998  0.493720  0.468338  1
  P  P38  1  0.712994  0.103629  0.139884  1
  P  P39  1  0.861323  0.595507  0.685352  1
  P  P40  1  0.702002  0.493720  0.968338  1
  P  P41  1  0.138677  0.404493  0.314648  1
  P  P42  1  0.343749  0.053785  0.562722  1
  P  P43  1  0.156251  0.053785  0.062722  1
  P  P44  1  0.297998  0.506280  0.031662  1
  P  P45  1  0.287006  0.896371  0.860116  1
  P  P46  1  0.212994  0.896371  0.360116  1
  P  P47  1  0.638677  0.595507  0.185352  1
