# generated using pymatgen
data_BaVCdP2O9
_symmetry_space_group_name_H-M   'P 1'
_cell_length_a   8.94382452
_cell_length_b   9.03930068
_cell_length_c   19.74939126
_cell_angle_alpha   90.00000000
_cell_angle_beta   90.00000000
_cell_angle_gamma   90.00000000
_symmetry_Int_Tables_number   1
_chemical_formula_structural   BaVCdP2O9
_chemical_formula_sum   'Ba8 V8 Cd8 P16 O72'
_cell_volume   1596.65768740
_cell_formula_units_Z   8
loop_
 _symmetry_equiv_pos_site_id
 _symmetry_equiv_pos_as_xyz
  1  'x, y, z'
loop_
 _atom_site_type_symbol
 _atom_site_label
 _atom_site_symmetry_multiplicity
 _atom_site_fract_x
 _atom_site_fract_y
 _atom_site_fract_z
 _atom_site_occupancy
  Ba  Ba0  1  0.819331  0.481858  0.082032  1
  Ba  Ba1  1  0.680669  0.518142  0.582032  1
  Ba  Ba2  1  0.680669  0.981858  0.082032  1
  Ba  Ba3  1  0.819331  0.018142  0.582032  1
  Ba  Ba4  1  0.180669  0.981858  0.417968  1
  Ba  Ba5  1  0.319331  0.018142  0.917968  1
  Ba  Ba6  1  0.180669  0.518142  0.917968  1
  Ba  Ba7  1  0.319331  0.481858  0.417968  1
  V  V8  1  0.500798  0.144976  0.274489  1
  V  V9  1  0.000798  0.355024  0.725511  1
  V  V10  1  0.500798  0.355024  0.774489  1
  V  V11  1  0.999202  0.855024  0.774489  1
  V  V12  1  0.000798  0.144976  0.225511  1
  V  V13  1  0.999202  0.644976  0.274489  1
  V  V14  1  0.499202  0.644976  0.225511  1
  V  V15  1  0.499202  0.855024  0.725511  1
  Cd  Cd16  1  0.178866  0.623151  0.589942  1
  Cd  Cd17  1  0.678866  0.876849  0.410058  1
  Cd  Cd18  1  0.678866  0.623151  0.910058  1
  Cd  Cd19  1  0.321134  0.376849  0.089942  1
  Cd  Cd20  1  0.321134  0.123151  0.589942  1
  Cd  Cd21  1  0.178866  0.876849  0.089942  1
  Cd  Cd22  1  0.821134  0.376849  0.410058  1
  Cd  Cd23  1  0.821134  0.123151  0.910058  1
  P  P24  1  0.442181  0.708854  0.023261  1
  P  P25  1  0.752544  0.392849  0.253725  1
  P  P26  1  0.747456  0.892849  0.253725  1
  P  P27  1  0.442181  0.791146  0.523261  1
  P  P28  1  0.942181  0.791146  0.976739  1
  P  P29  1  0.247456  0.607151  0.746275  1
  P  P30  1  0.247456  0.892849  0.246275  1
  P  P31  1  0.557819  0.291146  0.976739  1
  P  P32  1  0.752544  0.107151  0.753725  1
  P  P33  1  0.057819  0.291146  0.523261  1
  P  P34  1  0.557819  0.208854  0.476739  1
  P  P35  1  0.747456  0.607151  0.753725  1
  P  P36  1  0.942181  0.708854  0.476739  1
  P  P37  1  0.252544  0.392849  0.246275  1
  P  P38  1  0.252544  0.107151  0.746275  1
  P  P39  1  0.057819  0.208854  0.023261  1
  O  O40  1  0.850791  0.197207  0.704091  1
  O  O41  1  0.903313  0.875198  0.460581  1
  O  O42  1  0.647730  0.984954  0.303544  1
  O  O43  1  0.403313  0.624802  0.539419  1
  O  O44  1  0.544813  0.195334  0.555878  1
  O  O45  1  0.352270  0.015046  0.696456  1
  O  O46  1  0.596687  0.375198  0.460581  1
  O  O47  1  0.409885  0.169964  0.441038  1
  O  O48  1  0.987247  0.859137  0.692365  1
  O  O49  1  0.455187  0.695334  0.944122  1
  O  O50  1  0.305988  0.885242  0.546975  1
  O  O51  1  0.487247  0.640863  0.307635  1
  O  O52  1  0.149209  0.697207  0.795909  1
  O  O53  1  0.590115  0.830036  0.558962  1
  O  O54  1  0.352270  0.484954  0.196456  1
  O  O55  1  0.659040  0.293956  0.301526  1
  O  O56  1  0.340619  0.994652  0.292805  1
  O  O57  1  0.487247  0.859137  0.807635  1
  O  O58  1  0.350791  0.302793  0.295909  1
  O  O59  1  0.194012  0.114758  0.046975  1
  O  O60  1  0.403313  0.875198  0.039419  1
  O  O61  1  0.805988  0.614758  0.453025  1
  O  O62  1  0.850791  0.302793  0.204091  1
  O  O63  1  0.512753  0.359137  0.692365  1
  O  O64  1  0.090115  0.830036  0.941038  1
  O  O65  1  0.903313  0.624802  0.960581  1
  O  O66  1  0.159381  0.494652  0.292805  1
  O  O67  1  0.659381  0.005348  0.707195  1
  O  O68  1  0.647730  0.515046  0.803544  1
  O  O69  1  0.852270  0.484954  0.303544  1
  O  O70  1  0.840619  0.505348  0.707195  1
  O  O71  1  0.409885  0.330036  0.941038  1
  O  O72  1  0.955187  0.804666  0.055878  1
  O  O73  1  0.659381  0.494652  0.207195  1
  O  O74  1  0.350791  0.197207  0.795909  1
  O  O75  1  0.147730  0.515046  0.696456  1
  O  O76  1  0.909885  0.330036  0.558962  1
  O  O77  1  0.159040  0.293956  0.198474  1
  O  O78  1  0.694012  0.385242  0.953025  1
  O  O79  1  0.044813  0.195334  0.944122  1
  O  O80  1  0.096687  0.375198  0.039419  1
  O  O81  1  0.544813  0.304666  0.055878  1
  O  O82  1  0.149209  0.802793  0.295909  1
  O  O83  1  0.012753  0.140863  0.307635  1
  O  O84  1  0.694012  0.114758  0.453025  1
  O  O85  1  0.159381  0.005348  0.792805  1
  O  O86  1  0.194012  0.385242  0.546975  1
  O  O87  1  0.147730  0.984954  0.196456  1
  O  O88  1  0.590115  0.669964  0.058962  1
  O  O89  1  0.659040  0.206044  0.801526  1
  O  O90  1  0.840619  0.994652  0.207195  1
  O  O91  1  0.805988  0.885242  0.953025  1
  O  O92  1  0.305988  0.614758  0.046975  1
  O  O93  1  0.840960  0.793956  0.301526  1
  O  O94  1  0.340960  0.793956  0.198474  1
  O  O95  1  0.090115  0.669964  0.441038  1
  O  O96  1  0.159040  0.206044  0.698474  1
  O  O97  1  0.044813  0.304666  0.444122  1
  O  O98  1  0.340619  0.505348  0.792805  1
  O  O99  1  0.649209  0.697207  0.704091  1
  O  O100  1  0.096687  0.124802  0.539419  1
  O  O101  1  0.512753  0.140863  0.192365  1
  O  O102  1  0.340960  0.706044  0.698474  1
  O  O103  1  0.852270  0.015046  0.803544  1
  O  O104  1  0.955187  0.695334  0.555878  1
  O  O105  1  0.649209  0.802793  0.204091  1
  O  O106  1  0.909885  0.169964  0.058962  1
  O  O107  1  0.987247  0.640863  0.192365  1
  O  O108  1  0.455187  0.804666  0.444122  1
  O  O109  1  0.596687  0.124802  0.960581  1
  O  O110  1  0.840960  0.706044  0.801526  1
  O  O111  1  0.012753  0.359137  0.807635  1
