# generated using pymatgen
data_AgC3N3O2
_symmetry_space_group_name_H-M   'P 1'
_cell_length_a   7.90055525
_cell_length_b   15.42834372
_cell_length_c   19.07903898
_cell_angle_alpha   69.13337618
_cell_angle_beta   78.16555046
_cell_angle_gamma   75.11346673
_symmetry_Int_Tables_number   1
_chemical_formula_structural   AgC3N3O2
_chemical_formula_sum   'Ag16 C48 N48 O32'
_cell_volume   2083.44912734
_cell_formula_units_Z   16
loop_
 _symmetry_equiv_pos_site_id
 _symmetry_equiv_pos_as_xyz
  1  'x, y, z'
loop_
 _atom_site_type_symbol
 _atom_site_label
 _atom_site_symmetry_multiplicity
 _atom_site_fract_x
 _atom_site_fract_y
 _atom_site_fract_z
 _atom_site_occupancy
  Ag  Ag0  1  0.631018  0.434436  0.787093  1
  Ag  Ag1  1  0.852611  0.068031  0.711158  1
  Ag  Ag2  1  0.092535  0.140396  0.077561  1
  Ag  Ag3  1  0.159997  0.419162  0.948749  1
  Ag  Ag4  1  0.910716  0.860776  0.922227  1
  Ag  Ag5  1  0.475445  0.920751  0.446796  1
  Ag  Ag6  1  0.778332  0.452053  0.323440  1
  Ag  Ag7  1  0.227503  0.546081  0.677701  1
  Ag  Ag8  1  0.687903  0.644919  0.576425  1
  Ag  Ag9  1  0.443164  0.953967  0.820862  1
  Ag  Ag10  1  0.844032  0.576215  0.052531  1
  Ag  Ag11  1  0.370663  0.567738  0.210158  1
  Ag  Ag12  1  0.147387  0.934691  0.287969  1
  Ag  Ag13  1  0.311588  0.358932  0.421382  1
  Ag  Ag14  1  0.548513  0.047213  0.177216  1
  Ag  Ag15  1  0.527676  0.079143  0.550791  1
  C  C16  1  0.195099  0.324129  0.216108  1
  C  C17  1  0.094431  0.084797  0.387714  1
  C  C18  1  0.630449  0.111098  0.333657  1
  C  C19  1  0.806384  0.676835  0.783680  1
  C  C20  1  0.761444  0.392142  0.540454  1
  C  C21  1  0.277259  0.582006  0.394262  1
  C  C22  1  0.516317  0.121289  0.993398  1
  C  C23  1  0.308037  0.891704  0.039523  1
  C  C24  1  0.692747  0.755518  0.340088  1
  C  C25  1  0.371942  0.887703  0.668464  1
  C  C26  1  0.819483  0.845037  0.531203  1
  C  C27  1  0.306861  0.245173  0.660365  1
  C  C28  1  0.272324  0.159014  0.846092  1
  C  C29  1  0.483611  0.878995  0.005952  1
  C  C30  1  0.964569  0.700365  0.165122  1
  C  C31  1  0.786710  0.745227  0.160982  1
  C  C32  1  0.566432  0.415897  0.112329  1
  C  C33  1  0.908778  0.915504  0.612050  1
  C  C34  1  0.720109  0.418694  0.606028  1
  C  C35  1  0.744550  0.083467  0.894102  1
  C  C36  1  0.238584  0.607374  0.460302  1
  C  C37  1  0.367126  0.622710  0.492931  1
  C  C38  1  0.257393  0.740863  0.704696  1
  C  C39  1  0.829605  0.801166  0.335765  1
  C  C40  1  0.720594  0.660282  0.345206  1
  C  C41  1  0.192408  0.654536  0.970764  1
  C  C42  1  0.945935  0.872916  0.555287  1
  C  C43  1  0.258537  0.916289  0.105884  1
  C  C44  1  0.034236  0.300773  0.835120  1
  C  C45  1  0.806626  0.347034  0.030248  1
  C  C46  1  0.923991  0.611632  0.832953  1
  C  C47  1  0.631619  0.378724  0.507115  1
  C  C48  1  0.692941  0.108378  0.960451  1
  C  C49  1  0.075602  0.387494  0.166963  1
  C  C50  1  0.432521  0.584308  0.889303  1
  C  C51  1  0.724953  0.840763  0.155515  1
  C  C52  1  0.170675  0.199225  0.664999  1
  C  C53  1  0.370992  0.628615  0.945035  1
  C  C54  1  0.702329  0.759967  0.795029  1
  C  C55  1  0.276111  0.340971  0.654277  1
  C  C56  1  0.267517  0.823486  0.717142  1
  C  C57  1  0.211121  0.254137  0.841480  1
  C  C58  1  0.627953  0.372841  0.055675  1
  C  C59  1  0.735196  0.174384  0.284471  1
  C  C60  1  0.184951  0.153771  0.469179  1
  C  C61  1  0.299064  0.241047  0.204403  1
  C  C62  1  0.057291  0.129120  0.443390  1
  C  C63  1  0.745857  0.257962  0.295191  1
  N  N64  1  0.512091  0.452022  0.159363  1
  N  N65  1  0.022871  0.556189  0.873179  1
  N  N66  1  0.677489  0.443682  0.659547  1
  N  N67  1  0.976556  0.439319  0.125416  1
  N  N68  1  0.943702  0.839515  0.330304  1
  N  N69  1  0.064509  0.617903  0.495721  1
  N  N70  1  0.111748  0.661252  0.169932  1
  N  N71  1  0.254399  0.420468  0.650114  1
  N  N72  1  0.475063  0.634973  0.520278  1
  N  N73  1  0.314166  0.557437  0.340496  1
  N  N74  1  0.754555  0.327117  0.305187  1
  N  N75  1  0.338464  0.307747  0.830959  1
  N  N76  1  0.711916  0.823026  0.510107  1
  N  N77  1  0.456078  0.942848  0.628439  1
  N  N78  1  0.543789  0.056957  0.373349  1
  N  N79  1  0.054114  0.162107  0.670989  1
  N  N80  1  0.610898  0.828316  0.805339  1
  N  N81  1  0.673364  0.919983  0.152557  1
  N  N82  1  0.630875  0.869145  0.978139  1
  N  N83  1  0.496097  0.633356  0.985251  1
  N  N84  1  0.935279  0.381185  0.505572  1
  N  N85  1  0.844603  0.149638  0.224250  1
  N  N86  1  0.822576  0.118203  0.995301  1
  N  N87  1  0.887070  0.135081  0.483143  1
  N  N88  1  0.249590  0.672861  0.692670  1
  N  N89  1  0.881354  0.951862  0.658749  1
  N  N90  1  0.115615  0.865906  0.515296  1
  N  N91  1  0.220235  0.348939  0.276081  1
  N  N92  1  0.488861  0.544883  0.844553  1
  N  N93  1  0.368972  0.130475  0.021873  1
  N  N94  1  0.739846  0.581492  0.347711  1
  N  N95  1  0.122539  0.046157  0.342303  1
  N  N96  1  0.957066  0.327544  0.008040  1
  N  N97  1  0.522016  0.809592  0.330282  1
  N  N98  1  0.156130  0.848307  0.776809  1
  N  N99  1  0.222944  0.939761  0.160132  1
  N  N100  1  0.777710  0.651353  0.724481  1
  N  N101  1  0.478353  0.192181  0.669797  1
  N  N102  1  0.293515  0.172624  0.492043  1
  N  N103  1  0.332065  0.080756  0.847644  1
  N  N104  1  0.179234  0.880883  0.004816  1
  N  N105  1  0.780592  0.059812  0.839897  1
  N  N106  1  0.042019  0.674368  0.993114  1
  N  N107  1  0.523385  0.368474  0.478292  1
  N  N108  1  0.661339  0.690946  0.170609  1
  N  N109  1  0.502341  0.365821  0.016868  1
  N  N110  1  0.385974  0.172108  0.193892  1
  N  N111  1  0.887670  0.338455  0.827325  1
  O  O112  1  0.945167  0.606766  0.466924  1
  O  O113  1  0.498850  0.270145  0.826220  1
  O  O114  1  0.970730  0.359001  0.445383  1
  O  O115  1  0.133856  0.425476  0.285615  1
  O  O116  1  0.598334  0.230666  0.671488  1
  O  O117  1  0.846114  0.072625  0.215218  1
  O  O118  1  0.777448  0.102291  0.463508  1
  O  O119  1  0.053813  0.393188  0.534173  1
  O  O120  1  0.340545  0.399220  0.036539  1
  O  O121  1  0.940943  0.206312  0.179723  1
  O  O122  1  0.224954  0.860518  0.943832  1
  O  O123  1  0.500791  0.728804  0.172106  1
  O  O124  1  0.154989  0.925472  0.785855  1
  O  O125  1  0.506988  0.104635  0.675999  1
  O  O126  1  0.494609  0.896868  0.325113  1
  O  O127  1  0.859723  0.573063  0.717126  1
  O  O128  1  0.285417  0.395153  0.825629  1
  O  O129  1  0.030785  0.637127  0.557164  1
  O  O130  1  0.055291  0.793688  0.820211  1
  O  O131  1  0.715390  0.603262  0.177480  1
  O  O132  1  0.228110  0.897111  0.534520  1
  O  O133  1  0.330904  0.293499  0.320141  1
  O  O134  1  0.020668  0.891130  0.034207  1
  O  O135  1  0.547926  0.330159  0.965041  1
  O  O136  1  0.449431  0.666723  0.038305  1
  O  O137  1  0.668084  0.707490  0.679962  1
  O  O138  1  0.779568  0.136234  0.057244  1
  O  O139  1  0.980261  0.107889  0.965117  1
  O  O140  1  0.152848  0.831599  0.462734  1
  O  O141  1  0.846222  0.169007  0.535861  1
  O  O142  1  0.658169  0.601326  0.965296  1
  O  O143  1  0.401850  0.772613  0.326545  1
