# generated using pymatgen
data_Rb6U2W4O21
_symmetry_space_group_name_H-M   'P 1'
_cell_length_a   10.35858144
_cell_length_b   13.43510765
_cell_length_c   19.17744375
_cell_angle_alpha   97.99561461
_cell_angle_beta   96.51946620
_cell_angle_gamma   104.18682353
_symmetry_Int_Tables_number   1
_chemical_formula_structural   Rb6U2W4O21
_chemical_formula_sum   'Rb24 U8 W16 O84'
_cell_volume   2531.87346788
_cell_formula_units_Z   4
loop_
 _symmetry_equiv_pos_site_id
 _symmetry_equiv_pos_as_xyz
  1  'x, y, z'
loop_
 _atom_site_type_symbol
 _atom_site_label
 _atom_site_symmetry_multiplicity
 _atom_site_fract_x
 _atom_site_fract_y
 _atom_site_fract_z
 _atom_site_occupancy
  Rb  Rb0  1  0.701792  0.936599  0.651789  1
  Rb  Rb1  1  0.197148  0.571994  0.471085  1
  Rb  Rb2  1  0.909828  0.233848  0.047195  1
  Rb  Rb3  1  0.440105  0.938304  0.899035  1
  Rb  Rb4  1  0.353465  0.764811  0.692705  1
  Rb  Rb5  1  0.267890  0.428705  0.005188  1
  Rb  Rb6  1  0.522567  0.573565  0.263808  1
  Rb  Rb7  1  0.298208  0.063401  0.348211  1
  Rb  Rb8  1  0.477433  0.426435  0.736192  1
  Rb  Rb9  1  0.196304  0.938532  0.144745  1
  Rb  Rb10  1  0.045611  0.068165  0.599640  1
  Rb  Rb11  1  0.559895  0.061696  0.100965  1
  Rb  Rb12  1  0.803696  0.061468  0.855255  1
  Rb  Rb13  1  0.407389  0.211211  0.543783  1
  Rb  Rb14  1  0.802852  0.428006  0.528915  1
  Rb  Rb15  1  0.646535  0.235189  0.307295  1
  Rb  Rb16  1  0.045473  0.564927  0.766077  1
  Rb  Rb17  1  0.145214  0.230926  0.806390  1
  Rb  Rb18  1  0.732110  0.571295  0.994812  1
  Rb  Rb19  1  0.954389  0.931835  0.400360  1
  Rb  Rb20  1  0.090172  0.766152  0.952805  1
  Rb  Rb21  1  0.592611  0.788789  0.456217  1
  Rb  Rb22  1  0.854786  0.769074  0.193610  1
  Rb  Rb23  1  0.954527  0.435073  0.233923  1
  U  U24  1  0.778687  0.276665  0.703850  1
  U  U25  1  0.221313  0.723335  0.296150  1
  U  U26  1  0.741895  0.732258  0.792085  1
  U  U27  1  0.560264  0.278834  0.909489  1
  U  U28  1  0.941903  0.733825  0.602457  1
  U  U29  1  0.439736  0.721166  0.090511  1
  U  U30  1  0.258105  0.267742  0.207915  1
  U  U31  1  0.058097  0.266175  0.397543  1
  W  W32  1  0.226089  0.136265  0.992466  1
  W  W33  1  0.434745  0.097719  0.727464  1
  W  W34  1  0.276493  0.868378  0.511229  1
  W  W35  1  0.565255  0.902281  0.272536  1
  W  W36  1  0.773911  0.863735  0.007534  1
  W  W37  1  0.449343  0.403484  0.405695  1
  W  W38  1  0.723507  0.131622  0.488771  1
  W  W39  1  0.866578  0.621763  0.383305  1
  W  W40  1  0.053757  0.903984  0.769834  1
  W  W41  1  0.946243  0.096016  0.230166  1
  W  W42  1  0.133422  0.378237  0.616695  1
  W  W43  1  0.389298  0.621025  0.874288  1
  W  W44  1  0.108893  0.623567  0.115624  1
  W  W45  1  0.550657  0.596516  0.594305  1
  W  W46  1  0.610702  0.378975  0.125712  1
  W  W47  1  0.891107  0.376433  0.884376  1
  O  O48  1  0.440599  0.670027  0.560393  1
  O  O49  1  0.550719  0.179199  0.679162  1
  O  O50  1  0.520210  0.542388  0.427263  1
  O  O51  1  0.719868  0.956341  0.331714  1
  O  O52  1  0.403363  0.842380  0.067197  1
  O  O53  1  0.290817  0.027911  0.011930  1
  O  O54  1  0.959802  0.514798  0.906298  1
  O  O55  1  0.849356  0.773326  0.699506  1
  O  O56  1  0.332160  0.216053  0.938727  1
  O  O57  1  0.724510  0.392905  0.687234  1
  O  O58  1  0.100253  0.154076  0.433028  1
  O  O59  1  0.091888  0.369232  0.520158  1
  O  O60  1  0.716109  0.636909  0.566133  1
  O  O61  1  0.770978  0.364134  0.955074  1
  O  O62  1  0.040198  0.485202  0.093702  1
  O  O63  1  0.558565  0.090577  0.436252  1
  O  O64  1  0.702831  0.285921  0.147903  1
  O  O65  1  0.596637  0.157620  0.932803  1
  O  O66  1  0.287193  0.709729  0.177214  1
  O  O67  1  0.771695  0.492711  0.341041  1
  O  O68  1  0.890047  0.173272  0.303987  1
  O  O69  1  0.714408  0.209961  0.573761  1
  O  O70  1  0.109953  0.826728  0.696013  1
  O  O71  1  0.449281  0.820801  0.320838  1
  O  O72  1  0.218337  0.979669  0.492616  1
  O  O73  1  0.587132  0.811226  0.196257  1
  O  O74  1  0.412868  0.188774  0.803743  1
  O  O75  1  0.479863  0.601980  0.112713  1
  O  O76  1  0.772884  0.777658  0.923891  1
  O  O77  1  0.441435  0.909423  0.563748  1
  O  O78  1  0.197320  0.382914  0.200008  1
  O  O79  1  0.505788  0.997180  0.755376  1
  O  O80  1  0.333100  0.156244  0.212344  1
  O  O81  1  0.960098  0.837826  0.835451  1
  O  O82  1  0.056225  0.638659  0.209843  1
  O  O83  1  0.980674  0.615425  0.627181  1
  O  O84  1  0.709183  0.972089  0.988070  1
  O  O85  1  0.578492  0.635254  0.691206  1
  O  O86  1  0.006606  0.310615  0.923357  1
  O  O87  1  0.280846  0.492280  0.844009  1
  O  O88  1  0.150644  0.226674  0.300494  1
  O  O89  1  0.421508  0.364746  0.308794  1
  O  O90  1  0.719154  0.507720  0.155991  1
  O  O91  1  0.993394  0.689385  0.076643  1
  O  O92  1  0.479790  0.457612  0.572737  1
  O  O93  1  0.559401  0.329973  0.439607  1
  O  O94  1  0.462766  0.363148  0.170952  1
  O  O95  1  0.444104  0.642433  0.970665  1
  O  O96  1  0.280132  0.043659  0.668286  1
  O  O97  1  0.908112  0.630768  0.479842  1
  O  O98  1  0.056924  0.092482  0.946153  1
  O  O99  1  0.039902  0.162174  0.164549  1
  O  O100  1  0.774363  0.714351  0.360811  1
  O  O101  1  0.297169  0.714079  0.852097  1
  O  O102  1  0.943775  0.361341  0.790157  1
  O  O103  1  0.802680  0.617086  0.799992  1
  O  O104  1  0.494212  0.002820  0.244624  1
  O  O105  1  0.899747  0.845924  0.566972  1
  O  O106  1  0.283891  0.363091  0.433867  1
  O  O107  1  0.943076  0.907518  0.053847  1
  O  O108  1  0.520137  0.398020  0.887287  1
  O  O109  1  0.225637  0.285649  0.639189  1
  O  O110  1  0.285592  0.790039  0.426239  1
  O  O111  1  0.555896  0.357567  0.029335  1
  O  O112  1  0.781663  0.020331  0.507384  1
  O  O113  1  0.172512  0.844781  0.285819  1
  O  O114  1  0.228305  0.507289  0.658959  1
  O  O115  1  0.227116  0.222342  0.076109  1
  O  O116  1  0.210813  0.971294  0.824483  1
  O  O117  1  0.028274  0.654515  0.350325  1
  O  O118  1  0.537234  0.636852  0.829048  1
  O  O119  1  0.666900  0.843756  0.787656  1
  O  O120  1  0.667840  0.783947  0.061274  1
  O  O121  1  0.229022  0.635866  0.044926  1
  O  O122  1  0.842940  0.216089  0.443757  1
  O  O123  1  0.019326  0.384575  0.372819  1
  O  O124  1  0.983730  0.005828  0.742869  1
  O  O125  1  0.827488  0.155219  0.714181  1
  O  O126  1  0.789187  0.028706  0.175517  1
  O  O127  1  0.157060  0.783911  0.556243  1
  O  O128  1  0.971726  0.345485  0.649675  1
  O  O129  1  0.275490  0.607095  0.312766  1
  O  O130  1  0.016270  0.994172  0.257131  1
  O  O131  1  0.712807  0.290271  0.822786  1
