# generated using pymatgen
data_AsN2F7
_symmetry_space_group_name_H-M   'P 1'
_cell_length_a   26.26649748
_cell_length_b   5.33782828
_cell_length_c   5.33782828
_cell_angle_alpha   65.94315279
_cell_angle_beta   89.37069033
_cell_angle_gamma   89.37069333
_symmetry_Int_Tables_number   1
_chemical_formula_structural   AsN2F7
_chemical_formula_sum   'As5 N10 F35'
_cell_volume   683.33269506
_cell_formula_units_Z   5
loop_
 _symmetry_equiv_pos_site_id
 _symmetry_equiv_pos_as_xyz
  1  'x, y, z'
loop_
 _atom_site_type_symbol
 _atom_site_label
 _atom_site_symmetry_multiplicity
 _atom_site_fract_x
 _atom_site_fract_y
 _atom_site_fract_z
 _atom_site_occupancy
  As  As0  1  0.099962  0.000056  0.000056  1
  As  As1  1  0.299974  0.000021  0.000021  1
  As  As2  1  0.499827  0.000336  0.000336  1
  As  As3  1  0.699820  0.000343  0.000343  1
  As  As4  1  0.899829  0.000302  0.000302  1
  N  N5  1  0.014788  0.375853  0.375853  1
  N  N6  1  0.185208  0.624048  0.624048  1
  N  N7  1  0.198499  0.505009  0.505009  1
  N  N8  1  0.401444  0.495093  0.495093  1
  N  N9  1  0.414787  0.375870  0.375870  1
  N  N10  1  0.601439  0.495092  0.495092  1
  N  N11  1  0.614785  0.375855  0.375855  1
  N  N12  1  0.801438  0.495097  0.495097  1
  N  N13  1  0.814783  0.375874  0.375874  1
  N  N14  1  0.001437  0.495092  0.495092  1
  F  F15  1  0.050337  0.868260  0.868260  1
  F  F16  1  0.067145  0.321423  0.885664  1
  F  F17  1  0.067145  0.885664  0.321423  1
  F  F18  1  0.132870  0.114389  0.678576  1
  F  F19  1  0.132870  0.678576  0.114389  1
  F  F20  1  0.149668  0.131802  0.131802  1
  F  F21  1  0.215440  0.372549  0.372549  1
  F  F22  1  0.250349  0.868354  0.868354  1
  F  F23  1  0.267227  0.320809  0.885870  1
  F  F24  1  0.267227  0.885870  0.320809  1
  F  F25  1  0.332807  0.114157  0.679131  1
  F  F26  1  0.332807  0.679131  0.114157  1
  F  F27  1  0.349673  0.131669  0.131669  1
  F  F28  1  0.384546  0.627464  0.627464  1
  F  F29  1  0.450290  0.868323  0.868323  1
  F  F30  1  0.467047  0.321891  0.885552  1
  F  F31  1  0.467047  0.885552  0.321891  1
  F  F32  1  0.532717  0.114083  0.679635  1
  F  F33  1  0.532717  0.679635  0.114083  1
  F  F34  1  0.549603  0.131753  0.131753  1
  F  F35  1  0.584533  0.627439  0.627439  1
  F  F36  1  0.650285  0.868310  0.868310  1
  F  F37  1  0.667048  0.321915  0.885547  1
  F  F38  1  0.667048  0.885547  0.321915  1
  F  F39  1  0.732709  0.114083  0.679640  1
  F  F40  1  0.732709  0.679640  0.114083  1
  F  F41  1  0.749604  0.131742  0.131742  1
  F  F42  1  0.784534  0.627461  0.627461  1
  F  F43  1  0.850286  0.868302  0.868302  1
  F  F44  1  0.867061  0.321882  0.885543  1
  F  F45  1  0.867061  0.885543  0.321882  1
  F  F46  1  0.932710  0.114068  0.679604  1
  F  F47  1  0.932710  0.679604  0.114068  1
  F  F48  1  0.949620  0.131718  0.131718  1
  F  F49  1  0.984533  0.627452  0.627452  1
