# generated using pymatgen
data_SiO2
_symmetry_space_group_name_H-M   'P 1'
_cell_length_a   14.41836818
_cell_length_b   14.41836756
_cell_length_c   14.41836733
_cell_angle_alpha   109.47122187
_cell_angle_beta   109.47122098
_cell_angle_gamma   109.47122113
_symmetry_Int_Tables_number   1
_chemical_formula_structural   SiO2
_chemical_formula_sum   'Si48 O96'
_cell_volume   2307.41859116
_cell_formula_units_Z   48
loop_
 _symmetry_equiv_pos_site_id
 _symmetry_equiv_pos_as_xyz
  1  'x, y, z'
loop_
 _atom_site_type_symbol
 _atom_site_label
 _atom_site_symmetry_multiplicity
 _atom_site_fract_x
 _atom_site_fract_y
 _atom_site_fract_z
 _atom_site_occupancy
  Si  Si0  1  0.628534  0.391202  0.540327  1
  Si  Si1  1  0.149125  0.540327  0.411794  1
  Si  Si2  1  0.762669  0.871466  0.411794  1
  Si  Si3  1  0.891202  0.128534  0.040327  1
  Si  Si4  1  0.411794  0.762669  0.871466  1
  Si  Si5  1  0.911794  0.371466  0.262669  1
  Si  Si6  1  0.459673  0.588206  0.850875  1
  Si  Si7  1  0.088206  0.959673  0.350875  1
  Si  Si8  1  0.108798  0.737331  0.149125  1
  Si  Si9  1  0.588206  0.850875  0.459673  1
  Si  Si10  1  0.088206  0.628534  0.737331  1
  Si  Si11  1  0.959673  0.108798  0.871466  1
  Si  Si12  1  0.350875  0.762669  0.391202  1
  Si  Si13  1  0.371466  0.608798  0.459673  1
  Si  Si14  1  0.237331  0.128534  0.588206  1
  Si  Si15  1  0.871466  0.959673  0.108798  1
  Si  Si16  1  0.608798  0.459673  0.371466  1
  Si  Si17  1  0.108798  0.871466  0.959673  1
  Si  Si18  1  0.762669  0.391202  0.350875  1
  Si  Si19  1  0.149125  0.108798  0.737331  1
  Si  Si20  1  0.850875  0.891202  0.262669  1
  Si  Si21  1  0.850875  0.459673  0.588206  1
  Si  Si22  1  0.128534  0.588206  0.237331  1
  Si  Si23  1  0.262669  0.850875  0.891202  1
  Si  Si24  1  0.237331  0.608798  0.649125  1
  Si  Si25  1  0.628534  0.737331  0.088206  1
  Si  Si26  1  0.540327  0.411794  0.149125  1
  Si  Si27  1  0.040327  0.649125  0.911794  1
  Si  Si28  1  0.737331  0.088206  0.628534  1
  Si  Si29  1  0.371466  0.262669  0.911794  1
  Si  Si30  1  0.411794  0.149125  0.540327  1
  Si  Si31  1  0.737331  0.149125  0.108798  1
  Si  Si32  1  0.891202  0.262669  0.850875  1
  Si  Si33  1  0.128534  0.040327  0.891202  1
  Si  Si34  1  0.350875  0.088206  0.959673  1
  Si  Si35  1  0.391202  0.540327  0.628534  1
  Si  Si36  1  0.649125  0.237331  0.608798  1
  Si  Si37  1  0.871466  0.411794  0.762669  1
  Si  Si38  1  0.391202  0.350875  0.762669  1
  Si  Si39  1  0.911794  0.040327  0.649125  1
  Si  Si40  1  0.588206  0.237331  0.128534  1
  Si  Si41  1  0.040327  0.891202  0.128534  1
  Si  Si42  1  0.540327  0.628534  0.391202  1
  Si  Si43  1  0.959673  0.350875  0.088206  1
  Si  Si44  1  0.459673  0.371466  0.608798  1
  Si  Si45  1  0.649125  0.911794  0.040327  1
  Si  Si46  1  0.608798  0.649125  0.237331  1
  Si  Si47  1  0.262669  0.911794  0.371466  1
  O  O48  1  0.512221  0.154467  0.500953  1
  O  O49  1  0.716067  0.866554  0.209492  1
  O  O50  1  0.150486  0.866554  0.157062  1
  O  O51  1  0.487779  0.845533  0.499047  1
  O  O52  1  0.133446  0.790508  0.283932  1
  O  O53  1  0.866554  0.209492  0.716067  1
  O  O54  1  0.842938  0.493425  0.709492  1
  O  O55  1  0.999047  0.345533  0.987779  1
  O  O56  1  0.012221  0.511268  0.357754  1
  O  O57  1  0.709492  0.842938  0.493425  1
  O  O58  1  0.346486  0.500953  0.488732  1
  O  O59  1  0.633446  0.783933  0.290508  1
  O  O60  1  0.654467  0.142246  0.653514  1
  O  O61  1  0.366554  0.216067  0.709492  1
  O  O62  1  0.633446  0.349514  0.342938  1
  O  O63  1  0.000953  0.846486  0.988732  1
  O  O64  1  0.133446  0.842938  0.849514  1
  O  O65  1  0.154467  0.153514  0.642246  1
  O  O66  1  0.849514  0.133446  0.842938  1
  O  O67  1  0.345533  0.987779  0.999047  1
  O  O68  1  0.511268  0.653514  0.499047  1
  O  O69  1  0.653514  0.499047  0.511268  1
  O  O70  1  0.642246  0.154467  0.153514  1
  O  O71  1  0.988732  0.487779  0.142246  1
  O  O72  1  0.342938  0.633446  0.349514  1
  O  O73  1  0.846486  0.988732  0.000953  1
  O  O74  1  0.511268  0.357754  0.012221  1
  O  O75  1  0.654467  0.012221  0.000953  1
  O  O76  1  0.500953  0.488732  0.346486  1
  O  O77  1  0.783933  0.993425  0.150486  1
  O  O78  1  0.650486  0.657062  0.366554  1
  O  O79  1  0.790508  0.006575  0.657062  1
  O  O80  1  0.142246  0.988732  0.487779  1
  O  O81  1  0.153514  0.011268  0.999047  1
  O  O82  1  0.999047  0.153514  0.011268  1
  O  O83  1  0.006575  0.849514  0.216067  1
  O  O84  1  0.283932  0.650486  0.493425  1
  O  O85  1  0.993425  0.150486  0.783933  1
  O  O86  1  0.357754  0.012221  0.511268  1
  O  O87  1  0.342938  0.209492  0.993425  1
  O  O88  1  0.349514  0.342938  0.633446  1
  O  O89  1  0.642246  0.987779  0.488732  1
  O  O90  1  0.845533  0.846486  0.357754  1
  O  O91  1  0.209492  0.993425  0.342938  1
  O  O92  1  0.349514  0.506575  0.716067  1
  O  O93  1  0.506575  0.290508  0.157062  1
  O  O94  1  0.290508  0.157062  0.506575  1
  O  O95  1  0.153514  0.642246  0.154467  1
  O  O96  1  0.142246  0.653514  0.654467  1
  O  O97  1  0.216067  0.709492  0.366554  1
  O  O98  1  0.000953  0.654467  0.012221  1
  O  O99  1  0.783933  0.290508  0.633446  1
  O  O100  1  0.357754  0.845533  0.846486  1
  O  O101  1  0.006575  0.657062  0.790508  1
  O  O102  1  0.657062  0.790508  0.006575  1
  O  O103  1  0.987779  0.488732  0.642246  1
  O  O104  1  0.650486  0.493425  0.283932  1
  O  O105  1  0.657062  0.366554  0.650486  1
  O  O106  1  0.499047  0.487779  0.845533  1
  O  O107  1  0.283932  0.133446  0.790508  1
  O  O108  1  0.011268  0.512221  0.857754  1
  O  O109  1  0.512221  0.857754  0.011268  1
  O  O110  1  0.849514  0.216067  0.006575  1
  O  O111  1  0.157062  0.506575  0.290508  1
  O  O112  1  0.842938  0.849514  0.133446  1
  O  O113  1  0.493425  0.283932  0.650486  1
  O  O114  1  0.987779  0.999047  0.345533  1
  O  O115  1  0.290508  0.633446  0.783933  1
  O  O116  1  0.499047  0.511268  0.653514  1
  O  O117  1  0.488732  0.642246  0.987779  1
  O  O118  1  0.157062  0.150486  0.866554  1
  O  O119  1  0.345533  0.857754  0.346486  1
  O  O120  1  0.857754  0.346486  0.345533  1
  O  O121  1  0.346486  0.345533  0.857754  1
  O  O122  1  0.011268  0.999047  0.153514  1
  O  O123  1  0.790508  0.283932  0.133446  1
  O  O124  1  0.216067  0.006575  0.849514  1
  O  O125  1  0.866554  0.157062  0.150486  1
  O  O126  1  0.488732  0.346486  0.500953  1
  O  O127  1  0.012221  0.000953  0.654467  1
  O  O128  1  0.846486  0.357754  0.845533  1
  O  O129  1  0.366554  0.650486  0.657062  1
  O  O130  1  0.709492  0.366554  0.216067  1
  O  O131  1  0.506575  0.716067  0.349514  1
  O  O132  1  0.857754  0.011268  0.512221  1
  O  O133  1  0.653514  0.654467  0.142246  1
  O  O134  1  0.493425  0.709492  0.842938  1
  O  O135  1  0.988732  0.000953  0.846486  1
  O  O136  1  0.487779  0.142246  0.988732  1
  O  O137  1  0.716067  0.349514  0.506575  1
  O  O138  1  0.150486  0.783933  0.993425  1
  O  O139  1  0.993425  0.342938  0.209492  1
  O  O140  1  0.209492  0.716067  0.866554  1
  O  O141  1  0.154467  0.500953  0.512221  1
  O  O142  1  0.500953  0.512221  0.154467  1
  O  O143  1  0.845533  0.499047  0.487779  1
