# generated using pymatgen
data_NdH4C3O8
_symmetry_space_group_name_H-M   'P 1'
_cell_length_a   8.87937382
_cell_length_b   9.42950283
_cell_length_c   17.08254673
_cell_angle_alpha   90.00000000
_cell_angle_beta   90.00000000
_cell_angle_gamma   90.00000000
_symmetry_Int_Tables_number   1
_chemical_formula_structural   NdH4C3O8
_chemical_formula_sum   'Nd8 H32 C24 O64'
_cell_volume   1430.28884885
_cell_formula_units_Z   8
loop_
 _symmetry_equiv_pos_site_id
 _symmetry_equiv_pos_as_xyz
  1  'x, y, z'
loop_
 _atom_site_type_symbol
 _atom_site_label
 _atom_site_symmetry_multiplicity
 _atom_site_fract_x
 _atom_site_fract_y
 _atom_site_fract_z
 _atom_site_occupancy
  Nd  Nd0  1  0.368055  0.241997  0.355657  1
  Nd  Nd1  1  0.131945  0.758003  0.855657  1
  Nd  Nd2  1  0.868055  0.258003  0.644343  1
  Nd  Nd3  1  0.631945  0.741997  0.144343  1
  Nd  Nd4  1  0.122958  0.240336  0.137782  1
  Nd  Nd5  1  0.377042  0.759664  0.637782  1
  Nd  Nd6  1  0.622958  0.259664  0.862218  1
  Nd  Nd7  1  0.877042  0.740336  0.362218  1
  H  H8  1  0.363165  0.408009  0.512010  1
  H  H9  1  0.136835  0.591991  0.012010  1
  H  H10  1  0.863165  0.091991  0.487990  1
  H  H11  1  0.636835  0.908009  0.987990  1
  H  H12  1  0.691425  0.316096  0.287667  1
  H  H13  1  0.808575  0.683904  0.787667  1
  H  H14  1  0.191425  0.183904  0.712333  1
  H  H15  1  0.308575  0.816096  0.212333  1
  H  H16  1  0.412786  0.060310  0.102487  1
  H  H17  1  0.087214  0.939690  0.602487  1
  H  H18  1  0.912786  0.439690  0.897513  1
  H  H19  1  0.587214  0.560310  0.397513  1
  H  H20  1  0.435061  0.200267  0.054225  1
  H  H21  1  0.064939  0.799733  0.554225  1
  H  H22  1  0.935061  0.299733  0.945775  1
  H  H23  1  0.564939  0.700267  0.445775  1
  H  H24  1  0.140323  0.099604  0.971110  1
  H  H25  1  0.359677  0.900396  0.471110  1
  H  H26  1  0.640323  0.400396  0.028890  1
  H  H27  1  0.859677  0.599604  0.528890  1
  H  H28  1  0.181216  0.256986  0.957825  1
  H  H29  1  0.318784  0.743014  0.457825  1
  H  H30  1  0.681216  0.243014  0.042175  1
  H  H31  1  0.818784  0.756986  0.542175  1
  H  H32  1  0.723095  0.325367  0.377421  1
  H  H33  1  0.776905  0.674633  0.877421  1
  H  H34  1  0.223095  0.174633  0.622579  1
  H  H35  1  0.276905  0.825367  0.122579  1
  H  H36  1  0.477588  0.278932  0.529740  1
  H  H37  1  0.022412  0.721068  0.029740  1
  H  H38  1  0.977588  0.221068  0.470260  1
  H  H39  1  0.522412  0.778932  0.970260  1
  C  C40  1  0.638514  0.004045  0.396638  1
  C  C41  1  0.861486  0.995955  0.896638  1
  C  C42  1  0.138514  0.495955  0.603362  1
  C  C43  1  0.361486  0.504045  0.103362  1
  C  C44  1  0.592603  0.962060  0.311845  1
  C  C45  1  0.907397  0.037940  0.811845  1
  C  C46  1  0.092603  0.537940  0.688155  1
  C  C47  1  0.407397  0.462060  0.188155  1
  C  C48  1  0.135118  0.983319  0.391942  1
  C  C49  1  0.364882  0.016681  0.891942  1
  C  C50  1  0.635118  0.516681  0.608058  1
  C  C51  1  0.864882  0.483319  0.108058  1
  C  C52  1  0.087472  0.018153  0.306550  1
  C  C53  1  0.412528  0.981847  0.806550  1
  C  C54  1  0.587472  0.481847  0.693450  1
  C  C55  1  0.912528  0.518153  0.193450  1
  C  C56  1  0.054947  0.437248  0.386679  1
  C  C57  1  0.445053  0.562752  0.886679  1
  C  C58  1  0.554947  0.062752  0.613321  1
  C  C59  1  0.945053  0.937248  0.113321  1
  C  C60  1  0.181256  0.543166  0.363318  1
  C  C61  1  0.318744  0.456834  0.863318  1
  C  C62  1  0.681256  0.956834  0.636682  1
  C  C63  1  0.818744  0.043166  0.136682  1
  O  O64  1  0.561689  0.100093  0.428286  1
  O  O65  1  0.938311  0.899907  0.928286  1
  O  O66  1  0.061689  0.399907  0.571714  1
  O  O67  1  0.438311  0.600093  0.071714  1
  O  O68  1  0.491896  0.036797  0.280773  1
  O  O69  1  0.008104  0.963203  0.780773  1
  O  O70  1  0.991896  0.463203  0.719227  1
  O  O71  1  0.508104  0.536797  0.219227  1
  O  O72  1  0.254503  0.040042  0.418505  1
  O  O73  1  0.245497  0.959958  0.918505  1
  O  O74  1  0.754503  0.459958  0.581495  1
  O  O75  1  0.745497  0.540042  0.081495  1
  O  O76  1  0.157934  0.119297  0.272023  1
  O  O77  1  0.342066  0.880703  0.772023  1
  O  O78  1  0.657934  0.380703  0.727977  1
  O  O79  1  0.842066  0.619297  0.227977  1
  O  O80  1  0.096063  0.310234  0.398222  1
  O  O81  1  0.403937  0.689766  0.898223  1
  O  O82  1  0.596063  0.189766  0.601777  1
  O  O83  1  0.903937  0.810234  0.101778  1
  O  O84  1  0.314920  0.498039  0.366187  1
  O  O85  1  0.185080  0.501961  0.866187  1
  O  O86  1  0.814920  0.001961  0.633813  1
  O  O87  1  0.685080  0.998039  0.133813  1
  O  O88  1  0.416792  0.327354  0.488733  1
  O  O89  1  0.083208  0.672646  0.988733  1
  O  O90  1  0.916792  0.172646  0.511267  1
  O  O91  1  0.583208  0.827354  0.011267  1
  O  O92  1  0.643562  0.335008  0.337904  1
  O  O93  1  0.856438  0.664992  0.837904  1
  O  O94  1  0.143562  0.164992  0.662096  1
  O  O95  1  0.356438  0.835008  0.162096  1
  O  O96  1  0.750793  0.941717  0.427721  1
  O  O97  1  0.749207  0.058283  0.927721  1
  O  O98  1  0.250793  0.558283  0.572279  1
  O  O99  1  0.249207  0.441717  0.072279  1
  O  O100  1  0.660432  0.855496  0.280948  1
  O  O101  1  0.839568  0.144504  0.780948  1
  O  O102  1  0.160432  0.644504  0.719052  1
  O  O103  1  0.339568  0.355496  0.219052  1
  O  O104  1  0.366404  0.151174  0.090434  1
  O  O105  1  0.133596  0.848826  0.590434  1
  O  O106  1  0.866404  0.348826  0.909566  1
  O  O107  1  0.633596  0.651174  0.409566  1
  O  O108  1  0.108810  0.197257  0.985708  1
  O  O109  1  0.391190  0.802743  0.485708  1
  O  O110  1  0.608810  0.302743  0.014292  1
  O  O111  1  0.891190  0.697257  0.514292  1
  O  O112  1  0.053521  0.897771  0.428881  1
  O  O113  1  0.446479  0.102229  0.928881  1
  O  O114  1  0.553521  0.602229  0.571119  1
  O  O115  1  0.946479  0.397771  0.071119  1
  O  O116  1  0.984823  0.941721  0.278403  1
  O  O117  1  0.515177  0.058279  0.778403  1
  O  O118  1  0.484823  0.558279  0.721597  1
  O  O119  1  0.015177  0.441721  0.221597  1
  O  O120  1  0.922137  0.484776  0.392634  1
  O  O121  1  0.577863  0.515224  0.892634  1
  O  O122  1  0.422137  0.015225  0.607366  1
  O  O123  1  0.077863  0.984776  0.107366  1
  O  O124  1  0.141681  0.668195  0.344573  1
  O  O125  1  0.358319  0.331805  0.844573  1
  O  O126  1  0.641681  0.831805  0.655427  1
  O  O127  1  0.858319  0.168195  0.155427  1
