# generated using pymatgen
data_Al2NiO4
_symmetry_space_group_name_H-M   'P 1'
_cell_length_a   5.75117976
_cell_length_b   5.77549800
_cell_length_c   28.67355544
_cell_angle_alpha   59.76522898
_cell_angle_beta   59.49445389
_cell_angle_gamma   59.85818655
_symmetry_Int_Tables_number   1
_chemical_formula_structural   Al2NiO4
_chemical_formula_sum   'Al20 Ni10 O40'
_cell_volume   668.94908239
_cell_formula_units_Z   10
loop_
 _symmetry_equiv_pos_site_id
 _symmetry_equiv_pos_as_xyz
  1  'x, y, z'
loop_
 _atom_site_type_symbol
 _atom_site_label
 _atom_site_symmetry_multiplicity
 _atom_site_fract_x
 _atom_site_fract_y
 _atom_site_fract_z
 _atom_site_occupancy
  Al  Al0  1  0.129802  0.116006  0.227643  1
  Al  Al1  1  0.493802  0.499479  0.100583  1
  Al  Al2  1  0.493869  0.003791  0.100582  1
  Al  Al3  1  0.132971  0.116974  0.426620  1
  Al  Al4  1  0.499600  0.499874  0.300050  1
  Al  Al5  1  0.864794  0.884785  0.173132  1
  Al  Al6  1  0.499616  0.000271  0.300049  1
  Al  Al7  1  0.133914  0.117289  0.626300  1
  Al  Al8  1  0.500423  0.500103  0.499860  1
  Al  Al9  1  0.867155  0.882992  0.373382  1
  Al  Al10  1  0.500421  0.000134  0.499859  1
  Al  Al11  1  0.140141  0.117495  0.824960  1
  Al  Al12  1  0.501596  0.500371  0.699546  1
  Al  Al13  1  0.867868  0.883352  0.573085  1
  Al  Al14  1  0.501588  0.000264  0.699545  1
  Al  Al15  1  0.503948  0.497790  0.899189  1
  Al  Al16  1  0.868624  0.882623  0.773216  1
  Al  Al17  1  0.494938  0.496901  0.002279  1
  Al  Al18  1  0.503929  0.002297  0.899194  1
  Al  Al19  1  0.861361  0.879821  0.975803  1
  Ni  Ni20  1  0.125784  0.123421  0.025496  1
  Ni  Ni21  1  0.498899  0.501231  0.199735  1
  Ni  Ni22  1  0.997811  0.499781  0.100520  1
  Ni  Ni23  1  0.499863  0.500002  0.400022  1
  Ni  Ni24  1  0.999456  0.499933  0.300148  1
  Ni  Ni25  1  0.500195  0.500193  0.599876  1
  Ni  Ni26  1  0.000126  0.500033  0.499953  1
  Ni  Ni27  1  0.502181  0.498935  0.799979  1
  Ni  Ni28  1  0.000690  0.500388  0.699709  1
  Ni  Ni29  1  0.005781  0.498621  0.899390  1
  O  O30  1  0.281966  0.252044  0.050896  1
  O  O31  1  0.281896  0.711593  0.050901  1
  O  O32  1  0.261151  0.244355  0.150027  1
  O  O33  1  0.702690  0.264761  0.053553  1
  O  O34  1  0.265262  0.232179  0.253559  1
  O  O35  1  0.257319  0.758239  0.145243  1
  O  O36  1  0.726195  0.753845  0.053222  1
  O  O37  1  0.265252  0.734786  0.253562  1
  O  O38  1  0.731984  0.264900  0.146381  1
  O  O39  1  0.268698  0.245538  0.348061  1
  O  O40  1  0.736292  0.246136  0.254290  1
  O  O41  1  0.732021  0.771171  0.146384  1
  O  O42  1  0.265648  0.231648  0.453369  1
  O  O43  1  0.260403  0.753821  0.346400  1
  O  O44  1  0.729967  0.754420  0.252238  1
  O  O45  1  0.265635  0.735851  0.453374  1
  O  O46  1  0.733476  0.263772  0.346993  1
  O  O47  1  0.269956  0.245863  0.547669  1
  O  O48  1  0.739165  0.245571  0.453938  1
  O  O49  1  0.733473  0.767825  0.346995  1
  O  O50  1  0.266162  0.231738  0.653146  1
  O  O51  1  0.260798  0.753808  0.546316  1
  O  O52  1  0.266166  0.736348  0.653149  1
  O  O53  1  0.730182  0.753966  0.452372  1
  O  O54  1  0.733844  0.263984  0.546880  1
  O  O55  1  0.272964  0.246923  0.746637  1
  O  O56  1  0.740619  0.245699  0.653589  1
  O  O57  1  0.733839  0.767792  0.546879  1
  O  O58  1  0.261680  0.753274  0.746351  1
  O  O59  1  0.268458  0.229118  0.852705  1
  O  O60  1  0.730642  0.754174  0.652190  1
  O  O61  1  0.734586  0.263582  0.746843  1
  O  O62  1  0.268459  0.738855  0.852704  1
  O  O63  1  0.292401  0.252645  0.940459  1
  O  O64  1  0.751639  0.241809  0.852946  1
  O  O65  1  0.734556  0.767599  0.746849  1
  O  O66  1  0.267430  0.742077  0.949683  1
  O  O67  1  0.731318  0.752694  0.852652  1
  O  O68  1  0.727322  0.270216  0.950444  1
  O  O69  1  0.727343  0.750230  0.950446  1
