# generated using pymatgen
data_La20Ti11(S22O3)2
_symmetry_space_group_name_H-M   'P 1'
_cell_length_a   10.49028476
_cell_length_b   14.42127496
_cell_length_c   22.81370047
_cell_angle_alpha   90.00000000
_cell_angle_beta   90.00000000
_cell_angle_gamma   90.00000000
_symmetry_Int_Tables_number   1
_chemical_formula_structural   La20Ti11(S22O3)2
_chemical_formula_sum   'La40 Ti22 S88 O12'
_cell_volume   3451.33145732
_cell_formula_units_Z   2
loop_
 _symmetry_equiv_pos_site_id
 _symmetry_equiv_pos_as_xyz
  1  'x, y, z'
loop_
 _atom_site_type_symbol
 _atom_site_label
 _atom_site_symmetry_multiplicity
 _atom_site_fract_x
 _atom_site_fract_y
 _atom_site_fract_z
 _atom_site_occupancy
  La  La0  1  0.049260  0.959311  0.839505  1
  La  La1  1  0.049260  0.540689  0.839505  1
  La  La2  1  0.363777  0.462314  0.335869  1
  La  La3  1  0.364378  0.750000  0.339591  1
  La  La4  1  0.612746  0.250000  0.034153  1
  La  La5  1  0.363777  0.462314  0.164131  1
  La  La6  1  0.952684  0.750000  0.158845  1
  La  La7  1  0.950740  0.459311  0.160495  1
  La  La8  1  0.332910  0.055202  0.530912  1
  La  La9  1  0.926040  0.750000  0.966916  1
  La  La10  1  0.332910  0.055202  0.969088  1
  La  La11  1  0.926040  0.750000  0.533084  1
  La  La12  1  0.950740  0.040689  0.339505  1
  La  La13  1  0.049260  0.540689  0.660495  1
  La  La14  1  0.047316  0.250000  0.658845  1
  La  La15  1  0.332910  0.444798  0.969088  1
  La  La16  1  0.636223  0.537686  0.835869  1
  La  La17  1  0.635622  0.250000  0.660409  1
  La  La18  1  0.073960  0.250000  0.466917  1
  La  La19  1  0.364378  0.750000  0.160409  1
  La  La20  1  0.950740  0.040689  0.160495  1
  La  La21  1  0.387254  0.750000  0.534153  1
  La  La22  1  0.636223  0.962314  0.835869  1
  La  La23  1  0.612746  0.250000  0.465847  1
  La  La24  1  0.667090  0.944798  0.469088  1
  La  La25  1  0.667090  0.555202  0.030912  1
  La  La26  1  0.950740  0.459311  0.339505  1
  La  La27  1  0.636223  0.962314  0.664131  1
  La  La28  1  0.387254  0.750000  0.965847  1
  La  La29  1  0.635622  0.250000  0.839591  1
  La  La30  1  0.636223  0.537686  0.664131  1
  La  La31  1  0.952684  0.750000  0.341155  1
  La  La32  1  0.049260  0.959311  0.660495  1
  La  La33  1  0.363777  0.037686  0.335869  1
  La  La34  1  0.073960  0.250000  0.033084  1
  La  La35  1  0.332910  0.444798  0.530912  1
  La  La36  1  0.047316  0.250000  0.841155  1
  La  La37  1  0.667090  0.555202  0.469088  1
  La  La38  1  0.363777  0.037686  0.164131  1
  La  La39  1  0.667090  0.944798  0.030912  1
  Ti  Ti40  1  0.841113  0.750000  0.750000  1
  Ti  Ti41  1  0.339129  0.598260  0.750000  1
  Ti  Ti42  1  0.158887  0.250000  0.250000  1
  Ti  Ti43  1  0.155482  0.618606  0.062189  1
  Ti  Ti44  1  0.664657  0.632882  0.250000  1
  Ti  Ti45  1  0.335343  0.132882  0.750000  1
  Ti  Ti46  1  0.543038  0.750000  0.750000  1
  Ti  Ti47  1  0.155482  0.881394  0.062189  1
  Ti  Ti48  1  0.335343  0.367118  0.750000  1
  Ti  Ti49  1  0.664657  0.867118  0.250000  1
  Ti  Ti50  1  0.456962  0.250000  0.250000  1
  Ti  Ti51  1  0.844518  0.381394  0.937811  1
  Ti  Ti52  1  0.339129  0.901740  0.750000  1
  Ti  Ti53  1  0.155482  0.881394  0.437811  1
  Ti  Ti54  1  0.141585  0.750000  0.750000  1
  Ti  Ti55  1  0.844518  0.118606  0.562189  1
  Ti  Ti56  1  0.858415  0.250000  0.250000  1
  Ti  Ti57  1  0.844518  0.118606  0.937811  1
  Ti  Ti58  1  0.660871  0.098260  0.250000  1
  Ti  Ti59  1  0.660871  0.401740  0.250000  1
  Ti  Ti60  1  0.155482  0.618606  0.437811  1
  Ti  Ti61  1  0.844518  0.381394  0.562189  1
  S  S62  1  0.921753  0.887060  0.070080  1
  S  S63  1  0.839500  0.380608  0.043612  1
  S  S64  1  0.160500  0.619392  0.956388  1
  S  S65  1  0.661334  0.250000  0.181853  1
  S  S66  1  0.498306  0.088357  0.066132  1
  S  S67  1  0.841779  0.116564  0.829812  1
  S  S68  1  0.161225  0.060147  0.425251  1
  S  S69  1  0.498306  0.411643  0.066132  1
  S  S70  1  0.389024  0.880216  0.068762  1
  S  S71  1  0.838775  0.939853  0.574749  1
  S  S72  1  0.338877  0.250000  0.673174  1
  S  S73  1  0.078247  0.387060  0.929920  1
  S  S74  1  0.839500  0.119392  0.043612  1
  S  S75  1  0.841779  0.383436  0.829812  1
  S  S76  1  0.334162  0.008347  0.670590  1
  S  S77  1  0.670241  0.750000  0.011726  1
  S  S78  1  0.161225  0.439853  0.074749  1
  S  S79  1  0.319732  0.250000  0.331450  1
  S  S80  1  0.334162  0.491653  0.670590  1
  S  S81  1  0.334162  0.491653  0.829410  1
  S  S82  1  0.105859  0.386505  0.750000  1
  S  S83  1  0.105859  0.113495  0.750000  1
  S  S84  1  0.389024  0.619784  0.068762  1
  S  S85  1  0.158221  0.616564  0.170188  1
  S  S86  1  0.665838  0.508347  0.170590  1
  S  S87  1  0.839500  0.380608  0.456388  1
  S  S88  1  0.665838  0.991653  0.329410  1
  S  S89  1  0.841779  0.383436  0.670188  1
  S  S90  1  0.661123  0.750000  0.173174  1
  S  S91  1  0.610976  0.119784  0.931238  1
  S  S92  1  0.501694  0.911643  0.566132  1
  S  S93  1  0.501694  0.588357  0.566132  1
  S  S94  1  0.665838  0.991653  0.170590  1
  S  S95  1  0.921753  0.887060  0.429920  1
  S  S96  1  0.078247  0.387060  0.570080  1
  S  S97  1  0.338877  0.250000  0.826826  1
  S  S98  1  0.838775  0.939853  0.925251  1
  S  S99  1  0.670241  0.750000  0.488274  1
  S  S100  1  0.841779  0.116564  0.670188  1
  S  S101  1  0.001605  0.250000  0.334081  1
  S  S102  1  0.160500  0.619392  0.543612  1
  S  S103  1  0.661334  0.250000  0.318147  1
  S  S104  1  0.158221  0.883436  0.170188  1
  S  S105  1  0.610976  0.380216  0.931238  1
  S  S106  1  0.838775  0.560147  0.574749  1
  S  S107  1  0.319732  0.250000  0.168550  1
  S  S108  1  0.329759  0.250000  0.988274  1
  S  S109  1  0.567976  0.114742  0.750000  1
  S  S110  1  0.432024  0.885258  0.250000  1
  S  S111  1  0.501694  0.588357  0.933868  1
  S  S112  1  0.160500  0.880608  0.956388  1
  S  S113  1  0.001605  0.250000  0.165919  1
  S  S114  1  0.161225  0.060147  0.074749  1
  S  S115  1  0.498306  0.411643  0.433868  1
  S  S116  1  0.998395  0.750000  0.665919  1
  S  S117  1  0.389024  0.619784  0.431238  1
  S  S118  1  0.665838  0.508347  0.329410  1
  S  S119  1  0.078247  0.112940  0.929920  1
  S  S120  1  0.338666  0.750000  0.681853  1
  S  S121  1  0.498306  0.088357  0.433868  1
  S  S122  1  0.161225  0.439853  0.425251  1
  S  S123  1  0.846545  0.580617  0.750000  1
  S  S124  1  0.921753  0.612940  0.070080  1
  S  S125  1  0.680268  0.750000  0.831450  1
  S  S126  1  0.153455  0.080617  0.250000  1
  S  S127  1  0.158221  0.883436  0.329812  1
  S  S128  1  0.894141  0.613495  0.250000  1
  S  S129  1  0.680268  0.750000  0.668550  1
  S  S130  1  0.501694  0.911643  0.933868  1
  S  S131  1  0.334162  0.008347  0.829410  1
  S  S132  1  0.338666  0.750000  0.818147  1
  S  S133  1  0.078247  0.112940  0.570080  1
  S  S134  1  0.158221  0.616564  0.329812  1
  S  S135  1  0.998395  0.750000  0.834081  1
  S  S136  1  0.661123  0.750000  0.326826  1
  S  S137  1  0.921753  0.612940  0.429920  1
  S  S138  1  0.160500  0.880608  0.543612  1
  S  S139  1  0.839500  0.119392  0.456388  1
  S  S140  1  0.567976  0.385258  0.750000  1
  S  S141  1  0.432024  0.614742  0.250000  1
  S  S142  1  0.894141  0.886505  0.250000  1
  S  S143  1  0.153455  0.419383  0.250000  1
  S  S144  1  0.389024  0.880216  0.431238  1
  S  S145  1  0.329759  0.250000  0.511726  1
  S  S146  1  0.610976  0.119784  0.568762  1
  S  S147  1  0.838775  0.560147  0.925251  1
  S  S148  1  0.846545  0.919383  0.750000  1
  S  S149  1  0.610976  0.380216  0.568762  1
  O  O150  1  0.143329  0.750000  0.435791  1
  O  O151  1  0.847786  0.113603  0.250000  1
  O  O152  1  0.525304  0.887266  0.750000  1
  O  O153  1  0.525304  0.612734  0.750000  1
  O  O154  1  0.856671  0.250000  0.935791  1
  O  O155  1  0.847786  0.386397  0.250000  1
  O  O156  1  0.143329  0.750000  0.064209  1
  O  O157  1  0.152214  0.613603  0.750000  1
  O  O158  1  0.474696  0.387266  0.250000  1
  O  O159  1  0.856671  0.250000  0.564209  1
  O  O160  1  0.474696  0.112734  0.250000  1
  O  O161  1  0.152214  0.886397  0.750000  1
