# generated using pymatgen
data_Ca4SmB3O10
_symmetry_space_group_name_H-M   'P 1'
_cell_length_a   3.60416138
_cell_length_b   8.16652565
_cell_length_c   9.05494636
_cell_angle_alpha   63.19581114
_cell_angle_beta   84.91633205
_cell_angle_gamma   78.66762244
_symmetry_Int_Tables_number   1
_chemical_formula_structural   Ca4SmB3O10
_chemical_formula_sum   'Ca4 Sm1 B3 O10'
_cell_volume   233.24409287
_cell_formula_units_Z   1
loop_
 _symmetry_equiv_pos_site_id
 _symmetry_equiv_pos_as_xyz
  1  'x, y, z'
loop_
 _atom_site_type_symbol
 _atom_site_label
 _atom_site_symmetry_multiplicity
 _atom_site_fract_x
 _atom_site_fract_y
 _atom_site_fract_z
 _atom_site_occupancy
  B  B0  1  0.915948  0.756566  0.389792  1
  B  B1  1  0.915948  0.146358  0.610208  1
  B  B2  1  0.295892  0.377632  0.000000  1
  O  O3  1  0.391062  0.203959  0.000000  1
  O  O4  1  0.248429  0.537875  0.850845  1
  O  O5  1  0.577581  0.825978  0.000000  1
  O  O6  1  0.913747  0.946150  0.287732  1
  O  O7  1  0.913747  0.233882  0.712268  1
  O  O8  1  0.725717  0.237708  0.460531  1
  O  O9  1  0.725717  0.698238  0.539469  1
  O  O10  1  0.113232  0.966615  0.657224  1
  O  O11  1  0.113232  0.623839  0.342776  1
  O  O12  1  0.248429  0.388720  0.149155  1
  Ca  Ca13  1  0.338189  0.448174  0.636306  1
  Ca  Ca14  1  0.338189  0.084480  0.363694  1
  Ca  Ca15  1  0.669721  0.529608  0.225949  1
  Ca  Ca16  1  0.669721  0.755557  0.774051  1
  Sm  Sm17  1  0.997419  0.000762  0.000000  1
