# generated using pymatgen
data_CeGaPd2
_symmetry_space_group_name_H-M   'P 1'
_cell_length_a   5.75923213
_cell_length_b   7.09335008
_cell_length_c   7.65134101
_cell_angle_alpha   90.00000000
_cell_angle_beta   90.00000000
_cell_angle_gamma   90.00000000
_symmetry_Int_Tables_number   1
_chemical_formula_structural   CeGaPd2
_chemical_formula_sum   'Ce4 Ga4 Pd8'
_cell_volume   312.57449340
_cell_formula_units_Z   4
loop_
 _symmetry_equiv_pos_site_id
 _symmetry_equiv_pos_as_xyz
  1  'x, y, z'
loop_
 _atom_site_type_symbol
 _atom_site_label
 _atom_site_symmetry_multiplicity
 _atom_site_fract_x
 _atom_site_fract_y
 _atom_site_fract_z
 _atom_site_occupancy
  Ce  Ce0  1  0.844549  0.250000  0.534302  1
  Ce  Ce1  1  0.155451  0.750000  0.465698  1
  Ce  Ce2  1  0.344549  0.750000  0.965698  1
  Ce  Ce3  1  0.655451  0.250000  0.034302  1
  Ga  Ga4  1  0.652925  0.750000  0.618091  1
  Ga  Ga5  1  0.347075  0.250000  0.381909  1
  Ga  Ga6  1  0.847075  0.750000  0.118091  1
  Ga  Ga7  1  0.152925  0.250000  0.881909  1
  Pd  Pd8  1  0.913461  0.550465  0.820753  1
  Pd  Pd9  1  0.586539  0.949535  0.320753  1
  Pd  Pd10  1  0.586539  0.550465  0.320753  1
  Pd  Pd11  1  0.413461  0.449535  0.679247  1
  Pd  Pd12  1  0.413461  0.050465  0.679247  1
  Pd  Pd13  1  0.913461  0.949535  0.820753  1
  Pd  Pd14  1  0.086539  0.050465  0.179247  1
  Pd  Pd15  1  0.086539  0.449535  0.179247  1
