# generated using pymatgen
data_KNb4AsO13
_symmetry_space_group_name_H-M   'P 1'
_cell_length_a   7.49878108
_cell_length_b   14.99614483
_cell_length_c   10.16426964
_cell_angle_alpha   90.00527827
_cell_angle_beta   90.00359613
_cell_angle_gamma   90.77705994
_symmetry_Int_Tables_number   1
_chemical_formula_structural   KNb4AsO13
_chemical_formula_sum   'K4 Nb16 As4 O52'
_cell_volume   1142.89552845
_cell_formula_units_Z   4
loop_
 _symmetry_equiv_pos_site_id
 _symmetry_equiv_pos_as_xyz
  1  'x, y, z'
loop_
 _atom_site_type_symbol
 _atom_site_label
 _atom_site_symmetry_multiplicity
 _atom_site_fract_x
 _atom_site_fract_y
 _atom_site_fract_z
 _atom_site_occupancy
  K  K0  1  0.051806  0.025880  0.906410  1
  K  K1  1  0.053026  0.526577  0.938247  1
  K  K2  1  0.945729  0.972920  0.432991  1
  K  K3  1  0.946687  0.473285  0.438116  1
  Nb  Nb4  1  0.055540  0.699244  0.252269  1
  Nb  Nb5  1  0.056571  0.199238  0.251596  1
  Nb  Nb6  1  0.322144  0.835990  0.001751  1
  Nb  Nb7  1  0.327312  0.838344  0.501100  1
  Nb  Nb8  1  0.323538  0.335809  0.001460  1
  Nb  Nb9  1  0.328215  0.338235  0.500968  1
  Nb  Nb10  1  0.398456  0.527878  0.252185  1
  Nb  Nb11  1  0.398641  0.028129  0.251656  1
  Nb  Nb12  1  0.600095  0.971671  0.751682  1
  Nb  Nb13  1  0.600552  0.471871  0.752060  1
  Nb  Nb14  1  0.670848  0.661477  0.001605  1
  Nb  Nb15  1  0.676087  0.663889  0.501092  1
  Nb  Nb16  1  0.672657  0.161319  0.001565  1
  Nb  Nb17  1  0.676968  0.163833  0.501019  1
  Nb  Nb18  1  0.943418  0.799556  0.751863  1
  Nb  Nb19  1  0.943601  0.300823  0.751896  1
  As  As20  1  0.336648  0.668205  0.749031  1
  As  As21  1  0.338042  0.169063  0.748276  1
  As  As22  1  0.662746  0.831607  0.248890  1
  As  As23  1  0.663638  0.331669  0.248853  1
  O  O24  1  0.112122  0.683990  0.752599  1
  O  O25  1  0.113426  0.184797  0.751619  1
  O  O26  1  0.137140  0.852156  0.612911  1
  O  O27  1  0.138390  0.851339  0.882078  1
  O  O28  1  0.138193  0.351714  0.613100  1
  O  O29  1  0.139181  0.352258  0.882899  1
  O  O30  1  0.162368  0.581267  0.250228  1
  O  O31  1  0.163192  0.081537  0.251956  1
  O  O32  1  0.190239  0.745190  0.108563  1
  O  O33  1  0.191568  0.746217  0.390231  1
  O  O34  1  0.191118  0.245065  0.108031  1
  O  O35  1  0.192534  0.246704  0.389551  1
  O  O36  1  0.295577  0.931447  0.112479  1
  O  O37  1  0.295081  0.930120  0.382143  1
  O  O38  1  0.296503  0.430912  0.113227  1
  O  O39  1  0.295123  0.430596  0.382919  1
  O  O40  1  0.368777  0.556054  0.753290  1
  O  O41  1  0.368844  0.056788  0.750934  1
  O  O42  1  0.432388  0.716342  0.609553  1
  O  O43  1  0.432756  0.716471  0.888481  1
  O  O44  1  0.434097  0.216911  0.608941  1
  O  O45  1  0.433863  0.216857  0.888053  1
  O  O46  1  0.489796  0.595196  0.108289  1
  O  O47  1  0.492275  0.596127  0.390017  1
  O  O48  1  0.490644  0.095516  0.108235  1
  O  O49  1  0.493492  0.095965  0.389801  1
  O  O50  1  0.508442  0.904824  0.607591  1
  O  O51  1  0.505481  0.903836  0.889312  1
  O  O52  1  0.509595  0.404751  0.608107  1
  O  O53  1  0.507091  0.403831  0.890009  1
  O  O54  1  0.566672  0.783818  0.109264  1
  O  O55  1  0.566223  0.783198  0.388298  1
  O  O56  1  0.568010  0.283500  0.109323  1
  O  O57  1  0.567063  0.283433  0.388266  1
  O  O58  1  0.630564  0.943660  0.253091  1
  O  O59  1  0.630943  0.443774  0.253240  1
  O  O60  1  0.702847  0.568956  0.613246  1
  O  O61  1  0.704353  0.569436  0.883074  1
  O  O62  1  0.704845  0.068747  0.612704  1
  O  O63  1  0.702803  0.069376  0.881924  1
  O  O64  1  0.809476  0.754287  0.607577  1
  O  O65  1  0.807027  0.753131  0.889604  1
  O  O66  1  0.809745  0.254698  0.608191  1
  O  O67  1  0.808396  0.253118  0.889688  1
  O  O68  1  0.835803  0.917779  0.749025  1
  O  O69  1  0.837241  0.418730  0.750172  1
  O  O70  1  0.861473  0.648366  0.113247  1
  O  O71  1  0.860493  0.647212  0.382794  1
  O  O72  1  0.863344  0.147638  0.112492  1
  O  O73  1  0.860975  0.147893  0.382219  1
  O  O74  1  0.887047  0.815265  0.253555  1
  O  O75  1  0.887998  0.315499  0.252776  1
