# generated using pymatgen
data_Mg7P2(HO2)8
_symmetry_space_group_name_H-M   'P 1'
_cell_length_a   5.31895739
_cell_length_b   11.74682968
_cell_length_c   9.79872067
_cell_angle_alpha   90.00000000
_cell_angle_beta   96.56355256
_cell_angle_gamma   90.00000000
_symmetry_Int_Tables_number   1
_chemical_formula_structural   Mg7P2(HO2)8
_chemical_formula_sum   'Mg14 P4 H16 O32'
_cell_volume   608.21998403
_cell_formula_units_Z   2
loop_
 _symmetry_equiv_pos_site_id
 _symmetry_equiv_pos_as_xyz
  1  'x, y, z'
loop_
 _atom_site_type_symbol
 _atom_site_label
 _atom_site_symmetry_multiplicity
 _atom_site_fract_x
 _atom_site_fract_y
 _atom_site_fract_z
 _atom_site_occupancy
  Mg  Mg0  1  0.500000  0.500000  0.500000  1
  Mg  Mg1  1  0.000000  0.000000  0.000000  1
  Mg  Mg2  1  0.239141  0.674885  0.289110  1
  Mg  Mg3  1  0.739141  0.825115  0.789110  1
  Mg  Mg4  1  0.760859  0.325115  0.710890  1
  Mg  Mg5  1  0.260859  0.174885  0.210890  1
  Mg  Mg6  1  0.251100  0.929541  0.503906  1
  Mg  Mg7  1  0.751100  0.570459  0.003906  1
  Mg  Mg8  1  0.748900  0.070459  0.496094  1
  Mg  Mg9  1  0.248900  0.429541  0.996094  1
  Mg  Mg10  1  0.258086  0.710186  0.005597  1
  Mg  Mg11  1  0.758086  0.789814  0.505597  1
  Mg  Mg12  1  0.741914  0.289814  0.994403  1
  Mg  Mg13  1  0.241914  0.210186  0.494403  1
  P  P14  1  0.470763  0.080530  0.788047  1
  P  P15  1  0.970763  0.419470  0.288047  1
  P  P16  1  0.529237  0.919470  0.211953  1
  P  P17  1  0.029237  0.580530  0.711953  1
  H  H18  1  0.496392  0.523698  0.195819  1
  H  H19  1  0.996392  0.976302  0.695819  1
  H  H20  1  0.503608  0.476302  0.804181  1
  H  H21  1  0.003608  0.023698  0.304181  1
  H  H22  1  0.306705  0.372154  0.649382  1
  H  H23  1  0.806705  0.127847  0.149382  1
  H  H24  1  0.693295  0.627846  0.350618  1
  H  H25  1  0.193295  0.872154  0.850618  1
  H  H26  1  0.982080  0.836373  0.307639  1
  H  H27  1  0.482080  0.663627  0.807639  1
  H  H28  1  0.017920  0.163627  0.692361  1
  H  H29  1  0.517920  0.336373  0.192361  1
  H  H30  1  0.867018  0.752615  0.123976  1
  H  H31  1  0.367018  0.747385  0.623976  1
  H  H32  1  0.132982  0.247385  0.876024  1
  H  H33  1  0.632982  0.252615  0.376024  1
  O  O34  1  0.056395  0.796338  0.390923  1
  O  O35  1  0.556395  0.703662  0.890923  1
  O  O36  1  0.943605  0.203662  0.609077  1
  O  O37  1  0.443605  0.296338  0.109077  1
  O  O38  1  0.439175  0.070237  0.625022  1
  O  O39  1  0.939175  0.429763  0.125022  1
  O  O40  1  0.560825  0.929763  0.374978  1
  O  O41  1  0.060825  0.570237  0.874978  1
  O  O42  1  0.426699  0.347056  0.587515  1
  O  O43  1  0.926699  0.152944  0.087515  1
  O  O44  1  0.573301  0.652944  0.412485  1
  O  O45  1  0.073301  0.847056  0.912485  1
  O  O46  1  0.582571  0.199175  0.826002  1
  O  O47  1  0.082571  0.300825  0.326002  1
  O  O48  1  0.417429  0.800825  0.173998  1
  O  O49  1  0.917429  0.699175  0.673998  1
  O  O50  1  0.428352  0.562492  0.110766  1
  O  O51  1  0.928352  0.937508  0.610766  1
  O  O52  1  0.571648  0.437508  0.889234  1
  O  O53  1  0.071648  0.062492  0.389234  1
  O  O54  1  0.964172  0.681936  0.123746  1
  O  O55  1  0.464172  0.818064  0.623746  1
  O  O56  1  0.035828  0.318064  0.876254  1
  O  O57  1  0.535828  0.181936  0.376254  1
  O  O58  1  0.652349  0.986612  0.853268  1
  O  O59  1  0.152349  0.513388  0.353268  1
  O  O60  1  0.347651  0.013388  0.146732  1
  O  O61  1  0.847651  0.486612  0.646732  1
  O  O62  1  0.201841  0.069319  0.834755  1
  O  O63  1  0.701841  0.430681  0.334755  1
  O  O64  1  0.798159  0.930681  0.165245  1
  O  O65  1  0.298159  0.569319  0.665245  1
