# generated using pymatgen
data_EuIn2Au
_symmetry_space_group_name_H-M   'P 1'
_cell_length_a   4.70800639
_cell_length_b   6.04342508
_cell_length_c   7.68697693
_cell_angle_alpha   89.93897262
_cell_angle_beta   89.93129406
_cell_angle_gamma   112.52151076
_symmetry_Int_Tables_number   1
_chemical_formula_structural   EuIn2Au
_chemical_formula_sum   'Eu2 In4 Au2'
_cell_volume   202.03314917
_cell_formula_units_Z   2
loop_
 _symmetry_equiv_pos_site_id
 _symmetry_equiv_pos_as_xyz
  1  'x, y, z'
loop_
 _atom_site_type_symbol
 _atom_site_label
 _atom_site_symmetry_multiplicity
 _atom_site_fract_x
 _atom_site_fract_y
 _atom_site_fract_z
 _atom_site_occupancy
  Eu  Eu0  1  0.922199  0.846104  0.250068  1
  Eu  Eu1  1  0.077815  0.153967  0.749935  1
  In  In2  1  0.365432  0.730944  0.550941  1
  In  In3  1  0.634474  0.268949  0.449201  1
  In  In4  1  0.365320  0.730827  0.948520  1
  In  In5  1  0.634708  0.269114  0.051318  1
  Au  Au6  1  0.210045  0.421175  0.250422  1
  Au  Au7  1  0.790008  0.578920  0.749595  1
