# generated using pymatgen
data_OsC4ClO4
_symmetry_space_group_name_H-M   'P 1'
_cell_length_a   9.48153719
_cell_length_b   9.94221466
_cell_length_c   16.06322670
_cell_angle_alpha   90.00000000
_cell_angle_beta   90.00000000
_cell_angle_gamma   90.00000000
_symmetry_Int_Tables_number   1
_chemical_formula_structural   OsC4ClO4
_chemical_formula_sum   'Os8 C32 Cl8 O32'
_cell_volume   1514.23987035
_cell_formula_units_Z   8
loop_
 _symmetry_equiv_pos_site_id
 _symmetry_equiv_pos_as_xyz
  1  'x, y, z'
loop_
 _atom_site_type_symbol
 _atom_site_label
 _atom_site_symmetry_multiplicity
 _atom_site_fract_x
 _atom_site_fract_y
 _atom_site_fract_z
 _atom_site_occupancy
  Os  Os0  1  0.027425  0.525019  0.362415  1
  Os  Os1  1  0.527425  0.974981  0.637585  1
  Os  Os2  1  0.315158  0.503581  0.436364  1
  Os  Os3  1  0.684842  0.003581  0.063636  1
  Os  Os4  1  0.184842  0.496419  0.936364  1
  Os  Os5  1  0.815158  0.996419  0.563636  1
  Os  Os6  1  0.472575  0.474981  0.862415  1
  Os  Os7  1  0.972575  0.025019  0.137585  1
  C  C8  1  0.442202  0.285306  0.859526  1
  C  C9  1  0.274908  0.621213  0.015794  1
  C  C10  1  0.871712  0.856259  0.643687  1
  C  C11  1  0.036313  0.026818  0.020305  1
  C  C12  1  0.628288  0.143741  0.143687  1
  C  C13  1  0.162471  0.034934  0.181770  1
  C  C14  1  0.463687  0.973182  0.520305  1
  C  C15  1  0.351716  0.360268  0.360651  1
  C  C16  1  0.375082  0.493045  0.755045  1
  C  C17  1  0.662471  0.465066  0.818230  1
  C  C18  1  0.875082  0.006955  0.244955  1
  C  C19  1  0.337529  0.965066  0.681770  1
  C  C20  1  0.942202  0.214694  0.140474  1
  C  C21  1  0.501220  0.488818  0.485037  1
  C  C22  1  0.998780  0.511182  0.985037  1
  C  C23  1  0.557798  0.785306  0.640474  1
  C  C24  1  0.148284  0.639732  0.860651  1
  C  C25  1  0.536313  0.473182  0.979695  1
  C  C26  1  0.057798  0.714694  0.359526  1
  C  C27  1  0.225092  0.378787  0.515794  1
  C  C28  1  0.774908  0.878787  0.984206  1
  C  C29  1  0.725092  0.121213  0.484206  1
  C  C30  1  0.001220  0.011182  0.514963  1
  C  C31  1  0.837529  0.534934  0.318230  1
  C  C32  1  0.124918  0.506955  0.255045  1
  C  C33  1  0.648284  0.860268  0.139349  1
  C  C34  1  0.128288  0.356259  0.856313  1
  C  C35  1  0.498780  0.988818  0.014963  1
  C  C36  1  0.963687  0.526818  0.479695  1
  C  C37  1  0.371712  0.643741  0.356313  1
  C  C38  1  0.851716  0.139732  0.639349  1
  C  C39  1  0.624918  0.993045  0.744955  1
  Cl  Cl40  1  0.991462  0.777448  0.134070  1
  Cl  Cl41  1  0.747335  0.191767  0.970582  1
  Cl  Cl42  1  0.008538  0.277448  0.365930  1
  Cl  Cl43  1  0.752665  0.808233  0.470582  1
  Cl  Cl44  1  0.491462  0.722552  0.865930  1
  Cl  Cl45  1  0.508538  0.222552  0.634070  1
  Cl  Cl46  1  0.247335  0.308233  0.029418  1
  Cl  Cl47  1  0.252665  0.691767  0.529418  1
  O  O48  1  0.074016  0.023955  0.952204  1
  O  O49  1  0.674188  0.193317  0.436754  1
  O  O50  1  0.096981  0.270927  0.811375  1
  O  O51  1  0.578432  0.670823  0.647109  1
  O  O52  1  0.622571  0.771812  0.183678  1
  O  O53  1  0.425984  0.976045  0.452204  1
  O  O54  1  0.314701  0.502212  0.692981  1
  O  O55  1  0.885188  0.524325  0.009430  1
  O  O56  1  0.325812  0.693317  0.063246  1
  O  O57  1  0.614812  0.475675  0.509430  1
  O  O58  1  0.776766  0.456295  0.793443  1
  O  O59  1  0.925984  0.523955  0.547796  1
  O  O60  1  0.421568  0.170823  0.852891  1
  O  O61  1  0.685299  0.002212  0.807019  1
  O  O62  1  0.574016  0.476045  0.047796  1
  O  O63  1  0.596981  0.229073  0.188625  1
  O  O64  1  0.223234  0.956295  0.706557  1
  O  O65  1  0.114812  0.024325  0.490570  1
  O  O66  1  0.825812  0.806683  0.936754  1
  O  O67  1  0.185299  0.497788  0.192981  1
  O  O68  1  0.377429  0.271812  0.316322  1
  O  O69  1  0.276766  0.043705  0.206557  1
  O  O70  1  0.174188  0.306683  0.563246  1
  O  O71  1  0.877429  0.228188  0.683678  1
  O  O72  1  0.385188  0.975675  0.990570  1
  O  O73  1  0.814701  0.997788  0.307019  1
  O  O74  1  0.122571  0.728188  0.816322  1
  O  O75  1  0.723234  0.543705  0.293443  1
  O  O76  1  0.921568  0.329177  0.147109  1
  O  O77  1  0.078432  0.829177  0.352891  1
  O  O78  1  0.903019  0.770927  0.688625  1
  O  O79  1  0.403019  0.729073  0.311375  1
