# generated using pymatgen
data_Pb3O4
_symmetry_space_group_name_H-M   'P 1'
_cell_length_a   3.49728212
_cell_length_b   6.90937393
_cell_length_c   10.12499731
_cell_angle_alpha   89.95020009
_cell_angle_beta   90.07307916
_cell_angle_gamma   90.02613208
_symmetry_Int_Tables_number   1
_chemical_formula_structural   Pb3O4
_chemical_formula_sum   'Pb6 O8'
_cell_volume   244.66042121
_cell_formula_units_Z   2
loop_
 _symmetry_equiv_pos_site_id
 _symmetry_equiv_pos_as_xyz
  1  'x, y, z'
loop_
 _atom_site_type_symbol
 _atom_site_label
 _atom_site_symmetry_multiplicity
 _atom_site_fract_x
 _atom_site_fract_y
 _atom_site_fract_z
 _atom_site_occupancy
  Pb  Pb0  1  0.501575  0.483457  0.307226  1
  Pb  Pb1  1  0.501076  0.018833  0.806751  1
  Pb  Pb2  1  0.000428  0.499688  -0.000139  1
  Pb  Pb3  1  0.497537  0.983549  0.192786  1
  Pb  Pb4  1  0.498845  0.519005  0.693192  1
  Pb  Pb5  1  0.999789  0.999152  0.500137  1
  O  O6  1  0.500451  0.335104  0.088294  1
  O  O7  1  0.500280  0.664282  0.911785  1
  O  O8  1  0.499978  0.163826  0.588342  1
  O  O9  1  0.499748  0.834716  0.411586  1
  O  O10  1  0.999808  0.351836  0.808715  1
  O  O11  1  0.999092  0.147437  0.308924  1
  O  O12  1  0.000568  0.851497  0.691282  1
  O  O13  1  0.000826  0.647619  0.191120  1
