# generated using pymatgen
data_Cs3Sb2N3(O3F2)3
_symmetry_space_group_name_H-M   'P 1'
_cell_length_a   7.66033401
_cell_length_b   9.98315293
_cell_length_c   11.87084437
_cell_angle_alpha   90.30066373
_cell_angle_beta   108.82345718
_cell_angle_gamma   89.99999756
_symmetry_Int_Tables_number   1
_chemical_formula_structural   Cs3Sb2N3(O3F2)3
_chemical_formula_sum   'Cs6 Sb4 N6 O18 F12'
_cell_volume   859.24872642
_cell_formula_units_Z   2
loop_
 _symmetry_equiv_pos_site_id
 _symmetry_equiv_pos_as_xyz
  1  'x, y, z'
loop_
 _atom_site_type_symbol
 _atom_site_label
 _atom_site_symmetry_multiplicity
 _atom_site_fract_x
 _atom_site_fract_y
 _atom_site_fract_z
 _atom_site_occupancy
  Cs  Cs0  1  0.556127  0.340453  0.375121  1
  Cs  Cs1  1  0.443873  0.659547  0.624879  1
  Cs  Cs2  1  0.818994  0.840453  0.375121  1
  Cs  Cs3  1  0.500000  0.500000  0.000000  1
  Cs  Cs4  1  0.181006  0.159547  0.624879  1
  Cs  Cs5  1  0.500000  0.000000  0.000000  1
  Sb  Sb6  1  0.736361  0.282806  0.772325  1
  Sb  Sb7  1  0.964036  0.217194  0.227675  1
  Sb  Sb8  1  0.035964  0.782806  0.772325  1
  Sb  Sb9  1  0.263639  0.717194  0.227675  1
  N  N10  1  0.883643  0.750000  0.000000  1
  N  N11  1  0.949395  0.504656  0.628358  1
  N  N12  1  0.116357  0.250000  1.000000  1
  N  N13  1  0.050605  0.495344  0.371642  1
  N  N14  1  0.678963  0.004656  0.628358  1
  N  N15  1  0.321037  0.995344  0.371642  1
  O  O16  1  0.758232  0.790573  0.908737  1
  O  O17  1  0.902438  0.380852  0.616233  1
  O  O18  1  0.713795  0.880852  0.616233  1
  O  O19  1  0.849496  0.709427  0.091263  1
  O  O20  1  0.836336  0.593154  0.574259  1
  O  O21  1  0.946446  0.250000  0.000000  1
  O  O22  1  0.412644  0.962726  0.303392  1
  O  O23  1  0.150504  0.290573  0.908737  1
  O  O24  1  0.163664  0.406846  0.425741  1
  O  O25  1  0.241768  0.209427  0.091263  1
  O  O26  1  0.737923  0.093154  0.574259  1
  O  O27  1  0.587356  0.037274  0.696608  1
  O  O28  1  0.097562  0.619148  0.383767  1
  O  O29  1  0.262077  0.906846  0.425741  1
  O  O30  1  0.890747  0.462726  0.303392  1
  O  O31  1  0.109253  0.537274  0.696608  1
  O  O32  1  0.053553  0.750000  1.000000  1
  O  O33  1  0.286205  0.119148  0.383767  1
  F  F34  1  0.079142  0.974306  0.821708  1
  F  F35  1  0.742566  0.474306  0.821708  1
  F  F36  1  0.478053  0.658773  0.364797  1
  F  F37  1  0.552084  0.250045  0.855520  1
  F  F38  1  0.886744  0.158773  0.364797  1
  F  F39  1  0.257434  0.525694  0.178292  1
  F  F40  1  0.303436  0.750045  0.855520  1
  F  F41  1  0.521947  0.341227  0.635203  1
  F  F42  1  0.447916  0.749955  0.144480  1
  F  F43  1  0.113256  0.841227  0.635203  1
  F  F44  1  0.696564  0.249955  0.144480  1
  F  F45  1  0.920858  0.025694  0.178292  1
