# generated using pymatgen
data_KRb2Mo(OF)3
_symmetry_space_group_name_H-M   'P 1'
_cell_length_a   6.41270896
_cell_length_b   12.95960888
_cell_length_c   11.25619395
_cell_angle_alpha   29.61803439
_cell_angle_beta   55.17828680
_cell_angle_gamma   60.27663147
_symmetry_Int_Tables_number   1
_chemical_formula_structural   KRb2Mo(OF)3
_chemical_formula_sum   'K2 Rb4 Mo2 O6 F6'
_cell_volume   379.53212532
_cell_formula_units_Z   2
loop_
 _symmetry_equiv_pos_site_id
 _symmetry_equiv_pos_as_xyz
  1  'x, y, z'
loop_
 _atom_site_type_symbol
 _atom_site_label
 _atom_site_symmetry_multiplicity
 _atom_site_fract_x
 _atom_site_fract_y
 _atom_site_fract_z
 _atom_site_occupancy
  K  K0  1  0.494403  0.499717  0.507721  1
  K  K1  1  0.491217  0.001023  0.507458  1
  Rb  Rb2  1  0.242416  0.497670  0.263589  1
  Rb  Rb3  1  0.742563  0.002388  0.757190  1
  Rb  Rb4  1  0.238169  0.000398  0.260333  1
  Rb  Rb5  1  0.737269  0.502173  0.757697  1
  Mo  Mo6  1  0.982357  0.999284  0.020984  1
  Mo  Mo7  1  0.980586  0.501458  0.018851  1
  O  O8  1  0.216585  0.298990  0.179209  1
  O  O9  1  0.791319  0.997570  0.215498  1
  O  O10  1  0.222127  0.198050  0.781295  1
  O  O11  1  0.794576  0.503628  0.209597  1
  O  O12  1  0.826017  0.797636  0.183291  1
  O  O13  1  0.815909  0.696837  0.785575  1
  F  F14  1  0.218008  0.003992  0.775099  1
  F  F15  1  0.225729  0.778240  0.222961  1
  F  F16  1  0.767318  0.278712  0.230453  1
  F  F17  1  0.219389  0.503715  0.775419  1
  F  F18  1  0.222905  0.724092  0.775690  1
  F  F19  1  0.772633  0.220869  0.785250  1
