# generated using pymatgen
data_Co(Bi3O5)4
_symmetry_space_group_name_H-M   'P 1'
_cell_length_a   8.90121563
_cell_length_b   8.90131405
_cell_length_c   8.90126972
_cell_angle_alpha   109.47144195
_cell_angle_beta   109.47073892
_cell_angle_gamma   109.47122473
_symmetry_Int_Tables_number   1
_chemical_formula_structural   Co(Bi3O5)4
_chemical_formula_sum   'Co1 Bi12 O20'
_cell_volume   542.91881123
_cell_formula_units_Z   1
loop_
 _symmetry_equiv_pos_site_id
 _symmetry_equiv_pos_as_xyz
  1  'x, y, z'
loop_
 _atom_site_type_symbol
 _atom_site_label
 _atom_site_symmetry_multiplicity
 _atom_site_fract_x
 _atom_site_fract_y
 _atom_site_fract_z
 _atom_site_occupancy
  Co  Co0  1  0.999997  -0.000001  0.999996  1
  Bi  Bi1  1  0.192827  0.860913  0.696944  1
  Bi  Bi2  1  0.139102  0.331923  0.836043  1
  Bi  Bi3  1  0.163959  0.495895  0.303073  1
  Bi  Bi4  1  0.331922  0.836031  0.139090  1
  Bi  Bi5  1  0.504103  0.668054  0.807160  1
  Bi  Bi6  1  0.303054  0.163948  0.495875  1
  Bi  Bi7  1  0.668066  0.807181  0.504111  1
  Bi  Bi8  1  0.495880  0.303050  0.163962  1
  Bi  Bi9  1  0.696957  0.192848  0.860914  1
  Bi  Bi10  1  0.807170  0.504123  0.668076  1
  Bi  Bi11  1  0.860902  0.696938  0.192830  1
  Bi  Bi12  1  0.836051  0.139099  0.331937  1
  O  O13  1  0.391399  0.000001  1.000000  1
  O  O14  1  0.357823  0.123066  0.741814  1
  O  O15  1  0.234788  0.618755  0.876942  1
  O  O16  1  0.616015  0.258182  0.381245  1
  O  O17  1  0.795776  0.000004  0.000003  1
  O  O18  1  0.618760  0.876946  0.234780  1
  O  O19  1  0.741825  0.357842  0.123066  1
  O  O20  1  0.383966  0.765206  0.642157  1
  O  O21  1  0.000004  0.000006  0.795778  1
  O  O22  1  0.204232  0.204215  0.204225  1
  O  O23  1  0.999989  0.795772  0.999982  1
  O  O24  1  0.000005  -0.000003  0.391395  1
  O  O25  1  0.608597  0.608595  0.608586  1
  O  O26  1  0.000009  0.391397  0.000004  1
  O  O27  1  0.876940  0.234751  0.618758  1
  O  O28  1  0.258178  0.381233  0.615993  1
  O  O29  1  0.642175  0.383999  0.765239  1
  O  O30  1  0.765235  0.642192  0.383995  1
  O  O31  1  0.123057  0.741816  0.357834  1
  O  O32  1  0.381236  0.616024  0.258194  1
