# generated using pymatgen
data_Al(HO)3
_symmetry_space_group_name_H-M   'P 1'
_cell_length_a   8.78179569
_cell_length_b   5.09406694
_cell_length_c   9.40901360
_cell_angle_alpha   89.26980737
_cell_angle_beta   89.51557310
_cell_angle_gamma   89.59828133
_symmetry_Int_Tables_number   1
_chemical_formula_structural   Al(HO)3
_chemical_formula_sum   'Al8 H24 O24'
_cell_volume   420.85348639
_cell_formula_units_Z   8
loop_
 _symmetry_equiv_pos_site_id
 _symmetry_equiv_pos_as_xyz
  1  'x, y, z'
loop_
 _atom_site_type_symbol
 _atom_site_label
 _atom_site_symmetry_multiplicity
 _atom_site_fract_x
 _atom_site_fract_y
 _atom_site_fract_z
 _atom_site_occupancy
  Al  Al0  1  0.830600  0.030166  0.506457  1
  Al  Al1  1  0.328930  0.472532  0.485049  1
  Al  Al2  1  0.159526  0.505660  0.987807  1
  Al  Al3  1  0.676934  0.999374  0.018713  1
  Al  Al4  1  0.156448  0.980210  0.491325  1
  Al  Al5  1  0.662945  0.524567  0.504387  1
  Al  Al6  1  0.823297  0.476976  0.018429  1
  Al  Al7  1  0.344533  0.022466  0.983117  1
  H  H8  1  0.459709  0.814312  0.612806  1
  H  H9  1  0.970479  0.674218  0.391533  1
  H  H10  1  0.540089  0.328367  0.884554  1
  H  H11  1  0.003323  0.360721  0.212376  1
  H  H12  1  0.538426  0.343198  0.285215  1
  H  H13  1  0.029047  0.330299  0.609153  1
  H  H14  1  0.506075  0.740846  0.174747  1
  H  H15  1  0.966626  0.825025  0.891384  1
  H  H16  1  0.884048  0.649514  0.677383  1
  H  H17  1  0.380519  0.909041  0.344703  1
  H  H18  1  0.110444  0.140666  0.819520  1
  H  H19  1  0.211153  0.287527  0.277386  1
  H  H20  1  0.610449  0.157013  0.680027  1
  H  H21  1  0.813258  0.808282  0.222106  1
  H  H22  1  0.393405  0.641385  0.833733  1
  H  H23  1  0.307948  0.166012  0.692748  1
  H  H24  1  0.770005  0.316252  0.293191  1
  H  H25  1  0.705629  0.705938  0.807491  1
  H  H26  1  0.219212  0.808603  0.216243  1
  H  H27  1  0.077916  0.931070  0.120572  1
  H  H28  1  0.595823  0.975830  0.387076  1
  H  H29  1  0.199040  0.679135  0.694067  1
  H  H30  1  0.421109  0.411704  0.098623  1
  H  H31  1  0.800017  0.198882  0.802760  1
  O  O32  1  0.479726  0.626281  0.600689  1
  O  O33  1  0.986113  0.864845  0.391696  1
  O  O34  1  0.516430  0.139606  0.883568  1
  O  O35  1  0.010958  0.351283  0.108883  1
  O  O36  1  0.506045  0.362375  0.385573  1
  O  O37  1  0.007518  0.141338  0.607698  1
  O  O38  1  0.491200  0.882392  0.107054  1
  O  O39  1  0.990059  0.636245  0.894080  1
  O  O40  1  0.801363  0.721968  0.619860  1
  O  O41  1  0.293491  0.794901  0.362416  1
  O  O42  1  0.192947  0.208887  0.877038  1
  O  O43  1  0.686022  0.296307  0.128955  1
  O  O44  1  0.182526  0.295824  0.378044  1
  O  O45  1  0.693891  0.226655  0.622534  1
  O  O46  1  0.819827  0.795451  0.119039  1
  O  O47  1  0.303535  0.719660  0.878806  1
  O  O48  1  0.321906  0.145527  0.590249  1
  O  O49  1  0.812780  0.345109  0.392390  1
  O  O50  1  0.676034  0.671798  0.906418  1
  O  O51  1  0.177466  0.837805  0.112213  1
  O  O52  1  0.678676  0.849285  0.400833  1
  O  O53  1  0.172264  0.653261  0.594040  1
  O  O54  1  0.318996  0.335016  0.092601  1
  O  O55  1  0.829959  0.165534  0.901474  1
