# generated using pymatgen
data_Rb4CeH12C3O17
_symmetry_space_group_name_H-M   'P 1'
_cell_length_a   9.53983485
_cell_length_b   11.66490938
_cell_length_c   12.29089002
_cell_angle_alpha   61.94977746
_cell_angle_beta   68.43327536
_cell_angle_gamma   74.92901042
_symmetry_Int_Tables_number   1
_chemical_formula_structural   Rb4CeH12C3O17
_chemical_formula_sum   'Rb8 Ce2 H24 C6 O34'
_cell_volume   1116.22915370
_cell_formula_units_Z   2
loop_
 _symmetry_equiv_pos_site_id
 _symmetry_equiv_pos_as_xyz
  1  'x, y, z'
loop_
 _atom_site_type_symbol
 _atom_site_label
 _atom_site_symmetry_multiplicity
 _atom_site_fract_x
 _atom_site_fract_y
 _atom_site_fract_z
 _atom_site_occupancy
  Rb  Rb0  1  0.297028  0.634159  0.070443  1
  Rb  Rb1  1  0.702972  0.365841  0.929557  1
  Rb  Rb2  1  0.294581  0.945393  0.533206  1
  Rb  Rb3  1  0.705419  0.054607  0.466794  1
  Rb  Rb4  1  0.190297  0.885092  0.245348  1
  Rb  Rb5  1  0.809703  0.114908  0.754652  1
  Rb  Rb6  1  0.776019  0.510603  0.171985  1
  Rb  Rb7  1  0.223981  0.489397  0.828015  1
  Ce  Ce8  1  0.859750  0.670886  0.512865  1
  Ce  Ce9  1  0.140250  0.329114  0.487135  1
  H  H10  1  0.496001  0.753868  0.091718  1
  H  H11  1  0.489403  0.981431  0.232758  1
  H  H12  1  0.550384  0.869605  0.803368  1
  H  H13  1  0.716027  0.629416  0.917976  1
  H  H14  1  0.283973  0.370584  0.082024  1
  H  H15  1  0.979641  0.710714  0.992763  1
  H  H16  1  0.510597  0.018569  0.767242  1
  H  H17  1  0.196454  0.990245  0.939504  1
  H  H18  1  0.997729  0.455278  0.660959  1
  H  H19  1  0.527337  0.735366  0.145970  1
  H  H20  1  0.064521  0.916005  0.968875  1
  H  H21  1  0.056157  0.675401  0.965783  1
  H  H22  1  0.403972  0.693463  0.447509  1
  H  H23  1  0.596028  0.306537  0.552491  1
  H  H24  1  0.913912  0.887091  0.712101  1
  H  H25  1  0.935479  0.083995  0.031125  1
  H  H26  1  0.020359  0.289286  0.007237  1
  H  H27  1  0.943843  0.324599  0.034217  1
  H  H28  1  0.503999  0.246132  0.908282  1
  H  H29  1  0.086088  0.112909  0.287899  1
  H  H30  1  0.803546  0.009755  0.060496  1
  H  H31  1  0.002271  0.544722  0.339041  1
  H  H32  1  0.472663  0.264634  0.854030  1
  H  H33  1  0.449616  0.130395  0.196632  1
  C  C34  1  0.046671  0.252328  0.334623  1
  C  C35  1  0.449121  0.319735  0.330284  1
  C  C36  1  0.953329  0.747672  0.665377  1
  C  C37  1  0.298261  0.239710  0.708883  1
  C  C38  1  0.701739  0.760290  0.291117  1
  C  C39  1  0.550879  0.680265  0.669716  1
  O  O40  1  0.686369  0.862290  0.206363  1
  O  O41  1  0.958971  0.623815  0.707784  1
  O  O42  1  0.950211  0.794270  0.748132  1
  O  O43  1  0.041029  0.376185  0.292216  1
  O  O44  1  0.940878  0.384475  0.681044  1
  O  O45  1  0.049789  0.205730  0.251868  1
  O  O46  1  0.622911  0.566693  0.695272  1
  O  O47  1  0.345344  0.778083  0.422067  1
  O  O48  1  0.649947  0.321390  0.162593  1
  O  O49  1  0.654656  0.221917  0.577933  1
  O  O50  1  0.186325  0.176848  0.024181  1
  O  O51  1  0.848484  0.826980  0.364028  1
  O  O52  1  0.313631  0.137710  0.793637  1
  O  O53  1  0.410966  0.046240  0.254851  1
  O  O54  1  0.290772  0.351585  0.635167  1
  O  O55  1  0.615428  0.784526  0.604895  1
  O  O56  1  0.946362  0.827998  0.552626  1
  O  O57  1  0.151516  0.173020  0.635972  1
  O  O58  1  0.059122  0.615525  0.318956  1
  O  O59  1  0.848845  0.091767  0.002677  1
  O  O60  1  0.384572  0.215474  0.395105  1
  O  O61  1  0.112207  0.576086  0.431702  1
  O  O62  1  0.887793  0.423914  0.568298  1
  O  O63  1  0.605077  0.307254  0.297307  1
  O  O64  1  0.709228  0.648415  0.364833  1
  O  O65  1  0.151155  0.908233  0.997323  1
  O  O66  1  0.350053  0.678610  0.837407  1
  O  O67  1  0.435284  0.992869  0.002746  1
  O  O68  1  0.564716  0.007131  0.997254  1
  O  O69  1  0.589034  0.953760  0.745149  1
  O  O70  1  0.394923  0.692746  0.702693  1
  O  O71  1  0.377089  0.433307  0.304728  1
  O  O72  1  0.053638  0.172002  0.447374  1
  O  O73  1  0.813675  0.823152  0.975819  1
