# generated using pymatgen
data_NbH12C4NO13
_symmetry_space_group_name_H-M   'P 1'
_cell_length_a   6.97284393
_cell_length_b   8.88029224
_cell_length_c   13.64340448
_cell_angle_alpha   90.00000000
_cell_angle_beta   90.00000000
_cell_angle_gamma   110.28615134
_symmetry_Int_Tables_number   1
_chemical_formula_structural   NbH12C4NO13
_chemical_formula_sum   'Nb2 H24 C8 N2 O26'
_cell_volume   792.41043336
_cell_formula_units_Z   2
loop_
 _symmetry_equiv_pos_site_id
 _symmetry_equiv_pos_as_xyz
  1  'x, y, z'
loop_
 _atom_site_type_symbol
 _atom_site_label
 _atom_site_symmetry_multiplicity
 _atom_site_fract_x
 _atom_site_fract_y
 _atom_site_fract_z
 _atom_site_occupancy
  Nb  Nb0  1  0.672371  0.829420  0.250000  1
  Nb  Nb1  1  0.327629  0.170580  0.750000  1
  H  H2  1  0.074013  -0.059375  0.250000  1
  H  H3  1  0.199135  0.615467  0.193503  1
  H  H4  1  0.388069  0.597199  0.077623  1
  H  H5  1  0.412260  0.176666  0.277573  1
  H  H6  1  0.925987  0.059375  0.750000  1
  H  H7  1  0.626813  0.630226  0.874950  1
  H  H8  1  0.659332  0.936594  0.423057  1
  H  H9  1  0.373187  0.369774  0.125050  1
  H  H10  1  0.611931  0.402801  0.922377  1
  H  H11  1  0.587740  0.823334  0.722427  1
  H  H12  1  0.412260  0.176666  0.222427  1
  H  H13  1  0.460981  0.591235  0.250000  1
  H  H14  1  0.800865  0.384533  0.806497  1
  H  H15  1  0.340668  0.063406  0.923057  1
  H  H16  1  0.800865  0.384533  0.693503  1
  H  H17  1  0.611931  0.402801  0.577623  1
  H  H18  1  0.373187  0.369774  0.374950  1
  H  H19  1  0.587740  0.823334  0.777573  1
  H  H20  1  0.659332  0.936594  0.076943  1
  H  H21  1  0.340668  0.063406  0.576943  1
  H  H22  1  0.199135  0.615467  0.306497  1
  H  H23  1  0.539019  0.408765  0.750000  1
  H  H24  1  0.626813  0.630226  0.625050  1
  H  H25  1  0.388069  0.597199  0.422377  1
  C  C26  1  0.302478  0.308767  0.444096  1
  C  C27  1  0.697522  0.691233  0.555904  1
  C  C28  1  0.788138  0.588974  0.491075  1
  C  C29  1  0.788138  0.588974  0.008925  1
  C  C30  1  0.211862  0.411026  0.991075  1
  C  C31  1  0.211862  0.411026  0.508925  1
  C  C32  1  0.302478  0.308767  0.055904  1
  C  C33  1  0.697522  0.691233  0.944096  1
  N  N34  1  0.971516  0.650652  0.750000  1
  N  N35  1  0.028484  0.349348  0.250000  1
  O  O36  1  0.495200  0.640133  0.334807  1
  O  O37  1  0.078501  0.350165  0.569082  1
  O  O38  1  0.921499  0.649835  0.430918  1
  O  O39  1  0.707021  0.433792  0.511069  1
  O  O40  1  0.700992  0.826013  0.536011  1
  O  O41  1  0.292979  0.566208  0.011069  1
  O  O42  1  0.049811  0.154976  0.750000  1
  O  O43  1  -0.049811  0.845024  0.250000  1
  O  O44  1  0.921499  0.649835  0.069082  1
  O  O45  1  0.504800  0.359867  0.834807  1
  O  O46  1  0.342476  0.030658  0.854245  1
  O  O47  1  0.299008  0.173987  0.036011  1
  O  O48  1  0.299008  0.173987  0.463989  1
  O  O49  1  0.342476  0.030658  0.645755  1
  O  O50  1  0.896436  0.411530  0.750000  1
  O  O51  1  0.504800  0.359867  0.665193  1
  O  O52  1  0.657524  0.969342  0.354245  1
  O  O53  1  0.144382  0.705768  0.750000  1
  O  O54  1  0.292979  0.566208  0.488931  1
  O  O55  1  0.657524  0.969342  0.145755  1
  O  O56  1  0.700992  0.826013  0.963989  1
  O  O57  1  0.495200  0.640133  0.165193  1
  O  O58  1  0.707021  0.433792  -0.011069  1
  O  O59  1  0.078501  0.350165  0.930918  1
  O  O60  1  0.855618  0.294232  0.250000  1
  O  O61  1  0.103564  0.588470  0.250000  1
