# generated using pymatgen
data_Ce9B3C6Br5
_symmetry_space_group_name_H-M   'P 1'
_cell_length_a   3.70506779
_cell_length_b   7.99463855
_cell_length_c   31.50217072
_cell_angle_alpha   90.03795912
_cell_angle_beta   90.00021487
_cell_angle_gamma   90.00061349
_symmetry_Int_Tables_number   1
_chemical_formula_structural   Ce9B3C6Br5
_chemical_formula_sum   'Ce18 B6 C12 Br10'
_cell_volume   933.11544316
_cell_formula_units_Z   2
loop_
 _symmetry_equiv_pos_site_id
 _symmetry_equiv_pos_as_xyz
  1  'x, y, z'
loop_
 _atom_site_type_symbol
 _atom_site_label
 _atom_site_symmetry_multiplicity
 _atom_site_fract_x
 _atom_site_fract_y
 _atom_site_fract_z
 _atom_site_occupancy
  Ce  Ce0  1  0.249998  0.918727  0.596338  1
  Ce  Ce1  1  0.750024  0.449751  0.749991  1
  Ce  Ce2  1  0.749997  0.055198  0.802251  1
  Ce  Ce3  1  0.749996  0.805215  0.010439  1
  Ce  Ce4  1  0.249996  0.344546  0.869617  1
  Ce  Ce5  1  0.250000  0.193916  0.989863  1
  Ce  Ce6  1  0.750002  0.081225  0.403745  1
  Ce  Ce7  1  0.250001  0.944671  0.197928  1
  Ce  Ce8  1  0.250002  0.945369  0.301869  1
  Ce  Ce9  1  0.250008  0.194172  0.510171  1
  Ce  Ce10  1  0.250000  0.550811  0.249904  1
  Ce  Ce11  1  0.249984  0.344921  0.630617  1
  Ce  Ce12  1  0.749994  0.054553  0.697746  1
  Ce  Ce13  1  0.749998  0.656420  0.369175  1
  Ce  Ce14  1  0.749999  0.804755  0.489583  1
  Ce  Ce15  1  0.250000  0.918386  0.903766  1
  Ce  Ce16  1  0.749996  0.655797  0.130572  1
  Ce  Ce17  1  0.749998  0.081145  0.096436  1
  B  B18  1  0.750005  0.787256  0.249881  1
  B  B19  1  0.249996  0.847462  0.078215  1
  B  B20  1  0.249998  0.847196  0.421772  1
  B  B21  1  0.749999  0.152249  0.578045  1
  B  B22  1  0.750006  0.152061  0.922037  1
  B  B23  1  0.250022  0.213322  0.750013  1
  C  C24  1  0.249994  0.281278  0.795241  1
  C  C25  1  0.749998  0.015695  0.543386  1
  C  C26  1  0.250002  0.983274  0.456516  1
  C  C27  1  0.250001  0.873519  0.126408  1
  C  C28  1  0.749998  0.718734  0.204725  1
  C  C29  1  0.250000  0.874248  0.373494  1
  C  C30  1  0.749998  0.015681  0.956594  1
  C  C31  1  0.749988  0.126743  0.873795  1
  C  C32  1  0.249997  0.983757  0.043607  1
  C  C33  1  0.749996  0.719186  0.295029  1
  C  C34  1  0.750007  0.127070  0.626320  1
  C  C35  1  0.249999  0.280857  0.704778  1
  Br  Br36  1  0.249999  0.584460  0.547064  1
  Br  Br37  1  0.749998  0.671037  0.651590  1
  Br  Br38  1  0.249997  0.329144  0.151630  1
  Br  Br39  1  0.250001  0.328985  0.348392  1
  Br  Br40  1  0.750000  0.223261  0.250017  1
  Br  Br41  1  0.750001  0.671068  0.848453  1
  Br  Br42  1  0.249999  0.584206  0.952929  1
  Br  Br43  1  0.750001  0.415501  0.047203  1
  Br  Br44  1  0.750003  0.415580  0.452838  1
  Br  Br45  1  0.250005  0.777594  0.750018  1
