# generated using pymatgen
data_CuH10SO9
_symmetry_space_group_name_H-M   'P 1'
_cell_length_a   5.88019968
_cell_length_b   6.80109357
_cell_length_c   12.54869117
_cell_angle_alpha   68.32484824
_cell_angle_beta   76.32812048
_cell_angle_gamma   82.68828589
_symmetry_Int_Tables_number   1
_chemical_formula_structural   CuH10SO9
_chemical_formula_sum   'Cu2 H20 S2 O18'
_cell_volume   452.70223163
_cell_formula_units_Z   2
loop_
 _symmetry_equiv_pos_site_id
 _symmetry_equiv_pos_as_xyz
  1  'x, y, z'
loop_
 _atom_site_type_symbol
 _atom_site_label
 _atom_site_symmetry_multiplicity
 _atom_site_fract_x
 _atom_site_fract_y
 _atom_site_fract_z
 _atom_site_occupancy
  Cu  Cu0  1  0.000000  0.000000  0.000000  1
  Cu  Cu1  1  0.000000  0.500000  0.500000  1
  H  H2  1  0.448735  0.304081  0.412891  1
  H  H3  1  0.417348  0.235396  0.171607  1
  H  H4  1  0.968081  0.609714  0.225233  1
  H  H5  1  0.031919  0.390286  0.774767  1
  H  H6  1  0.529452  0.566639  0.183654  1
  H  H7  1  0.730771  0.402878  0.733765  1
  H  H8  1  0.964516  0.878911  0.445941  1
  H  H9  1  0.665667  0.641793  0.568726  1
  H  H10  1  0.582652  0.764604  0.828393  1
  H  H11  1  0.022615  0.624232  0.051912  1
  H  H12  1  0.503182  0.760796  0.239342  1
  H  H13  1  0.977385  0.375768  0.948088  1
  H  H14  1  0.496818  0.239204  0.760658  1
  H  H15  1  0.470548  0.433361  0.816346  1
  H  H16  1  0.269229  0.597122  0.266235  1
  H  H17  1  0.551265  0.695919  0.587109  1
  H  H18  1  0.334333  0.358207  0.431274  1
  H  H19  1  0.950264  0.380952  0.329719  1
  H  H20  1  0.049736  0.619048  0.670281  1
  H  H21  1  0.035484  0.121089  0.554059  1
  S  S22  1  0.735568  0.101615  0.239306  1
  S  S23  1  0.264432  0.898385  0.760694  1
  O  O24  1  0.578076  0.331249  0.787672  1
  O  O25  1  0.047385  0.899654  0.848436  1
  O  O26  1  0.940356  0.712532  0.096400  1
  O  O27  1  0.980430  0.479666  0.695627  1
  O  O28  1  0.770892  0.169032  0.330567  1
  O  O29  1  0.436974  0.705153  0.831180  1
  O  O30  1  0.547164  0.056467  0.017408  1
  O  O31  1  0.088656  0.767254  0.454641  1
  O  O32  1  0.952615  0.100346  0.151564  1
  O  O33  1  0.602809  0.910754  0.280916  1
  O  O34  1  0.563026  0.294847  0.168820  1
  O  O35  1  0.229108  0.830968  0.669433  1
  O  O36  1  0.911344  0.232746  0.545359  1
  O  O37  1  0.452836  0.943533  0.982592  1
  O  O38  1  0.397191  0.089246  0.719084  1
  O  O39  1  0.019570  0.520334  0.304373  1
  O  O40  1  0.059644  0.287468  0.903600  1
  O  O41  1  0.421924  0.668751  0.212328  1
