# generated using pymatgen
data_Yb2Se3
_symmetry_space_group_name_H-M   'P 1'
_cell_length_a   23.19481374
_cell_length_b   8.81841294
_cell_length_c   8.81841282
_cell_angle_alpha   90.00000000
_cell_angle_beta   55.23000360
_cell_angle_gamma   55.23000304
_symmetry_Int_Tables_number   1
_chemical_formula_structural   Yb2Se3
_chemical_formula_sum   'Yb16 Se24'
_cell_volume   1066.42069512
_cell_formula_units_Z   8
loop_
 _symmetry_equiv_pos_site_id
 _symmetry_equiv_pos_as_xyz
  1  'x, y, z'
loop_
 _atom_site_type_symbol
 _atom_site_label
 _atom_site_symmetry_multiplicity
 _atom_site_fract_x
 _atom_site_fract_y
 _atom_site_fract_z
 _atom_site_occupancy
  Yb  Yb0  1  0.994673  0.374916  0.286488  1
  Yb  Yb1  1  0.994673  0.141065  0.729492  1
  Yb  Yb2  1  0.097039  0.604441  0.354441  1
  Yb  Yb3  1  0.166667  0.250000  0.612518  1
  Yb  Yb4  1  0.338660  0.358935  0.213512  1
  Yb  Yb5  1  0.236294  0.895559  0.145559  1
  Yb  Yb6  1  0.338660  0.125084  0.770508  1
  Yb  Yb7  1  0.166667  0.750000  0.887482  1
  Yb  Yb8  1  0.494673  0.229492  0.641065  1
  Yb  Yb9  1  0.666667  0.387482  0.250000  1
  Yb  Yb10  1  0.597039  0.854441  0.104441  1
  Yb  Yb11  1  0.666667  0.112518  0.750000  1
  Yb  Yb12  1  0.494673  0.786488  0.874916  1
  Yb  Yb13  1  0.736294  0.645559  0.395559  1
  Yb  Yb14  1  0.838660  0.270508  0.625084  1
  Yb  Yb15  1  0.838660  0.713512  0.858935  1
  Se  Se16  1  0.049946  0.993263  0.333951  1
  Se  Se17  1  0.122435  0.436852  0.991175  1
  Se  Se18  1  0.049946  0.356897  0.516209  1
  Se  Se19  1  0.283387  0.143103  0.166049  1
  Se  Se20  1  0.283387  0.506737  0.983791  1
  Se  Se21  1  0.122435  0.695843  0.641521  1
  Se  Se22  1  0.210898  0.063148  0.858479  1
  Se  Se23  1  0.385596  0.043506  0.373084  1
  Se  Se24  1  0.210898  0.804157  0.508825  1
  Se  Se25  1  0.447738  0.529872  0.956494  1
  Se  Se26  1  0.385596  0.299707  0.470128  1
  Se  Se27  1  0.622435  0.141521  0.195843  1
  Se  Se28  1  0.622435  0.491175  0.936852  1
  Se  Se29  1  0.447738  0.626916  0.700293  1
  Se  Se30  1  0.549946  0.016209  0.856897  1
  Se  Se31  1  0.710898  0.008825  0.304157  1
  Se  Se32  1  0.549946  0.833951  0.493263  1
  Se  Se33  1  0.783387  0.483791  0.006737  1
  Se  Se34  1  0.710898  0.358479  0.563148  1
  Se  Se35  1  0.947738  0.200293  0.126916  1
  Se  Se36  1  0.947738  0.456494  0.029872  1
  Se  Se37  1  0.783387  0.666049  0.643103  1
  Se  Se38  1  0.885596  0.970128  0.799707  1
  Se  Se39  1  0.885596  0.873084  0.543506  1
