# generated using pymatgen
data_Zn8B4H3O15F
_symmetry_space_group_name_H-M   'P 1'
_cell_length_a   4.94907508
_cell_length_b   23.15620314
_cell_length_c   6.42372590
_cell_angle_alpha   95.70100318
_cell_angle_beta   90.00000000
_cell_angle_gamma   90.00000000
_symmetry_Int_Tables_number   1
_chemical_formula_structural   Zn8B4H3O15F
_chemical_formula_sum   'Zn16 B8 H6 O30 F2'
_cell_volume   732.52924988
_cell_formula_units_Z   2
loop_
 _symmetry_equiv_pos_site_id
 _symmetry_equiv_pos_as_xyz
  1  'x, y, z'
loop_
 _atom_site_type_symbol
 _atom_site_label
 _atom_site_symmetry_multiplicity
 _atom_site_fract_x
 _atom_site_fract_y
 _atom_site_fract_z
 _atom_site_occupancy
  Zn  Zn0  1  0.992899  0.644463  0.140533  1
  Zn  Zn1  1  0.992808  0.894007  0.139692  1
  Zn  Zn2  1  0.480406  0.478672  0.637246  1
  Zn  Zn3  1  0.480443  0.728671  0.637166  1
  Zn  Zn4  1  0.481349  0.231203  0.635830  1
  Zn  Zn5  1  0.479897  0.979458  0.636868  1
  Zn  Zn6  1  0.497384  0.106240  0.857134  1
  Zn  Zn7  1  0.492808  0.355993  0.860308  1
  Zn  Zn8  1  0.492899  0.605537  0.859467  1
  Zn  Zn9  1  0.492904  0.855554  0.858480  1
  Zn  Zn10  1  0.979897  0.270542  0.363132  1
  Zn  Zn11  1  0.981349  0.018797  0.364170  1
  Zn  Zn12  1  0.980443  0.521329  0.362834  1
  Zn  Zn13  1  0.980406  0.771328  0.362754  1
  Zn  Zn14  1  -0.002616  0.143760  0.142866  1
  Zn  Zn15  1  0.992904  0.394446  0.141520  1
  B  B16  1  0.497450  0.209526  0.193098  1
  B  B17  1  0.497515  0.461097  0.192285  1
  B  B18  1  0.497619  0.710979  0.191869  1
  B  B19  1  0.497087  0.960545  0.190498  1
  B  B20  1  0.997087  0.289455  0.809502  1
  B  B21  1  0.997450  0.040474  0.806902  1
  B  B22  1  0.997619  0.539021  0.808131  1
  B  B23  1  0.997515  0.788903  0.807715  1
  H  H24  1  0.320593  0.379797  0.516940  1
  H  H25  1  0.321072  0.629915  0.516912  1
  H  H26  1  0.322602  0.880438  0.517039  1
  H  H27  1  0.822602  0.369562  0.482961  1
  H  H28  1  0.821072  0.620085  0.483088  1
  H  H29  1  0.820593  0.870203  0.483060  1
  O  O30  1  0.275486  0.035618  0.825086  1
  O  O31  1  0.274648  0.284377  0.833431  1
  O  O32  1  0.275299  0.533762  0.830773  1
  O  O33  1  0.275292  0.783773  0.830419  1
  O  O34  1  0.365543  0.497730  0.342881  1
  O  O35  1  0.365384  0.747617  0.342362  1
  O  O36  1  0.363789  0.246109  0.343546  1
  O  O37  1  0.365994  -0.003111  0.341760  1
  O  O38  1  0.363216  0.666679  0.072380  1
  O  O39  1  0.361344  0.167024  0.067263  1
  O  O40  1  0.362532  0.416940  0.072716  1
  O  O41  1  0.361571  0.916542  0.070170  1
  O  O42  1  0.485254  0.393403  0.595841  1
  O  O43  1  0.486105  0.894033  0.596326  1
  O  O44  1  0.485304  0.643447  0.596027  1
  O  O45  1  0.775486  0.214382  0.174914  1
  O  O46  1  0.775292  0.466227  0.169581  1
  O  O47  1  0.775299  0.716238  0.169227  1
  O  O48  1  0.774648  0.965623  0.166569  1
  O  O49  1  0.865994  0.253111  0.658240  1
  O  O50  1  0.863789  0.003891  0.656454  1
  O  O51  1  0.865384  0.502383  0.657638  1
  O  O52  1  0.865543  0.752270  0.657119  1
  O  O53  1  0.861571  0.333458  0.929830  1
  O  O54  1  0.861344  0.082976  0.932737  1
  O  O55  1  0.862532  0.833060  0.927284  1
  O  O56  1  0.863216  0.583321  0.927620  1
  O  O57  1  0.986105  0.355967  0.403674  1
  O  O58  1  0.985304  0.606553  0.403973  1
  O  O59  1  0.985254  0.856597  0.404159  1
  F  F60  1  0.478211  0.147193  0.606146  1
  F  F61  1  0.978211  0.102807  0.393854  1
