# generated using pymatgen
data_SmInAu
_symmetry_space_group_name_H-M   'P 1'
_cell_length_a   7.83544704
_cell_length_b   7.83426958
_cell_length_c   4.12554978
_cell_angle_alpha   89.98292194
_cell_angle_beta   89.98351065
_cell_angle_gamma   120.01381920
_symmetry_Int_Tables_number   1
_chemical_formula_structural   SmInAu
_chemical_formula_sum   'Sm3 In3 Au3'
_cell_volume   219.28765682
_cell_formula_units_Z   3
loop_
 _symmetry_equiv_pos_site_id
 _symmetry_equiv_pos_as_xyz
  1  'x, y, z'
loop_
 _atom_site_type_symbol
 _atom_site_label
 _atom_site_symmetry_multiplicity
 _atom_site_fract_x
 _atom_site_fract_y
 _atom_site_fract_z
 _atom_site_occupancy
  Sm  Sm0  1  0.000177  0.589985  0.500182  1
  Sm  Sm1  1  0.590025  -0.000112  0.499954  1
  Sm  Sm2  1  0.409924  0.410061  0.500017  1
  In  In3  1  0.999817  0.255200  0.000102  1
  In  In4  1  0.255361  0.000129  0.000027  1
  In  In5  1  0.744856  0.744770  -0.000161  1
  Au  Au6  1  0.000003  0.000009  0.499899  1
  Au  Au7  1  0.666640  0.333290  0.000050  1
  Au  Au8  1  0.333198  0.666668  -0.000072  1
