# generated using pymatgen
data_CeAgAs2
_symmetry_space_group_name_H-M   'P 1'
_cell_length_a   5.77155869
_cell_length_b   5.78952724
_cell_length_c   20.53046049
_cell_angle_alpha   89.99539941
_cell_angle_beta   90.00097896
_cell_angle_gamma   90.00140800
_symmetry_Int_Tables_number   1
_chemical_formula_structural   CeAgAs2
_chemical_formula_sum   'Ce8 Ag8 As16'
_cell_volume   686.01704505
_cell_formula_units_Z   8
loop_
 _symmetry_equiv_pos_site_id
 _symmetry_equiv_pos_as_xyz
  1  'x, y, z'
loop_
 _atom_site_type_symbol
 _atom_site_label
 _atom_site_symmetry_multiplicity
 _atom_site_fract_x
 _atom_site_fract_y
 _atom_site_fract_z
 _atom_site_occupancy
  Ce  Ce0  1  0.249997  0.487584  0.885910  1
  Ce  Ce1  1  0.250001  0.512564  0.385727  1
  Ce  Ce2  1  0.249994  0.989071  0.610351  1
  Ce  Ce3  1  0.250000  0.010815  0.110289  1
  Ce  Ce4  1  0.750003  0.989104  0.889604  1
  Ce  Ce5  1  0.750000  0.512549  0.114339  1
  Ce  Ce6  1  0.749999  0.010848  0.389718  1
  Ce  Ce7  1  0.750000  0.487518  0.614214  1
  Ag  Ag8  1  0.999918  0.737472  0.750030  1
  Ag  Ag9  1  0.500028  0.262512  0.249957  1
  Ag  Ag10  1  -0.000060  0.235334  0.750023  1
  Ag  Ag11  1  -0.000023  0.262514  0.249956  1
  Ag  Ag12  1  0.500086  0.737468  0.750029  1
  Ag  Ag13  1  0.500052  0.764624  0.249970  1
  Ag  Ag14  1  0.500059  0.235336  0.750023  1
  Ag  Ag15  1  -0.000054  0.764612  0.249968  1
  As  As16  1  0.749998  0.987527  0.657634  1
  As  As17  1  0.250001  0.012441  0.342637  1
  As  As18  1  0.249996  0.511942  0.158216  1
  As  As19  1  0.491379  0.731348  0.999827  1
  As  As20  1  0.509666  0.731412  0.500054  1
  As  As21  1  0.750001  0.511895  0.341808  1
  As  As22  1  0.490578  0.268647  0.499258  1
  As  As23  1  0.008620  0.731354  0.999826  1
  As  As24  1  0.009420  0.268647  0.499259  1
  As  As25  1  0.990335  0.731414  0.500052  1
  As  As26  1  0.510296  0.268696  0.000627  1
  As  As27  1  0.750000  0.012389  0.157341  1
  As  As28  1  0.750000  0.488083  0.841666  1
  As  As29  1  0.250000  0.488068  0.658517  1
  As  As30  1  0.250001  0.987517  0.842544  1
  As  As31  1  0.989707  0.268692  0.000628  1
