# generated using pymatgen
data_Rb2MgH4
_symmetry_space_group_name_H-M   'P 1'
_cell_length_a   10.68370732
_cell_length_b   13.11828098
_cell_length_c   7.28029868
_cell_angle_alpha   90.00000000
_cell_angle_beta   90.00000000
_cell_angle_gamma   90.00000000
_symmetry_Int_Tables_number   1
_chemical_formula_structural   Rb2MgH4
_chemical_formula_sum   'Rb8 Mg4 H16'
_cell_volume   1020.34750715
_cell_formula_units_Z   4
loop_
 _symmetry_equiv_pos_site_id
 _symmetry_equiv_pos_as_xyz
  1  'x, y, z'
loop_
 _atom_site_type_symbol
 _atom_site_label
 _atom_site_symmetry_multiplicity
 _atom_site_fract_x
 _atom_site_fract_y
 _atom_site_fract_z
 _atom_site_occupancy
  Rb  Rb0  1  0.119547  0.942879  0.250000  1
  Rb  Rb1  1  0.619547  0.557121  0.250000  1
  Rb  Rb2  1  0.880453  0.057121  0.750000  1
  Rb  Rb3  1  0.380453  0.442879  0.750000  1
  Rb  Rb4  1  0.431745  0.183948  0.250000  1
  Rb  Rb5  1  0.931745  0.316052  0.250000  1
  Rb  Rb6  1  0.568255  0.816052  0.750000  1
  Rb  Rb7  1  0.068255  0.683948  0.750000  1
  Mg  Mg8  1  0.772589  0.072002  0.250000  1
  Mg  Mg9  1  0.272589  0.427998  0.250000  1
  Mg  Mg10  1  0.227411  0.927998  0.750000  1
  Mg  Mg11  1  0.727411  0.572002  0.750000  1
  H  H12  1  0.604503  0.043822  0.250000  1
  H  H13  1  0.104503  0.456178  0.250000  1
  H  H14  1  0.395497  0.956178  0.750000  1
  H  H15  1  0.895497  0.543822  0.750000  1
  H  H16  1  0.871169  0.955781  0.250000  1
  H  H17  1  0.371169  0.544219  0.250000  1
  H  H18  1  0.128831  0.044219  0.750000  1
  H  H19  1  0.628831  0.455781  0.750000  1
  H  H20  1  0.821358  0.157820  0.055562  1
  H  H21  1  0.321358  0.342180  0.444438  1
  H  H22  1  0.178642  0.842180  0.555562  1
  H  H23  1  0.678642  0.657820  0.944438  1
  H  H24  1  0.178642  0.842180  0.944438  1
  H  H25  1  0.678642  0.657820  0.555562  1
  H  H26  1  0.821358  0.157820  0.444438  1
  H  H27  1  0.321358  0.342180  0.055562  1
