# generated using pymatgen
data_ZnGaP2H4NO8
_symmetry_space_group_name_H-M   'P 1'
_cell_length_a   9.00084189
_cell_length_b   9.41495297
_cell_length_c   9.96757260
_cell_angle_alpha   90.00000000
_cell_angle_beta   90.00000000
_cell_angle_gamma   92.98530725
_symmetry_Int_Tables_number   1
_chemical_formula_structural   ZnGaP2H4NO8
_chemical_formula_sum   'Zn4 Ga4 P8 H16 N4 O32'
_cell_volume   843.53075991
_cell_formula_units_Z   4
loop_
 _symmetry_equiv_pos_site_id
 _symmetry_equiv_pos_as_xyz
  1  'x, y, z'
loop_
 _atom_site_type_symbol
 _atom_site_label
 _atom_site_symmetry_multiplicity
 _atom_site_fract_x
 _atom_site_fract_y
 _atom_site_fract_z
 _atom_site_occupancy
  Zn  Zn0  1  0.088904  0.787632  0.092894  1
  Zn  Zn1  1  0.424120  0.438512  0.699578  1
  Zn  Zn2  1  0.575880  0.061488  0.199578  1
  Zn  Zn3  1  0.911096  0.712368  0.592894  1
  Ga  Ga4  1  0.135701  0.318197  0.345658  1
  Ga  Ga5  1  0.431838  0.919975  0.821105  1
  Ga  Ga6  1  0.568162  0.580025  0.321105  1
  Ga  Ga7  1  0.864299  0.181803  0.845658  1
  P  P8  1  0.075947  0.901662  0.809802  1
  P  P9  1  0.063053  0.422340  0.656356  1
  P  P10  1  0.435796  0.757109  0.094843  1
  P  P11  1  0.455313  0.266780  0.424389  1
  P  P12  1  0.564204  0.742891  0.594843  1
  P  P13  1  0.544687  0.233220  0.924389  1
  P  P14  1  0.924053  0.598338  0.309802  1
  P  P15  1  0.936947  0.077660  0.156356  1
  H  H16  1  0.141835  0.844594  0.384162  1
  H  H17  1  0.128548  0.329810  0.087886  1
  H  H18  1  0.178761  0.893857  0.538776  1
  H  H19  1  0.111153  0.327056  0.862147  1
  H  H20  1  0.240695  0.003641  0.410176  1
  H  H21  1  0.229418  0.473137  0.137201  1
  H  H22  1  0.320625  0.847982  0.438127  1
  H  H23  1  0.309943  0.319954  0.119272  1
  H  H24  1  0.679375  0.652018  0.938127  1
  H  H25  1  0.690057  0.180046  0.619272  1
  H  H26  1  0.759305  0.496359  0.910176  1
  H  H27  1  0.770582  0.026863  0.637201  1
  H  H28  1  0.821239  0.606143  0.038776  1
  H  H29  1  0.888847  0.172944  0.362147  1
  H  H30  1  0.858165  0.655406  0.884162  1
  H  H31  1  0.871452  0.170190  0.587886  1
  N  N32  1  0.222672  0.899311  0.440757  1
  N  N33  1  0.213561  0.364547  0.150660  1
  N  N34  1  0.777328  0.600689  0.940757  1
  N  N35  1  0.786439  0.135453  0.650660  1
  O  O36  1  0.021241  0.782728  0.905706  1
  O  O37  1  0.055424  0.308303  0.545628  1
  O  O38  1  0.068218  0.846221  0.664639  1
  O  O39  1  0.025755  0.329157  0.802001  1
  O  O40  1  0.067054  0.981487  0.158212  1
  O  O41  1  0.022270  0.471278  0.323556  1
  O  O42  1  0.236717  0.957941  0.845935  1
  O  O43  1  0.215533  0.493092  0.679871  1
  O  O44  1  0.274725  0.692346  0.095195  1
  O  O45  1  0.289472  0.205661  0.397879  1
  O  O46  1  0.461777  0.861949  0.646338  1
  O  O47  1  0.449589  0.889393  0.182830  1
  O  O48  1  0.437268  0.341130  0.872799  1
  O  O49  1  0.458716  0.410952  0.344470  1
  O  O50  1  0.493437  0.788276  0.947393  1
  O  O51  1  0.484363  0.291816  0.573759  1
  O  O52  1  0.506563  0.711724  0.447393  1
  O  O53  1  0.515637  0.208184  0.073759  1
  O  O54  1  0.550411  0.610607  0.682830  1
  O  O55  1  0.538223  0.638051  0.146338  1
  O  O56  1  0.541284  0.089048  0.844470  1
  O  O57  1  0.562732  0.158870  0.372799  1
  O  O58  1  0.725275  0.807654  0.595195  1
  O  O59  1  0.710528  0.294339  0.897879  1
  O  O60  1  0.763283  0.542059  0.345935  1
  O  O61  1  0.784467  0.006908  0.179871  1
  O  O62  1  0.932946  0.518513  0.658212  1
  O  O63  1  0.977730  0.028722  0.823556  1
  O  O64  1  0.931782  0.653779  0.164639  1
  O  O65  1  0.974245  0.170843  0.302001  1
  O  O66  1  0.978759  0.717272  0.405706  1
  O  O67  1  0.944576  0.191697  0.045628  1
