# generated using pymatgen
data_Ba8Tl2Bi2Pb4O17
_symmetry_space_group_name_H-M   'P 1'
_cell_length_a   6.45941472
_cell_length_b   6.45778550
_cell_length_c   24.78871953
_cell_angle_alpha   122.65852195
_cell_angle_beta   124.73085867
_cell_angle_gamma   86.76585791
_symmetry_Int_Tables_number   1
_chemical_formula_structural   Ba8Tl2Bi2Pb4O17
_chemical_formula_sum   'Ba8 Tl2 Bi2 Pb4 O17'
_cell_volume   666.70254426
_cell_formula_units_Z   1
loop_
 _symmetry_equiv_pos_site_id
 _symmetry_equiv_pos_as_xyz
  1  'x, y, z'
loop_
 _atom_site_type_symbol
 _atom_site_label
 _atom_site_symmetry_multiplicity
 _atom_site_fract_x
 _atom_site_fract_y
 _atom_site_fract_z
 _atom_site_occupancy
  Ba  Ba0  1  0.270228  0.774804  0.878494  1
  Ba  Ba1  1  0.266307  0.739205  0.623847  1
  Ba  Ba2  1  0.750240  0.215549  0.872508  1
  Ba  Ba3  1  0.261698  0.791416  0.392547  1
  Ba  Ba4  1  0.772031  0.261279  0.629098  1
  Ba  Ba5  1  0.262074  0.784612  0.140735  1
  Ba  Ba6  1  0.775430  0.287271  0.390591  1
  Ba  Ba7  1  0.773095  0.278765  0.140440  1
  Tl  Tl8  1  0.056712  0.056116  0.528636  1
  Tl  Tl9  1  0.498893  0.483695  0.993426  1
  Bi  Bi10  1  0.502353  0.468247  0.744210  1
  Bi  Bi11  1  -0.011392  0.021461  0.254588  1
  Pb  Pb12  1  0.051899  0.049718  0.771575  1
  Pb  Pb13  1  0.572336  0.566318  0.531507  1
  Pb  Pb14  1  0.020373  0.005613  0.006646  1
  Pb  Pb15  1  0.552077  0.592389  0.290099  1
  O  O16  1  0.240371  0.724323  0.751288  1
  O  O17  1  0.240344  0.183351  0.732440  1
  O  O18  1  0.836848  0.644670  0.875669  1
  O  O19  1  0.206195  0.689496  0.476891  1
  O  O20  1  0.732974  0.738364  0.744788  1
  O  O21  1  0.256974  0.251382  0.499195  1
  O  O22  1  0.686208  0.151496  0.704994  1
  O  O23  1  0.173690  0.689533  0.220169  1
  O  O24  1  0.722170  0.737447  0.492826  1
  O  O25  1  0.243358  0.233026  0.239157  1
  O  O26  1  0.693959  0.219922  0.476345  1
  O  O27  1  0.735849  0.807613  0.257438  1
  O  O28  1  0.244975  0.209234  -0.017565  1
  O  O29  1  0.763900  0.312615  0.253057  1
  O  O30  1  0.654741  0.808906  0.123012  1
  O  O31  1  0.715183  0.771203  -0.001340  1
  O  O32  1  0.757247  0.230301  -0.017313  1
