# generated using pymatgen
data_RbMo3Br7
_symmetry_space_group_name_H-M   'P 1'
_cell_length_a   10.46652494
_cell_length_b   12.92837549
_cell_length_c   12.92837632
_cell_angle_alpha   72.56020503
_cell_angle_beta   68.80383957
_cell_angle_gamma   68.80384140
_symmetry_Int_Tables_number   1
_chemical_formula_structural   RbMo3Br7
_chemical_formula_sum   'Rb4 Mo12 Br28'
_cell_volume   1491.70258630
_cell_formula_units_Z   4
loop_
 _symmetry_equiv_pos_site_id
 _symmetry_equiv_pos_as_xyz
  1  'x, y, z'
loop_
 _atom_site_type_symbol
 _atom_site_label
 _atom_site_symmetry_multiplicity
 _atom_site_fract_x
 _atom_site_fract_y
 _atom_site_fract_z
 _atom_site_occupancy
  Rb  Rb0  1  0.249776  0.423296  0.576410  1
  Rb  Rb1  1  0.491623  0.024508  0.980776  1
  Rb  Rb2  1  0.749776  0.576410  0.423296  1
  Rb  Rb3  1  0.991623  0.980776  0.024508  1
  Mo  Mo4  1  0.054669  0.052006  0.343263  1
  Mo  Mo5  1  0.124088  0.065135  0.515855  1
  Mo  Mo6  1  0.352121  0.516794  0.134313  1
  Mo  Mo7  1  0.149115  0.865295  0.483625  1
  Mo  Mo8  1  0.554669  0.343263  0.052006  1
  Mo  Mo9  1  0.624088  0.515855  0.065135  1
  Mo  Mo10  1  0.377191  0.484258  0.934316  1
  Mo  Mo11  1  0.445660  0.656844  0.947984  1
  Mo  Mo12  1  0.852121  0.134313  0.516794  1
  Mo  Mo13  1  0.649115  0.483625  0.865295  1
  Mo  Mo14  1  0.877191  0.934316  0.484258  1
  Mo  Mo15  1  0.945660  0.947984  0.656844  1
  Br  Br16  1  0.128700  0.127226  0.119252  1
  Br  Br17  1  0.028851  0.250737  0.377444  1
  Br  Br18  1  0.176818  0.656213  0.016917  1
  Br  Br19  1  0.139655  0.537926  0.323795  1
  Br  Br20  1  0.285832  0.345740  0.120001  1
  Br  Br21  1  0.077874  0.852531  0.312105  1
  Br  Br22  1  0.299974  0.152488  0.538736  1
  Br  Br23  1  0.202453  0.459646  0.846799  1
  Br  Br24  1  0.628700  0.119252  0.127226  1
  Br  Br25  1  0.423965  0.687758  0.146520  1
  Br  Br26  1  0.528851  0.377444  0.250737  1
  Br  Br27  1  0.213983  0.879679  0.655006  1
  Br  Br28  1  0.361709  0.675869  0.462164  1
  Br  Br29  1  0.323380  0.982891  0.342819  1
  Br  Br30  1  0.676818  0.016917  0.656213  1
  Br  Br31  1  0.639655  0.323795  0.537926  1
  Br  Br32  1  0.785832  0.120001  0.345740  1
  Br  Br33  1  0.472501  0.622679  0.748732  1
  Br  Br34  1  0.577874  0.312105  0.852531  1
  Br  Br35  1  0.361763  0.881217  0.876511  1
  Br  Br36  1  0.799974  0.538736  0.152488  1
  Br  Br37  1  0.702453  0.846799  0.459646  1
  Br  Br38  1  0.923965  0.146520  0.687758  1
  Br  Br39  1  0.713983  0.655006  0.879679  1
  Br  Br40  1  0.861709  0.462164  0.675869  1
  Br  Br41  1  0.823380  0.342819  0.982891  1
  Br  Br42  1  0.972501  0.748732  0.622679  1
  Br  Br43  1  0.861763  0.876511  0.881217  1
