# generated using pymatgen
data_Tm15S22
_symmetry_space_group_name_H-M   'P 1'
_cell_length_a   3.85088278
_cell_length_b   11.19781455
_cell_length_c   19.37211960
_cell_angle_alpha   90.91863575
_cell_angle_beta   95.70417430
_cell_angle_gamma   90.00000023
_symmetry_Int_Tables_number   1
_chemical_formula_structural   Tm15S22
_chemical_formula_sum   'Tm15 S22'
_cell_volume   831.10999764
_cell_formula_units_Z   1
loop_
 _symmetry_equiv_pos_site_id
 _symmetry_equiv_pos_as_xyz
  1  'x, y, z'
loop_
 _atom_site_type_symbol
 _atom_site_label
 _atom_site_symmetry_multiplicity
 _atom_site_fract_x
 _atom_site_fract_y
 _atom_site_fract_z
 _atom_site_occupancy
  Tm  Tm0  1  0.765546  0.352977  0.531092  1
  Tm  Tm1  1  0.568979  0.357167  0.137958  1
  Tm  Tm2  1  0.431021  0.642833  0.862042  1
  Tm  Tm3  1  0.234454  0.647023  0.468908  1
  Tm  Tm4  1  0.604928  0.010554  0.209856  1
  Tm  Tm5  1  0.395072  0.989446  0.790144  1
  Tm  Tm6  1  0.960497  0.272453  0.920995  1
  Tm  Tm7  1  0.133291  0.657503  0.266581  1
  Tm  Tm8  1  0.866709  0.342497  0.733419  1
  Tm  Tm9  1  0.298781  0.056786  0.597562  1
  Tm  Tm10  1  0.842909  0.694445  0.685819  1
  Tm  Tm11  1  0.039503  0.727547  0.079005  1
  Tm  Tm12  1  0.500000  0.000000  0.000000  1
  Tm  Tm13  1  0.157091  0.305555  0.314181  1
  Tm  Tm14  1  0.701219  0.943214  0.402438  1
  S  S15  1  0.590064  0.751834  0.180127  1
  S  S16  1  0.947287  0.497905  0.894574  1
  S  S17  1  0.052713  0.502095  0.105426  1
  S  S18  1  0.048894  0.968491  0.097787  1
  S  S19  1  0.779847  0.591977  0.559694  1
  S  S20  1  0.220153  0.408023  0.440306  1
  S  S21  1  0.313793  0.307498  0.627586  1
  S  S22  1  0.333310  0.850587  0.666620  1
  S  S23  1  0.666690  0.149413  0.333380  1
  S  S24  1  0.686207  0.692502  0.372414  1
  S  S25  1  0.507245  0.238495  0.014490  1
  S  S26  1  0.244895  0.879634  0.489790  1
  S  S27  1  0.492755  0.761505  0.985510  1
  S  S28  1  0.951106  0.031509  0.902213  1
  S  S29  1  0.366165  0.538516  0.732329  1
  S  S30  1  0.147044  0.907391  0.294089  1
  S  S31  1  0.907046  0.793711  0.814092  1
  S  S32  1  0.755105  0.120366  0.510210  1
  S  S33  1  0.092954  0.206289  0.185908  1
  S  S34  1  0.852956  0.092609  0.705911  1
  S  S35  1  0.409936  0.248166  0.819873  1
  S  S36  1  0.633835  0.461484  0.267671  1
