# generated using pymatgen
data_SiO2
_symmetry_space_group_name_H-M   'P 1'
_cell_length_a   8.38127437
_cell_length_b   18.87073612
_cell_length_c   13.50457765
_cell_angle_alpha   90.00000000
_cell_angle_beta   90.00000000
_cell_angle_gamma   90.00000000
_symmetry_Int_Tables_number   1
_chemical_formula_structural   SiO2
_chemical_formula_sum   'Si40 O80'
_cell_volume   2135.89503417
_cell_formula_units_Z   40
loop_
 _symmetry_equiv_pos_site_id
 _symmetry_equiv_pos_as_xyz
  1  'x, y, z'
loop_
 _atom_site_type_symbol
 _atom_site_label
 _atom_site_symmetry_multiplicity
 _atom_site_fract_x
 _atom_site_fract_y
 _atom_site_fract_z
 _atom_site_occupancy
  Si  Si0  1  0.813746  0.039738  0.140960  1
  Si  Si1  1  0.813746  0.960262  0.859040  1
  Si  Si2  1  0.186254  0.539738  0.859040  1
  Si  Si3  1  0.186254  0.460262  0.140960  1
  Si  Si4  1  0.186254  0.960262  0.859040  1
  Si  Si5  1  0.186254  0.039738  0.140960  1
  Si  Si6  1  0.813746  0.460262  0.140960  1
  Si  Si7  1  0.813746  0.539738  0.859040  1
  Si  Si8  1  0.313746  0.539738  0.640960  1
  Si  Si9  1  0.313746  0.460262  0.359040  1
  Si  Si10  1  0.686254  0.039738  0.359040  1
  Si  Si11  1  0.686254  0.960262  0.640960  1
  Si  Si12  1  0.686254  0.460262  0.359040  1
  Si  Si13  1  0.686254  0.539738  0.640960  1
  Si  Si14  1  0.313746  0.960262  0.640960  1
  Si  Si15  1  0.313746  0.039738  0.359040  1
  Si  Si16  1  0.313743  0.099334  0.940895  1
  Si  Si17  1  0.313743  0.900666  0.059105  1
  Si  Si18  1  0.686257  0.599334  0.059105  1
  Si  Si19  1  0.686257  0.400666  0.940895  1
  Si  Si20  1  0.686257  0.900666  0.059105  1
  Si  Si21  1  0.686257  0.099334  0.940895  1
  Si  Si22  1  0.313743  0.400666  0.940895  1
  Si  Si23  1  0.313743  0.599334  0.059105  1
  Si  Si24  1  0.813743  0.599334  0.440895  1
  Si  Si25  1  0.813743  0.400666  0.559105  1
  Si  Si26  1  0.186257  0.099334  0.559105  1
  Si  Si27  1  0.186257  0.900666  0.440895  1
  Si  Si28  1  0.186257  0.400666  0.559105  1
  Si  Si29  1  0.186257  0.599334  0.440895  1
  Si  Si30  1  0.813743  0.900666  0.440895  1
  Si  Si31  1  0.813743  0.099334  0.559105  1
  Si  Si32  1  0.807431  0.250000  0.864375  1
  Si  Si33  1  0.807431  0.750000  0.135625  1
  Si  Si34  1  0.192569  0.750000  0.135625  1
  Si  Si35  1  0.192569  0.250000  0.864375  1
  Si  Si36  1  0.307431  0.750000  0.364375  1
  Si  Si37  1  0.307431  0.250000  0.635625  1
  Si  Si38  1  0.692569  0.250000  0.635625  1
  Si  Si39  1  0.692569  0.750000  0.364375  1
  O  O40  1  0.796256  0.954226  0.125094  1
  O  O41  1  0.796256  0.045774  0.874906  1
  O  O42  1  0.203744  0.454226  0.874906  1
  O  O43  1  0.203744  0.545774  0.125094  1
  O  O44  1  0.203744  0.045774  0.874906  1
  O  O45  1  0.203744  0.954226  0.125094  1
  O  O46  1  0.796256  0.545774  0.125094  1
  O  O47  1  0.796256  0.454226  0.874906  1
  O  O48  1  0.296256  0.454226  0.625094  1
  O  O49  1  0.296256  0.545774  0.374906  1
  O  O50  1  0.703744  0.954226  0.374906  1
  O  O51  1  0.703744  0.045774  0.625094  1
  O  O52  1  0.703744  0.545774  0.374906  1
  O  O53  1  0.703744  0.454226  0.625094  1
  O  O54  1  0.296256  0.045774  0.625094  1
  O  O55  1  0.296256  0.954226  0.374906  1
  O  O56  1  0.750000  0.061526  0.250000  1
  O  O57  1  0.750000  0.938474  0.750000  1
  O  O58  1  0.250000  0.561526  0.750000  1
  O  O59  1  0.250000  0.438474  0.250000  1
  O  O60  1  0.250000  0.938474  0.750000  1
  O  O61  1  0.250000  0.061526  0.250000  1
  O  O62  1  0.750000  0.438474  0.250000  1
  O  O63  1  0.750000  0.561526  0.750000  1
  O  O64  1  0.708336  0.081373  0.058249  1
  O  O65  1  0.708336  0.918627  0.941751  1
  O  O66  1  0.291664  0.581373  0.941751  1
  O  O67  1  0.291664  0.418627  0.058249  1
  O  O68  1  0.291664  0.918627  0.941751  1
  O  O69  1  0.291664  0.081373  0.058249  1
  O  O70  1  0.708336  0.418627  0.058249  1
  O  O71  1  0.708336  0.581373  0.941751  1
  O  O72  1  0.208336  0.581373  0.558249  1
  O  O73  1  0.208336  0.418627  0.441751  1
  O  O74  1  0.791664  0.081373  0.441751  1
  O  O75  1  0.791664  0.918627  0.558249  1
  O  O76  1  0.791664  0.418627  0.441751  1
  O  O77  1  0.791664  0.581373  0.558249  1
  O  O78  1  0.208336  0.918627  0.558249  1
  O  O79  1  0.208336  0.081373  0.441751  1
  O  O80  1  0.000000  0.062203  0.129565  1
  O  O81  1  0.000000  0.937797  0.870435  1
  O  O82  1  0.000000  0.562203  0.870435  1
  O  O83  1  0.000000  0.437798  0.129565  1
  O  O84  1  0.500000  0.562203  0.629565  1
  O  O85  1  0.500000  0.437798  0.370435  1
  O  O86  1  0.500000  0.062203  0.370435  1
  O  O87  1  0.500000  0.937797  0.629565  1
  O  O88  1  0.261475  0.180211  0.920156  1
  O  O89  1  0.261475  0.819789  0.079844  1
  O  O90  1  0.738525  0.680211  0.079844  1
  O  O91  1  0.738525  0.319789  0.920156  1
  O  O92  1  0.738525  0.819789  0.079844  1
  O  O93  1  0.738525  0.180211  0.920156  1
  O  O94  1  0.261475  0.319789  0.920156  1
  O  O95  1  0.261475  0.680211  0.079844  1
  O  O96  1  0.761475  0.680211  0.420156  1
  O  O97  1  0.761475  0.319789  0.579844  1
  O  O98  1  0.238525  0.180211  0.579844  1
  O  O99  1  0.238525  0.819789  0.420156  1
  O  O100  1  0.238525  0.319789  0.579844  1
  O  O101  1  0.238525  0.680211  0.420156  1
  O  O102  1  0.761475  0.819789  0.420156  1
  O  O103  1  0.761475  0.180211  0.579844  1
  O  O104  1  0.500000  0.087858  0.910304  1
  O  O105  1  0.500000  0.912142  0.089696  1
  O  O106  1  0.500000  0.587858  0.089696  1
  O  O107  1  0.500000  0.412142  0.910304  1
  O  O108  1  0.000000  0.587858  0.410304  1
  O  O109  1  0.000000  0.412142  0.589696  1
  O  O110  1  0.000000  0.087858  0.589696  1
  O  O111  1  0.000000  0.912142  0.410304  1
  O  O112  1  0.750000  0.250000  0.750000  1
  O  O113  1  0.750000  0.750000  0.250000  1
  O  O114  1  0.250000  0.750000  0.250000  1
  O  O115  1  0.250000  0.250000  0.750000  1
  O  O116  1  0.000000  0.250000  0.870353  1
  O  O117  1  0.000000  0.750000  0.129647  1
  O  O118  1  0.500000  0.750000  0.370353  1
  O  O119  1  0.500000  0.250000  0.629647  1
