# generated using pymatgen
data_H6CN2O3
_symmetry_space_group_name_H-M   'P 1'
_cell_length_a   6.76113390
_cell_length_b   4.83869830
_cell_length_c   12.92215803
_cell_angle_alpha   90.00000000
_cell_angle_beta   90.00000000
_cell_angle_gamma   90.00000000
_symmetry_Int_Tables_number   1
_chemical_formula_structural   H6CN2O3
_chemical_formula_sum   'H24 C4 N8 O12'
_cell_volume   422.74952557
_cell_formula_units_Z   4
loop_
 _symmetry_equiv_pos_site_id
 _symmetry_equiv_pos_as_xyz
  1  'x, y, z'
loop_
 _atom_site_type_symbol
 _atom_site_label
 _atom_site_symmetry_multiplicity
 _atom_site_fract_x
 _atom_site_fract_y
 _atom_site_fract_z
 _atom_site_occupancy
  H  H0  1  0.642439  0.185080  0.748316  1
  H  H1  1  0.142439  0.314920  0.751684  1
  H  H2  1  0.357561  0.685080  0.751684  1
  H  H3  1  0.857561  0.814920  0.748316  1
  H  H4  1  0.357561  0.814920  0.251684  1
  H  H5  1  0.857561  0.685080  0.248316  1
  H  H6  1  0.642439  0.314920  0.248316  1
  H  H7  1  0.142439  0.185080  0.251684  1
  H  H8  1  0.551224  0.316878  0.866653  1
  H  H9  1  0.051224  0.183122  0.633347  1
  H  H10  1  0.448776  0.816878  0.633347  1
  H  H11  1  0.948776  0.683122  0.866653  1
  H  H12  1  0.448776  0.683122  0.133347  1
  H  H13  1  0.948776  0.816878  0.366653  1
  H  H14  1  0.551224  0.183122  0.366653  1
  H  H15  1  0.051224  0.316878  0.133347  1
  H  H16  1  0.689769  0.236643  0.548896  1
  H  H17  1  0.189769  0.263357  0.951104  1
  H  H18  1  0.310231  0.736643  0.951104  1
  H  H19  1  0.810231  0.763357  0.548896  1
  H  H20  1  0.310231  0.763357  0.451104  1
  H  H21  1  0.810231  0.736643  0.048896  1
  H  H22  1  0.689769  0.263357  0.048896  1
  H  H23  1  0.189769  0.236643  0.451104  1
  C  C24  1  0.750000  0.000000  0.880825  1
  C  C25  1  0.250000  0.500000  0.619175  1
  C  C26  1  0.250000  0.000000  0.119175  1
  C  C27  1  0.750000  0.500000  0.380825  1
  N  N28  1  0.637071  0.178954  0.827514  1
  N  N29  1  0.137071  0.321046  0.672486  1
  N  N30  1  0.362929  0.678954  0.672486  1
  N  N31  1  0.862929  0.821046  0.827514  1
  N  N32  1  0.362929  0.821046  0.172486  1
  N  N33  1  0.862929  0.678954  0.327514  1
  N  N34  1  0.637071  0.321046  0.327514  1
  N  N35  1  0.137071  0.178954  0.172486  1
  O  O36  1  0.657770  0.080344  0.599131  1
  O  O37  1  0.157770  0.419656  0.900869  1
  O  O38  1  0.342230  0.580344  0.900869  1
  O  O39  1  0.842230  0.919656  0.599131  1
  O  O40  1  0.342230  0.919656  0.400869  1
  O  O41  1  0.842230  0.580344  0.099131  1
  O  O42  1  0.657770  0.419656  0.099131  1
  O  O43  1  0.157770  0.080344  0.400869  1
  O  O44  1  0.750000  0.000000  0.980188  1
  O  O45  1  0.250000  0.500000  0.519812  1
  O  O46  1  0.250000  0.000000  0.019812  1
  O  O47  1  0.750000  0.500000  0.480188  1
