# generated using pymatgen
data_PbWO4
_symmetry_space_group_name_H-M   'P 1'
_cell_length_a   5.54265769
_cell_length_b   8.17586445
_cell_length_c   8.17586452
_cell_angle_alpha   121.04098068
_cell_angle_beta   90.00000000
_cell_angle_gamma   90.00000000
_symmetry_Int_Tables_number   1
_chemical_formula_structural   PbWO4
_chemical_formula_sum   'Pb4 W4 O16'
_cell_volume   317.44188296
_cell_formula_units_Z   4
loop_
 _symmetry_equiv_pos_site_id
 _symmetry_equiv_pos_as_xyz
  1  'x, y, z'
loop_
 _atom_site_type_symbol
 _atom_site_label
 _atom_site_symmetry_multiplicity
 _atom_site_fract_x
 _atom_site_fract_y
 _atom_site_fract_z
 _atom_site_occupancy
  Pb  Pb0  1  0.750000  0.088487  0.411513  1
  Pb  Pb1  1  0.250000  0.911513  0.588487  1
  Pb  Pb2  1  0.250000  0.411513  0.088487  1
  Pb  Pb3  1  0.750000  0.588487  0.911513  1
  W  W4  1  0.709388  0.585727  0.414273  1
  W  W5  1  0.790612  0.085727  0.914273  1
  W  W6  1  0.209388  0.914273  0.085727  1
  W  W7  1  0.290612  0.414273  0.585727  1
  O  O8  1  0.000000  0.142182  0.142182  1
  O  O9  1  0.532184  0.694405  0.305595  1
  O  O10  1  0.047471  0.588735  0.411265  1
  O  O11  1  0.750000  0.380712  0.119288  1
  O  O12  1  0.500000  0.642182  0.642182  1
  O  O13  1  0.032184  0.805595  0.194405  1
  O  O14  1  0.452529  0.088735  0.911265  1
  O  O15  1  0.500000  0.357818  0.357818  1
  O  O16  1  0.467816  0.305595  0.694405  1
  O  O17  1  0.952529  0.411265  0.588735  1
  O  O18  1  0.000000  0.857818  0.857818  1
  O  O19  1  0.250000  0.619288  0.880712  1
  O  O20  1  0.547471  0.911265  0.088735  1
  O  O21  1  0.967816  0.194405  0.805595  1
  O  O22  1  0.250000  0.119288  0.380712  1
  O  O23  1  0.750000  0.880712  0.619288  1
