# generated using pymatgen
data_Gd6C3Cl5
_symmetry_space_group_name_H-M   'P 1'
_cell_length_a   3.69407675
_cell_length_b   8.42125164
_cell_length_c   10.28842485
_cell_angle_alpha   85.76164168
_cell_angle_beta   79.66833761
_cell_angle_gamma   77.32308085
_symmetry_Int_Tables_number   1
_chemical_formula_structural   Gd6C3Cl5
_chemical_formula_sum   'Gd6 C3 Cl5'
_cell_volume   306.99594729
_cell_formula_units_Z   1
loop_
 _symmetry_equiv_pos_site_id
 _symmetry_equiv_pos_as_xyz
  1  'x, y, z'
loop_
 _atom_site_type_symbol
 _atom_site_label
 _atom_site_symmetry_multiplicity
 _atom_site_fract_x
 _atom_site_fract_y
 _atom_site_fract_z
 _atom_site_occupancy
  Gd  Gd0  1  0.574283  0.076804  0.779946  1
  Gd  Gd1  1  0.958942  0.430471  0.660123  1
  Gd  Gd2  1  0.683092  0.181579  0.454516  1
  Gd  Gd3  1  0.048933  0.567298  0.340766  1
  Gd  Gd4  1  0.319125  0.819919  0.543152  1
  Gd  Gd5  1  0.431672  0.921892  0.217039  1
  C  C6  1  0.126715  0.122754  0.625810  1
  C  C7  1  0.878158  0.874084  0.372569  1
  C  C8  1  0.506127  0.498082  0.499695  1
  Cl  Cl9  1  0.744350  0.745954  0.757041  1
  Cl  Cl10  1  0.380174  0.380021  0.871257  1
  Cl  Cl11  1  0.251482  0.252618  0.239230  1
  Cl  Cl12  1  0.632744  0.615683  0.129662  1
  Cl  Cl13  1  0.001425  0.996429  0.998509  1
