# generated using pymatgen
data_CaAs3F15
_symmetry_space_group_name_H-M   'P 1'
_cell_length_a   10.31744886
_cell_length_b   10.68439012
_cell_length_c   22.11127884
_cell_angle_alpha   89.98092746
_cell_angle_beta   90.00014916
_cell_angle_gamma   89.99671836
_symmetry_Int_Tables_number   1
_chemical_formula_structural   CaAs3F15
_chemical_formula_sum   'Ca8 As24 F120'
_cell_volume   2437.45102889
_cell_formula_units_Z   8
loop_
 _symmetry_equiv_pos_site_id
 _symmetry_equiv_pos_as_xyz
  1  'x, y, z'
loop_
 _atom_site_type_symbol
 _atom_site_label
 _atom_site_symmetry_multiplicity
 _atom_site_fract_x
 _atom_site_fract_y
 _atom_site_fract_z
 _atom_site_occupancy
  Ca  Ca0  1  0.249840  0.387518  0.434194  1
  Ca  Ca1  1  0.249904  0.379846  0.934609  1
  Ca  Ca2  1  0.249861  0.877965  0.311749  1
  Ca  Ca3  1  0.250061  0.880440  0.814683  1
  Ca  Ca4  1  0.749911  0.619266  0.064350  1
  Ca  Ca5  1  0.749889  0.623237  0.564499  1
  Ca  Ca6  1  0.750088  0.120234  0.185241  1
  Ca  Ca7  1  0.749915  0.118985  0.683717  1
  As  As8  1  0.006629  0.316613  0.578724  1
  As  As9  1  0.006632  0.316732  0.079090  1
  As  As10  1  0.005965  0.816468  0.170603  1
  As  As11  1  0.007283  0.816322  0.671152  1
  As  As12  1  0.249754  0.996982  0.504637  1
  As  As13  1  0.269540  0.001688  0.998313  1
  As  As14  1  0.269822  0.501429  0.250983  1
  As  As15  1  0.269653  0.501970  0.751421  1
  As  As16  1  0.492883  0.316122  0.079071  1
  As  As17  1  0.493299  0.316366  0.578443  1
  As  As18  1  0.493552  0.815928  0.170669  1
  As  As19  1  0.492280  0.816016  0.670909  1
  As  As20  1  0.505354  0.183083  0.329448  1
  As  As21  1  0.506714  0.183302  0.829005  1
  As  As22  1  0.506837  0.684995  0.420542  1
  As  As23  1  0.506305  0.683413  0.920816  1
  As  As24  1  0.749950  0.995538  0.504133  1
  As  As25  1  0.769738  0.998146  0.001371  1
  As  As26  1  0.769847  0.498289  0.248481  1
  As  As27  1  0.769569  0.498114  0.748182  1
  As  As28  1  0.994249  0.183402  0.329644  1
  As  As29  1  0.993088  0.685288  0.420783  1
  As  As30  1  0.992763  0.183839  0.828960  1
  As  As31  1  0.993202  0.684024  0.920841  1
  F  F32  1  0.087469  0.251086  0.272401  1
  F  F33  1  0.087665  0.753181  0.478151  1
  F  F34  1  0.085987  0.252002  0.771660  1
  F  F35  1  0.085809  0.751969  0.978371  1
  F  F36  1  0.097442  0.390987  0.634310  1
  F  F37  1  0.095635  0.391784  0.135126  1
  F  F38  1  0.095542  0.891690  0.114823  1
  F  F39  1  0.098297  0.891699  0.614876  1
  F  F40  1  0.100100  0.048176  0.326065  1
  F  F41  1  0.098249  0.550669  0.424986  1
  F  F42  1  0.097161  0.548975  0.925293  1
  F  F43  1  0.097041  0.048896  0.824797  1
  F  F44  1  0.101420  0.247589  0.386865  1
  F  F45  1  0.101355  0.750781  0.364555  1
  F  F46  1  0.098936  0.748687  0.864228  1
  F  F47  1  0.098752  0.248471  0.885783  1
  F  F48  1  0.103710  0.181785  0.583192  1
  F  F49  1  0.101839  0.182292  0.084256  1
  F  F50  1  0.101866  0.682432  0.165846  1
  F  F51  1  0.103422  0.682566  0.665985  1
  F  F52  1  0.110923  0.383649  0.521345  1
  F  F53  1  0.108718  0.385075  0.022134  1
  F  F54  1  0.108344  0.885480  0.227669  1
  F  F55  1  0.109929  0.884981  0.727948  1
  F  F56  1  0.250205  0.153068  0.481171  1
  F  F57  1  0.249889  0.946617  0.429408  1
  F  F58  1  0.242452  0.161804  0.977580  1
  F  F59  1  0.240794  0.950381  0.921950  1
  F  F60  1  0.240466  0.450513  0.327608  1
  F  F61  1  0.242218  0.661359  0.272110  1
  F  F62  1  0.240630  0.450398  0.827949  1
  F  F63  1  0.242408  0.661730  0.772570  1
  F  F64  1  0.390476  0.384118  0.022200  1
  F  F65  1  0.388548  0.383753  0.521542  1
  F  F66  1  0.390819  0.884463  0.227659  1
  F  F67  1  0.389907  0.883958  0.728063  1
  F  F68  1  0.394429  0.183842  0.085484  1
  F  F69  1  0.395598  0.182161  0.583197  1
  F  F70  1  0.394409  0.683976  0.164690  1
  F  F71  1  0.393782  0.683541  0.664785  1
  F  F72  1  0.399619  0.248299  0.885695  1
  F  F73  1  0.397516  0.248205  0.386275  1
  F  F74  1  0.398103  0.749887  0.364053  1
  F  F75  1  0.399456  0.748357  0.864337  1
  F  F76  1  0.400473  0.047169  0.326590  1
  F  F77  1  0.402833  0.047617  0.825941  1
  F  F78  1  0.401095  0.550281  0.424443  1
  F  F79  1  0.402792  0.547598  0.924216  1
  F  F80  1  0.405494  0.393336  0.135334  1
  F  F81  1  0.403369  0.391242  0.634593  1
  F  F82  1  0.405602  0.893276  0.114670  1
  F  F83  1  0.401995  0.892996  0.614991  1
  F  F84  1  0.410243  0.247662  0.271705  1
  F  F85  1  0.411409  0.248203  0.771348  1
  F  F86  1  0.411939  0.752827  0.477787  1
  F  F87  1  0.411587  0.748112  0.978704  1
  F  F88  1  0.437601  0.511009  0.261398  1
  F  F89  1  0.437605  0.511093  0.761540  1
  F  F90  1  0.437649  0.011123  0.988527  1
  F  F91  1  0.564106  0.990479  0.509537  1
  F  F92  1  0.585929  0.248065  0.021724  1
  F  F93  1  0.587057  0.253064  0.520723  1
  F  F94  1  0.585723  0.748033  0.228304  1
  F  F95  1  0.585065  0.747954  0.728330  1
  F  F96  1  0.593554  0.107748  0.385284  1
  F  F97  1  0.595590  0.108198  0.885135  1
  F  F98  1  0.593306  0.606784  0.364426  1
  F  F99  1  0.595648  0.608190  0.864957  1
  F  F100  1  0.597066  0.451041  0.074866  1
  F  F101  1  0.595101  0.453085  0.575221  1
  F  F102  1  0.597274  0.950958  0.175157  1
  F  F103  1  0.595198  0.951004  0.675249  1
  F  F104  1  0.598835  0.251410  0.135881  1
  F  F105  1  0.597416  0.251477  0.635457  1
  F  F106  1  0.599037  0.751194  0.114092  1
  F  F107  1  0.597295  0.751909  0.614228  1
  F  F108  1  0.600517  0.317697  0.334417  1
  F  F109  1  0.601814  0.317759  0.834207  1
  F  F110  1  0.603984  0.816580  0.413508  1
  F  F111  1  0.601846  0.817643  0.915877  1
  F  F112  1  0.607344  0.114711  0.272284  1
  F  F113  1  0.608689  0.115002  0.772093  1
  F  F114  1  0.606530  0.615485  0.477689  1
  F  F115  1  0.608634  0.614862  0.977963  1
  F  F116  1  0.749986  0.050610  0.582297  1
  F  F117  1  0.740645  0.049700  0.077921  1
  F  F118  1  0.742457  0.338195  0.227679  1
  F  F119  1  0.740738  0.549758  0.172043  1
  F  F120  1  0.742442  0.838182  0.022506  1
  F  F121  1  0.742415  0.338033  0.727258  1
  F  F122  1  0.750090  0.829915  0.523496  1
  F  F123  1  0.740911  0.549819  0.671792  1
  F  F124  1  0.892832  0.615378  0.477509  1
  F  F125  1  0.892483  0.115722  0.272130  1
  F  F126  1  0.890466  0.115961  0.772123  1
  F  F127  1  0.890591  0.615859  0.977912  1
  F  F128  1  0.896523  0.316541  0.335667  1
  F  F129  1  0.895253  0.816202  0.413559  1
  F  F130  1  0.894409  0.316164  0.835407  1
  F  F131  1  0.894396  0.816136  0.914680  1
  F  F132  1  0.899551  0.251679  0.135750  1
  F  F133  1  0.902064  0.252310  0.635925  1
  F  F134  1  0.899323  0.751429  0.114163  1
  F  F135  1  0.901591  0.751326  0.614867  1
  F  F136  1  0.902854  0.452418  0.075925  1
  F  F137  1  0.904275  0.453465  0.575743  1
  F  F138  1  0.902614  0.952261  0.174005  1
  F  F139  1  0.905391  0.952043  0.674702  1
  F  F140  1  0.906687  0.106448  0.385205  1
  F  F141  1  0.907526  0.606622  0.364137  1
  F  F142  1  0.905491  0.106612  0.885285  1
  F  F143  1  0.905533  0.606675  0.864764  1
  F  F144  1  0.911490  0.251922  0.021387  1
  F  F145  1  0.912544  0.253422  0.521076  1
  F  F146  1  0.911680  0.751871  0.228622  1
  F  F147  1  0.912757  0.751433  0.729028  1
  F  F148  1  0.936001  0.990430  0.509487  1
  F  F149  1  0.937688  0.988861  0.011594  1
  F  F150  1  0.937842  0.488864  0.238337  1
  F  F151  1  0.937701  0.488765  0.738372  1
