# generated using pymatgen
data_Ba2In13Ir4
_symmetry_space_group_name_H-M   'P 1'
_cell_length_a   4.54374784
_cell_length_b   13.91858758
_cell_length_c   14.90988001
_cell_angle_alpha   90.00000000
_cell_angle_beta   98.76451541
_cell_angle_gamma   90.00000000
_symmetry_Int_Tables_number   1
_chemical_formula_structural   Ba2In13Ir4
_chemical_formula_sum   'Ba4 In26 Ir8'
_cell_volume   931.92811240
_cell_formula_units_Z   2
loop_
 _symmetry_equiv_pos_site_id
 _symmetry_equiv_pos_as_xyz
  1  'x, y, z'
loop_
 _atom_site_type_symbol
 _atom_site_label
 _atom_site_symmetry_multiplicity
 _atom_site_fract_x
 _atom_site_fract_y
 _atom_site_fract_z
 _atom_site_occupancy
  Ba  Ba0  1  0.748211  0.571839  0.496422  1
  Ba  Ba1  1  0.540108  0.893956  0.080216  1
  Ba  Ba2  1  0.251789  0.071839  0.503578  1
  Ba  Ba3  1  0.459892  0.393956  0.919784  1
  In  In4  1  0.655499  0.072222  0.310998  1
  In  In5  1  0.502534  0.640779  0.005067  1
  In  In6  1  0.215334  0.377326  0.430668  1
  In  In7  1  0.849123  0.057242  0.698245  1
  In  In8  1  0.136982  0.907507  0.273965  1
  In  In9  1  0.860471  0.728031  0.720942  1
  In  In10  1  0.647193  0.729797  0.294385  1
  In  In11  1  0.963212  0.786939  0.926423  1
  In  In12  1  0.344501  0.572222  0.689002  1
  In  In13  1  0.225179  0.788277  0.450359  1
  In  In14  1  0.784666  0.877326  0.569332  1
  In  In15  1  0.774821  0.288277  0.549641  1
  In  In16  1  0.385295  0.894944  0.770590  1
  In  In17  1  0.932022  0.571174  0.864044  1
  In  In18  1  0.067978  0.071174  0.135956  1
  In  In19  1  0.045016  0.497343  0.090032  1
  In  In20  1  0.497466  0.140779  0.994933  1
  In  In21  1  0.150877  0.557242  0.301755  1
  In  In22  1  0.614705  0.394944  0.229410  1
  In  In23  1  0.139529  0.228031  0.279058  1
  In  In24  1  0.352807  0.229797  0.705615  1
  In  In25  1  0.928401  0.214915  0.856802  1
  In  In26  1  0.036788  0.286939  0.073577  1
  In  In27  1  0.863018  0.407507  0.726035  1
  In  In28  1  0.954984  0.997343  0.909968  1
  In  In29  1  0.071599  0.714915  0.143198  1
  Ir  Ir30  1  0.691338  0.893938  0.382676  1
  Ir  Ir31  1  0.418081  0.702409  0.836163  1
  Ir  Ir32  1  0.684906  0.264410  0.369812  1
  Ir  Ir33  1  0.588494  0.582359  0.176987  1
  Ir  Ir34  1  0.308662  0.393938  0.617324  1
  Ir  Ir35  1  0.581919  0.202409  0.163837  1
  Ir  Ir36  1  0.315094  0.764410  0.630188  1
  Ir  Ir37  1  0.411506  0.082359  0.823013  1
