# generated using pymatgen
data_PH2NO4
_symmetry_space_group_name_H-M   'P 1'
_cell_length_a   6.57971504
_cell_length_b   6.57971504
_cell_length_c   6.57971504
_cell_angle_alpha   110.06718409
_cell_angle_beta   110.06718409
_cell_angle_gamma   108.28575799
_symmetry_Int_Tables_number   1
_chemical_formula_structural   PH2NO4
_chemical_formula_sum   'P2 H4 N2 O8'
_cell_volume   219.20994717
_cell_formula_units_Z   2
loop_
 _symmetry_equiv_pos_site_id
 _symmetry_equiv_pos_as_xyz
  1  'x, y, z'
loop_
 _atom_site_type_symbol
 _atom_site_label
 _atom_site_symmetry_multiplicity
 _atom_site_fract_x
 _atom_site_fract_y
 _atom_site_fract_z
 _atom_site_occupancy
  P  P0  1  0.750000  0.250000  0.500000  1
  P  P1  1  0.000000  0.000000  0.000000  1
  H  H2  1  0.729317  0.125000  0.104317  1
  H  H3  1  0.020683  0.625000  0.895683  1
  H  H4  1  0.375000  0.270683  0.395683  1
  H  H5  1  0.875000  0.979317  0.604317  1
  N  N6  1  0.250000  0.750000  0.500000  1
  N  N7  1  0.500000  0.500000  0.000000  1
  O  O8  1  0.715598  0.268488  0.262754  1
  O  O9  1  0.744266  0.981512  0.947110  1
  O  O10  1  0.005734  0.452844  0.737246  1
  O  O11  1  0.034402  0.797156  0.052890  1
  O  O12  1  0.547156  0.284402  0.552890  1
  O  O13  1  0.018488  0.965598  0.762754  1
  O  O14  1  0.731512  0.994266  0.447110  1
  O  O15  1  0.202844  0.255734  0.237246  1
