# generated using pymatgen
data_VAg(PS3)2
_symmetry_space_group_name_H-M   'P 1'
_cell_length_a   5.89305565
_cell_length_b   7.48364256
_cell_length_c   10.82041866
_cell_angle_alpha   90.00000000
_cell_angle_beta   90.00000000
_cell_angle_gamma   104.62602007
_symmetry_Int_Tables_number   1
_chemical_formula_structural   VAg(PS3)2
_chemical_formula_sum   'V2 Ag2 P4 S12'
_cell_volume   461.73317326
_cell_formula_units_Z   2
loop_
 _symmetry_equiv_pos_site_id
 _symmetry_equiv_pos_as_xyz
  1  'x, y, z'
loop_
 _atom_site_type_symbol
 _atom_site_label
 _atom_site_symmetry_multiplicity
 _atom_site_fract_x
 _atom_site_fract_y
 _atom_site_fract_z
 _atom_site_occupancy
  P  P0  1  0.291117  0.153770  0.752030  1
  P  P1  1  0.791117  0.153770  0.247970  1
  P  P2  1  0.708883  0.846230  0.247970  1
  P  P3  1  0.208883  0.846230  0.752030  1
  S  S4  1  0.986328  0.208758  0.080009  1
  S  S5  1  0.525996  0.741400  0.395540  1
  S  S6  1  0.975673  0.213040  0.772304  1
  S  S7  1  0.524327  0.786960  0.772304  1
  S  S8  1  0.025996  0.741400  0.604460  1
  S  S9  1  0.475673  0.213040  0.227696  1
  S  S10  1  0.024327  0.786960  0.227696  1
  S  S11  1  0.513672  0.791242  0.080009  1
  S  S12  1  0.013672  0.791242  0.919991  1
  S  S13  1  0.486328  0.208758  0.919991  1
  S  S14  1  0.474004  0.258600  0.604460  1
  S  S15  1  0.974004  0.258600  0.395540  1
  V  V16  1  0.250000  0.000000  0.068247  1
  V  V17  1  0.750000  0.000000  0.931753  1
  Ag  Ag18  1  0.750000  0.000000  0.563477  1
  Ag  Ag19  1  0.250000  0.000000  0.436523  1
