# generated using pymatgen
data_Mg2PO4F
_symmetry_space_group_name_H-M   'P 1'
_cell_length_a   9.75317313
_cell_length_b   12.05428872
_cell_length_c   12.81013743
_cell_angle_alpha   90.00000000
_cell_angle_beta   90.00000000
_cell_angle_gamma   108.22944252
_symmetry_Int_Tables_number   1
_chemical_formula_structural   Mg2PO4F
_chemical_formula_sum   'Mg32 P16 O64 F16'
_cell_volume   1430.46982761
_cell_formula_units_Z   16
loop_
 _symmetry_equiv_pos_site_id
 _symmetry_equiv_pos_as_xyz
  1  'x, y, z'
loop_
 _atom_site_type_symbol
 _atom_site_label
 _atom_site_symmetry_multiplicity
 _atom_site_fract_x
 _atom_site_fract_y
 _atom_site_fract_z
 _atom_site_occupancy
  O  O0  1  0.528253  0.948919  0.917358  1
  O  O1  1  0.739366  0.540770  0.201882  1
  O  O2  1  0.739366  0.040770  0.298118  1
  O  O3  1  0.260634  0.459230  0.798118  1
  O  O4  1  0.737794  0.540819  0.701329  1
  O  O5  1  0.262206  0.959181  0.201329  1
  O  O6  1  0.262206  0.459181  0.298671  1
  O  O7  1  0.737794  0.040819  0.798671  1
  O  O8  1  0.231992  0.546790  0.552545  1
  O  O9  1  0.768008  0.953210  0.052545  1
  O  O10  1  0.768008  0.453210  0.447455  1
  O  O11  1  0.231992  0.046790  0.947455  1
  O  O12  1  0.758530  0.963416  0.546933  1
  O  O13  1  0.241470  0.536584  0.046933  1
  O  O14  1  0.241470  0.036584  0.453067  1
  O  O15  1  0.758530  0.463416  0.953067  1
  O  O16  1  0.018242  0.432521  0.663231  1
  O  O17  1  0.981758  0.067479  0.163231  1
  O  O18  1  0.981758  0.567479  0.336769  1
  O  O19  1  0.018242  0.932521  0.836769  1
  O  O20  1  0.973735  0.044974  0.666177  1
  O  O21  1  0.026265  0.455026  0.166177  1
  O  O22  1  0.026265  0.955026  0.333823  1
  O  O23  1  0.973735  0.544974  0.833823  1
  O  O24  1  0.479338  0.059867  0.587005  1
  O  O25  1  0.520662  0.440133  0.087005  1
  O  O26  1  0.520662  0.940133  0.412995  1
  O  O27  1  0.479338  0.559867  0.912995  1
  O  O28  1  0.528253  0.448919  0.582642  1
  O  O29  1  0.471747  0.051081  0.082642  1
  O  O30  1  0.471747  0.551081  0.417358  1
  O  O31  1  0.260634  0.959230  0.701882  1
  O  O32  1  0.480318  0.618355  0.726732  1
  O  O33  1  0.519682  0.881645  0.226732  1
  O  O34  1  0.519682  0.381645  0.273268  1
  O  O35  1  0.480318  0.118355  0.773268  1
  O  O36  1  0.516201  0.881785  0.731018  1
  O  O37  1  0.483799  0.618215  0.231018  1
  O  O38  1  0.483799  0.118215  0.268982  1
  O  O39  1  0.516201  0.381785  0.768982  1
  O  O40  1  0.978280  0.616391  0.525243  1
  O  O41  1  0.021720  0.883609  0.025243  1
  O  O42  1  0.021720  0.383609  0.474757  1
  O  O43  1  0.978280  0.116391  0.974757  1
  O  O44  1  0.014279  0.879526  0.517066  1
  O  O45  1  0.985721  0.620474  0.017066  1
  O  O46  1  0.985721  0.120474  0.482934  1
  O  O47  1  0.014279  0.379526  0.982934  1
  O  O48  1  0.821038  0.672832  0.889624  1
  O  O49  1  0.178962  0.827168  0.389624  1
  O  O50  1  0.178962  0.327168  0.110376  1
  O  O51  1  0.821038  0.172832  0.610376  1
  O  O52  1  0.201517  0.835407  0.904962  1
  O  O53  1  0.798483  0.664593  0.404962  1
  O  O54  1  0.798483  0.164593  0.095038  1
  O  O55  1  0.201517  0.335407  0.595038  1
  O  O56  1  0.686460  0.829301  0.855859  1
  O  O57  1  0.313540  0.670699  0.355859  1
  O  O58  1  0.306256  0.169743  0.651309  1
  O  O59  1  0.686460  0.329301  0.644141  1
  O  O60  1  0.306256  0.669743  0.848691  1
  O  O61  1  0.693744  0.830257  0.348691  1
  O  O62  1  0.693744  0.330257  0.151309  1
  O  O63  1  0.313540  0.170699  0.144141  1
  F  F64  1  0.585944  0.245270  0.950443  1
  F  F65  1  0.414056  0.254730  0.450443  1
  F  F66  1  0.414056  0.754730  0.049557  1
  F  F67  1  0.585944  0.745270  0.549557  1
  F  F68  1  0.331409  0.283169  0.915513  1
  F  F69  1  0.668591  0.216831  0.415513  1
  F  F70  1  0.668591  0.716831  0.084487  1
  F  F71  1  0.331409  0.783169  0.584487  1
  F  F72  1  0.830727  0.278629  0.838240  1
  F  F73  1  0.169273  0.221371  0.338240  1
  F  F74  1  0.169273  0.721371  0.161760  1
  F  F75  1  0.830727  0.778629  0.661760  1
  F  F76  1  0.088738  0.240686  0.798095  1
  F  F77  1  0.911262  0.259314  0.298095  1
  F  F78  1  0.911262  0.759314  0.201905  1
  F  F79  1  0.088738  0.740686  0.701905  1
  Mg  Mg80  1  0.293332  0.306634  0.744297  1
  Mg  Mg81  1  0.706668  0.193366  0.244297  1
  Mg  Mg82  1  0.706668  0.693366  0.255703  1
  Mg  Mg83  1  0.293332  0.806634  0.755703  1
  Mg  Mg84  1  0.694548  0.187164  0.732776  1
  Mg  Mg85  1  0.305452  0.312837  0.232776  1
  Mg  Mg86  1  0.305452  0.812836  0.267224  1
  Mg  Mg87  1  0.694548  0.687164  0.767224  1
  Mg  Mg88  1  0.209737  0.192173  0.505026  1
  Mg  Mg89  1  0.790263  0.307827  0.005026  1
  Mg  Mg90  1  0.790263  0.807827  0.494974  1
  Mg  Mg91  1  0.209737  0.692173  0.994974  1
  Mg  Mg92  1  0.808139  0.309171  0.518675  1
  Mg  Mg93  1  0.191861  0.190829  0.018675  1
  Mg  Mg94  1  0.191861  0.690829  0.481326  1
  Mg  Mg95  1  0.808139  0.809171  0.981325  1
  Mg  Mg96  1  0.036145  0.893983  0.677118  1
  Mg  Mg97  1  0.963855  0.606017  0.177118  1
  Mg  Mg98  1  0.963855  0.106017  0.322882  1
  Mg  Mg99  1  0.036145  0.393983  0.822882  1
  Mg  Mg100  1  0.953699  0.580766  0.681511  1
  Mg  Mg101  1  0.046301  0.919234  0.181511  1
  Mg  Mg102  1  0.046301  0.419234  0.318489  1
  Mg  Mg103  1  0.953699  0.080766  0.818489  1
  Mg  Mg104  1  0.449397  0.087194  0.928876  1
  Mg  Mg105  1  0.464927  0.599389  0.069979  1
  Mg  Mg106  1  0.464927  0.099389  0.430021  1
  Mg  Mg107  1  0.535073  0.400611  0.930021  1
  Mg  Mg108  1  0.449397  0.587194  0.571124  1
  Mg  Mg109  1  0.550603  0.912806  0.071124  1
  Mg  Mg110  1  0.550603  0.412806  0.428876  1
  Mg  Mg111  1  0.535073  0.900611  0.569979  1
  P  P112  1  0.378991  0.075816  0.676905  1
  P  P113  1  0.621009  0.424184  0.176905  1
  P  P114  1  0.621009  0.924184  0.323095  1
  P  P115  1  0.378991  0.575816  0.823095  1
  P  P116  1  0.617739  0.424874  0.674752  1
  P  P117  1  0.382261  0.075126  0.174752  1
  P  P118  1  0.382261  0.575126  0.325248  1
  P  P119  1  0.617739  0.924874  0.825248  1
  P  P120  1  0.120542  0.424054  0.572071  1
  P  P121  1  0.879458  0.075946  0.072071  1
  P  P122  1  0.879458  0.575946  0.427929  1
  P  P123  1  0.120542  0.924054  0.927929  1
  P  P124  1  0.883442  0.074032  0.576641  1
  P  P125  1  0.116558  0.425968  0.076641  1
  P  P126  1  0.116558  0.925968  0.423359  1
  P  P127  1  0.883442  0.574032  0.923359  1
