# generated using pymatgen
data_Ba2Ho(CuO2)3
_symmetry_space_group_name_H-M   'P 1'
_cell_length_a   3.88097149
_cell_length_b   3.88097190
_cell_length_c   12.12715323
_cell_angle_alpha   89.99995123
_cell_angle_beta   90.00025136
_cell_angle_gamma   90.00019694
_symmetry_Int_Tables_number   1
_chemical_formula_structural   Ba2Ho(CuO2)3
_chemical_formula_sum   'Ba2 Ho1 Cu3 O6'
_cell_volume   182.65847005
_cell_formula_units_Z   1
loop_
 _symmetry_equiv_pos_site_id
 _symmetry_equiv_pos_as_xyz
  1  'x, y, z'
loop_
 _atom_site_type_symbol
 _atom_site_label
 _atom_site_symmetry_multiplicity
 _atom_site_fract_x
 _atom_site_fract_y
 _atom_site_fract_z
 _atom_site_occupancy
  Ba  Ba0  1  0.499970  0.499964  0.803828  1
  Ba  Ba1  1  0.499998  0.500031  0.196190  1
  Ho  Ho2  1  0.500002  0.499993  0.500005  1
  Cu  Cu3  1  -0.000007  0.000014  0.366091  1
  Cu  Cu4  1  0.000013  0.000003  0.633885  1
  Cu  Cu5  1  0.000018  0.000000  -0.000053  1
  O  O6  1  0.500006  0.000001  0.380828  1
  O  O7  1  0.999997  0.000009  0.149469  1
  O  O8  1  0.499997  0.999997  0.619168  1
  O  O9  1  -0.000002  0.499999  0.619173  1
  O  O10  1  0.000008  0.499998  0.380827  1
  O  O11  1  -0.000001  -0.000008  0.850588  1
