# generated using pymatgen
data_GdHO2
_symmetry_space_group_name_H-M   'P 1'
_cell_length_a   6.13235560
_cell_length_b   3.74545242
_cell_length_c   4.39100657
_cell_angle_alpha   90.00000000
_cell_angle_beta   109.28128025
_cell_angle_gamma   90.00000000
_symmetry_Int_Tables_number   1
_chemical_formula_structural   GdHO2
_chemical_formula_sum   'Gd2 H2 O4'
_cell_volume   95.19755106
_cell_formula_units_Z   2
loop_
 _symmetry_equiv_pos_site_id
 _symmetry_equiv_pos_as_xyz
  1  'x, y, z'
loop_
 _atom_site_type_symbol
 _atom_site_label
 _atom_site_symmetry_multiplicity
 _atom_site_fract_x
 _atom_site_fract_y
 _atom_site_fract_z
 _atom_site_occupancy
  Gd  Gd0  1  0.188141  0.250000  0.335523  1
  Gd  Gd1  1  0.811859  0.750000  0.664477  1
  H  H2  1  0.587301  0.250000  0.977806  1
  H  H3  1  0.412699  0.750000  0.022194  1
  O  O4  1  0.049190  0.250000  0.765336  1
  O  O5  1  0.950810  0.750000  0.234664  1
  O  O6  1  0.565239  0.250000  0.748749  1
  O  O7  1  0.434761  0.750000  0.251251  1
