# generated using pymatgen
data_RbCuPO4
_symmetry_space_group_name_H-M   'P 1'
_cell_length_a   5.31324850
_cell_length_b   9.06370133
_cell_length_c   9.38145840
_cell_angle_alpha   89.99135832
_cell_angle_beta   90.03851707
_cell_angle_gamma   90.03998844
_symmetry_Int_Tables_number   1
_chemical_formula_structural   RbCuPO4
_chemical_formula_sum   'Rb4 Cu4 P4 O16'
_cell_volume   451.78921872
_cell_formula_units_Z   4
loop_
 _symmetry_equiv_pos_site_id
 _symmetry_equiv_pos_as_xyz
  1  'x, y, z'
loop_
 _atom_site_type_symbol
 _atom_site_label
 _atom_site_symmetry_multiplicity
 _atom_site_fract_x
 _atom_site_fract_y
 _atom_site_fract_z
 _atom_site_occupancy
  Rb  Rb0  1  0.509956  0.804829  0.487564  1
  Rb  Rb1  1  0.010124  0.304778  0.012385  1
  Rb  Rb2  1  0.009969  0.194979  0.512116  1
  Rb  Rb3  1  0.509702  0.695358  0.988008  1
  Cu  Cu4  1  0.529542  0.085383  0.831678  1
  Cu  Cu5  1  0.029613  0.914696  0.168497  1
  Cu  Cu6  1  0.529673  0.414653  0.331639  1
  Cu  Cu7  1  0.029446  0.585453  0.668456  1
  P  P8  1  0.518937  0.091350  0.190998  1
  P  P9  1  0.017805  0.908537  0.809330  1
  P  P10  1  0.018667  0.591236  0.309393  1
  P  P11  1  0.518435  0.408651  0.690504  1
  O  O12  1  0.172804  0.052588  0.788905  1
  O  O13  1  0.172973  0.447681  0.288597  1
  O  O14  1  0.493050  0.362928  0.532845  1
  O  O15  1  0.154024  0.717832  0.230404  1
  O  O16  1  0.492654  0.137035  0.032791  1
  O  O17  1  0.753969  0.561327  0.243042  1
  O  O18  1  0.672861  0.552355  0.711629  1
  O  O19  1  0.673310  0.947764  0.211430  1
  O  O20  1  0.653747  0.281751  0.769496  1
  O  O21  1  0.753273  0.939007  0.743141  1
  O  O22  1  0.254266  0.061534  0.256845  1
  O  O23  1  0.153165  0.782015  0.730301  1
  O  O24  1  0.253249  0.438138  0.756236  1
  O  O25  1  0.993180  0.636759  0.467280  1
  O  O26  1  0.654554  0.218283  0.269480  1
  O  O27  1  0.991852  0.863100  0.967008  1
