# generated using pymatgen
data_AuCl5O18
_symmetry_space_group_name_H-M   'P 1'
_cell_length_a   5.51110906
_cell_length_b   8.61176304
_cell_length_c   18.16369212
_cell_angle_alpha   94.30574077
_cell_angle_beta   90.00000000
_cell_angle_gamma   108.66145268
_symmetry_Int_Tables_number   1
_chemical_formula_structural   AuCl5O18
_chemical_formula_sum   'Au2 Cl10 O36'
_cell_volume   814.16507627
_cell_formula_units_Z   2
loop_
 _symmetry_equiv_pos_site_id
 _symmetry_equiv_pos_as_xyz
  1  'x, y, z'
loop_
 _atom_site_type_symbol
 _atom_site_label
 _atom_site_symmetry_multiplicity
 _atom_site_fract_x
 _atom_site_fract_y
 _atom_site_fract_z
 _atom_site_occupancy
  Au  Au0  1  0.000000  0.000000  0.000000  1
  Au  Au1  1  0.500000  0.000000  0.500000  1
  Cl  Cl2  1  0.524701  0.129244  0.670085  1
  Cl  Cl3  1  0.895457  0.870756  0.829915  1
  Cl  Cl4  1  0.104543  0.129244  0.170085  1
  Cl  Cl5  1  0.277321  0.500000  0.750000  1
  Cl  Cl6  1  0.268296  0.283290  0.454615  1
  Cl  Cl7  1  0.475299  0.870756  0.329915  1
  Cl  Cl8  1  0.485007  0.716710  0.045385  1
  Cl  Cl9  1  0.514993  0.283290  0.954615  1
  Cl  Cl10  1  0.731704  0.716710  0.545385  1
  Cl  Cl11  1  0.722679  0.500000  0.250000  1
  O  O12  1  0.617021  0.465085  0.615417  1
  O  O13  1  0.651936  0.534915  0.884583  1
  O  O14  1  0.514318  0.218131  0.457169  1
  O  O15  1  0.325732  0.863406  0.406999  1
  O  O16  1  0.894020  0.569140  0.190935  1
  O  O17  1  0.674268  0.136594  0.593001  1
  O  O18  1  0.242636  0.363534  0.526750  1
  O  O19  1  0.295430  0.170514  0.656740  1
  O  O20  1  0.042400  0.256044  0.214642  1
  O  O21  1  0.713644  0.256044  0.714642  1
  O  O22  1  0.526062  0.031979  0.305300  1
  O  O23  1  0.382979  0.534915  0.384583  1
  O  O24  1  0.962326  0.136594  0.093001  1
  O  O25  1  0.957600  0.743956  0.785358  1
  O  O26  1  0.286356  0.743956  0.285358  1
  O  O27  1  0.599773  0.141681  0.933867  1
  O  O28  1  0.105980  0.430860  0.809065  1
  O  O29  1  0.041909  0.141681  0.433867  1
  O  O30  1  0.757364  0.636466  0.473250  1
  O  O31  1  0.994084  0.968021  0.194700  1
  O  O32  1  0.379102  0.636466  0.973250  1
  O  O33  1  0.037674  0.863406  0.906999  1
  O  O34  1  0.796188  0.781869  0.042831  1
  O  O35  1  0.473938  0.968021  0.694700  1
  O  O36  1  0.005916  0.031979  0.805300  1
  O  O37  1  0.203812  0.218131  0.957169  1
  O  O38  1  0.620898  0.363534  0.026750  1
  O  O39  1  0.175120  0.569140  0.690935  1
  O  O40  1  0.958091  0.858319  0.566133  1
  O  O41  1  0.485682  0.781869  0.542831  1
  O  O42  1  0.624916  0.829486  0.843260  1
  O  O43  1  0.400227  0.858319  0.066133  1
  O  O44  1  0.348064  0.465085  0.115417  1
  O  O45  1  0.375084  0.170514  0.156740  1
  O  O46  1  0.704570  0.829486  0.343260  1
  O  O47  1  0.824880  0.430860  0.309065  1
