# generated using pymatgen
data_NbHO3
_symmetry_space_group_name_H-M   'P 1'
_cell_length_a   6.80103218
_cell_length_b   6.82676967
_cell_length_c   6.77277607
_cell_angle_alpha   109.74204922
_cell_angle_beta   109.19945248
_cell_angle_gamma   109.70990337
_symmetry_Int_Tables_number   1
_chemical_formula_structural   NbHO3
_chemical_formula_sum   'Nb4 H4 O12'
_cell_volume   241.34866960
_cell_formula_units_Z   4
loop_
 _symmetry_equiv_pos_site_id
 _symmetry_equiv_pos_as_xyz
  1  'x, y, z'
loop_
 _atom_site_type_symbol
 _atom_site_label
 _atom_site_symmetry_multiplicity
 _atom_site_fract_x
 _atom_site_fract_y
 _atom_site_fract_z
 _atom_site_occupancy
  Nb  Nb0  1  0.513005  0.032874  0.016862  1
  Nb  Nb1  1  0.011194  0.029192  0.491951  1
  Nb  Nb2  1  0.007375  0.470831  0.004276  1
  Nb  Nb3  1  0.514035  0.540520  0.525587  1
  H  H4  1  0.187016  0.750726  0.564795  1
  H  H5  1  0.806023  0.373882  0.555713  1
  H  H6  1  0.445476  0.816508  0.257704  1
  H  H7  1  0.743521  0.570991  0.188171  1
  O  O8  1  0.203183  0.889732  0.690466  1
  O  O9  1  0.789279  0.090385  0.295657  1
  O  O10  1  0.204596  0.498410  0.294223  1
  O  O11  1  0.798769  0.483916  0.688914  1
  O  O12  1  0.716526  0.205143  0.920027  1
  O  O13  1  0.314216  0.795664  0.117231  1
  O  O14  1  0.274836  0.198411  0.479626  1
  O  O15  1  0.698022  0.782664  0.487422  1
  O  O16  1  0.888363  0.684513  0.199760  1
  O  O17  1  0.082010  0.279096  0.795631  1
  O  O18  1  0.493452  0.288197  0.194019  1
  O  O19  1  0.512105  0.713934  0.798164  1
