# generated using pymatgen
data_Si2Os3C12(ClO2)6
_symmetry_space_group_name_H-M   'P 1'
_cell_length_a   8.41677890
_cell_length_b   8.54191542
_cell_length_c   11.60459383
_cell_angle_alpha   80.53910056
_cell_angle_beta   69.85543624
_cell_angle_gamma   66.49354111
_symmetry_Int_Tables_number   1
_chemical_formula_structural   Si2Os3C12(ClO2)6
_chemical_formula_sum   'Si2 Os3 C12 Cl6 O12'
_cell_volume   717.92511421
_cell_formula_units_Z   1
loop_
 _symmetry_equiv_pos_site_id
 _symmetry_equiv_pos_as_xyz
  1  'x, y, z'
loop_
 _atom_site_type_symbol
 _atom_site_label
 _atom_site_symmetry_multiplicity
 _atom_site_fract_x
 _atom_site_fract_y
 _atom_site_fract_z
 _atom_site_occupancy
  Si  Si0  1  0.775081  0.636893  0.862771  1
  Si  Si1  1  0.224919  0.363107  0.137229  1
  Os  Os2  1  0.642370  0.803014  0.703598  1
  Os  Os3  1  0.357630  0.196986  0.296402  1
  Os  Os4  1  0.500000  0.000000  0.500000  1
  C  C5  1  0.602698  0.101417  0.178092  1
  C  C6  1  0.419072  0.383029  0.325163  1
  C  C7  1  0.580928  0.616971  0.674837  1
  C  C8  1  0.624453  0.794602  0.402944  1
  C  C9  1  0.118279  0.285799  0.417818  1
  C  C10  1  0.375547  0.205398  0.597056  1
  C  C11  1  0.699046  0.996469  0.723282  1
  C  C12  1  0.716156  0.059425  0.434161  1
  C  C13  1  0.881721  0.714201  0.582182  1
  C  C14  1  0.283844  0.940575  0.565839  1
  C  C15  1  0.300954  0.003531  0.276718  1
  C  C16  1  0.397302  0.898583  0.821908  1
  Cl  Cl17  1  0.134024  0.625231  0.153537  1
  Cl  Cl18  1  0.865976  0.374769  0.846463  1
  Cl  Cl19  1  0.999022  0.319229  0.138575  1
  Cl  Cl20  1  0.601174  0.682254  0.041797  1
  Cl  Cl21  1  0.398826  0.317746  0.958203  1
  Cl  Cl22  1  0.000978  0.680771  0.861425  1
  O  O23  1  0.253953  0.952770  0.892089  1
  O  O24  1  0.025386  0.662819  0.511039  1
  O  O25  1  0.746047  0.047230  0.107911  1
  O  O26  1  0.844893  0.094814  0.397228  1
  O  O27  1  0.155107  0.905186  0.602772  1
  O  O28  1  0.546280  0.507031  0.656754  1
  O  O29  1  0.697784  0.671780  0.346636  1
  O  O30  1  0.262978  0.891412  0.267048  1
  O  O31  1  0.302216  0.328220  0.653364  1
  O  O32  1  0.453720  0.492969  0.343246  1
  O  O33  1  0.737022  0.108588  0.732952  1
  O  O34  1  0.974614  0.337181  0.488961  1
