# generated using pymatgen
data_Mn(InTe2)2
_symmetry_space_group_name_H-M   'P 1'
_cell_length_a   6.31402726
_cell_length_b   6.31402745
_cell_length_c   7.72922365
_cell_angle_alpha   114.37563540
_cell_angle_beta   114.37563673
_cell_angle_gamma   89.84723199
_symmetry_Int_Tables_number   1
_chemical_formula_structural   Mn(InTe2)2
_chemical_formula_sum   'Mn1 In2 Te4'
_cell_volume   250.37821114
_cell_formula_units_Z   1
loop_
 _symmetry_equiv_pos_site_id
 _symmetry_equiv_pos_as_xyz
  1  'x, y, z'
loop_
 _atom_site_type_symbol
 _atom_site_label
 _atom_site_symmetry_multiplicity
 _atom_site_fract_x
 _atom_site_fract_y
 _atom_site_fract_z
 _atom_site_occupancy
  Mn  Mn0  1  0.999587  0.999587  0.001914  1
  In  In1  1  0.250263  0.749733  0.500130  1
  In  In2  1  0.749733  0.250263  0.500130  1
  Te  Te3  1  0.156918  0.626206  0.780750  1
  Te  Te4  1  0.374067  0.374067  0.217907  1
  Te  Te5  1  0.626206  0.156918  0.780750  1
  Te  Te6  1  0.843226  0.843226  0.218418  1
