# generated using pymatgen
data_Cr21(WC3)2
_symmetry_space_group_name_H-M   'P 1'
_cell_length_a   7.53543569
_cell_length_b   7.53472220
_cell_length_c   7.53304846
_cell_angle_alpha   60.01784224
_cell_angle_beta   60.00119227
_cell_angle_gamma   60.00777869
_symmetry_Int_Tables_number   1
_chemical_formula_structural   Cr21(WC3)2
_chemical_formula_sum   'Cr21 W2 C6'
_cell_volume   302.49580031
_cell_formula_units_Z   1
loop_
 _symmetry_equiv_pos_site_id
 _symmetry_equiv_pos_as_xyz
  1  'x, y, z'
loop_
 _atom_site_type_symbol
 _atom_site_label
 _atom_site_symmetry_multiplicity
 _atom_site_fract_x
 _atom_site_fract_y
 _atom_site_fract_z
 _atom_site_occupancy
  Cr  Cr0  1  0.661862  0.000052  0.338130  1
  Cr  Cr1  1  -0.000160  0.000115  0.338396  1
  Cr  Cr2  1  0.845184  0.384838  0.384985  1
  Cr  Cr3  1  0.337890  0.662009  -0.000169  1
  Cr  Cr4  1  0.385058  0.384826  0.384950  1
  Cr  Cr5  1  0.337966  0.999923  -0.000112  1
  Cr  Cr6  1  0.000113  -0.000154  0.662107  1
  Cr  Cr7  1  -0.000137  0.338266  0.000143  1
  Cr  Cr8  1  0.662440  0.999931  -0.000123  1
  Cr  Cr9  1  0.000013  0.337704  0.662073  1
  Cr  Cr10  1  0.337965  -0.000232  0.662004  1
  Cr  Cr11  1  0.000164  0.662134  -0.000139  1
  Cr  Cr12  1  0.615209  0.614964  0.154908  1
  Cr  Cr13  1  0.000086  0.999645  -0.000224  1
  Cr  Cr14  1  0.661822  0.338112  0.000089  1
  Cr  Cr15  1  0.614909  0.615115  0.615042  1
  Cr  Cr16  1  0.384935  0.385129  0.845111  1
  Cr  Cr17  1  0.615270  0.154831  0.614941  1
  Cr  Cr18  1  0.000031  0.662164  0.337603  1
  Cr  Cr19  1  0.384829  0.845247  0.385174  1
  Cr  Cr20  1  0.154758  0.615283  0.615179  1
  W  W21  1  0.749965  0.750278  0.749841  1
  W  W22  1  0.249718  0.249938  0.250143  1
  C  C23  1  0.273956  0.726037  0.725954  1
  C  C24  1  0.725895  0.274120  0.274150  1
  C  C25  1  0.274281  0.274159  0.725775  1
  C  C26  1  0.274185  0.725759  0.274171  1
  C  C27  1  0.725900  0.725746  0.274168  1
  C  C28  1  0.725893  0.274063  0.725731  1
