# generated using pymatgen
data_K2Bi3F11
_symmetry_space_group_name_H-M   'P 1'
_cell_length_a   4.49304939
_cell_length_b   4.29376365
_cell_length_c   22.30835234
_cell_angle_alpha   55.11302770
_cell_angle_beta   59.53485921
_cell_angle_gamma   57.87910481
_symmetry_Int_Tables_number   1
_chemical_formula_structural   K2Bi3F11
_chemical_formula_sum   'K2 Bi3 F11'
_cell_volume   285.95404783
_cell_formula_units_Z   1
loop_
 _symmetry_equiv_pos_site_id
 _symmetry_equiv_pos_as_xyz
  1  'x, y, z'
loop_
 _atom_site_type_symbol
 _atom_site_label
 _atom_site_symmetry_multiplicity
 _atom_site_fract_x
 _atom_site_fract_y
 _atom_site_fract_z
 _atom_site_occupancy
  K  K0  1  0.050072  0.925039  0.197762  1
  K  K1  1  0.945869  0.063939  0.397422  1
  Bi  Bi2  1  0.928125  0.031110  0.004796  1
  Bi  Bi3  1  0.941329  0.934828  0.600296  1
  Bi  Bi4  1  0.924500  0.969529  0.798746  1
  F  F5  1  0.322181  0.252677  0.046190  1
  F  F6  1  0.800130  0.756170  0.132173  1
  F  F7  1  0.322762  0.262737  0.626452  1
  F  F8  1  0.705935  0.899893  0.327954  1
  F  F9  1  0.167381  0.202820  0.478709  1
  F  F10  1  0.373707  0.252310  0.861298  1
  F  F11  1  0.747671  0.718041  0.562799  1
  F  F12  1  0.625112  0.436545  0.713278  1
  F  F13  1  0.885407  0.674492  0.751009  1
  F  F14  1  0.687419  0.492621  0.899471  1
  F  F15  1  0.746400  0.685250  0.990044  1
