# generated using pymatgen
data_PH3O4
_symmetry_space_group_name_H-M   'P 1'
_cell_length_a   5.79661912
_cell_length_b   5.17277669
_cell_length_c   10.84069199
_cell_angle_alpha   90.00000000
_cell_angle_beta   94.48341765
_cell_angle_gamma   90.00000000
_symmetry_Int_Tables_number   1
_chemical_formula_structural   PH3O4
_chemical_formula_sum   'P4 H12 O16'
_cell_volume   324.05932398
_cell_formula_units_Z   4
loop_
 _symmetry_equiv_pos_site_id
 _symmetry_equiv_pos_as_xyz
  1  'x, y, z'
loop_
 _atom_site_type_symbol
 _atom_site_label
 _atom_site_symmetry_multiplicity
 _atom_site_fract_x
 _atom_site_fract_y
 _atom_site_fract_z
 _atom_site_occupancy
  P  P0  1  0.207742  0.196225  0.657042  1
  P  P1  1  0.792258  0.696225  0.842958  1
  P  P2  1  0.792258  0.803775  0.342958  1
  P  P3  1  0.207742  0.303775  0.157042  1
  H  H4  1  0.254576  0.354933  0.469552  1
  H  H5  1  0.745424  0.854933  0.030448  1
  H  H6  1  0.745424  0.645067  0.530448  1
  H  H7  1  0.254576  0.145067  0.969552  1
  H  H8  1  0.847467  0.059947  0.667334  1
  H  H9  1  0.152533  0.559947  0.832666  1
  H  H10  1  0.152533  0.940053  0.332666  1
  H  H11  1  0.847467  0.440053  0.167334  1
  H  H12  1  0.445061  0.859817  0.673618  1
  H  H13  1  0.554939  0.359817  0.826382  1
  H  H14  1  0.554939  0.140183  0.326382  1
  H  H15  1  0.445061  0.640183  0.173618  1
  O  O16  1  0.310519  0.373063  0.557219  1
  O  O17  1  0.689481  0.873063  0.942781  1
  O  O18  1  0.689481  0.626937  0.442781  1
  O  O19  1  0.310519  0.126937  0.057219  1
  O  O20  1  0.938800  0.204130  0.630124  1
  O  O21  1  0.061200  0.704130  0.869876  1
  O  O22  1  0.061200  0.795870  0.369876  1
  O  O23  1  0.938800  0.295870  0.130124  1
  O  O24  1  0.291447  0.310642  0.782326  1
  O  O25  1  0.708553  0.810642  0.717674  1
  O  O26  1  0.708553  0.689358  0.217674  1
  O  O27  1  0.291447  0.189358  0.282326  1
  O  O28  1  0.280657  0.908907  0.641611  1
  O  O29  1  0.719343  0.408907  0.858389  1
  O  O30  1  0.719343  0.091093  0.358389  1
  O  O31  1  0.280657  0.591093  0.141611  1
