# generated using pymatgen
data_H7NO6
_symmetry_space_group_name_H-M   'P 1'
_cell_length_a   9.80989978
_cell_length_b   14.28027243
_cell_length_c   3.58802780
_cell_angle_alpha   90.01796298
_cell_angle_beta   90.02084719
_cell_angle_gamma   89.99521515
_symmetry_Int_Tables_number   1
_chemical_formula_structural   H7NO6
_chemical_formula_sum   'H28 N4 O24'
_cell_volume   502.63972722
_cell_formula_units_Z   4
loop_
 _symmetry_equiv_pos_site_id
 _symmetry_equiv_pos_as_xyz
  1  'x, y, z'
loop_
 _atom_site_type_symbol
 _atom_site_label
 _atom_site_symmetry_multiplicity
 _atom_site_fract_x
 _atom_site_fract_y
 _atom_site_fract_z
 _atom_site_occupancy
  H  H0  1  0.565720  0.694141  0.278771  1
  H  H1  1  0.635809  0.627820  0.960573  1
  H  H2  1  0.934372  0.305839  0.778706  1
  H  H3  1  0.864238  0.372133  0.460549  1
  H  H4  1  0.065765  0.805810  0.721311  1
  H  H5  1  0.135762  0.872169  0.039580  1
  H  H6  1  0.434698  0.194122  0.220335  1
  H  H7  1  0.364251  0.127922  0.538314  1
  H  H8  1  0.592849  0.963999  0.076924  1
  H  H9  1  0.432890  0.941591  0.124410  1
  H  H10  1  0.475190  0.062341  0.197590  1
  H  H11  1  0.907417  0.035912  0.577206  1
  H  H12  1  0.067383  0.058265  0.623671  1
  H  H13  1  0.024991  0.937617  0.698054  1
  H  H14  1  0.092740  0.535805  0.923123  1
  H  H15  1  0.975042  0.437550  0.802046  1
  H  H16  1  0.932849  0.558298  0.875709  1
  H  H17  1  0.407158  0.464170  0.422753  1
  H  H18  1  0.524925  0.562356  0.301967  1
  H  H19  1  0.567082  0.441672  0.375415  1
  H  H20  1  0.270987  0.915103  0.519929  1
  H  H21  1  0.307661  0.815596  0.382063  1
  H  H22  1  0.230510  0.084837  0.017723  1
  H  H23  1  0.192704  0.184283  0.881307  1
  H  H24  1  0.807771  0.684381  0.618293  1
  H  H25  1  0.770909  0.584945  0.480102  1
  H  H26  1  0.729098  0.415131  0.980196  1
  H  H27  1  0.692243  0.315634  0.117860  1
  N  N28  1  0.721954  0.831976  0.335103  1
  N  N29  1  0.778038  0.168030  0.835286  1
  N  N30  1  0.221973  0.668015  0.664725  1
  N  N31  1  0.278152  0.331910  0.164440  1
  O  O32  1  0.602780  0.802765  0.419575  1
  O  O33  1  0.897193  0.197316  0.920035  1
  O  O34  1  0.102825  0.697291  0.580137  1
  O  O35  1  0.397335  0.302754  0.079650  1
  O  O36  1  0.825964  0.781388  0.399148  1
  O  O37  1  0.673982  0.218596  0.899241  1
  O  O38  1  0.326023  0.718593  0.600864  1
  O  O39  1  0.174195  0.281151  0.100532  1
  O  O40  1  0.737756  0.911274  0.187650  1
  O  O41  1  0.762315  0.088731  0.687771  1
  O  O42  1  0.237759  0.588706  0.811993  1
  O  O43  1  0.262176  0.411162  0.311792  1
  O  O44  1  0.557868  0.633550  0.137615  1
  O  O45  1  0.942304  0.366373  0.637384  1
  O  O46  1  0.057788  0.866398  0.862491  1
  O  O47  1  0.442406  0.133597  0.361789  1
  O  O48  1  0.497754  0.990307  0.032012  1
  O  O49  1  0.002413  0.009550  0.531801  1
  O  O50  1  0.997672  0.509550  0.968176  1
  O  O51  1  0.502263  0.490421  0.467814  1
  O  O52  1  0.290555  0.882255  0.287721  1
  O  O53  1  0.209833  0.117691  0.786101  1
  O  O54  1  0.790608  0.617721  0.712444  1
  O  O55  1  0.709428  0.382294  0.212325  1
