# generated using pymatgen
data_Mo(HO2)2
_symmetry_space_group_name_H-M   'P 1'
_cell_length_a   7.71147846
_cell_length_b   6.74895203
_cell_length_c   3.77266441
_cell_angle_alpha   104.27862091
_cell_angle_beta   89.53022696
_cell_angle_gamma   116.58043628
_symmetry_Int_Tables_number   1
_chemical_formula_structural   Mo(HO2)2
_chemical_formula_sum   'Mo2 H4 O8'
_cell_volume   168.98284724
_cell_formula_units_Z   2
loop_
 _symmetry_equiv_pos_site_id
 _symmetry_equiv_pos_as_xyz
  1  'x, y, z'
loop_
 _atom_site_type_symbol
 _atom_site_label
 _atom_site_symmetry_multiplicity
 _atom_site_fract_x
 _atom_site_fract_y
 _atom_site_fract_z
 _atom_site_occupancy
  Mo  Mo0  1  0.794752  0.950466  0.730390  1
  Mo  Mo1  1  0.201754  0.034568  0.259638  1
  H  H2  1  0.323650  0.538245  0.495583  1
  H  H3  1  0.671809  0.446981  0.492182  1
  H  H4  1  0.878009  0.561787  0.725478  1
  H  H5  1  0.124424  0.421719  0.237732  1
  O  O6  1  0.542028  0.795729  0.655143  1
  O  O7  1  0.454303  0.190528  0.337452  1
  O  O8  1  0.125470  0.047379  0.765120  1
  O  O9  1  0.871580  0.937913  0.225241  1
  O  O10  1  0.837478  0.233919  0.867039  1
  O  O11  1  0.161568  0.752194  0.120851  1
  O  O12  1  0.793730  0.593245  0.579023  1
  O  O13  1  0.201998  0.392337  0.403595  1
