# generated using pymatgen
data_V17Ge31
_symmetry_space_group_name_H-M   'P 1'
_cell_length_a   5.92417615
_cell_length_b   5.92417615
_cell_length_c   84.06295818
_cell_angle_alpha   90.00000000
_cell_angle_beta   90.00000000
_cell_angle_gamma   90.00000000
_symmetry_Int_Tables_number   1
_chemical_formula_structural   V17Ge31
_chemical_formula_sum   'V68 Ge124'
_cell_volume   2950.26206839
_cell_formula_units_Z   4
loop_
 _symmetry_equiv_pos_site_id
 _symmetry_equiv_pos_as_xyz
  1  'x, y, z'
loop_
 _atom_site_type_symbol
 _atom_site_label
 _atom_site_symmetry_multiplicity
 _atom_site_fract_x
 _atom_site_fract_y
 _atom_site_fract_z
 _atom_site_occupancy
  V  V0  1  0.500000  0.500000  0.146429  1
  V  V1  1  0.500000  0.500000  0.793224  1
  V  V2  1  0.500000  0.500000  0.676758  1
  V  V3  1  0.000000  0.500000  0.954903  1
  V  V4  1  0.000000  0.000000  0.116658  1
  V  V5  1  0.000000  0.500000  0.778542  1
  V  V6  1  0.500000  0.500000  0.323242  1
  V  V7  1  0.000000  0.000000  0.940335  1
  V  V8  1  0.500000  0.500000  0.853571  1
  V  V9  1  0.500000  0.500000  0.383342  1
  V  V10  1  0.000000  0.000000  0.293224  1
  V  V11  1  0.500000  0.000000  0.102190  1
  V  V12  1  0.000000  0.500000  0.308150  1
  V  V13  1  0.000000  0.000000  0.353571  1
  V  V14  1  0.000000  0.000000  0.411989  1
  V  V15  1  0.500000  0.500000  0.911989  1
  V  V16  1  0.500000  0.000000  0.984811  1
  V  V17  1  0.000000  0.000000  0.059665  1
  V  V18  1  0.500000  0.000000  0.515189  1
  V  V19  1  0.500000  0.000000  0.338425  1
  V  V20  1  0.500000  0.000000  0.926104  1
  V  V21  1  0.500000  0.000000  0.454903  1
  V  V22  1  0.500000  0.500000  0.088011  1
  V  V23  1  0.000000  0.500000  0.131396  1
  V  V24  1  0.000000  0.000000  0.646429  1
  V  V25  1  0.500000  0.500000  0.559665  1
  V  V26  1  0.000000  0.500000  0.368604  1
  V  V27  1  0.500000  0.000000  0.278542  1
  V  V28  1  0.000000  0.500000  0.426104  1
  V  V29  1  0.000000  0.500000  0.484811  1
  V  V30  1  0.500000  0.500000  0.735844  1
  V  V31  1  0.000000  0.500000  0.721458  1
  V  V32  1  0.000000  0.500000  0.545097  1
  V  V33  1  0.000000  0.000000  0.823242  1
  V  V34  1  0.000000  0.000000  0.706776  1
  V  V35  1  0.500000  0.500000  0.500000  1
  V  V36  1  0.000000  0.000000  0.469761  1
  V  V37  1  0.500000  0.000000  0.221458  1
  V  V38  1  0.500000  0.000000  0.631396  1
  V  V39  1  0.500000  0.000000  0.750000  1
  V  V40  1  0.500000  0.500000  0.264156  1
  V  V41  1  0.000000  0.500000  0.191850  1
  V  V42  1  0.000000  0.000000  0.764156  1
  V  V43  1  0.500000  0.500000  0.616658  1
  V  V44  1  0.000000  0.000000  0.530238  1
  V  V45  1  0.000000  0.000000  0.235844  1
  V  V46  1  0.500000  0.000000  0.691850  1
  V  V47  1  0.000000  0.500000  0.073896  1
  V  V48  1  0.500000  0.000000  0.573896  1
  V  V49  1  0.000000  0.500000  0.661575  1
  V  V50  1  0.000000  0.000000  0.176758  1
  V  V51  1  0.000000  0.500000  0.015189  1
  V  V52  1  0.000000  0.000000  0.588011  1
  V  V53  1  0.500000  0.000000  0.161575  1
  V  V54  1  0.000000  0.500000  0.602190  1
  V  V55  1  0.000000  0.000000  0.000000  1
  V  V56  1  0.000000  0.500000  0.897810  1
  V  V57  1  0.500000  0.000000  0.045097  1
  V  V58  1  0.000000  0.500000  0.838425  1
  V  V59  1  0.500000  0.500000  0.030239  1
  V  V60  1  0.500000  0.000000  0.397810  1
  V  V61  1  0.500000  0.500000  0.206776  1
  V  V62  1  0.500000  0.000000  0.808150  1
  V  V63  1  0.500000  0.500000  0.969762  1
  V  V64  1  0.000000  0.500000  0.250000  1
  V  V65  1  0.500000  0.500000  0.440335  1
  V  V66  1  0.000000  0.000000  0.883342  1
  V  V67  1  0.500000  0.000000  0.868604  1
  Ge  Ge68  1  0.281042  0.158811  0.136634  1
  Ge  Ge69  1  0.337530  0.680818  0.765786  1
  Ge  Ge70  1  0.289670  0.658711  0.702235  1
  Ge  Ge71  1  0.158478  0.245753  0.330534  1
  Ge  Ge72  1  0.659534  0.689547  0.943008  1
  Ge  Ge73  1  0.180818  0.837530  0.734214  1
  Ge  Ge74  1  0.218958  0.658811  0.636634  1
  Ge  Ge75  1  0.763291  0.841871  0.846985  1
  Ge  Ge76  1  0.841189  0.281042  0.863366  1
  Ge  Ge77  1  0.164784  0.676847  0.572851  1
  Ge  Ge78  1  0.241388  0.658599  0.991773  1
  Ge  Ge79  1  0.158599  0.741388  0.508227  1
  Ge  Ge80  1  0.166452  0.826526  0.088625  1
  Ge  Ge81  1  0.736709  0.341871  0.346985  1
  Ge  Ge82  1  0.263291  0.658129  0.346985  1
  Ge  Ge83  1  0.701276  0.658494  0.879592  1
  Ge  Ge84  1  0.201276  0.841506  0.379592  1
  Ge  Ge85  1  0.662470  0.319182  0.765786  1
  Ge  Ge86  1  0.341624  0.794443  0.540957  1
  Ge  Ge87  1  0.222948  0.841511  0.024697  1
  Ge  Ge88  1  0.837530  0.819182  0.265786  1
  Ge  Ge89  1  0.841624  0.705557  0.040957  1
  Ge  Ge90  1  0.664784  0.823153  0.072851  1
  Ge  Ge91  1  0.741388  0.841401  0.491773  1
  Ge  Ge92  1  0.805347  0.340984  0.281673  1
  Ge  Ge93  1  0.323153  0.164784  0.427149  1
  Ge  Ge94  1  0.833548  0.173474  0.088625  1
  Ge  Ge95  1  0.341189  0.218958  0.363366  1
  Ge  Ge96  1  0.676847  0.835216  0.427149  1
  Ge  Ge97  1  0.798724  0.158494  0.379592  1
  Ge  Ge98  1  0.258612  0.158599  0.491773  1
  Ge  Ge99  1  0.169885  0.330115  0.750000  1
  Ge  Ge100  1  0.810453  0.840466  0.556992  1
  Ge  Ge101  1  0.333548  0.326526  0.588625  1
  Ge  Ge102  1  0.686147  0.160991  0.604420  1
  Ge  Ge103  1  0.341289  0.289670  0.297765  1
  Ge  Ge104  1  0.841511  0.777052  0.975303  1
  Ge  Ge105  1  0.754247  0.158478  0.669466  1
  Ge  Ge106  1  0.660991  0.186147  0.895580  1
  Ge  Ge107  1  0.341522  0.745753  0.830534  1
  Ge  Ge108  1  0.158811  0.718958  0.863366  1
  Ge  Ge109  1  0.839009  0.686147  0.395580  1
  Ge  Ge110  1  0.666452  0.673474  0.588625  1
  Ge  Ge111  1  0.841057  0.727634  0.685916  1
  Ge  Ge112  1  0.840984  0.305347  0.218327  1
  Ge  Ge113  1  0.340466  0.310453  0.943008  1
  Ge  Ge114  1  0.341057  0.772366  0.185916  1
  Ge  Ge115  1  0.794443  0.658376  0.459043  1
  Ge  Ge116  1  0.841871  0.236709  0.153015  1
  Ge  Ge117  1  0.658376  0.205557  0.540957  1
  Ge  Ge118  1  0.254247  0.341522  0.169466  1
  Ge  Ge119  1  0.705557  0.158376  0.959043  1
  Ge  Ge120  1  0.826526  0.833548  0.911375  1
  Ge  Ge121  1  0.658129  0.736709  0.653015  1
  Ge  Ge122  1  0.718958  0.841189  0.136634  1
  Ge  Ge123  1  0.313853  0.839009  0.604420  1
  Ge  Ge124  1  0.722948  0.658489  0.524697  1
  Ge  Ge125  1  0.205557  0.341624  0.459043  1
  Ge  Ge126  1  0.789670  0.841289  0.202235  1
  Ge  Ge127  1  0.819182  0.162470  0.734214  1
  Ge  Ge128  1  0.341511  0.722948  0.475303  1
  Ge  Ge129  1  0.840466  0.189547  0.443008  1
  Ge  Ge130  1  0.823153  0.335216  0.927149  1
  Ge  Ge131  1  0.158489  0.222948  0.975303  1
  Ge  Ge132  1  0.669885  0.169885  0.250000  1
  Ge  Ge133  1  0.841289  0.210330  0.797765  1
  Ge  Ge134  1  0.245753  0.841522  0.669466  1
  Ge  Ge135  1  0.158711  0.789670  0.797765  1
  Ge  Ge136  1  0.658599  0.758612  0.008227  1
  Ge  Ge137  1  0.272366  0.841057  0.314084  1
  Ge  Ge138  1  0.158376  0.294443  0.040957  1
  Ge  Ge139  1  0.341401  0.241388  0.008227  1
  Ge  Ge140  1  0.158129  0.763291  0.153015  1
  Ge  Ge141  1  0.162470  0.180818  0.265786  1
  Ge  Ge142  1  0.189547  0.159534  0.556992  1
  Ge  Ge143  1  0.727634  0.158943  0.314084  1
  Ge  Ge144  1  0.194653  0.659016  0.281673  1
  Ge  Ge145  1  0.159016  0.694653  0.218327  1
  Ge  Ge146  1  0.694653  0.840984  0.781673  1
  Ge  Ge147  1  0.710330  0.341289  0.702235  1
  Ge  Ge148  1  0.777052  0.158489  0.024697  1
  Ge  Ge149  1  0.160991  0.313853  0.395580  1
  Ge  Ge150  1  0.659016  0.805347  0.718327  1
  Ge  Ge151  1  0.298724  0.341506  0.879592  1
  Ge  Ge152  1  0.236709  0.158129  0.846985  1
  Ge  Ge153  1  0.330115  0.830115  0.250000  1
  Ge  Ge154  1  0.841401  0.258612  0.508227  1
  Ge  Ge155  1  0.689547  0.340466  0.056992  1
  Ge  Ge156  1  0.326526  0.666452  0.411375  1
  Ge  Ge157  1  0.758612  0.341401  0.991773  1
  Ge  Ge158  1  0.305347  0.159016  0.781673  1
  Ge  Ge159  1  0.173474  0.166452  0.911375  1
  Ge  Ge160  1  0.658489  0.277052  0.475303  1
  Ge  Ge161  1  0.658494  0.298724  0.120408  1
  Ge  Ge162  1  0.186147  0.339009  0.104420  1
  Ge  Ge163  1  0.340984  0.194653  0.718327  1
  Ge  Ge164  1  0.673474  0.333548  0.411375  1
  Ge  Ge165  1  0.658943  0.227634  0.185916  1
  Ge  Ge166  1  0.658711  0.710330  0.297765  1
  Ge  Ge167  1  0.835216  0.323153  0.572851  1
  Ge  Ge168  1  0.341506  0.701276  0.120408  1
  Ge  Ge169  1  0.781042  0.341189  0.636634  1
  Ge  Ge170  1  0.841506  0.798724  0.620408  1
  Ge  Ge171  1  0.335216  0.176847  0.072851  1
  Ge  Ge172  1  0.319182  0.337530  0.234214  1
  Ge  Ge173  1  0.158494  0.201276  0.620408  1
  Ge  Ge174  1  0.830115  0.669885  0.750000  1
  Ge  Ge175  1  0.176847  0.664784  0.927149  1
  Ge  Ge176  1  0.841522  0.754247  0.330534  1
  Ge  Ge177  1  0.158943  0.272366  0.685916  1
  Ge  Ge178  1  0.277052  0.341511  0.524697  1
  Ge  Ge179  1  0.658811  0.781042  0.363366  1
  Ge  Ge180  1  0.658478  0.254247  0.830534  1
  Ge  Ge181  1  0.680818  0.662470  0.234214  1
  Ge  Ge182  1  0.339009  0.813853  0.895580  1
  Ge  Ge183  1  0.227634  0.341057  0.814084  1
  Ge  Ge184  1  0.341871  0.263291  0.653015  1
  Ge  Ge185  1  0.772366  0.658943  0.814084  1
  Ge  Ge186  1  0.294443  0.841624  0.959043  1
  Ge  Ge187  1  0.210330  0.158711  0.202235  1
  Ge  Ge188  1  0.745753  0.658478  0.169466  1
  Ge  Ge189  1  0.159534  0.810453  0.443008  1
  Ge  Ge190  1  0.813853  0.660991  0.104420  1
  Ge  Ge191  1  0.310453  0.659534  0.056992  1
