# generated using pymatgen
data_GdCdPd
_symmetry_space_group_name_H-M   'P 1'
_cell_length_a   7.65594370
_cell_length_b   7.65553900
_cell_length_c   3.96209398
_cell_angle_alpha   89.99960175
_cell_angle_beta   89.99899504
_cell_angle_gamma   119.99230363
_symmetry_Int_Tables_number   1
_chemical_formula_structural   GdCdPd
_chemical_formula_sum   'Gd3 Cd3 Pd3'
_cell_volume   201.12385474
_cell_formula_units_Z   3
loop_
 _symmetry_equiv_pos_site_id
 _symmetry_equiv_pos_as_xyz
  1  'x, y, z'
loop_
 _atom_site_type_symbol
 _atom_site_label
 _atom_site_symmetry_multiplicity
 _atom_site_fract_x
 _atom_site_fract_y
 _atom_site_fract_z
 _atom_site_occupancy
  Gd  Gd0  1  0.593481  -0.000027  0.999999  1
  Gd  Gd1  1  0.406504  0.406501  0.000007  1
  Gd  Gd2  1  -0.000027  0.593505  0.999991  1
  Cd  Cd3  1  0.254155  0.999983  0.499998  1
  Cd  Cd4  1  0.745865  0.745901  0.499996  1
  Cd  Cd5  1  0.999949  0.254103  0.500004  1
  Pd  Pd6  1  0.666671  0.333241  0.500016  1
  Pd  Pd7  1  0.333418  0.666781  0.499986  1
  Pd  Pd8  1  -0.000016  0.000013  0.000003  1
