# generated using pymatgen
data_Y2Se3
_symmetry_space_group_name_H-M   'P 1'
_cell_length_a   22.65325781
_cell_length_b   8.72141017
_cell_length_c   8.72141047
_cell_angle_alpha   90.00000000
_cell_angle_beta   54.72553848
_cell_angle_gamma   54.72553761
_symmetry_Int_Tables_number   1
_chemical_formula_structural   Y2Se3
_chemical_formula_sum   'Y16 Se24'
_cell_volume   994.32284576
_cell_formula_units_Z   8
loop_
 _symmetry_equiv_pos_site_id
 _symmetry_equiv_pos_as_xyz
  1  'x, y, z'
loop_
 _atom_site_type_symbol
 _atom_site_label
 _atom_site_symmetry_multiplicity
 _atom_site_fract_x
 _atom_site_fract_y
 _atom_site_fract_z
 _atom_site_occupancy
  Y  Y0  1  0.081671  0.627492  0.377492  1
  Y  Y1  1  0.166667  0.250000  0.631987  1
  Y  Y2  1  0.337302  0.377851  0.252714  1
  Y  Y3  1  0.251662  0.872508  0.122508  1
  Y  Y4  1  0.337302  0.110242  0.735379  1
  Y  Y5  1  0.166667  0.750000  0.868013  1
  Y  Y6  1  0.496031  0.264621  0.622149  1
  Y  Y7  1  0.666667  0.368013  0.250000  1
  Y  Y8  1  0.581671  0.877492  0.127492  1
  Y  Y9  1  0.496031  0.747286  0.889758  1
  Y  Y10  1  0.666667  0.131987  0.750000  1
  Y  Y11  1  0.751662  0.622508  0.372508  1
  Y  Y12  1  0.837302  0.235379  0.610242  1
  Y  Y13  1  0.996031  0.389758  0.247286  1
  Y  Y14  1  0.837302  0.752714  0.877851  1
  Y  Y15  1  0.996031  0.122149  0.764621  1
  Se  Se16  1  0.047983  0.999116  0.361326  1
  Se  Se17  1  0.125918  0.490973  0.994007  1
  Se  Se18  1  0.047983  0.356934  0.494724  1
  Se  Se19  1  0.285350  0.143066  0.138674  1
  Se  Se20  1  0.285350  0.500884  0.005276  1
  Se  Se21  1  0.125918  0.631271  0.628237  1
  Se  Se22  1  0.381749  0.001863  0.347908  1
  Se  Se23  1  0.207415  0.868729  0.505993  1
  Se  Se24  1  0.451585  0.493153  0.998137  1
  Se  Se25  1  0.381749  0.352892  0.506847  1
  Se  Se26  1  0.207415  0.009027  0.871763  1
  Se  Se27  1  0.625918  0.128237  0.131271  1
  Se  Se28  1  0.625918  0.494007  0.990973  1
  Se  Se29  1  0.451585  0.652092  0.647108  1
  Se  Se30  1  0.707415  0.005993  0.368729  1
  Se  Se31  1  0.547983  0.861326  0.499116  1
  Se  Se32  1  0.785350  0.505276  0.000884  1
  Se  Se33  1  0.707415  0.371763  0.509027  1
  Se  Se34  1  0.547983  0.994724  0.856934  1
  Se  Se35  1  0.951585  0.147108  0.152092  1
  Se  Se36  1  0.951585  0.498137  0.993153  1
  Se  Se37  1  0.785350  0.638674  0.643066  1
  Se  Se38  1  0.881749  0.847908  0.501863  1
  Se  Se39  1  0.881749  0.006847  0.852892  1
