# generated using pymatgen
data_Ca3Zr17O37
_symmetry_space_group_name_H-M   'P 1'
_cell_length_a   3.64856016
_cell_length_b   3.64848072
_cell_length_c   73.82089948
_cell_angle_alpha   60.37868885
_cell_angle_beta   60.37836675
_cell_angle_gamma   59.99788442
_symmetry_Int_Tables_number   1
_chemical_formula_structural   Ca3Zr17O37
_chemical_formula_sum   'Ca3 Zr17 O37'
_cell_volume   698.79875325
_cell_formula_units_Z   1
loop_
 _symmetry_equiv_pos_site_id
 _symmetry_equiv_pos_as_xyz
  1  'x, y, z'
loop_
 _atom_site_type_symbol
 _atom_site_label
 _atom_site_symmetry_multiplicity
 _atom_site_fract_x
 _atom_site_fract_y
 _atom_site_fract_z
 _atom_site_occupancy
  Ca  Ca0  1  0.008630  0.008645  0.048707  1
  Ca  Ca1  1  0.012685  0.012679  0.098099  1
  Ca  Ca2  1  0.027234  0.027168  0.945921  1
  Zr  Zr3  1  0.001841  0.001472  0.999748  1
  Zr  Zr4  1  0.978843  0.978702  0.153184  1
  Zr  Zr5  1  0.985156  0.985308  0.202216  1
  Zr  Zr6  1  0.987435  0.987466  0.251882  1
  Zr  Zr7  1  0.988495  0.988504  0.301724  1
  Zr  Zr8  1  0.988550  0.988564  0.351716  1
  Zr  Zr9  1  0.988845  0.988861  0.401672  1
  Zr  Zr10  1  0.989222  0.989254  0.451613  1
  Zr  Zr11  1  0.989635  0.989682  0.501550  1
  Zr  Zr12  1  0.989888  0.989898  0.551515  1
  Zr  Zr13  1  0.990200  0.990179  0.601471  1
  Zr  Zr14  1  0.990088  0.990066  0.651489  1
  Zr  Zr15  1  0.990418  0.990415  0.701437  1
  Zr  Zr16  1  0.991018  0.991018  0.751347  1
  Zr  Zr17  1  0.993653  0.993617  0.800954  1
  Zr  Zr18  1  0.998874  0.998774  0.850177  1
  Zr  Zr19  1  0.001576  0.001521  0.899768  1
  O  O20  1  0.748934  0.748935  0.037664  1
  O  O21  1  0.757150  0.757149  0.086430  1
  O  O22  1  0.250793  0.250761  0.162383  1
  O  O23  1  0.254173  0.254221  0.211870  1
  O  O24  1  0.760237  0.760337  0.135960  1
  O  O25  1  0.253472  0.253479  0.261978  1
  O  O26  1  0.750604  0.750462  0.187421  1
  O  O27  1  0.751837  0.751838  0.237225  1
  O  O28  1  0.253974  0.253982  0.311903  1
  O  O29  1  0.254162  0.254167  0.361875  1
  O  O30  1  0.752717  0.752731  0.287091  1
  O  O31  1  0.753562  0.753572  0.336965  1
  O  O32  1  0.254489  0.254502  0.411825  1
  O  O33  1  0.754175  0.754185  0.386873  1
  O  O34  1  0.254634  0.254678  0.461799  1
  O  O35  1  0.255013  0.255073  0.511741  1
  O  O36  1  0.754354  0.754391  0.436843  1
  O  O37  1  0.754603  0.754681  0.486802  1
  O  O38  1  0.255133  0.255146  0.561727  1
  O  O39  1  0.754813  0.754843  0.536774  1
  O  O40  1  0.255520  0.255489  0.611673  1
  O  O41  1  0.755148  0.755138  0.586728  1
  O  O42  1  0.255239  0.255199  0.661716  1
  O  O43  1  0.755086  0.755043  0.636740  1
  O  O44  1  0.255853  0.255840  0.711622  1
  O  O45  1  0.256740  0.256743  0.761488  1
  O  O46  1  0.755228  0.755206  0.686717  1
  O  O47  1  0.755568  0.755578  0.736664  1
  O  O48  1  0.260062  0.260021  0.810993  1
  O  O49  1  0.756912  0.756899  0.786464  1
  O  O50  1  0.268994  0.268907  0.859657  1
  O  O51  1  0.286494  0.286440  0.907029  1
  O  O52  1  0.761651  0.761572  0.835759  1
  O  O53  1  0.207384  0.207457  0.968887  1
  O  O54  1  0.769632  0.769582  0.884557  1
  O  O55  1  0.776963  0.776888  0.933464  1
  O  O56  1  0.646410  0.647069  0.003002  1
