# generated using pymatgen
data_CsK5Zn4Sn5S17
_symmetry_space_group_name_H-M   'P 1'
_cell_length_a   9.69880629
_cell_length_b   11.02064857
_cell_length_c   11.02068519
_cell_angle_alpha   78.83765747
_cell_angle_beta   63.89416781
_cell_angle_gamma   63.89429396
_symmetry_Int_Tables_number   1
_chemical_formula_structural   CsK5Zn4Sn5S17
_chemical_formula_sum   'Cs1 K5 Zn4 Sn5 S17'
_cell_volume   949.88390787
_cell_formula_units_Z   1
loop_
 _symmetry_equiv_pos_site_id
 _symmetry_equiv_pos_as_xyz
  1  'x, y, z'
loop_
 _atom_site_type_symbol
 _atom_site_label
 _atom_site_symmetry_multiplicity
 _atom_site_fract_x
 _atom_site_fract_y
 _atom_site_fract_z
 _atom_site_occupancy
  Cs  Cs0  1  0.499995  0.999996  0.000000  1
  K  K1  1  0.489426  0.021235  0.500030  1
  K  K2  1  0.010572  0.499963  0.978774  1
  K  K3  1  0.010571  0.978763  0.499966  1
  K  K4  1  0.750003  0.499999  0.499992  1
  K  K5  1  0.489432  0.500033  0.021222  1
  Zn  Zn6  1  0.389422  0.638574  0.361402  1
  Zn  Zn7  1  0.249191  0.361398  0.361399  1
  Zn  Zn8  1  0.389422  0.361402  0.638574  1
  Zn  Zn9  1  0.971972  0.638588  0.638588  1
  Sn  Sn10  1  0.249870  0.724210  0.724212  1
  Sn  Sn11  1  0.000116  0.000051  0.000037  1
  Sn  Sn12  1  0.698449  0.275791  0.275793  1
  Sn  Sn13  1  0.025798  0.275832  0.724245  1
  Sn  Sn14  1  0.025798  0.724245  0.275831  1
  S  S15  1  0.667969  0.221331  0.505845  1
  S  S16  1  0.959128  0.781227  0.781232  1
  S  S17  1  0.110670  0.494161  0.221342  1
  S  S18  1  0.667968  0.505848  0.221335  1
  S  S19  1  0.826224  0.778627  0.505791  1
  S  S20  1  0.521588  0.218789  0.218786  1
  S  S21  1  0.259649  0.218759  0.781232  1
  S  S22  1  0.286716  0.857331  0.857334  1
  S  S23  1  0.855911  0.857302  0.142669  1
  S  S24  1  0.395142  0.778653  0.494195  1
  S  S25  1  0.001415  0.142665  0.142668  1
  S  S26  1  0.855914  0.142664  0.857303  1
  S  S27  1  0.395142  0.494196  0.778649  1
  S  S28  1  0.826226  0.505790  0.778628  1
  S  S29  1  0.259651  0.781231  0.218759  1
  S  S30  1  0.249986  0.500003  0.500005  1
  S  S31  1  0.110664  0.221344  0.494163  1
