# generated using pymatgen
data_Y2Ti2O7
_symmetry_space_group_name_H-M   'P 1'
_cell_length_a   7.24874611
_cell_length_b   7.15519114
_cell_length_c   28.84119732
_cell_angle_alpha   60.25251082
_cell_angle_beta   60.45945568
_cell_angle_gamma   60.42603274
_symmetry_Int_Tables_number   1
_chemical_formula_structural   Y2Ti2O7
_chemical_formula_sum   'Y16 Ti16 O56'
_cell_volume   1066.81564997
_cell_formula_units_Z   8
loop_
 _symmetry_equiv_pos_site_id
 _symmetry_equiv_pos_as_xyz
  1  'x, y, z'
loop_
 _atom_site_type_symbol
 _atom_site_label
 _atom_site_symmetry_multiplicity
 _atom_site_fract_x
 _atom_site_fract_y
 _atom_site_fract_z
 _atom_site_occupancy
  Y  Y0  1  0.031169  0.994878  0.995884  1
  Y  Y1  1  0.031169  0.490418  0.995884  1
  Y  Y2  1  0.515696  0.980544  0.005804  1
  Y  Y3  1  0.042889  0.477991  0.125282  1
  Y  Y4  1  0.000000  0.500000  0.250000  1
  Y  Y5  1  0.957111  0.522009  0.374718  1
  Y  Y6  1  0.000000  0.000000  0.250000  1
  Y  Y7  1  0.968831  0.509582  0.504116  1
  Y  Y8  1  0.500000  0.000000  0.250000  1
  Y  Y9  1  0.968831  0.005122  0.504116  1
  Y  Y10  1  0.000000  0.500000  0.750000  1
  Y  Y11  1  0.484304  0.019456  0.494196  1
  Y  Y12  1  0.000000  0.000000  0.750000  1
  Y  Y13  1  0.997742  0.001307  0.874911  1
  Y  Y14  1  0.500000  0.000000  0.750000  1
  Y  Y15  1  0.002258  0.998693  0.625089  1
  Ti  Ti16  1  0.013430  0.989598  0.126843  1
  Ti  Ti17  1  0.516643  0.491881  0.123964  1
  Ti  Ti18  1  0.500000  0.500000  0.250000  1
  Ti  Ti19  1  0.516643  0.995622  0.123964  1
  Ti  Ti20  1  0.986570  0.010402  0.373157  1
  Ti  Ti21  1  0.483357  0.508119  0.376036  1
  Ti  Ti22  1  0.994076  0.500638  0.626162  1
  Ti  Ti23  1  0.487697  0.501014  0.502569  1
  Ti  Ti24  1  0.483357  0.004378  0.376036  1
  Ti  Ti25  1  0.494146  0.500738  0.626067  1
  Ti  Ti26  1  0.005924  0.499362  0.873838  1
  Ti  Ti27  1  0.500000  0.500000  0.750000  1
  Ti  Ti28  1  0.494146  0.000847  0.626067  1
  Ti  Ti29  1  0.505854  0.499262  0.873933  1
  Ti  Ti30  1  0.505854  0.999153  0.873933  1
  Ti  Ti31  1  0.512303  0.498986  0.997431  1
  O  O32  1  0.144654  0.102008  0.037833  1
  O  O33  1  0.166329  0.089371  0.142208  1
  O  O34  1  0.151904  0.605416  0.034316  1
  O  O35  1  0.554943  0.183527  0.042863  1
  O  O36  1  0.137422  0.106780  0.287254  1
  O  O37  1  0.166329  0.675466  0.142208  1
  O  O38  1  0.554943  0.590079  0.042863  1
  O  O39  1  0.390097  0.264277  0.145337  1
  O  O40  1  0.550202  0.774928  0.099985  1
  O  O41  1  0.178575  0.091526  0.389992  1
  O  O42  1  0.439885  0.406972  0.206085  1
  O  O43  1  0.156143  0.603552  0.284188  1
  O  O44  1  0.821425  0.330066  0.110008  1
  O  O45  1  0.560115  0.171197  0.293915  1
  O  O46  1  0.116907  0.126302  0.532622  1
  O  O47  1  0.439885  0.828803  0.206085  1
  O  O48  1  0.178575  0.669934  0.389992  1
  O  O49  1  0.560115  0.593028  0.293915  1
  O  O50  1  0.821425  0.908474  0.110008  1
  O  O51  1  0.449798  0.225072  0.400015  1
  O  O52  1  0.843857  0.396448  0.215812  1
  O  O53  1  0.170598  0.170849  0.645053  1
  O  O54  1  0.609903  0.735723  0.354663  1
  O  O55  1  0.445057  0.409921  0.457137  1
  O  O56  1  0.168026  0.583087  0.541450  1
  O  O57  1  0.833671  0.324534  0.357792  1
  O  O58  1  0.575550  0.166824  0.545030  1
  O  O59  1  0.862578  0.893220  0.212746  1
  O  O60  1  0.126050  0.124493  0.781241  1
  O  O61  1  0.445057  0.816473  0.457137  1
  O  O62  1  0.170598  0.578341  0.645053  1
  O  O63  1  0.580842  0.167477  0.646051  1
  O  O64  1  0.575550  0.577504  0.545030  1
  O  O65  1  0.833671  0.910629  0.357792  1
  O  O66  1  0.848096  0.394584  0.465684  1
  O  O67  1  0.171401  0.171567  0.894753  1
  O  O68  1  0.418540  0.825928  0.607401  1
  O  O69  1  0.417716  0.420931  0.708002  1
  O  O70  1  0.170818  0.578079  0.793256  1
  O  O71  1  0.828599  0.421980  0.605247  1
  O  O72  1  0.582284  0.170656  0.791998  1
  O  O73  1  0.855346  0.897992  0.462167  1
  O  O74  1  0.417716  0.829344  0.708002  1
  O  O75  1  0.171401  0.578020  0.894753  1
  O  O76  1  0.582284  0.579069  0.791998  1
  O  O77  1  0.581460  0.174072  0.892599  1
  O  O78  1  0.829182  0.421921  0.706744  1
  O  O79  1  0.828599  0.828433  0.605247  1
  O  O80  1  0.424450  0.422496  0.954970  1
  O  O81  1  0.419158  0.832523  0.853949  1
  O  O82  1  0.873950  0.875507  0.718759  1
  O  O83  1  0.829402  0.421659  0.854947  1
  O  O84  1  0.424450  0.833176  0.954970  1
  O  O85  1  0.829402  0.829151  0.854947  1
  O  O86  1  0.831974  0.416913  0.958550  1
  O  O87  1  0.883093  0.873698  0.967378  1
