# generated using pymatgen
data_HI3O8
_symmetry_space_group_name_H-M   'P 1'
_cell_length_a   7.72067199
_cell_length_b   7.89516898
_cell_length_c   11.61018028
_cell_angle_alpha   90.00000000
_cell_angle_beta   88.54787273
_cell_angle_gamma   90.00000000
_symmetry_Int_Tables_number   1
_chemical_formula_structural   HI3O8
_chemical_formula_sum   'H4 I12 O32'
_cell_volume   707.48298255
_cell_formula_units_Z   4
loop_
 _symmetry_equiv_pos_site_id
 _symmetry_equiv_pos_as_xyz
  1  'x, y, z'
loop_
 _atom_site_type_symbol
 _atom_site_label
 _atom_site_symmetry_multiplicity
 _atom_site_fract_x
 _atom_site_fract_y
 _atom_site_fract_z
 _atom_site_occupancy
  H  H0  1  0.501033  0.914099  0.385291  1
  H  H1  1  0.001033  0.585901  0.885291  1
  H  H2  1  0.498967  0.085901  0.614709  1
  H  H3  1  0.998967  0.414099  0.114709  1
  I  I4  1  0.259713  0.702080  0.412220  1
  I  I5  1  0.759713  0.797920  0.912220  1
  I  I6  1  0.740287  0.297920  0.587780  1
  I  I7  1  0.240287  0.202080  0.087780  1
  I  I8  1  0.162926  0.239574  0.390235  1
  I  I9  1  0.662926  0.260426  0.890235  1
  I  I10  1  0.837074  0.760426  0.609765  1
  I  I11  1  0.337074  0.739574  0.109765  1
  I  I12  1  0.745667  0.552204  0.306309  1
  I  I13  1  0.245667  0.947796  0.806309  1
  I  I14  1  0.254333  0.447796  0.693691  1
  I  I15  1  0.754333  0.052204  0.193691  1
  O  O16  1  0.057815  0.802618  0.455995  1
  O  O17  1  0.557815  0.697382  0.955995  1
  O  O18  1  0.942185  0.197382  0.544005  1
  O  O19  1  0.442185  0.302618  0.044005  1
  O  O20  1  0.377246  0.915944  0.419195  1
  O  O21  1  0.877246  0.584056  0.919195  1
  O  O22  1  0.622754  0.084056  0.580805  1
  O  O23  1  0.122754  0.415944  0.080805  1
  O  O24  1  0.330862  0.310994  0.484531  1
  O  O25  1  0.830862  0.189006  0.984531  1
  O  O26  1  0.669138  0.689006  0.515469  1
  O  O27  1  0.169138  0.810994  0.015469  1
  O  O28  1  0.068547  0.451061  0.368410  1
  O  O29  1  0.568547  0.048939  0.868410  1
  O  O30  1  0.931453  0.548939  0.631590  1
  O  O31  1  0.431453  0.951061  0.131590  1
  O  O32  1  0.313940  0.250865  0.251216  1
  O  O33  1  0.813940  0.249135  0.751216  1
  O  O34  1  0.686060  0.749135  0.748784  1
  O  O35  1  0.186060  0.750865  0.248784  1
  O  O36  1  0.704949  0.949652  0.330157  1
  O  O37  1  0.204949  0.550348  0.830157  1
  O  O38  1  0.295051  0.050348  0.669843  1
  O  O39  1  0.795051  0.449652  0.169843  1
  O  O40  1  0.702409  0.354976  0.392381  1
  O  O41  1  0.202409  0.145024  0.892381  1
  O  O42  1  0.297591  0.645024  0.607619  1
  O  O43  1  0.797591  0.854976  0.107619  1
  O  O44  1  0.517891  0.613793  0.281056  1
  O  O45  1  0.017891  0.886207  0.781056  1
  O  O46  1  0.482109  0.386207  0.718944  1
  O  O47  1  0.982109  0.113793  0.218944  1
