# generated using pymatgen
data_BaC2S2(OF)6
_symmetry_space_group_name_H-M   'P 1'
_cell_length_a   4.98026475
_cell_length_b   9.80940748
_cell_length_c   11.40834517
_cell_angle_alpha   104.68161556
_cell_angle_beta   102.60761076
_cell_angle_gamma   89.99999882
_symmetry_Int_Tables_number   1
_chemical_formula_structural   BaC2S2(OF)6
_chemical_formula_sum   'Ba2 C4 S4 O12 F12'
_cell_volume   525.23541115
_cell_formula_units_Z   2
loop_
 _symmetry_equiv_pos_site_id
 _symmetry_equiv_pos_as_xyz
  1  'x, y, z'
loop_
 _atom_site_type_symbol
 _atom_site_label
 _atom_site_symmetry_multiplicity
 _atom_site_fract_x
 _atom_site_fract_y
 _atom_site_fract_z
 _atom_site_occupancy
  Ba  Ba0  1  0.466489  0.750000  0.500000  1
  Ba  Ba1  1  0.533511  0.250000  0.500000  1
  C  C2  1  0.271200  0.060466  0.840887  1
  C  C3  1  0.069687  0.560466  0.840887  1
  C  C4  1  0.728800  0.939534  0.159113  1
  C  C5  1  0.930313  0.439534  0.159113  1
  S  S6  1  0.090285  0.535250  0.674311  1
  S  S7  1  0.915974  0.964750  0.325689  1
  S  S8  1  0.084026  0.035250  0.674311  1
  S  S9  1  0.909715  0.464750  0.325689  1
  O  O10  1  0.097793  0.848953  0.323874  1
  O  O11  1  0.693543  0.960610  0.391880  1
  O  O12  1  0.198337  0.460610  0.391880  1
  O  O13  1  0.273919  0.651047  0.676126  1
  O  O14  1  0.306457  0.039390  0.608120  1
  O  O15  1  0.726081  0.348953  0.323874  1
  O  O16  1  0.902207  0.151047  0.676126  1
  O  O17  1  0.054061  0.106114  0.360500  1
  O  O18  1  0.193562  0.393886  0.639500  1
  O  O19  1  0.801663  0.539390  0.608120  1
  O  O20  1  0.945939  0.893886  0.639500  1
  O  O21  1  0.806438  0.606114  0.360500  1
  F  F22  1  0.320764  0.554930  0.912770  1
  F  F23  1  0.586197  0.813073  0.117357  1
  F  F24  1  0.907995  0.945070  0.087230  1
  F  F25  1  0.100720  0.543010  0.151191  1
  F  F26  1  0.550471  0.043010  0.151191  1
  F  F27  1  0.968840  0.686927  0.882643  1
  F  F28  1  0.449529  0.956990  0.848809  1
  F  F29  1  0.413803  0.186927  0.882643  1
  F  F30  1  0.092005  0.054930  0.912770  1
  F  F31  1  0.031160  0.313073  0.117357  1
  F  F32  1  0.899280  0.456990  0.848809  1
  F  F33  1  0.679236  0.445070  0.087230  1
