# generated using pymatgen
data_SrCrP2O7
_symmetry_space_group_name_H-M   'P 1'
_cell_length_a   5.49118554
_cell_length_b   8.45151521
_cell_length_c   12.78053702
_cell_angle_alpha   90.00000000
_cell_angle_beta   90.54209381
_cell_angle_gamma   90.00000000
_symmetry_Int_Tables_number   1
_chemical_formula_structural   SrCrP2O7
_chemical_formula_sum   'Sr4 Cr4 P8 O28'
_cell_volume   593.10332677
_cell_formula_units_Z   4
loop_
 _symmetry_equiv_pos_site_id
 _symmetry_equiv_pos_as_xyz
  1  'x, y, z'
loop_
 _atom_site_type_symbol
 _atom_site_label
 _atom_site_symmetry_multiplicity
 _atom_site_fract_x
 _atom_site_fract_y
 _atom_site_fract_z
 _atom_site_occupancy
  O  O0  1  0.719758  0.309271  0.594809  1
  O  O1  1  0.780242  0.809271  0.905191  1
  O  O2  1  0.280242  0.690729  0.405191  1
  O  O3  1  0.219758  0.190729  0.094809  1
  O  O4  1  0.586122  0.167441  0.970150  1
  O  O5  1  0.913878  0.667441  0.529850  1
  O  O6  1  0.413878  0.832559  0.029850  1
  O  O7  1  0.086122  0.332559  0.470150  1
  O  O8  1  0.988463  0.440637  0.793547  1
  O  O9  1  0.511537  0.940637  0.706453  1
  O  O10  1  0.011537  0.559363  0.206453  1
  O  O11  1  0.488463  0.059363  0.293547  1
  O  O12  1  0.266079  0.384321  0.949616  1
  O  O13  1  0.233921  0.884321  0.550384  1
  O  O14  1  0.733921  0.615679  0.050384  1
  O  O15  1  0.766079  0.115679  0.449616  1
  O  O16  1  0.675642  0.364796  0.151492  1
  O  O17  1  0.824358  0.864796  0.348508  1
  O  O18  1  0.324358  0.635204  0.848508  1
  O  O19  1  0.175642  0.135204  0.651492  1
  O  O20  1  0.658490  0.400052  0.405511  1
  O  O21  1  0.841510  0.900052  0.094489  1
  O  O22  1  0.341510  0.599948  0.594489  1
  O  O23  1  0.158490  0.099948  0.905511  1
  O  O24  1  0.937584  0.119728  0.264196  1
  O  O25  1  0.562416  0.619728  0.235804  1
  O  O26  1  0.062416  0.880272  0.735804  1
  O  O27  1  0.437584  0.380272  0.764196  1
  P  P28  1  0.811150  0.299174  0.483124  1
  P  P29  1  0.688850  0.799174  0.016876  1
  P  P30  1  0.188850  0.700826  0.516876  1
  P  P31  1  0.311150  0.200826  0.983124  1
  P  P32  1  0.252080  0.962875  0.665170  1
  P  P33  1  0.247920  0.462875  0.834830  1
  P  P34  1  0.747920  0.037125  0.334830  1
  P  P35  1  0.752080  0.537125  0.165170  1
  Cr  Cr36  1  0.291004  0.355316  0.608963  1
  Cr  Cr37  1  0.208996  0.855316  0.891037  1
  Cr  Cr38  1  0.708996  0.644684  0.391037  1
  Cr  Cr39  1  0.791004  0.144684  0.108963  1
  Sr  Sr40  1  0.786729  0.163587  0.776670  1
  Sr  Sr41  1  0.713271  0.663587  0.723330  1
  Sr  Sr42  1  0.213271  0.836413  0.223330  1
  Sr  Sr43  1  0.286729  0.336413  0.276670  1
