# generated using pymatgen
data_BaH2(CO2)2
_symmetry_space_group_name_H-M   'P 1'
_cell_length_a   6.94718621
_cell_length_b   7.74399474
_cell_length_c   10.34964478
_cell_angle_alpha   90.00000000
_cell_angle_beta   90.00000000
_cell_angle_gamma   90.00000000
_symmetry_Int_Tables_number   1
_chemical_formula_structural   BaH2(CO2)2
_chemical_formula_sum   'Ba4 H8 C8 O16'
_cell_volume   556.80026492
_cell_formula_units_Z   4
loop_
 _symmetry_equiv_pos_site_id
 _symmetry_equiv_pos_as_xyz
  1  'x, y, z'
loop_
 _atom_site_type_symbol
 _atom_site_label
 _atom_site_symmetry_multiplicity
 _atom_site_fract_x
 _atom_site_fract_y
 _atom_site_fract_z
 _atom_site_occupancy
  Ba  Ba0  1  0.375883  0.591058  0.116670  1
  Ba  Ba1  1  0.624117  0.091058  0.383330  1
  Ba  Ba2  1  0.124117  0.408942  0.616670  1
  Ba  Ba3  1  0.875883  0.908942  0.883330  1
  H  H4  1  0.217146  0.248412  0.000870  1
  H  H5  1  0.402764  0.961359  0.733372  1
  H  H6  1  0.597236  0.461359  0.766628  1
  H  H7  1  0.782854  0.748412  0.499130  1
  H  H8  1  0.282854  0.751588  0.500870  1
  H  H9  1  0.902764  0.538641  0.266628  1
  H  H10  1  0.717146  0.251588  -0.000870  1
  H  H11  1  0.097236  0.038641  0.233373  1
  C  C12  1  0.968573  0.409386  0.284061  1
  C  C13  1  0.145473  0.314632  0.919296  1
  C  C14  1  0.354527  0.685368  0.419296  1
  C  C15  1  0.645473  0.185368  0.080704  1
  C  C16  1  0.531427  0.590614  0.784061  1
  C  C17  1  0.468573  0.090614  0.715939  1
  C  C18  1  0.854527  0.814632  0.580704  1
  C  C19  1  0.031427  0.909386  0.215939  1
  O  O20  1  0.910995  0.328109  0.385965  1
  O  O21  1  0.045615  0.220705  0.842972  1
  O  O22  1  0.089005  0.828109  0.114035  1
  O  O23  1  0.829065  0.975666  0.593759  1
  O  O24  1  0.545615  0.279295  0.157028  1
  O  O25  1  0.092965  0.356984  0.205229  1
  O  O26  1  0.954385  0.720705  0.657028  1
  O  O27  1  0.907035  0.856984  0.294771  1
  O  O28  1  0.170935  0.475666  0.906241  1
  O  O29  1  0.454385  0.779295  0.342972  1
  O  O30  1  0.410995  0.171891  0.614035  1
  O  O31  1  0.407035  0.643016  0.705229  1
  O  O32  1  0.329065  0.524334  0.406241  1
  O  O33  1  0.589005  0.671891  0.885965  1
  O  O34  1  0.670935  0.024334  0.093759  1
  O  O35  1  0.592965  0.143016  0.794771  1
