# generated using pymatgen
data_RbNa2NiO2
_symmetry_space_group_name_H-M   'P 1'
_cell_length_a   4.64721665
_cell_length_b   4.64721634
_cell_length_c   5.86276833
_cell_angle_alpha   113.34913398
_cell_angle_beta   113.34913231
_cell_angle_gamma   89.99999824
_symmetry_Int_Tables_number   1
_chemical_formula_structural   RbNa2NiO2
_chemical_formula_sum   'Rb1 Na2 Ni1 O2'
_cell_volume   104.85763769
_cell_formula_units_Z   1
loop_
 _symmetry_equiv_pos_site_id
 _symmetry_equiv_pos_as_xyz
  1  'x, y, z'
loop_
 _atom_site_type_symbol
 _atom_site_label
 _atom_site_symmetry_multiplicity
 _atom_site_fract_x
 _atom_site_fract_y
 _atom_site_fract_z
 _atom_site_occupancy
  O  O0  1  0.682879  0.682879  0.365758  1
  Ni  Ni1  1  0.499999  0.499999  0.999998  1
  O  O2  1  0.317123  0.317123  0.634246  1
  Na  Na3  1  0.750000  0.250000  0.500001  1
  Na  Na4  1  0.250000  0.750000  0.500001  1
  Rb  Rb5  1  0.999998  0.999998  0.999997  1
