# generated using pymatgen
data_K4Zr6CBr18
_symmetry_space_group_name_H-M   'P 1'
_cell_length_a   10.41163191
_cell_length_b   10.55862780
_cell_length_c   10.65754655
_cell_angle_alpha   118.50040831
_cell_angle_beta   100.01584526
_cell_angle_gamma   103.94940078
_symmetry_Int_Tables_number   1
_chemical_formula_structural   K4Zr6CBr18
_chemical_formula_sum   'K4 Zr6 C1 Br18'
_cell_volume   940.17076641
_cell_formula_units_Z   1
loop_
 _symmetry_equiv_pos_site_id
 _symmetry_equiv_pos_as_xyz
  1  'x, y, z'
loop_
 _atom_site_type_symbol
 _atom_site_label
 _atom_site_symmetry_multiplicity
 _atom_site_fract_x
 _atom_site_fract_y
 _atom_site_fract_z
 _atom_site_occupancy
  K  K0  1  0.186133  0.724133  0.563950  1
  K  K1  1  0.847461  0.961646  0.772913  1
  K  K2  1  0.152539  0.038354  0.227087  1
  K  K3  1  0.813867  0.275867  0.436050  1
  Zr  Zr4  1  0.353088  0.444745  0.774237  1
  Zr  Zr5  1  0.363974  0.623787  0.130404  1
  Zr  Zr6  1  0.642676  0.734556  0.044479  1
  Zr  Zr7  1  0.646912  0.555255  0.225763  1
  Zr  Zr8  1  0.357324  0.265444  0.955521  1
  Zr  Zr9  1  0.636026  0.376213  0.869596  1
  C  C10  1  0.500000  0.500000  0.000000  1
  Br  Br11  1  0.822139  0.422556  0.110598  1
  Br  Br12  1  0.514141  0.705680  0.410627  1
  Br  Br13  1  0.176883  0.974804  0.899229  1
  Br  Br14  1  0.177861  0.577444  0.889402  1
  Br  Br15  1  0.830435  0.835394  0.312840  1
  Br  Br16  1  0.503391  0.294731  0.210213  1
  Br  Br17  1  0.799162  0.223205  0.710184  1
  Br  Br18  1  0.169565  0.164606  0.687160  1
  Br  Br19  1  0.507502  0.911781  0.198314  1
  Br  Br20  1  0.818981  0.628652  0.902518  1
  Br  Br21  1  0.200838  0.776795  0.289816  1
  Br  Br22  1  0.166083  0.378417  0.495844  1
  Br  Br23  1  0.496609  0.705269  0.789787  1
  Br  Br24  1  0.823117  0.025196  0.100771  1
  Br  Br25  1  0.485859  0.294320  0.589373  1
  Br  Br26  1  0.181019  0.371348  0.097482  1
  Br  Br27  1  0.833917  0.621583  0.504156  1
  Br  Br28  1  0.492498  0.088219  0.801686  1
