# generated using pymatgen
data_Sr14La6Mg3Ti17O60
_symmetry_space_group_name_H-M   'P 1'
_cell_length_a   5.57902857
_cell_length_b   5.58237507
_cell_length_c   55.88560651
_cell_angle_alpha   60.27084692
_cell_angle_beta   60.05685676
_cell_angle_gamma   60.02038158
_symmetry_Int_Tables_number   1
_chemical_formula_structural   Sr14La6Mg3Ti17O60
_chemical_formula_sum   'Sr14 La6 Mg3 Ti17 O60'
_cell_volume   1233.95089309
_cell_formula_units_Z   1
loop_
 _symmetry_equiv_pos_site_id
 _symmetry_equiv_pos_as_xyz
  1  'x, y, z'
loop_
 _atom_site_type_symbol
 _atom_site_label
 _atom_site_symmetry_multiplicity
 _atom_site_fract_x
 _atom_site_fract_y
 _atom_site_fract_z
 _atom_site_occupancy
  Sr  Sr0  1  0.250575  0.248398  0.025046  1
  Sr  Sr1  1  0.250542  0.250481  0.124844  1
  Sr  Sr2  1  0.250803  0.250774  0.224763  1
  Sr  Sr3  1  0.749671  0.745714  0.075494  1
  Sr  Sr4  1  0.250932  0.250942  0.324721  1
  Sr  Sr5  1  0.750836  0.749293  0.174903  1
  Sr  Sr6  1  0.250964  0.251116  0.424697  1
  Sr  Sr7  1  0.750808  0.749675  0.274872  1
  Sr  Sr8  1  0.251212  0.251504  0.524605  1
  Sr  Sr9  1  0.750848  0.749804  0.374852  1
  Sr  Sr10  1  0.250708  0.254787  0.624378  1
  Sr  Sr11  1  0.751053  0.749501  0.474840  1
  Sr  Sr12  1  0.251800  0.251336  0.724505  1
  Sr  Sr13  1  0.751876  0.751954  0.574426  1
  La  La14  1  0.251397  0.263763  0.823346  1
  La  La15  1  0.751938  0.744827  0.675124  1
  La  La16  1  0.247728  0.262665  0.924189  1
  La  La17  1  0.749548  0.734615  0.776630  1
  La  La18  1  0.751182  0.741353  0.875628  1
  La  La19  1  0.752340  0.738814  0.975650  1
  Mg  Mg20  1  0.499451  0.501700  0.749938  1
  Mg  Mg21  1  0.498994  0.498509  0.850351  1
  Mg  Mg22  1  0.502665  0.497331  0.949735  1
  Ti  Ti23  1  0.001182  0.013640  0.998400  1
  Ti  Ti24  1  0.002806  0.001433  0.099294  1
  Ti  Ti25  1  0.002031  0.001449  0.199449  1
  Ti  Ti26  1  0.505670  0.494145  0.049452  1
  Ti  Ti27  1  0.502913  0.499043  0.149511  1
  Ti  Ti28  1  0.001844  0.002132  0.299420  1
  Ti  Ti29  1  0.001910  0.002131  0.399407  1
  Ti  Ti30  1  0.502537  0.500515  0.249442  1
  Ti  Ti31  1  0.502448  0.500914  0.349422  1
  Ti  Ti32  1  0.002430  0.001547  0.499356  1
  Ti  Ti33  1  0.502740  0.500564  0.449396  1
  Ti  Ti34  1  0.003712  0.000016  0.599249  1
  Ti  Ti35  1  0.995450  0.988453  0.702060  1
  Ti  Ti36  1  0.502062  0.501335  0.549448  1
  Ti  Ti37  1  0.004484  0.995218  0.799582  1
  Ti  Ti38  1  0.496507  0.507836  0.649908  1
  Ti  Ti39  1  0.001175  0.000974  0.899668  1
  O  O40  1  0.225912  0.271566  0.077284  1
  O  O41  1  0.285584  0.723514  0.021725  1
  O  O42  1  0.249172  0.787206  0.071446  1
  O  O43  1  0.745592  0.200329  0.030850  1
  O  O44  1  0.230215  0.267735  0.177116  1
  O  O45  1  0.267221  0.731923  0.123396  1
  O  O46  1  0.729689  0.271559  0.077284  1
  O  O47  1  0.773661  0.723512  0.021725  1
  O  O48  1  0.248302  0.784316  0.171908  1
  O  O49  1  0.747689  0.215517  0.128911  1
  O  O50  1  0.230849  0.267108  0.277070  1
  O  O51  1  0.267268  0.731198  0.223478  1
  O  O52  1  0.730889  0.267730  0.177117  1
  O  O53  1  0.766912  0.731920  0.123396  1
  O  O54  1  0.248718  0.783917  0.271865  1
  O  O55  1  0.748540  0.216053  0.228687  1
  O  O56  1  0.230890  0.267142  0.377067  1
  O  O57  1  0.267364  0.731039  0.323466  1
  O  O58  1  0.731335  0.267103  0.277070  1
  O  O59  1  0.766765  0.731193  0.223478  1
  O  O60  1  0.248815  0.783935  0.371842  1
  O  O61  1  0.748830  0.215972  0.328637  1
  O  O62  1  0.230665  0.267694  0.477039  1
  O  O63  1  0.267429  0.731183  0.423437  1
  O  O64  1  0.731291  0.267142  0.377067  1
  O  O65  1  0.766944  0.731035  0.323466  1
  O  O66  1  0.248760  0.784605  0.471787  1
  O  O67  1  0.748828  0.216023  0.428633  1
  O  O68  1  0.227104  0.270424  0.577254  1
  O  O69  1  0.267719  0.731446  0.523359  1
  O  O70  1  0.731243  0.267696  0.477040  1
  O  O71  1  0.767016  0.731183  0.423438  1
  O  O72  1  0.249760  0.787038  0.571345  1
  O  O73  1  0.748018  0.216337  0.528763  1
  O  O74  1  0.215774  0.290926  0.676913  1
  O  O75  1  0.274369  0.726090  0.622442  1
  O  O76  1  0.729946  0.270415  0.577255  1
  O  O77  1  0.767251  0.731454  0.523359  1
  O  O78  1  0.255228  0.802304  0.668726  1
  O  O79  1  0.750876  0.188221  0.631004  1
  O  O80  1  0.195640  0.290835  0.780667  1
  O  O81  1  0.293154  0.726516  0.718954  1
  O  O82  1  0.724184  0.290913  0.676914  1
  O  O83  1  0.775140  0.726088  0.622443  1
  O  O84  1  0.241191  0.825651  0.769198  1
  O  O85  1  0.758900  0.165246  0.731695  1
  O  O86  1  0.191886  0.294283  0.881360  1
  O  O87  1  0.293667  0.706766  0.820055  1
  O  O88  1  0.706865  0.290816  0.780667  1
  O  O89  1  0.790784  0.726494  0.718955  1
  O  O90  1  0.239764  0.849580  0.867089  1
  O  O91  1  0.755796  0.151833  0.833657  1
  O  O92  1  0.199278  0.288356  0.979116  1
  O  O93  1  0.293373  0.707657  0.919572  1
  O  O94  1  0.700230  0.294271  0.881360  1
  O  O95  1  0.799028  0.706754  0.820055  1
  O  O96  1  0.241199  0.831079  0.968652  1
  O  O97  1  0.757243  0.147972  0.933755  1
  O  O98  1  0.721203  0.288345  0.979117  1
  O  O99  1  0.803268  0.707640  0.919573  1
