# generated using pymatgen
data_MnH12C2(NCl2)2
_symmetry_space_group_name_H-M   'P 1'
_cell_length_a   7.31860937
_cell_length_b   7.27227291
_cell_length_c   19.45317593
_cell_angle_alpha   90.00000000
_cell_angle_beta   90.00000000
_cell_angle_gamma   90.00000000
_symmetry_Int_Tables_number   1
_chemical_formula_structural   MnH12C2(NCl2)2
_chemical_formula_sum   'Mn4 H48 C8 N8 Cl16'
_cell_volume   1035.35491693
_cell_formula_units_Z   4
loop_
 _symmetry_equiv_pos_site_id
 _symmetry_equiv_pos_as_xyz
  1  'x, y, z'
loop_
 _atom_site_type_symbol
 _atom_site_label
 _atom_site_symmetry_multiplicity
 _atom_site_fract_x
 _atom_site_fract_y
 _atom_site_fract_z
 _atom_site_occupancy
  Mn  Mn0  1  0.500000  0.500000  0.000000  1
  Mn  Mn1  1  0.000000  0.000000  0.000000  1
  Mn  Mn2  1  0.500000  0.000000  0.500000  1
  Mn  Mn3  1  0.000000  0.500000  0.500000  1
  H  H4  1  0.841794  0.989714  0.390876  1
  H  H5  1  0.046667  0.442252  0.223347  1
  H  H6  1  0.547513  0.567440  0.581498  1
  H  H7  1  0.341794  0.489714  0.609124  1
  H  H8  1  0.953333  0.557748  0.776653  1
  H  H9  1  0.481271  0.653903  0.394139  1
  H  H10  1  0.453333  0.442252  0.723347  1
  H  H11  1  0.499027  0.825831  0.197664  1
  H  H12  1  0.821857  0.505858  0.195375  1
  H  H13  1  0.046667  0.057748  0.723347  1
  H  H14  1  0.018729  0.846097  0.394139  1
  H  H15  1  0.953333  0.942252  0.276653  1
  H  H16  1  0.453333  0.057748  0.223347  1
  H  H17  1  0.999027  0.325831  0.802336  1
  H  H18  1  0.481271  0.846097  0.894139  1
  H  H19  1  0.047513  0.432560  0.918502  1
  H  H20  1  0.000973  0.674169  0.197664  1
  H  H21  1  0.518729  0.153903  0.105861  1
  H  H22  1  0.321857  0.005858  0.804625  1
  H  H23  1  0.821857  0.994142  0.695375  1
  H  H24  1  0.547513  0.932560  0.081498  1
  H  H25  1  0.546667  0.942252  0.776653  1
  H  H26  1  0.981271  0.153903  0.605861  1
  H  H27  1  0.452487  0.432560  0.418502  1
  H  H28  1  0.452487  0.067440  0.918502  1
  H  H29  1  0.546667  0.557748  0.276653  1
  H  H30  1  0.500973  0.174169  0.802336  1
  H  H31  1  0.952487  0.567440  0.081498  1
  H  H32  1  0.158206  0.010286  0.609124  1
  H  H33  1  0.321857  0.494142  0.304625  1
  H  H34  1  0.678143  0.994142  0.195375  1
  H  H35  1  0.178143  0.005858  0.304625  1
  H  H36  1  0.658206  0.989714  0.890876  1
  H  H37  1  0.499027  0.674169  0.697664  1
  H  H38  1  0.981271  0.346097  0.105861  1
  H  H39  1  0.341794  0.010286  0.109124  1
  H  H40  1  0.952487  0.932560  0.581498  1
  H  H41  1  0.500973  0.325831  0.302336  1
  H  H42  1  0.841794  0.510286  0.890876  1
  H  H43  1  0.658206  0.510286  0.390876  1
  H  H44  1  0.018729  0.653903  0.894139  1
  H  H45  1  0.000973  0.825831  0.697664  1
  H  H46  1  0.999027  0.174169  0.302336  1
  H  H47  1  0.047513  0.067440  0.418502  1
  H  H48  1  0.518729  0.346097  0.605861  1
  H  H49  1  0.158206  0.489714  0.109124  1
  H  H50  1  0.678143  0.505858  0.695375  1
  H  H51  1  0.178143  0.494142  0.804625  1
  C  C52  1  0.531695  0.529339  0.688353  1
  C  C53  1  0.968305  0.970661  0.688353  1
  C  C54  1  0.468305  0.470661  0.311647  1
  C  C55  1  0.968305  0.529339  0.188353  1
  C  C56  1  0.031695  0.470661  0.811647  1
  C  C57  1  0.031695  0.029339  0.311647  1
  C  C58  1  0.468305  0.029339  0.811647  1
  C  C59  1  0.531695  0.970661  0.188353  1
  N  N60  1  0.982856  0.981384  0.383539  1
  N  N61  1  0.482856  0.018616  0.116461  1
  N  N62  1  0.017144  0.018616  0.616461  1
  N  N63  1  0.982856  0.518616  0.883539  1
  N  N64  1  0.482856  0.481384  0.616461  1
  N  N65  1  0.517144  0.518616  0.383539  1
  N  N66  1  0.017144  0.481384  0.116461  1
  N  N67  1  0.517144  0.981384  0.883539  1
  Cl  Cl68  1  0.469520  0.469471  0.126972  1
  Cl  Cl69  1  0.250000  0.750000  0.499261  1
  Cl  Cl70  1  0.750000  0.250000  0.000739  1
  Cl  Cl71  1  0.969520  0.530529  0.373028  1
  Cl  Cl72  1  0.250000  0.250000  0.481287  1
  Cl  Cl73  1  0.250000  0.250000  0.981287  1
  Cl  Cl74  1  0.750000  0.250000  0.500739  1
  Cl  Cl75  1  0.530480  0.969471  0.373028  1
  Cl  Cl76  1  0.030480  0.469471  0.626972  1
  Cl  Cl77  1  0.750000  0.750000  0.018713  1
  Cl  Cl78  1  0.030480  0.030529  0.126972  1
  Cl  Cl79  1  0.250000  0.750000  0.999261  1
  Cl  Cl80  1  0.530480  0.530529  0.873028  1
  Cl  Cl81  1  0.750000  0.750000  0.518713  1
  Cl  Cl82  1  0.969520  0.969471  0.873028  1
  Cl  Cl83  1  0.469520  0.030529  0.626972  1
