# generated using pymatgen
data_H4N2O3
_symmetry_space_group_name_H-M   'P 1'
_cell_length_a   7.75653592
_cell_length_b   5.94321491
_cell_length_c   7.29504650
_cell_angle_alpha   90.00000000
_cell_angle_beta   90.00000000
_cell_angle_gamma   90.00000000
_symmetry_Int_Tables_number   1
_chemical_formula_structural   H4N2O3
_chemical_formula_sum   'H16 N8 O12'
_cell_volume   336.29259728
_cell_formula_units_Z   4
loop_
 _symmetry_equiv_pos_site_id
 _symmetry_equiv_pos_as_xyz
  1  'x, y, z'
loop_
 _atom_site_type_symbol
 _atom_site_label
 _atom_site_symmetry_multiplicity
 _atom_site_fract_x
 _atom_site_fract_y
 _atom_site_fract_z
 _atom_site_occupancy
  H  H0  1  0.086600  0.250000  0.795542  1
  H  H1  1  0.586600  0.250000  0.704458  1
  H  H2  1  0.913400  0.750000  0.204458  1
  H  H3  1  0.413400  0.750000  0.295542  1
  H  H4  1  0.084854  0.250000  0.565076  1
  H  H5  1  0.584854  0.250000  0.934924  1
  H  H6  1  0.915146  0.750000  0.434924  1
  H  H7  1  0.415146  0.750000  0.065076  1
  H  H8  1  0.934487  0.394013  0.683106  1
  H  H9  1  0.434487  0.105987  0.816894  1
  H  H10  1  0.065513  0.894013  0.316894  1
  H  H11  1  0.565513  0.605987  0.183106  1
  H  H12  1  0.065513  0.605987  0.316894  1
  H  H13  1  0.565513  0.894013  0.183106  1
  H  H14  1  0.934487  0.105987  0.683106  1
  H  H15  1  0.434487  0.394013  0.816894  1
  N  N16  1  0.009097  0.250000  0.680699  1
  N  N17  1  0.509097  0.250000  0.819301  1
  N  N18  1  0.990903  0.750000  0.319301  1
  N  N19  1  0.490903  0.750000  0.180699  1
  N  N20  1  0.157745  0.250000  0.126191  1
  N  N21  1  0.657745  0.250000  0.373809  1
  N  N22  1  0.842255  0.750000  0.873809  1
  N  N23  1  0.342255  0.750000  0.626191  1
  O  O24  1  0.066582  0.250000  0.271749  1
  O  O25  1  0.566582  0.250000  0.228251  1
  O  O26  1  0.933418  0.750000  0.728251  1
  O  O27  1  0.433418  0.750000  0.771749  1
  O  O28  1  0.200987  0.434558  0.052888  1
  O  O29  1  0.700987  0.065442  0.447112  1
  O  O30  1  0.799013  0.934558  0.947112  1
  O  O31  1  0.299013  0.565442  0.552888  1
  O  O32  1  0.799013  0.565442  0.947112  1
  O  O33  1  0.299013  0.934558  0.552888  1
  O  O34  1  0.200987  0.065442  0.052888  1
  O  O35  1  0.700987  0.434558  0.447112  1
