# generated using pymatgen
data_V3O7
_symmetry_space_group_name_H-M   'P 1'
_cell_length_a   3.68722680
_cell_length_b   11.41869312
_cell_length_c   18.66971213
_cell_angle_alpha   95.16038863
_cell_angle_beta   89.96893525
_cell_angle_gamma   99.30061996
_symmetry_Int_Tables_number   1
_chemical_formula_structural   V3O7
_chemical_formula_sum   'V18 O42'
_cell_volume   772.50071408
_cell_formula_units_Z   6
loop_
 _symmetry_equiv_pos_site_id
 _symmetry_equiv_pos_as_xyz
  1  'x, y, z'
loop_
 _atom_site_type_symbol
 _atom_site_label
 _atom_site_symmetry_multiplicity
 _atom_site_fract_x
 _atom_site_fract_y
 _atom_site_fract_z
 _atom_site_occupancy
  V  V0  1  0.281728  0.060918  0.944630  1
  V  V1  1  0.717938  0.936814  0.054707  1
  V  V2  1  0.596559  0.609832  0.059231  1
  V  V3  1  0.219928  0.938405  0.554687  1
  V  V4  1  0.586807  0.676734  0.245776  1
  V  V5  1  0.090083  0.676422  0.745964  1
  V  V6  1  0.785069  0.000079  0.249203  1
  V  V7  1  0.580269  0.657129  0.874352  1
  V  V8  1  0.014748  0.610901  0.558993  1
  V  V9  1  0.910095  0.323865  0.254149  1
  V  V10  1  0.077894  0.658224  0.373938  1
  V  V11  1  0.781830  0.062423  0.444179  1
  V  V12  1  0.418555  0.323012  0.754155  1
  V  V13  1  0.404534  0.388262  0.941255  1
  V  V14  1  0.989342  0.389707  0.441009  1
  V  V15  1  0.421144  0.341757  0.126313  1
  V  V16  1  0.216308  0.999576  0.749831  1
  V  V17  1  0.928842  0.341499  0.625746  1
  O  O18  1  0.350269  0.210217  0.937706  1
  O  O19  1  0.244958  0.994759  0.859150  1
  O  O20  1  0.422614  0.345975  0.231822  1
  O  O21  1  0.534538  0.571939  0.950584  1
  O  O22  1  0.045219  0.593784  0.664813  1
  O  O23  1  0.066894  0.630352  0.844725  1
  O  O24  1  0.466502  0.426297  0.049584  1
  O  O25  1  0.441629  0.368485  0.655233  1
  O  O26  1  0.340374  0.177965  0.765618  1
  O  O27  1  0.453929  0.405148  0.835446  1
  O  O28  1  0.740279  0.999627  0.749903  1
  O  O29  1  0.462666  0.388892  0.441027  1
  O  O30  1  0.077237  0.655521  0.268451  1
  O  O31  1  0.650375  0.787703  0.062644  1
  O  O32  1  0.863875  0.211706  0.437281  1
  O  O33  1  0.351106  0.204586  0.093864  1
  O  O34  1  0.651799  0.794056  0.907966  1
  O  O35  1  0.071759  0.610718  0.059265  1
  O  O36  1  0.841772  0.178405  0.264981  1
  O  O37  1  0.929211  0.345200  0.731388  1
  O  O38  1  0.261385  0.000126  0.249138  1
  O  O39  1  0.752272  0.996511  0.358864  1
  O  O40  1  0.227871  0.954351  0.024905  1
  O  O41  1  0.755783  0.003791  0.139772  1
  O  O42  1  0.564601  0.630939  0.344561  1
  O  O43  1  0.040426  0.573450  0.450609  1
  O  O44  1  0.957632  0.406195  0.335516  1
  O  O45  1  0.934716  0.369560  0.155516  1
  O  O46  1  0.158647  0.821478  0.733662  1
  O  O47  1  0.144862  0.795584  0.406616  1
  O  O48  1  0.728515  0.956580  0.525036  1
  O  O49  1  0.579207  0.655308  0.768761  1
  O  O50  1  0.964103  0.427266  0.549593  1
  O  O51  1  0.930150  0.387422  0.941209  1
  O  O52  1  0.772125  0.043188  0.974220  1
  O  O53  1  0.137653  0.788867  0.561499  1
  O  O54  1  0.273233  0.044410  0.474017  1
  O  O55  1  0.541226  0.611703  0.559135  1
  O  O56  1  0.249412  0.003858  0.640251  1
  O  O57  1  0.864662  0.204907  0.592604  1
  O  O58  1  0.550118  0.593376  0.164916  1
  O  O59  1  0.664254  0.821730  0.233659  1
