# generated using pymatgen
data_P3H18RuC6(SO)6
_symmetry_space_group_name_H-M   'P 1'
_cell_length_a   9.15360025
_cell_length_b   9.15360025
_cell_length_c   13.19374722
_cell_angle_alpha   84.25363516
_cell_angle_beta   95.74636484
_cell_angle_gamma   103.30428283
_symmetry_Int_Tables_number   1
_chemical_formula_structural   P3H18RuC6(SO)6
_chemical_formula_sum   'P6 H36 Ru2 C12 S12 O12'
_cell_volume   1067.01015826
_cell_formula_units_Z   2
loop_
 _symmetry_equiv_pos_site_id
 _symmetry_equiv_pos_as_xyz
  1  'x, y, z'
loop_
 _atom_site_type_symbol
 _atom_site_label
 _atom_site_symmetry_multiplicity
 _atom_site_fract_x
 _atom_site_fract_y
 _atom_site_fract_z
 _atom_site_occupancy
  P  P0  1  0.352888  0.709789  0.650102  1
  P  P1  1  0.709789  0.352888  0.849898  1
  P  P2  1  0.647112  0.290211  0.349898  1
  P  P3  1  0.290211  0.647112  0.150102  1
  P  P4  1  0.933611  0.933611  0.750000  1
  P  P5  1  0.066389  0.066389  0.250000  1
  H  H6  1  0.306912  0.082311  0.657217  1
  H  H7  1  0.082311  0.306912  0.842783  1
  H  H8  1  0.693088  0.917689  0.342783  1
  H  H9  1  0.917689  0.693088  0.157217  1
  H  H10  1  0.406908  0.983944  0.755039  1
  H  H11  1  0.983944  0.406908  0.744961  1
  H  H12  1  0.593092  0.016056  0.244961  1
  H  H13  1  0.016056  0.593092  0.255039  1
  H  H14  1  0.478177  0.034321  0.630795  1
  H  H15  1  0.034321  0.478177  0.869205  1
  H  H16  1  0.521823  0.965679  0.369205  1
  H  H17  1  0.965679  0.521823  0.130795  1
  H  H18  1  0.109518  0.405748  0.530418  1
  H  H19  1  0.405748  0.109518  0.969582  1
  H  H20  1  0.890482  0.594252  0.469582  1
  H  H21  1  0.594252  0.890482  0.030418  1
  H  H22  1  0.310131  0.456085  0.526050  1
  H  H23  1  0.456085  0.310131  0.973950  1
  H  H24  1  0.689869  0.543915  0.473950  1
  H  H25  1  0.543915  0.689869  0.026050  1
  H  H26  1  0.229320  0.388249  0.645754  1
  H  H27  1  0.388249  0.229320  0.854246  1
  H  H28  1  0.770680  0.611751  0.354246  1
  H  H29  1  0.611751  0.770680  0.145754  1
  H  H30  1  0.924786  0.204872  0.540292  1
  H  H31  1  0.204872  0.924786  0.959708  1
  H  H32  1  0.075214  0.795128  0.459708  1
  H  H33  1  0.795128  0.075214  0.040292  1
  H  H34  1  0.852365  0.006138  0.537157  1
  H  H35  1  0.006138  0.852365  0.962843  1
  H  H36  1  0.147635  0.993862  0.462844  1
  H  H37  1  0.993862  0.147635  0.037157  1
  H  H38  1  0.766495  0.114610  0.610917  1
  H  H39  1  0.114610  0.766495  0.889083  1
  H  H40  1  0.233505  0.885390  0.389083  1
  H  H41  1  0.885390  0.233505  0.110917  1
  Ru  Ru42  1  0.664361  0.664361  0.750000  1
  Ru  Ru43  1  0.335639  0.335639  0.250000  1
  C  C44  1  0.376595  0.998642  0.672556  1
  C  C45  1  0.998642  0.376595  0.827444  1
  C  C46  1  0.623405  0.001358  0.327444  1
  C  C47  1  0.001358  0.623405  0.172556  1
  C  C48  1  0.216449  0.454126  0.572411  1
  C  C49  1  0.454126  0.216449  0.927589  1
  C  C50  1  0.783551  0.545874  0.427589  1
  C  C51  1  0.545874  0.783551  0.072411  1
  C  C52  1  0.872407  0.101780  0.584487  1
  C  C53  1  0.101780  0.872407  0.915513  1
  C  C54  1  0.127593  0.898220  0.415513  1
  C  C55  1  0.898220  0.127593  0.084487  1
  S  S56  1  0.399252  0.633747  0.794394  1
  S  S57  1  0.633747  0.399252  0.705606  1
  S  S58  1  0.600748  0.366253  0.205606  1
  S  S59  1  0.366253  0.600748  0.294394  1
  S  S60  1  0.547615  0.730889  0.584357  1
  S  S61  1  0.730889  0.547615  0.915643  1
  S  S62  1  0.452385  0.269111  0.415643  1
  S  S63  1  0.269111  0.452385  0.084357  1
  S  S64  1  0.735096  0.908725  0.811979  1
  S  S65  1  0.908725  0.735096  0.688021  1
  S  S66  1  0.264904  0.091275  0.188021  1
  S  S67  1  0.091275  0.264904  0.311979  1
  O  O68  1  0.285532  0.858492  0.636367  1
  O  O69  1  0.858492  0.285532  0.863633  1
  O  O70  1  0.714468  0.141508  0.363633  1
  O  O71  1  0.141508  0.714468  0.136367  1
  O  O72  1  0.210746  0.607160  0.589932  1
  O  O73  1  0.607160  0.210746  0.910068  1
  O  O74  1  0.789254  0.392840  0.410068  1
  O  O75  1  0.392840  0.789254  0.089932  1
  O  O76  1  0.977880  0.080228  0.672188  1
  O  O77  1  0.080228  0.977880  0.827812  1
  O  O78  1  0.022120  0.919772  0.327812  1
  O  O79  1  0.919772  0.022120  0.172188  1
