# generated using pymatgen
data_Ba2Y(CuO2)4
_symmetry_space_group_name_H-M   'P 1'
_cell_length_a   3.97317702
_cell_length_b   3.75746614
_cell_length_c   14.64203722
_cell_angle_alpha   97.37199701
_cell_angle_beta   90.00000000
_cell_angle_gamma   90.00000000
_symmetry_Int_Tables_number   1
_chemical_formula_structural   Ba2Y(CuO2)4
_chemical_formula_sum   'Ba2 Y1 Cu4 O8'
_cell_volume   216.78523323
_cell_formula_units_Z   1
loop_
 _symmetry_equiv_pos_site_id
 _symmetry_equiv_pos_as_xyz
  1  'x, y, z'
loop_
 _atom_site_type_symbol
 _atom_site_label
 _atom_site_symmetry_multiplicity
 _atom_site_fract_x
 _atom_site_fract_y
 _atom_site_fract_z
 _atom_site_occupancy
  O  O0  1  0.000000  0.851118  0.702236  1
  O  O1  1  0.000000  0.148882  0.297764  1
  O  O2  1  0.000000  0.455592  0.911185  1
  O  O3  1  0.000000  0.544408  0.088815  1
  O  O4  1  0.500000  0.925060  0.850119  1
  O  O5  1  0.500000  0.074940  0.149881  1
  O  O6  1  0.000000  0.279185  0.558370  1
  O  O7  1  0.000000  0.720815  0.441630  1
  Cu  Cu8  1  0.000000  0.925706  0.851412  1
  Cu  Cu9  1  0.000000  0.074294  0.148588  1
  Cu  Cu10  1  0.000000  0.786685  0.573371  1
  Cu  Cu11  1  0.000000  0.213315  0.426629  1
  Y  Y12  1  0.500000  0.000000  0.000000  1
  Ba  Ba13  1  0.500000  0.358879  0.717759  1
  Ba  Ba14  1  0.500000  0.641121  0.282241  1
