# generated using pymatgen
data_Na2SnS
_symmetry_space_group_name_H-M   'P 1'
_cell_length_a   6.72695220
_cell_length_b   19.86250085
_cell_length_c   25.78330659
_cell_angle_alpha   16.88842699
_cell_angle_beta   28.31693750
_cell_angle_gamma   31.42209881
_symmetry_Int_Tables_number   1
_chemical_formula_structural   Na2SnS
_chemical_formula_sum   'Na8 Sn4 S4'
_cell_volume   473.22203966
_cell_formula_units_Z   4
loop_
 _symmetry_equiv_pos_site_id
 _symmetry_equiv_pos_as_xyz
  1  'x, y, z'
loop_
 _atom_site_type_symbol
 _atom_site_label
 _atom_site_symmetry_multiplicity
 _atom_site_fract_x
 _atom_site_fract_y
 _atom_site_fract_z
 _atom_site_occupancy
  Na  Na0  1  0.502873  0.012363  0.239541  1
  Na  Na1  1  0.020507  0.994785  0.498820  1
  Na  Na2  1  0.979493  0.671880  0.001181  1
  Na  Na3  1  0.499998  0.333334  0.250000  1
  Na  Na4  1  0.499318  0.996969  0.748507  1
  Na  Na5  1  0.497128  0.654304  0.260458  1
  Na  Na6  1  0.499998  0.333333  0.750000  1
  Na  Na7  1  0.500685  0.669697  0.751493  1
  Sn  Sn8  1  0.059742  0.974848  0.002987  1
  Sn  Sn9  1  0.933414  0.357402  0.001141  1
  Sn  Sn10  1  0.066585  0.309260  0.498863  1
  Sn  Sn11  1  0.940256  0.691824  0.497011  1
  S  S12  1  0.281207  0.020032  0.107107  1
  S  S13  1  0.275098  0.341305  0.616941  1
  S  S14  1  0.718794  0.646634  0.392893  1
  S  S15  1  0.724904  0.325362  0.883058  1
