# generated using pymatgen
data_SrNd5Fe6(AsO)6
_symmetry_space_group_name_H-M   'P 1'
_cell_length_a   12.30606825
_cell_length_b   9.17875131
_cell_length_c   10.19410673
_cell_angle_alpha   68.78643943
_cell_angle_beta   89.94196766
_cell_angle_gamma   63.44961658
_symmetry_Int_Tables_number   1
_chemical_formula_structural   SrNd5Fe6(AsO)6
_chemical_formula_sum   'Sr2 Nd10 Fe12 As12 O12'
_cell_volume   942.23586227
_cell_formula_units_Z   2
loop_
 _symmetry_equiv_pos_site_id
 _symmetry_equiv_pos_as_xyz
  1  'x, y, z'
loop_
 _atom_site_type_symbol
 _atom_site_label
 _atom_site_symmetry_multiplicity
 _atom_site_fract_x
 _atom_site_fract_y
 _atom_site_fract_z
 _atom_site_occupancy
  Sr  Sr0  1  0.230246  0.059512  0.133111  1
  Sr  Sr1  1  0.769754  0.940488  0.866889  1
  Nd  Nd2  1  0.060569  0.564220  0.121147  1
  Nd  Nd3  1  0.105215  0.936441  0.880903  1
  Nd  Nd4  1  0.269938  0.435786  0.877430  1
  Nd  Nd5  1  0.395054  0.564077  0.121787  1
  Nd  Nd6  1  0.562329  0.063898  0.119256  1
  Nd  Nd7  1  0.437671  0.936102  0.880744  1
  Nd  Nd8  1  0.604946  0.435923  0.878213  1
  Nd  Nd9  1  0.730062  0.564214  0.122570  1
  Nd  Nd10  1  0.894785  0.063559  0.119097  1
  Nd  Nd11  1  0.939431  0.435780  0.878853  1
  Fe  Fe12  1  0.039477  0.625825  0.500523  1
  Fe  Fe13  1  0.210375  0.125843  0.501784  1
  Fe  Fe14  1  0.124410  0.876214  0.499798  1
  Fe  Fe15  1  0.290524  0.376862  0.501257  1
  Fe  Fe16  1  0.375258  0.624955  0.500873  1
  Fe  Fe17  1  0.540412  0.127512  0.498489  1
  Fe  Fe18  1  0.459588  0.872488  0.501511  1
  Fe  Fe19  1  0.624742  0.375045  0.499127  1
  Fe  Fe20  1  0.709476  0.623138  0.498743  1
  Fe  Fe21  1  0.875590  0.123786  0.500202  1
  Fe  Fe22  1  0.789625  0.874157  0.498216  1
  Fe  Fe23  1  0.960523  0.374175  0.499477  1
  As  As24  1  0.012703  0.213425  0.327148  1
  As  As25  1  0.153898  0.287691  0.675705  1
  As  As26  1  0.178432  0.709141  0.328527  1
  As  As27  1  0.346508  0.211668  0.327303  1
  As  As28  1  0.318799  0.789008  0.674589  1
  As  As29  1  0.486970  0.287999  0.674149  1
  As  As30  1  0.513030  0.712001  0.325851  1
  As  As31  1  0.681201  0.210992  0.325411  1
  As  As32  1  0.653492  0.788332  0.672697  1
  As  As33  1  0.821568  0.290859  0.671473  1
  As  As34  1  0.846102  0.712309  0.324295  1
  As  As35  1  0.987297  0.786575  0.672852  1
  O  O36  1  0.034993  0.129651  0.993998  1
  O  O37  1  0.121963  0.386888  0.993073  1
  O  O38  1  0.209860  0.622912  0.001409  1
  O  O39  1  0.378814  0.130241  0.992958  1
  O  O40  1  0.294446  0.867717  0.996274  1
  O  O41  1  0.457167  0.378209  0.998843  1
  O  O42  1  0.542833  0.621791  0.001157  1
  O  O43  1  0.705554  0.132283  0.003726  1
  O  O44  1  0.621186  0.869759  0.007042  1
  O  O45  1  0.790140  0.377088  0.998591  1
  O  O46  1  0.878037  0.613112  0.006927  1
  O  O47  1  0.965007  0.870349  0.006002  1
