# generated using pymatgen
data_Ba2In2O5
_symmetry_space_group_name_H-M   'P 1'
_cell_length_a   8.57801970
_cell_length_b   6.06592786
_cell_length_c   6.10634682
_cell_angle_alpha   60.23809557
_cell_angle_beta   45.38241253
_cell_angle_gamma   45.00045212
_symmetry_Int_Tables_number   1
_chemical_formula_structural   Ba2In2O5
_chemical_formula_sum   'Ba2 In2 O5'
_cell_volume   159.92578857
_cell_formula_units_Z   1
loop_
 _symmetry_equiv_pos_site_id
 _symmetry_equiv_pos_as_xyz
  1  'x, y, z'
loop_
 _atom_site_type_symbol
 _atom_site_label
 _atom_site_symmetry_multiplicity
 _atom_site_fract_x
 _atom_site_fract_y
 _atom_site_fract_z
 _atom_site_occupancy
  Ba  Ba0  1  0.252896  0.497500  0.497466  1
  Ba  Ba1  1  0.752863  0.497848  0.500525  1
  In  In2  1  0.019981  0.001882  0.959368  1
  In  In3  1  0.482549  0.001807  0.034238  1
  O  O4  1  0.255966  0.000880  0.990919  1
  O  O5  1  0.250775  0.007435  0.495863  1
  O  O6  1  0.243839  0.505285  0.000608  1
  O  O7  1  0.749037  0.010981  0.989101  1
  O  O8  1  0.750922  0.500815  0.997543  1
