# generated using pymatgen
data_Fe4Si2Sn7O16
_symmetry_space_group_name_H-M   'P 1'
_cell_length_a   6.94033317
_cell_length_b   6.94011436
_cell_length_c   9.33908229
_cell_angle_alpha   90.00676471
_cell_angle_beta   89.99951473
_cell_angle_gamma   120.00348631
_symmetry_Int_Tables_number   1
_chemical_formula_structural   Fe4Si2Sn7O16
_chemical_formula_sum   'Fe4 Si2 Sn7 O16'
_cell_volume   389.55296886
_cell_formula_units_Z   1
loop_
 _symmetry_equiv_pos_site_id
 _symmetry_equiv_pos_as_xyz
  1  'x, y, z'
loop_
 _atom_site_type_symbol
 _atom_site_label
 _atom_site_symmetry_multiplicity
 _atom_site_fract_x
 _atom_site_fract_y
 _atom_site_fract_z
 _atom_site_occupancy
  Fe  Fe0  1  0.499984  0.999962  0.500034  1
  Fe  Fe1  1  0.999997  0.000008  0.000006  1
  Fe  Fe2  1  0.999997  0.500002  0.500018  1
  Fe  Fe3  1  0.500047  0.499992  0.499962  1
  Si  Si4  1  0.333341  0.666611  0.234551  1
  Si  Si5  1  0.666660  0.333399  0.765451  1
  Sn  Sn6  1  0.166017  0.331951  0.837325  1
  Sn  Sn7  1  0.000006  0.000020  0.500002  1
  Sn  Sn8  1  0.165983  0.834050  0.837315  1
  Sn  Sn9  1  0.668076  0.834068  0.837324  1
  Sn  Sn10  1  0.331907  0.165958  0.162707  1
  Sn  Sn11  1  0.833967  0.165915  0.162703  1
  Sn  Sn12  1  0.834015  0.668029  0.162641  1
  O  O13  1  0.462921  0.925887  0.182835  1
  O  O14  1  0.462921  0.537061  0.182737  1
  O  O15  1  0.333347  0.666708  0.876029  1
  O  O16  1  0.537050  0.074117  0.817169  1
  O  O17  1  0.074066  0.537018  0.182840  1
  O  O18  1  0.845092  0.154886  0.386707  1
  O  O19  1  0.925934  0.462978  0.817126  1
  O  O20  1  0.154957  0.309808  0.613333  1
  O  O21  1  0.537094  0.462975  0.817255  1
  O  O22  1  0.666597  0.333356  0.586213  1
  O  O23  1  0.845060  0.690214  0.386648  1
  O  O24  1  0.666634  0.333282  0.123940  1
  O  O25  1  0.309785  0.154897  0.386686  1
  O  O26  1  0.333391  0.666615  0.413791  1
  O  O27  1  0.154887  0.845132  0.613316  1
  O  O28  1  0.690266  0.845102  0.613339  1
