# generated using pymatgen
data_Bi8Se7
_symmetry_space_group_name_H-M   'P 1'
_cell_length_a   4.28749638
_cell_length_b   4.28749487
_cell_length_c   88.64102583
_cell_angle_alpha   90.00025569
_cell_angle_beta   89.99990529
_cell_angle_gamma   119.99991789
_symmetry_Int_Tables_number   1
_chemical_formula_structural   Bi8Se7
_chemical_formula_sum   'Bi24 Se21'
_cell_volume   1411.14988232
_cell_formula_units_Z   3
loop_
 _symmetry_equiv_pos_site_id
 _symmetry_equiv_pos_as_xyz
  1  'x, y, z'
loop_
 _atom_site_type_symbol
 _atom_site_label
 _atom_site_symmetry_multiplicity
 _atom_site_fract_x
 _atom_site_fract_y
 _atom_site_fract_z
 _atom_site_occupancy
  Bi  Bi0  1  -0.000000  0.999994  0.400290  1
  Bi  Bi1  1  -0.000001  0.999993  0.332816  1
  Bi  Bi2  1  0.999997  0.999991  0.068224  1
  Bi  Bi3  1  0.666667  0.333327  0.442947  1
  Bi  Bi4  1  0.333332  0.666662  0.352861  1
  Bi  Bi5  1  0.000001  0.999994  0.864266  1
  Bi  Bi6  1  0.666668  0.333325  0.911755  1
  Bi  Bi7  1  1.000000  0.999994  0.135746  1
  Bi  Bi8  1  0.333332  0.666660  0.088279  1
  Bi  Bi9  1  0.999999  0.000061  0.599713  1
  Bi  Bi10  1  0.333334  0.666662  0.821811  1
  Bi  Bi11  1  0.666667  0.333331  0.243225  1
  Bi  Bi12  1  0.666667  0.333328  0.978811  1
  Bi  Bi13  1  0.333333  0.666661  0.021215  1
  Bi  Bi14  1  0.000001  0.999994  0.931768  1
  Bi  Bi15  1  0.666661  0.333326  0.178185  1
  Bi  Bi16  1  0.666669  0.333331  0.509993  1
  Bi  Bi17  1  0.333331  0.666676  0.557054  1
  Bi  Bi18  1  0.333336  0.666670  0.490020  1
  Bi  Bi19  1  0.000001  0.000000  0.667165  1
  Bi  Bi20  1  0.666669  0.333333  0.714160  1
  Bi  Bi21  1  0.333340  0.666681  0.285813  1
  Bi  Bi22  1  0.333333  0.666659  0.756752  1
  Bi  Bi23  1  0.666666  0.333333  0.647131  1
  Se  Se24  1  0.333333  0.666663  0.696650  1
  Se  Se25  1  -0.000001  0.000004  0.539633  1
  Se  Se26  1  0.666667  0.333331  0.773675  1
  Se  Se27  1  0.666667  0.333332  0.038538  1
  Se  Se28  1  0.333333  0.666704  0.617060  1
  Se  Se29  1  0.333334  0.666663  0.961453  1
  Se  Se30  1  0.333333  0.666664  0.421688  1
  Se  Se31  1  0.999997  0.999997  0.195072  1
  Se  Se32  1  0.000000  0.999996  0.804934  1
  Se  Se33  1  0.333329  0.666655  0.226317  1
  Se  Se34  1  0.666667  0.333330  0.118254  1
  Se  Se35  1  0.666667  0.333331  0.843386  1
  Se  Se36  1  -0.000000  0.999999  0.460366  1
  Se  Se37  1  0.000001  0.000000  0.264897  1
  Se  Se38  1  0.333333  0.666665  0.156633  1
  Se  Se39  1  0.666667  0.333329  0.382934  1
  Se  Se40  1  0.666670  0.333341  0.303345  1
  Se  Se41  1  0.000000  0.999998  0.999973  1
  Se  Se42  1  0.000000  0.999999  0.735122  1
  Se  Se43  1  0.666667  0.333348  0.578309  1
  Se  Se44  1  0.333334  0.666666  0.881762  1
