# generated using pymatgen
data_Zr27O49
_symmetry_space_group_name_H-M   'P 1'
_cell_length_a   3.63211916
_cell_length_b   3.63211895
_cell_length_c   98.37292505
_cell_angle_alpha   60.10476584
_cell_angle_beta   60.10476808
_cell_angle_gamma   60.00280981
_symmetry_Int_Tables_number   1
_chemical_formula_structural   Zr27O49
_chemical_formula_sum   'Zr27 O49'
_cell_volume   919.12780559
_cell_formula_units_Z   1
loop_
 _symmetry_equiv_pos_site_id
 _symmetry_equiv_pos_as_xyz
  1  'x, y, z'
loop_
 _atom_site_type_symbol
 _atom_site_label
 _atom_site_symmetry_multiplicity
 _atom_site_fract_x
 _atom_site_fract_y
 _atom_site_fract_z
 _atom_site_occupancy
  Zr  Zr0  1  0.997930  0.997930  0.000230  1
  Zr  Zr1  1  0.007161  0.007161  0.036238  1
  Zr  Zr2  1  0.003929  0.003929  0.073633  1
  Zr  Zr3  1  0.999527  0.999527  0.111162  1
  Zr  Zr4  1  0.009247  0.009247  0.147120  1
  Zr  Zr5  1  0.998316  0.998316  0.185372  1
  Zr  Zr6  1  0.008105  0.008105  0.221317  1
  Zr  Zr7  1  0.003129  0.003129  0.258908  1
  Zr  Zr8  1  0.999420  0.999420  0.296374  1
  Zr  Zr9  1  0.006506  0.006506  0.332610  1
  Zr  Zr10  1  0.001864  0.001864  0.370165  1
  Zr  Zr11  1  0.998011  0.998011  0.407628  1
  Zr  Zr12  1  0.005208  0.005208  0.443862  1
  Zr  Zr13  1  0.000357  0.000357  0.481442  1
  Zr  Zr14  1  0.001368  0.001368  0.518367  1
  Zr  Zr15  1  0.001342  0.001342  0.555408  1
  Zr  Zr16  1  0.001185  0.001185  0.592458  1
  Zr  Zr17  1  0.000844  0.000844  0.629533  1
  Zr  Zr18  1  0.000568  0.000568  0.666603  1
  Zr  Zr19  1  0.000736  0.000736  0.740660  1
  Zr  Zr20  1  0.000456  0.000456  0.703654  1
  Zr  Zr21  1  0.001118  0.001118  0.777651  1
  Zr  Zr22  1  0.001234  0.001234  0.814679  1
  Zr  Zr23  1  0.001080  0.001080  0.851733  1
  Zr  Zr24  1  0.001047  0.001047  0.888776  1
  Zr  Zr25  1  0.000338  0.000338  0.925889  1
  Zr  Zr26  1  0.001107  0.001107  0.962842  1
  O  O27  1  0.251271  0.251271  0.046154  1
  O  O28  1  0.757546  0.757546  0.026935  1
  O  O29  1  0.246979  0.246979  0.083668  1
  O  O30  1  0.747608  0.747608  0.065079  1
  O  O31  1  0.732446  0.732446  0.103801  1
  O  O32  1  0.253576  0.253576  0.157013  1
  O  O33  1  0.760767  0.760767  0.137694  1
  O  O34  1  0.730187  0.730187  0.178128  1
  O  O35  1  0.253222  0.253222  0.231123  1
  O  O36  1  0.759600  0.759600  0.211895  1
  O  O37  1  0.247753  0.247753  0.268769  1
  O  O38  1  0.748673  0.748673  0.250148  1
  O  O39  1  0.733044  0.733044  0.288920  1
  O  O40  1  0.253827  0.253827  0.342168  1
  O  O41  1  0.760219  0.760219  0.322940  1
  O  O42  1  0.248070  0.248070  0.379843  1
  O  O43  1  0.749278  0.749278  0.361190  1
  O  O44  1  0.733216  0.733216  0.400012  1
  O  O45  1  0.255328  0.255328  0.453114  1
  O  O46  1  0.248668  0.248668  0.490890  1
  O  O47  1  0.760407  0.760407  0.434030  1
  O  O48  1  0.749390  0.749390  0.472292  1
  O  O49  1  0.249404  0.249404  0.527843  1
  O  O50  1  0.249373  0.249373  0.564884  1
  O  O51  1  0.749897  0.749897  0.509269  1
  O  O52  1  0.749713  0.749713  0.546327  1
  O  O53  1  0.249421  0.249421  0.601915  1
  O  O54  1  0.749872  0.749872  0.583347  1
  O  O55  1  0.249456  0.249456  0.638949  1
  O  O56  1  0.749822  0.749822  0.620388  1
  O  O57  1  0.249457  0.249457  0.675984  1
  O  O58  1  0.749792  0.749792  0.657429  1
  O  O59  1  0.249740  0.249740  0.712991  1
  O  O60  1  0.749832  0.749832  0.694461  1
  O  O61  1  0.250096  0.250096  0.749990  1
  O  O62  1  0.750186  0.750186  0.731461  1
  O  O63  1  0.250146  0.250146  0.787022  1
  O  O64  1  0.750612  0.750612  0.768451  1
  O  O65  1  0.249712  0.249712  0.824109  1
  O  O66  1  0.750575  0.750575  0.805494  1
  O  O67  1  0.249129  0.249129  0.861207  1
  O  O68  1  0.248611  0.248611  0.898304  1
  O  O69  1  0.749915  0.749915  0.842601  1
  O  O70  1  0.749520  0.749520  0.879683  1
  O  O71  1  0.246606  0.246606  0.935565  1
  O  O72  1  0.748740  0.748740  0.916809  1
  O  O73  1  0.246925  0.246925  0.972566  1
  O  O74  1  0.748427  0.748427  0.953881  1
  O  O75  1  0.732815  0.732815  0.992650  1
