# generated using pymatgen
data_TiO2
_symmetry_space_group_name_H-M   'P 1'
_cell_length_a   6.27152476
_cell_length_b   10.46353469
_cell_length_c   11.53967142
_cell_angle_alpha   90.00000000
_cell_angle_beta   90.00000000
_cell_angle_gamma   90.00000000
_symmetry_Int_Tables_number   1
_chemical_formula_structural   TiO2
_chemical_formula_sum   'Ti8 O16'
_cell_volume   757.25997468
_cell_formula_units_Z   8
loop_
 _symmetry_equiv_pos_site_id
 _symmetry_equiv_pos_as_xyz
  1  'x, y, z'
loop_
 _atom_site_type_symbol
 _atom_site_label
 _atom_site_symmetry_multiplicity
 _atom_site_fract_x
 _atom_site_fract_y
 _atom_site_fract_z
 _atom_site_occupancy
  Ti  Ti0  1  0.500000  0.999542  0.254203  1
  Ti  Ti1  1  0.253717  0.942676  0.000000  1
  Ti  Ti2  1  0.000000  0.999542  0.754203  1
  Ti  Ti3  1  0.753717  0.942676  0.500000  1
  Ti  Ti4  1  0.500000  0.999542  0.745797  1
  Ti  Ti5  1  0.246283  0.942676  0.500000  1
  Ti  Ti6  1  0.746283  0.942676  0.000000  1
  Ti  Ti7  1  0.000000  0.999542  0.245797  1
  O  O8  1  0.745290  0.038237  0.864204  1
  O  O9  1  0.000000  0.860544  0.000000  1
  O  O10  1  0.000000  0.843963  0.756308  1
  O  O11  1  0.254710  0.038237  0.135796  1
  O  O12  1  0.500000  0.860544  0.500000  1
  O  O13  1  0.000000  0.843963  0.243692  1
  O  O14  1  0.754710  0.038237  0.635796  1
  O  O15  1  0.245290  0.038237  0.364204  1
  O  O16  1  0.245290  0.038237  0.635796  1
  O  O17  1  0.754710  0.038237  0.364204  1
  O  O18  1  0.000000  0.852648  0.500000  1
  O  O19  1  0.500000  0.843963  0.743692  1
  O  O20  1  0.500000  0.852648  0.000000  1
  O  O21  1  0.254710  0.038237  0.864204  1
  O  O22  1  0.745290  0.038237  0.135796  1
  O  O23  1  0.500000  0.843963  0.256308  1
