# generated using pymatgen
data_Fe4Te2MoC14(SO7)2
_symmetry_space_group_name_H-M   'P 1'
_cell_length_a   11.73725889
_cell_length_b   14.57456778
_cell_length_c   15.60331475
_cell_angle_alpha   90.00000000
_cell_angle_beta   90.00000000
_cell_angle_gamma   90.00000000
_symmetry_Int_Tables_number   1
_chemical_formula_structural   Fe4Te2MoC14(SO7)2
_chemical_formula_sum   'Fe16 Te8 Mo4 C56 S8 O56'
_cell_volume   2669.18845309
_cell_formula_units_Z   4
loop_
 _symmetry_equiv_pos_site_id
 _symmetry_equiv_pos_as_xyz
  1  'x, y, z'
loop_
 _atom_site_type_symbol
 _atom_site_label
 _atom_site_symmetry_multiplicity
 _atom_site_fract_x
 _atom_site_fract_y
 _atom_site_fract_z
 _atom_site_occupancy
  Fe  Fe0  1  0.435546  0.009223  0.595478  1
  Fe  Fe1  1  0.838440  0.903903  0.469575  1
  Fe  Fe2  1  0.564454  0.990777  0.095478  1
  Fe  Fe3  1  0.338440  0.596097  0.969575  1
  Fe  Fe4  1  0.751875  0.870513  0.690128  1
  Fe  Fe5  1  0.929852  0.736863  0.072602  1
  Fe  Fe6  1  0.429852  0.763137  0.572602  1
  Fe  Fe7  1  0.248125  0.129487  0.190128  1
  Fe  Fe8  1  0.251875  0.629487  0.190128  1
  Fe  Fe9  1  0.935546  0.490777  0.095478  1
  Fe  Fe10  1  0.661560  0.403903  0.469575  1
  Fe  Fe11  1  0.070148  0.263137  0.572602  1
  Fe  Fe12  1  0.748125  0.370513  0.690128  1
  Fe  Fe13  1  0.570148  0.236863  0.072602  1
  Fe  Fe14  1  0.064454  0.509223  0.595478  1
  Fe  Fe15  1  0.161560  0.096097  0.969575  1
  Te  Te16  1  0.776286  0.762332  0.558456  1
  Te  Te17  1  0.723714  0.262332  0.558456  1
  Te  Te18  1  0.223714  0.237668  0.058456  1
  Te  Te19  1  0.997789  0.373615  0.689334  1
  Te  Te20  1  0.502211  0.873615  0.689334  1
  Te  Te21  1  0.497789  0.126385  0.189334  1
  Te  Te22  1  0.002210  0.626385  0.189334  1
  Te  Te23  1  0.276286  0.737668  0.058456  1
  Mo  Mo24  1  0.106831  0.608772  0.025448  1
  Mo  Mo25  1  0.393169  0.108772  0.025448  1
  Mo  Mo26  1  0.893169  0.391228  0.525448  1
  Mo  Mo27  1  0.606831  0.891228  0.525448  1
  C  C28  1  0.097973  0.131778  0.201860  1
  C  C29  1  0.156779  0.991223  0.909574  1
  C  C30  1  0.197714  0.513359  0.648873  1
  C  C31  1  0.802286  0.486641  0.148873  1
  C  C32  1  0.014864  0.097315  0.997891  1
  C  C33  1  0.224490  0.724857  0.261663  1
  C  C34  1  0.092745  0.193951  0.479374  1
  C  C35  1  0.765544  0.455781  0.772552  1
  C  C36  1  0.904781  0.403814  0.017992  1
  C  C37  1  0.207085  0.254378  0.619612  1
  C  C38  1  0.724490  0.775143  0.761663  1
  C  C39  1  0.985918  0.586682  0.662419  1
  C  C40  1  0.514082  0.086682  0.662419  1
  C  C41  1  0.402411  0.998497  0.948320  1
  C  C42  1  0.147343  0.166251  0.876155  1
  C  C43  1  0.647343  0.333749  0.376155  1
  C  C44  1  0.902027  0.868222  0.701860  1
  C  C45  1  0.907255  0.806049  0.979374  1
  C  C46  1  0.898980  0.317594  0.415688  1
  C  C47  1  0.497263  0.670269  0.628568  1
  C  C48  1  0.843221  0.008777  0.409574  1
  C  C49  1  0.002737  0.170269  0.628568  1
  C  C50  1  0.275510  0.224857  0.261663  1
  C  C51  1  0.775510  0.275143  0.761663  1
  C  C52  1  0.592745  0.306049  0.979374  1
  C  C53  1  0.407255  0.693951  0.479374  1
  C  C54  1  0.485136  0.597315  0.997891  1
  C  C55  1  0.402027  0.631778  0.201860  1
  C  C56  1  0.292915  0.754378  0.619612  1
  C  C57  1  0.343221  0.491223  0.909574  1
  C  C58  1  0.398980  0.182406  0.915688  1
  C  C59  1  0.985136  0.902685  0.497891  1
  C  C60  1  0.597973  0.368222  0.701860  1
  C  C61  1  0.792915  0.745622  0.119612  1
  C  C62  1  0.265544  0.044219  0.272552  1
  C  C63  1  0.234456  0.544219  0.272552  1
  C  C64  1  0.514864  0.402685  0.497891  1
  C  C65  1  0.595219  0.903814  0.017992  1
  C  C66  1  0.697714  0.986641  0.148873  1
  C  C67  1  0.734456  0.955781  0.772552  1
  C  C68  1  0.485918  0.913318  0.162419  1
  C  C69  1  0.352657  0.666251  0.876155  1
  C  C70  1  0.502737  0.329731  0.128568  1
  C  C71  1  0.997263  0.829731  0.128568  1
  C  C72  1  0.101020  0.682406  0.915688  1
  C  C73  1  0.302286  0.013359  0.648873  1
  C  C74  1  0.656779  0.508777  0.409574  1
  C  C75  1  0.902411  0.501503  0.448320  1
  C  C76  1  0.597589  0.001503  0.448320  1
  C  C77  1  0.852657  0.833749  0.376155  1
  C  C78  1  0.707085  0.245622  0.119612  1
  C  C79  1  0.097589  0.498497  0.948320  1
  C  C80  1  0.404781  0.096186  0.517992  1
  C  C81  1  0.095219  0.596186  0.517992  1
  C  C82  1  0.014082  0.413318  0.162419  1
  C  C83  1  0.601020  0.817594  0.415688  1
  S  S84  1  0.598723  0.105002  0.000665  1
  S  S85  1  0.901277  0.605002  0.000665  1
  S  S86  1  0.765518  0.979528  0.584778  1
  S  S87  1  0.265518  0.520472  0.084778  1
  S  S88  1  0.734482  0.479528  0.584778  1
  S  S89  1  0.234482  0.020472  0.084778  1
  S  S90  1  0.401277  0.894998  0.500665  1
  S  S91  1  0.098723  0.394998  0.500665  1
  O  O92  1  0.593064  0.778648  0.350930  1
  O  O93  1  0.882373  0.346229  0.969489  1
  O  O94  1  0.785383  0.980925  0.182995  1
  O  O95  1  0.093064  0.721352  0.850930  1
  O  O96  1  0.906936  0.278648  0.350930  1
  O  O97  1  0.617627  0.846229  0.969489  1
  O  O98  1  -0.000437  0.870060  0.711861  1
  O  O99  1  0.418388  0.402913  0.513978  1
  O  O100  1  0.285383  0.519075  0.682995  1
  O  O101  1  0.297629  0.247496  0.648855  1
  O  O102  1  0.903749  0.562052  0.399452  1
  O  O103  1  0.202371  0.747496  0.648855  1
  O  O104  1  0.711288  0.714306  0.808160  1
  O  O105  1  0.849955  0.077096  0.372143  1
  O  O106  1  0.864251  0.788962  0.315365  1
  O  O107  1  0.288712  0.285694  0.308160  1
  O  O108  1  0.214617  0.019075  0.682995  1
  O  O109  1  0.135749  0.211038  0.815365  1
  O  O110  1  0.563213  0.135700  0.707940  1
  O  O111  1  0.499563  0.629940  0.211861  1
  O  O112  1  0.117627  0.653771  0.469489  1
  O  O113  1  0.462011  0.389094  0.167627  1
  O  O114  1  0.596251  0.062052  0.399452  1
  O  O115  1  0.349955  0.422904  0.872143  1
  O  O116  1  0.650045  0.577096  0.372143  1
  O  O117  1  0.537989  0.610906  0.667627  1
  O  O118  1  0.150045  0.922904  0.872143  1
  O  O119  1  0.767702  0.509348  0.827096  1
  O  O120  1  0.635749  0.288962  0.315365  1
  O  O121  1  0.081612  0.902913  0.513978  1
  O  O122  1  0.267702  0.990652  0.327096  1
  O  O123  1  0.037989  0.889094  0.167627  1
  O  O124  1  0.403749  0.937948  0.899452  1
  O  O125  1  0.500437  0.370060  0.711861  1
  O  O126  1  0.702371  0.752504  0.148855  1
  O  O127  1  0.581612  0.597087  0.013978  1
  O  O128  1  0.609472  0.353557  0.920983  1
  O  O129  1  0.918388  0.097087  0.013978  1
  O  O130  1  0.000437  0.129940  0.211861  1
  O  O131  1  0.406936  0.221352  0.850930  1
  O  O132  1  0.211288  0.785694  0.308160  1
  O  O133  1  0.063213  0.364300  0.207940  1
  O  O134  1  0.788712  0.214306  0.808160  1
  O  O135  1  0.797629  0.252504  0.148855  1
  O  O136  1  0.936787  0.635700  0.707940  1
  O  O137  1  0.382373  0.153771  0.469489  1
  O  O138  1  0.096251  0.437948  0.899452  1
  O  O139  1  0.732298  0.009348  0.827096  1
  O  O140  1  0.962011  0.110906  0.667627  1
  O  O141  1  0.890528  0.853557  0.920983  1
  O  O142  1  0.390528  0.646443  0.420983  1
  O  O143  1  0.714617  0.480925  0.182995  1
  O  O144  1  0.109472  0.146443  0.420983  1
  O  O145  1  0.364251  0.711038  0.815365  1
  O  O146  1  0.232298  0.490652  0.327096  1
  O  O147  1  0.436787  0.864300  0.207940  1
