# generated using pymatgen
data_Rb2YTi(PO4)3
_symmetry_space_group_name_H-M   'P 1'
_cell_length_a   10.36034504
_cell_length_b   10.38056580
_cell_length_c   20.68283328
_cell_angle_alpha   90.08917115
_cell_angle_beta   90.00000000
_cell_angle_gamma   90.00000000
_symmetry_Int_Tables_number   1
_chemical_formula_structural   Rb2YTi(PO4)3
_chemical_formula_sum   'Rb16 Y8 Ti8 P24 O96'
_cell_volume   2224.35832856
_cell_formula_units_Z   8
loop_
 _symmetry_equiv_pos_site_id
 _symmetry_equiv_pos_as_xyz
  1  'x, y, z'
loop_
 _atom_site_type_symbol
 _atom_site_label
 _atom_site_symmetry_multiplicity
 _atom_site_fract_x
 _atom_site_fract_y
 _atom_site_fract_z
 _atom_site_occupancy
  Rb  Rb0  1  0.065737  0.426397  0.286314  1
  Rb  Rb1  1  0.070623  0.428164  0.784144  1
  Rb  Rb2  1  0.207639  0.791892  0.146890  1
  Rb  Rb3  1  0.204936  0.790052  0.647027  1
  Rb  Rb4  1  0.289533  0.203519  0.397435  1
  Rb  Rb5  1  0.292785  0.207837  0.897170  1
  Rb  Rb6  1  0.429005  0.570983  0.035818  1
  Rb  Rb7  1  0.429364  0.568238  0.534441  1
  Rb  Rb8  1  0.565737  0.073603  0.713686  1
  Rb  Rb9  1  0.570623  0.071836  0.215856  1
  Rb  Rb10  1  0.704936  0.709948  0.352973  1
  Rb  Rb11  1  0.707639  0.708108  0.853110  1
  Rb  Rb12  1  0.792785  0.292163  0.102830  1
  Rb  Rb13  1  0.789533  0.296481  0.602565  1
  Rb  Rb14  1  0.929364  0.931762  0.465559  1
  Rb  Rb15  1  0.929005  0.929017  0.964182  1
  Y  Y16  1  0.084124  0.583052  0.957851  1
  Y  Y17  1  0.147604  0.140261  0.576903  1
  Y  Y18  1  0.414038  0.417570  0.210180  1
  Y  Y19  1  0.415231  0.417205  0.705102  1
  Y  Y20  1  0.584124  0.916948  0.042149  1
  Y  Y21  1  0.647604  0.359739  0.423097  1
  Y  Y22  1  0.915231  0.082795  0.294898  1
  Y  Y23  1  0.914038  0.082430  0.789820  1
  Ti  Ti24  1  0.081954  0.585507  0.457923  1
  Ti  Ti25  1  0.144425  0.144798  0.072038  1
  Ti  Ti26  1  0.354356  0.851386  0.320384  1
  Ti  Ti27  1  0.356888  0.857244  0.824715  1
  Ti  Ti28  1  0.581954  0.914493  0.542077  1
  Ti  Ti29  1  0.644425  0.355202  0.927962  1
  Ti  Ti30  1  0.854356  0.648614  0.679616  1
  Ti  Ti31  1  0.856888  0.642756  0.175285  1
  P  P32  1  0.044300  0.756637  0.312949  1
  P  P33  1  0.046718  0.762679  0.808356  1
  P  P34  1  0.110106  0.470350  0.614164  1
  P  P35  1  0.117373  0.454495  0.118859  1
  P  P36  1  0.237675  0.114438  0.227073  1
  P  P37  1  0.243536  0.114093  0.734552  1
  P  P38  1  0.272911  0.867151  0.475971  1
  P  P39  1  0.260831  0.883972  0.978334  1
  P  P40  1  0.360899  0.549487  0.369700  1
  P  P41  1  0.385867  0.544789  0.868073  1
  P  P42  1  0.453808  0.239715  0.058470  1
  P  P43  1  0.467527  0.222251  0.560078  1
  P  P44  1  0.546718  0.737321  0.191644  1
  P  P45  1  0.544300  0.743363  0.687051  1
  P  P46  1  0.610106  0.029650  0.385836  1
  P  P47  1  0.617373  0.045505  0.881141  1
  P  P48  1  0.743536  0.385907  0.265448  1
  P  P49  1  0.737675  0.385562  0.772927  1
  P  P50  1  0.760831  0.616028  0.021666  1
  P  P51  1  0.772911  0.632849  0.524029  1
  P  P52  1  0.860899  0.950513  0.630300  1
  P  P53  1  0.885867  0.955211  0.131927  1
  P  P54  1  0.967527  0.277749  0.439922  1
  P  P55  1  0.953808  0.260285  0.941530  1
  O  O56  1  0.006676  0.393791  0.925389  1
  O  O57  1  0.007124  0.424420  0.432824  1
  O  O58  1  0.005522  0.555588  0.647263  1
  O  O59  1  0.999098  0.531673  0.146149  1
  O  O60  1  0.028323  0.669651  0.374489  1
  O  O61  1  0.020032  0.669985  0.864418  1
  O  O62  1  0.025991  0.204753  0.002205  1
  O  O63  1  0.054069  0.212188  0.489541  1
  O  O64  1  0.069833  0.328710  0.618617  1
  O  O65  1  0.084895  0.306797  0.116895  1
  O  O66  1  0.102790  0.142412  0.252940  1
  O  O67  1  0.104062  0.145346  0.753347  1
  O  O68  1  0.126750  0.515486  0.542475  1
  O  O69  1  0.150206  0.505193  0.051724  1
  O  O70  1  0.192699  0.740664  0.484871  1
  O  O71  1  0.168019  0.771894  0.991177  1
  O  O72  1  0.189845  0.764020  0.292851  1
  O  O73  1  0.194951  0.766581  0.792980  1
  O  O74  1  0.204413  0.973570  0.513440  1
  O  O75  1  0.204793  0.005731  0.013448  1
  O  O76  1  0.234030  0.086204  0.152385  1
  O  O77  1  0.252245  0.065014  0.664450  1
  O  O78  1  0.229274  0.479630  0.165577  1
  O  O79  1  0.238868  0.493247  0.650047  1
  O  O80  1  0.239977  0.529715  0.414024  1
  O  O81  1  0.273288  0.520473  0.914666  1
  O  O82  1  0.273731  0.908225  0.402818  1
  O  O83  1  0.266284  0.912922  0.903982  1
  O  O84  1  0.296361  0.994495  0.263153  1
  O  O85  1  0.295671  0.004213  0.779504  1
  O  O86  1  0.305305  0.233681  0.042666  1
  O  O87  1  0.326004  0.231212  0.539339  1
  O  O88  1  0.328789  0.228072  0.240472  1
  O  O89  1  0.329128  0.233075  0.745803  1
  O  O90  1  0.331023  0.495450  0.302820  1
  O  O91  1  0.352774  0.493743  0.800616  1
  O  O92  1  0.394938  0.852009  0.004026  1
  O  O93  1  0.412163  0.844919  0.503530  1
  O  O94  1  0.401336  0.693886  0.366127  1
  O  O95  1  0.417565  0.693071  0.864722  1
  O  O96  1  0.471977  0.791886  0.251611  1
  O  O97  1  0.467129  0.806802  0.743619  1
  O  O98  1  0.477957  0.332259  0.115132  1
  O  O99  1  0.489498  0.289668  0.625565  1
  O  O100  1  0.505871  0.473011  0.896918  1
  O  O101  1  0.472903  0.477239  0.401876  1
  O  O102  1  0.493926  0.603431  0.175718  1
  O  O103  1  0.492099  0.609252  0.670700  1
  O  O104  1  0.506676  0.106209  0.074611  1
  O  O105  1  0.507124  0.075580  0.567176  1
  O  O106  1  0.505522  0.944412  0.352737  1
  O  O107  1  0.499098  0.968327  0.853851  1
  O  O108  1  0.520032  0.830015  0.135582  1
  O  O109  1  0.528323  0.830349  0.625511  1
  O  O110  1  0.525991  0.295247  0.997795  1
  O  O111  1  0.554069  0.287812  0.510459  1
  O  O112  1  0.569833  0.171290  0.381383  1
  O  O113  1  0.584895  0.193203  0.883105  1
  O  O114  1  0.604062  0.354654  0.246653  1
  O  O115  1  0.602790  0.357588  0.747060  1
  O  O116  1  0.626750  0.984514  0.457525  1
  O  O117  1  0.650206  0.994807  0.948276  1
  O  O118  1  0.668019  0.728106  0.008823  1
  O  O119  1  0.692699  0.759336  0.515129  1
  O  O120  1  0.694951  0.733419  0.207020  1
  O  O121  1  0.689845  0.735980  0.707149  1
  O  O122  1  0.704793  0.494269  0.986552  1
  O  O123  1  0.704414  0.526430  0.486560  1
  O  O124  1  0.752245  0.434986  0.335550  1
  O  O125  1  0.734030  0.413796  0.847615  1
  O  O126  1  0.738868  0.006753  0.349953  1
  O  O127  1  0.729274  0.020370  0.834423  1
  O  O128  1  0.739977  0.970285  0.585976  1
  O  O129  1  0.773288  0.979527  0.085334  1
  O  O130  1  0.773731  0.591775  0.597182  1
  O  O131  1  0.766284  0.587078  0.096018  1
  O  O132  1  0.795671  0.495787  0.220496  1
  O  O133  1  0.796361  0.505505  0.736847  1
  O  O134  1  0.826004  0.268788  0.460661  1
  O  O135  1  0.805305  0.266319  0.957334  1
  O  O136  1  0.829128  0.266925  0.254197  1
  O  O137  1  0.828789  0.271928  0.759528  1
  O  O138  1  0.831023  0.004550  0.697180  1
  O  O139  1  0.852774  0.006257  0.199384  1
  O  O140  1  0.912163  0.655081  0.496470  1
  O  O141  1  0.894938  0.647991  0.995974  1
  O  O142  1  0.901336  0.806114  0.633873  1
  O  O143  1  0.917565  0.806929  0.135278  1
  O  O144  1  0.967129  0.693198  0.256381  1
  O  O145  1  0.971977  0.708114  0.748389  1
  O  O146  1  0.989498  0.210332  0.374435  1
  O  O147  1  0.977957  0.167741  0.884868  1
  O  O148  1  0.972903  0.022761  0.598124  1
  O  O149  1  0.005871  0.026989  0.103082  1
  O  O150  1  0.992099  0.890748  0.329300  1
  O  O151  1  0.993926  0.896569  0.824282  1
