# generated using pymatgen
data_Cs3MoC6(SN2)3
_symmetry_space_group_name_H-M   'P 1'
_cell_length_a   9.50089903
_cell_length_b   9.50089920
_cell_length_c   7.28309320
_cell_angle_alpha   90.00000000
_cell_angle_beta   90.00000000
_cell_angle_gamma   119.99999945
_symmetry_Int_Tables_number   1
_chemical_formula_structural   Cs3MoC6(SN2)3
_chemical_formula_sum   'Cs3 Mo1 C6 S3 N6'
_cell_volume   569.34552924
_cell_formula_units_Z   1
loop_
 _symmetry_equiv_pos_site_id
 _symmetry_equiv_pos_as_xyz
  1  'x, y, z'
loop_
 _atom_site_type_symbol
 _atom_site_label
 _atom_site_symmetry_multiplicity
 _atom_site_fract_x
 _atom_site_fract_y
 _atom_site_fract_z
 _atom_site_occupancy
  Cs  Cs0  1  0.508664  0.491336  0.000000  1
  Cs  Cs1  1  0.508664  0.017328  0.000000  1
  Cs  Cs2  1  0.982672  0.491336  0.000000  1
  Mo  Mo3  1  0.000000  0.000000  0.000000  1
  C  C4  1  0.321238  0.160619  0.265828  1
  C  C5  1  0.321238  0.160619  0.734172  1
  C  C6  1  0.839381  0.678762  0.265828  1
  C  C7  1  0.839381  0.678762  0.734172  1
  C  C8  1  0.839381  0.160619  0.734172  1
  C  C9  1  0.839381  0.160619  0.265828  1
  S  S10  1  0.405396  0.202698  0.500000  1
  S  S11  1  0.797302  0.594604  0.500000  1
  S  S12  1  0.797302  0.202698  0.500000  1
  N  N13  1  0.195104  0.097552  0.179937  1
  N  N14  1  0.195104  0.097552  0.820063  1
  N  N15  1  0.902448  0.804896  0.179937  1
  N  N16  1  0.902448  0.804896  0.820063  1
  N  N17  1  0.902448  0.097552  0.820063  1
  N  N18  1  0.902448  0.097552  0.179937  1
