# generated using pymatgen
data_Na8Si7O18
_symmetry_space_group_name_H-M   'P 1'
_cell_length_a   16.90886949
_cell_length_b   6.27812204
_cell_length_c   9.65029137
_cell_angle_alpha   65.47259852
_cell_angle_beta   142.43398474
_cell_angle_gamma   111.22406033
_symmetry_Int_Tables_number   1
_chemical_formula_structural   Na8Si7O18
_chemical_formula_sum   'Na8 Si7 O18'
_cell_volume   567.20896195
_cell_formula_units_Z   1
loop_
 _symmetry_equiv_pos_site_id
 _symmetry_equiv_pos_as_xyz
  1  'x, y, z'
loop_
 _atom_site_type_symbol
 _atom_site_label
 _atom_site_symmetry_multiplicity
 _atom_site_fract_x
 _atom_site_fract_y
 _atom_site_fract_z
 _atom_site_occupancy
  Na  Na0  1  0.263241  0.567209  0.967631  1
  Na  Na1  1  0.723619  0.271158  0.035006  1
  Na  Na2  1  0.965683  0.916762  0.514772  1
  Na  Na3  1  0.463207  0.073709  0.336581  1
  Na  Na4  1  0.479603  0.919813  0.964171  1
  Na  Na5  1  0.990969  0.524999  0.426130  1
  Na  Na6  1  0.484967  0.468208  0.594985  1
  Na  Na7  1  0.548710  0.352871  0.115808  1
  Si  Si8  1  0.011254  0.952350  0.030755  1
  Si  Si9  1  0.855742  0.250179  0.546402  1
  Si  Si10  1  0.264667  0.249993  0.804894  1
  Si  Si11  1  0.257907  0.031544  0.346679  1
  Si  Si12  1  0.154140  0.014932  0.488090  1
  Si  Si13  1  0.685575  0.731160  0.050728  1
  Si  Si14  1  0.751817  0.853170  0.683933  1
  O  O15  1  0.129542  0.802533  0.614101  1
  O  O16  1  0.170120  0.243366  0.806154  1
  O  O17  1  0.618471  0.743961  0.581890  1
  O  O18  1  0.863845  0.211234  0.407674  1
  O  O19  1  0.824644  0.793321  0.155833  1
  O  O20  1  0.352137  0.208849  0.347533  1
  O  O21  1  0.597538  0.947662  0.910093  1
  O  O22  1  0.031750  0.032578  0.198770  1
  O  O23  1  0.602080  0.500433  0.937275  1
  O  O24  1  0.378920  0.066387  0.001580  1
  O  O25  1  0.986497  0.172689  0.834418  1
  O  O26  1  0.433129  0.541146  0.063127  1
  O  O27  1  0.344077  0.525255  0.823528  1
  O  O28  1  0.175246  0.267708  0.527307  1
  O  O29  1  0.281936  0.019067  0.551577  1
  O  O30  1  0.724261  0.635233  0.305730  1
  O  O31  1  0.852368  0.524198  0.531525  1
  O  O32  1  0.732335  0.086325  0.495319  1
