# generated using pymatgen
data_Bi14SO24
_symmetry_space_group_name_H-M   'P 1'
_cell_length_a   8.85749606
_cell_length_b   8.82577599
_cell_length_c   10.60323214
_cell_angle_alpha   114.52354353
_cell_angle_beta   114.61780136
_cell_angle_gamma   90.14340482
_symmetry_Int_Tables_number   1
_chemical_formula_structural   Bi14SO24
_chemical_formula_sum   'Bi14 S1 O24'
_cell_volume   669.98636683
_cell_formula_units_Z   1
loop_
 _symmetry_equiv_pos_site_id
 _symmetry_equiv_pos_as_xyz
  1  'x, y, z'
loop_
 _atom_site_type_symbol
 _atom_site_label
 _atom_site_symmetry_multiplicity
 _atom_site_fract_x
 _atom_site_fract_y
 _atom_site_fract_z
 _atom_site_occupancy
  Bi  Bi0  1  0.130883  0.942834  0.666589  1
  Bi  Bi1  1  0.062135  0.470405  0.339965  1
  Bi  Bi2  1  0.342499  0.340425  0.682031  1
  Bi  Bi3  1  0.278956  0.875311  0.338300  1
  Bi  Bi4  1  0.217034  0.442649  -0.000894  1
  Bi  Bi5  1  0.538326  0.726032  0.667579  1
  Bi  Bi6  1  0.461674  0.273968  0.332421  1
  Bi  Bi7  1  0.439076  0.790253  0.998744  1
  Bi  Bi8  1  0.721044  0.124689  0.661700  1
  Bi  Bi9  1  0.657501  0.659575  0.317969  1
  Bi  Bi10  1  0.560924  0.209747  0.001256  1
  Bi  Bi11  1  0.937865  0.529595  0.660035  1
  Bi  Bi12  1  0.869117  0.057166  0.333411  1
  Bi  Bi13  1  0.782966  0.557350  0.000894  1
  S  S14  1  0.000000  0.000000  0.000000  1
  O  O15  1  0.001688  0.332093  0.502124  1
  O  O16  1  0.236660  0.543046  0.842155  1
  O  O17  1  0.299909  0.239305  0.841896  1
  O  O18  1  0.175325  0.006219  0.505740  1
  O  O19  1  0.082134  0.065468  0.184361  1
  O  O20  1  0.111769  0.621771  0.232916  1
  O  O21  1  0.385894  0.884552  0.768521  1
  O  O22  1  0.333358  0.505911  0.506808  1
  O  O23  1  0.182942  0.985598  0.008057  1
  O  O24  1  0.540457  0.603810  0.840810  1
  O  O25  1  0.602413  0.300288  0.843160  1
  O  O26  1  0.501944  0.827084  0.495346  1
  O  O27  1  0.498056  0.172916  0.504654  1
  O  O28  1  0.397587  0.699712  0.156840  1
  O  O29  1  0.459543  0.396190  0.159190  1
  O  O30  1  0.666642  0.494089  0.493192  1
  O  O31  1  0.614106  0.115448  0.231479  1
  O  O32  1  0.888231  0.378229  0.767084  1
  O  O33  1  0.917866  0.934532  0.815639  1
  O  O34  1  0.824675  0.993781  0.494260  1
  O  O35  1  0.700091  0.760695  0.158104  1
  O  O36  1  0.763340  0.456954  0.157845  1
  O  O37  1  -0.001688  0.667907  0.497876  1
  O  O38  1  0.817058  0.014402  0.991943  1
