# generated using pymatgen
data_SrIn
_symmetry_space_group_name_H-M   'P 1'
_cell_length_a   6.66984621
_cell_length_b   6.67585993
_cell_length_c   13.86421803
_cell_angle_alpha   101.34789279
_cell_angle_beta   101.33874986
_cell_angle_gamma   100.78099417
_symmetry_Int_Tables_number   1
_chemical_formula_structural   SrIn
_chemical_formula_sum   'Sr8 In8'
_cell_volume   576.85502537
_cell_formula_units_Z   8
loop_
 _symmetry_equiv_pos_site_id
 _symmetry_equiv_pos_as_xyz
  1  'x, y, z'
loop_
 _atom_site_type_symbol
 _atom_site_label
 _atom_site_symmetry_multiplicity
 _atom_site_fract_x
 _atom_site_fract_y
 _atom_site_fract_z
 _atom_site_occupancy
  Sr  Sr0  1  0.721340  0.419832  0.639959  1
  Sr  Sr1  1  0.209304  0.910526  0.154971  1
  Sr  Sr2  1  0.777934  0.074523  0.358654  1
  Sr  Sr3  1  0.301438  0.503836  0.344479  1
  Sr  Sr4  1  0.331344  0.528644  0.857815  1
  Sr  Sr5  1  0.761193  0.057347  0.844340  1
  Sr  Sr6  1  0.166792  0.964097  0.654466  1
  Sr  Sr7  1  0.668181  0.468436  0.142940  1
  In  In8  1  0.872083  0.626852  0.427317  1
  In  In9  1  0.287570  0.037558  0.931834  1
  In  In10  1  0.104802  0.355200  0.070416  1
  In  In11  1  0.207357  0.446915  0.574098  1
  In  In12  1  0.694570  0.950543  0.073348  1
  In  In13  1  0.881519  0.622472  0.925955  1
  In  In14  1  0.605768  0.856378  0.567382  1
  In  In15  1  0.285572  0.033476  0.428136  1
