# generated using pymatgen
data_La12Au3I13
_symmetry_space_group_name_H-M   'P 1'
_cell_length_a   11.11095192
_cell_length_b   11.04670393
_cell_length_c   11.11095246
_cell_angle_alpha   109.35412747
_cell_angle_beta   109.58806073
_cell_angle_gamma   109.35412813
_symmetry_Int_Tables_number   1
_chemical_formula_structural   La12Au3I13
_chemical_formula_sum   'La12 Au3 I13'
_cell_volume   1051.32967983
_cell_formula_units_Z   1
loop_
 _symmetry_equiv_pos_site_id
 _symmetry_equiv_pos_as_xyz
  1  'x, y, z'
loop_
 _atom_site_type_symbol
 _atom_site_label
 _atom_site_symmetry_multiplicity
 _atom_site_fract_x
 _atom_site_fract_y
 _atom_site_fract_z
 _atom_site_occupancy
  La  La0  1  0.253805  0.762455  0.742883  1
  La  La1  1  0.253805  0.991350  0.510922  1
  La  La2  1  0.736972  0.986972  0.973943  1
  La  La3  1  0.515551  0.765551  0.531101  1
  La  La4  1  0.515551  0.250000  0.984449  1
  La  La5  1  0.526057  0.513028  0.763028  1
  La  La6  1  0.736972  0.250000  0.763028  1
  La  La7  1  0.968899  0.734449  0.984449  1
  La  La8  1  0.757117  0.519572  0.510922  1
  La  La9  1  0.989078  0.980428  0.742883  1
  La  La10  1  0.757117  0.737545  0.246195  1
  La  La11  1  0.989078  0.508650  0.246195  1
  Au  Au12  1  0.749622  0.750000  0.750378  1
  Au  Au13  1  0.500755  0.000378  0.750378  1
  Au  Au14  1  0.749622  0.499622  0.999245  1
  I  I15  1  0.010246  0.491076  0.749565  1
  I  I16  1  0.239319  0.258489  0.749565  1
  I  I17  1  0.239319  0.480829  0.489754  1
  I  I18  1  0.010246  0.019171  0.260681  1
  I  I19  1  0.020242  0.260121  0.010121  1
  I  I20  1  0.259620  0.750000  0.240380  1
  I  I21  1  0.480760  0.490380  0.240380  1
  I  I22  1  0.489879  0.750000  0.010121  1
  I  I23  1  0.259620  0.009620  0.019240  1
  I  I24  1  0.489879  0.239879  0.479758  1
  I  I25  1  0.750435  0.008924  0.489754  1
  I  I26  1  0.750435  0.241511  0.260681  1
  I  I27  1  0.000000  0.750000  0.500000  1
