# generated using pymatgen
data_Co2S3
_symmetry_space_group_name_H-M   'P 1'
_cell_length_a   6.57626037
_cell_length_b   19.70226848
_cell_length_c   17.37602024
_cell_angle_alpha   19.14882816
_cell_angle_beta   55.45463276
_cell_angle_gamma   60.02496850
_symmetry_Int_Tables_number   1
_chemical_formula_structural   Co2S3
_chemical_formula_sum   'Co16 S24'
_cell_volume   602.84292903
_cell_formula_units_Z   8
loop_
 _symmetry_equiv_pos_site_id
 _symmetry_equiv_pos_as_xyz
  1  'x, y, z'
loop_
 _atom_site_type_symbol
 _atom_site_label
 _atom_site_symmetry_multiplicity
 _atom_site_fract_x
 _atom_site_fract_y
 _atom_site_fract_z
 _atom_site_occupancy
  Co  Co0  1  -0.000073  0.998810  0.001772  1
  Co  Co1  1  0.000155  0.336160  0.997415  1
  Co  Co2  1  0.626790  0.123670  0.126315  1
  Co  Co3  1  0.248543  0.251384  0.247481  1
  Co  Co4  1  0.118858  0.124876  0.626248  1
  Co  Co5  1  0.622183  0.463102  0.119536  1
  Co  Co6  1  0.250682  0.582566  0.251516  1
  Co  Co7  1  0.129083  0.459668  0.622882  1
  Co  Co8  1  0.624968  0.124121  0.625376  1
  Co  Co9  1  0.624380  0.291264  0.625424  1
  Co  Co10  1  0.627268  0.792736  0.124106  1
  Co  Co11  1  0.122929  0.792316  0.623842  1
  Co  Co12  1  0.620053  0.459460  0.623063  1
  Co  Co13  1  0.622213  0.630985  0.620595  1
  Co  Co14  1  0.622723  0.794686  0.622419  1
  Co  Co15  1  0.623409  0.956111  0.627103  1
  S  S16  1  0.380343  0.030352  0.380875  1
  S  S17  1  0.378297  0.207468  0.380566  1
  S  S18  1  0.379703  0.363501  0.381788  1
  S  S19  1  0.868033  0.027999  0.393206  1
  S  S20  1  0.852045  0.207831  0.379046  1
  S  S21  1  0.396555  0.041431  0.870037  1
  S  S22  1  0.384446  0.539801  0.381739  1
  S  S23  1  0.385370  0.691106  0.384727  1
  S  S24  1  0.859389  0.345758  0.412321  1
  S  S25  1  0.384522  0.235357  0.840043  1
  S  S26  1  0.854456  0.540534  0.380942  1
  S  S27  1  0.868353  0.046413  0.865881  1
  S  S28  1  0.397221  0.377306  0.867400  1
  S  S29  1  0.386528  0.874038  0.383289  1
  S  S30  1  0.868241  0.222511  0.864659  1
  S  S31  1  0.866092  0.691025  0.398467  1
  S  S32  1  0.380545  0.560407  0.851719  1
  S  S33  1  0.841835  0.874021  0.383567  1
  S  S34  1  0.867571  0.381696  0.863791  1
  S  S35  1  0.405786  0.714275  0.862139  1
  S  S36  1  0.863281  0.556074  0.865605  1
  S  S37  1  0.380547  0.889642  0.855869  1
  S  S38  1  0.861104  0.712957  0.862045  1
  S  S39  1  0.861424  0.895236  0.862644  1
