# generated using pymatgen
data_NaNpCO5
_symmetry_space_group_name_H-M   'P 1'
_cell_length_a   4.39335044
_cell_length_b   4.92678450
_cell_length_c   11.03618908
_cell_angle_alpha   90.00020519
_cell_angle_beta   90.00774577
_cell_angle_gamma   90.00003492
_symmetry_Int_Tables_number   1
_chemical_formula_structural   NaNpCO5
_chemical_formula_sum   'Na2 Np2 C2 O10'
_cell_volume   238.87931300
_cell_formula_units_Z   2
loop_
 _symmetry_equiv_pos_site_id
 _symmetry_equiv_pos_as_xyz
  1  'x, y, z'
loop_
 _atom_site_type_symbol
 _atom_site_label
 _atom_site_symmetry_multiplicity
 _atom_site_fract_x
 _atom_site_fract_y
 _atom_site_fract_z
 _atom_site_occupancy
  Na  Na0  1  0.739516  0.500000  0.248077  1
  Na  Na1  1  0.260382  0.000003  0.748085  1
  Np  Np2  1  0.220009  0.500003  0.502647  1
  Np  Np3  1  0.780121  0.999997  0.002953  1
  C  C4  1  0.400078  0.499997  0.998134  1
  C  C5  1  0.599981  0.000003  0.498106  1
  O  O6  1  0.272380  0.266408  0.988289  1
  O  O7  1  0.727653  0.233593  0.488283  1
  O  O8  1  0.780167  0.999998  0.170425  1
  O  O9  1  0.219827  0.500003  0.670596  1
  O  O10  1  0.228288  0.500001  0.334082  1
  O  O11  1  0.305193  0.000003  0.519851  1
  O  O12  1  0.727653  0.766413  0.488283  1
  O  O13  1  0.694836  0.499997  0.019856  1
  O  O14  1  0.771535  0.999997  0.834043  1
  O  O15  1  0.272381  0.733586  0.988290  1
