# generated using pymatgen
data_KBiF4
_symmetry_space_group_name_H-M   'P 1'
_cell_length_a   4.46407468
_cell_length_b   4.46407413
_cell_length_c   18.17006828
_cell_angle_alpha   55.15754689
_cell_angle_beta   55.15755076
_cell_angle_gamma   52.70544031
_symmetry_Int_Tables_number   1
_chemical_formula_structural   KBiF4
_chemical_formula_sum   'K2 Bi2 F8'
_cell_volume   221.91352864
_cell_formula_units_Z   2
loop_
 _symmetry_equiv_pos_site_id
 _symmetry_equiv_pos_as_xyz
  1  'x, y, z'
loop_
 _atom_site_type_symbol
 _atom_site_label
 _atom_site_symmetry_multiplicity
 _atom_site_fract_x
 _atom_site_fract_y
 _atom_site_fract_z
 _atom_site_occupancy
  K  K0  1  0.964231  0.964231  0.002202  1
  K  K1  1  0.974176  0.974176  0.258376  1
  Bi  Bi2  1  0.930888  0.930888  0.504804  1
  Bi  Bi3  1  0.962915  0.962915  0.761602  1
  F  F4  1  0.752559  0.752559  0.179452  1
  F  F5  1  0.316840  0.316840  0.592159  1
  F  F6  1  0.528707  0.528707  0.403211  1
  F  F7  1  0.752706  0.752706  0.454710  1
  F  F8  1  0.268910  0.268910  0.822150  1
  F  F9  1  0.581454  0.581454  0.638482  1
  F  F10  1  0.702111  0.702111  0.746731  1
  F  F11  1  0.764503  0.764503  0.925122  1
