# generated using pymatgen
data_SiO2
_symmetry_space_group_name_H-M   'P 1'
_cell_length_a   8.59530211
_cell_length_b   13.43840590
_cell_length_c   15.87663317
_cell_angle_alpha   70.41754784
_cell_angle_beta   74.29465212
_cell_angle_gamma   71.34894940
_symmetry_Int_Tables_number   1
_chemical_formula_structural   SiO2
_chemical_formula_sum   'Si28 O56'
_cell_volume   1609.36315347
_cell_formula_units_Z   28
loop_
 _symmetry_equiv_pos_site_id
 _symmetry_equiv_pos_as_xyz
  1  'x, y, z'
loop_
 _atom_site_type_symbol
 _atom_site_label
 _atom_site_symmetry_multiplicity
 _atom_site_fract_x
 _atom_site_fract_y
 _atom_site_fract_z
 _atom_site_occupancy
  Si  Si0  1  0.868280  0.105970  0.783310  1
  Si  Si1  1  0.183644  0.136059  0.117162  1
  Si  Si2  1  0.607868  0.241888  0.913049  1
  Si  Si3  1  0.079188  0.692800  0.776294  1
  Si  Si4  1  0.528215  0.918908  0.399165  1
  Si  Si5  1  0.816356  0.863941  0.882838  1
  Si  Si6  1  0.153712  0.918908  0.399165  1
  Si  Si7  1  0.548282  0.307200  0.223706  1
  Si  Si8  1  0.030419  0.158508  0.403680  1
  Si  Si9  1  0.131720  0.894030  0.216690  1
  Si  Si10  1  0.920812  0.307200  0.223706  1
  Si  Si11  1  0.407392  0.158508  0.403680  1
  Si  Si12  1  0.436865  0.863941  0.882838  1
  Si  Si13  1  0.242440  0.105970  0.783310  1
  Si  Si14  1  0.846288  0.081092  0.600835  1
  Si  Si15  1  0.969581  0.841492  0.596320  1
  Si  Si16  1  0.563135  0.136059  0.117162  1
  Si  Si17  1  0.006163  0.523853  0.092590  1
  Si  Si18  1  0.762804  0.758112  0.086951  1
  Si  Si19  1  0.392132  0.758112  0.086951  1
  Si  Si20  1  0.592608  0.841492  0.596320  1
  Si  Si21  1  0.622606  0.476147  0.907410  1
  Si  Si22  1  0.757560  0.894030  0.216690  1
  Si  Si23  1  0.377394  0.523853  0.092590  1
  Si  Si24  1  0.237196  0.241888  0.913049  1
  Si  Si25  1  0.993837  0.476147  0.907410  1
  Si  Si26  1  0.471785  0.081092  0.600835  1
  Si  Si27  1  0.451718  0.692800  0.776294  1
  O  O28  1  0.062873  0.737579  0.669100  1
  O  O29  1  0.415992  0.157935  0.504806  1
  O  O30  1  0.959570  0.954351  0.619091  1
  O  O31  1  0.659642  0.081279  0.599437  1
  O  O32  1  0.846541  0.825001  0.987511  1
  O  O33  1  0.217039  0.167397  0.398526  1
  O  O34  1  0.346020  0.133727  0.679906  1
  O  O35  1  0.937127  0.262421  0.330900  1
  O  O36  1  0.653980  0.866273  0.320094  1
  O  O37  1  0.404506  0.629631  0.108562  1
  O  O38  1  0.142699  0.370369  0.891438  1
  O  O39  1  0.055064  0.109725  0.780147  1
  O  O40  1  0.019962  0.579748  0.820132  1
  O  O41  1  0.163252  0.013139  0.160510  1
  O  O42  1  0.260719  0.803535  0.168028  1
  O  O43  1  0.041723  0.216862  0.171407  1
  O  O44  1  0.782961  0.832603  0.601474  1
  O  O45  1  0.469551  0.262421  0.330900  1
  O  O46  1  0.921267  0.157935  0.504806  1
  O  O47  1  0.857301  0.629631  0.108562  1
  O  O48  1  0.630019  0.861660  0.878303  1
  O  O49  1  0.466988  0.954351  0.619091  1
  O  O50  1  0.595494  0.370369  0.891438  1
  O  O51  1  0.232281  0.196465  0.831972  1
  O  O52  1  0.580159  0.579748  0.820132  1
  O  O53  1  0.336901  0.986861  0.839490  1
  O  O54  1  0.836748  0.986861  0.839490  1
  O  O55  1  0.340358  0.918721  0.400563  1
  O  O56  1  0.570476  0.775941  0.083107  1
  O  O57  1  0.767719  0.803535  0.168028  1
  O  O58  1  0.429524  0.224059  0.916893  1
  O  O59  1  0.078733  0.842065  0.495194  1
  O  O60  1  0.272546  0.670021  0.784886  1
  O  O61  1  0.958277  0.783138  0.828593  1
  O  O62  1  0.659053  0.174999  0.012489  1
  O  O63  1  0.570008  0.216862  0.171407  1
  O  O64  1  0.184909  0.547794  0.082388  1
  O  O65  1  0.944936  0.890275  0.219853  1
  O  O66  1  0.815091  0.452206  0.917612  1
  O  O67  1  0.500000  0.500000  0.000000  1
  O  O68  1  0.530449  0.737579  0.669100  1
  O  O69  1  0.159653  0.866273  0.320094  1
  O  O70  1  0.980038  0.420252  0.179868  1
  O  O71  1  0.419841  0.420252  0.179868  1
  O  O72  1  0.369981  0.138340  0.121697  1
  O  O73  1  0.727454  0.329979  0.215114  1
  O  O74  1  0.040430  0.045649  0.380909  1
  O  O75  1  0.153459  0.174999  0.012489  1
  O  O76  1  0.000000  0.500000  0.000000  1
  O  O77  1  0.340947  0.825001  0.987511  1
  O  O78  1  0.584008  0.842065  0.495194  1
  O  O79  1  0.663099  0.013139  0.160510  1
  O  O80  1  0.739281  0.196465  0.831972  1
  O  O81  1  0.840347  0.133727  0.679906  1
  O  O82  1  0.429992  0.783138  0.828593  1
  O  O83  1  0.533012  0.045649  0.380909  1
