# generated using pymatgen
data_Ag9(PbO3)4
_symmetry_space_group_name_H-M   'P 1'
_cell_length_a   12.00666661
_cell_length_b   10.44199245
_cell_length_c   8.84968883
_cell_angle_alpha   89.90538456
_cell_angle_beta   47.14544798
_cell_angle_gamma   90.00251703
_symmetry_Int_Tables_number   1
_chemical_formula_structural   Ag9(PbO3)4
_chemical_formula_sum   'Ag18 Pb8 O24'
_cell_volume   813.36524786
_cell_formula_units_Z   2
loop_
 _symmetry_equiv_pos_site_id
 _symmetry_equiv_pos_as_xyz
  1  'x, y, z'
loop_
 _atom_site_type_symbol
 _atom_site_label
 _atom_site_symmetry_multiplicity
 _atom_site_fract_x
 _atom_site_fract_y
 _atom_site_fract_z
 _atom_site_occupancy
  Ag  Ag0  1  -0.000073  0.497182  0.002284  1
  Ag  Ag1  1  0.125333  0.749503  0.000306  1
  Ag  Ag2  1  0.132908  0.493292  0.231856  1
  Ag  Ag3  1  0.251529  0.999954  0.997249  1
  Ag  Ag4  1  0.376467  0.749323  0.999781  1
  Ag  Ag5  1  0.373866  0.251308  0.999194  1
  Ag  Ag6  1  0.115685  0.004348  0.769327  1
  Ag  Ag7  1  0.499718  0.499759  0.001222  1
  Ag  Ag8  1  0.379193  0.999736  0.240138  1
  Ag  Ag9  1  0.624010  0.248392  0.000582  1
  Ag  Ag10  1  0.749893  0.998448  0.997436  1
  Ag  Ag11  1  0.632793  0.505260  0.229187  1
  Ag  Ag12  1  0.366313  0.501180  0.767651  1
  Ag  Ag13  1  0.874424  0.747907  0.000224  1
  Ag  Ag14  1  0.875197  0.248026  0.000364  1
  Ag  Ag15  1  0.620712  0.993608  0.762977  1
  Ag  Ag16  1  0.879841  0.000425  0.240191  1
  Ag  Ag17  1  0.870552  0.499423  0.761111  1
  Pb  Pb18  1  0.996163  0.832989  0.504510  1
  Pb  Pb19  1  0.254888  0.665700  0.495444  1
  Pb  Pb20  1  0.249124  0.329975  0.506167  1
  Pb  Pb21  1  0.494493  0.166321  0.505928  1
  Pb  Pb22  1  0.501229  0.830517  0.493205  1
  Pb  Pb23  1  0.750365  0.668746  0.504602  1
  Pb  Pb24  1  0.753816  0.333480  0.494875  1
  Pb  Pb25  1  0.000391  0.169173  0.493206  1
  O  O26  1  0.034954  0.000194  0.306266  1
  O  O27  1  0.998374  0.310045  0.691022  1
  O  O28  1  0.001009  0.687228  0.690412  1
  O  O29  1  0.250202  0.811572  0.309239  1
  O  O30  1  0.251886  0.188853  0.307464  1
  O  O31  1  0.283165  0.496966  0.312095  1
  O  O32  1  0.215571  0.498280  0.693243  1
  O  O33  1  0.246828  0.813058  0.691813  1
  O  O34  1  0.249157  0.185085  0.686894  1
  O  O35  1  0.503220  0.313167  0.308604  1
  O  O36  1  0.500362  0.686701  0.312274  1
  O  O37  1  0.533999  -0.000023  0.307558  1
  O  O38  1  0.468411  0.996944  0.686834  1
  O  O39  1  0.499894  0.312826  0.689663  1
  O  O40  1  0.499495  0.688480  0.690337  1
  O  O41  1  0.752233  0.811013  0.308029  1
  O  O42  1  0.748107  0.187511  0.311160  1
  O  O43  1  0.782541  0.502104  0.311287  1
  O  O44  1  0.716015  0.499825  0.691940  1
  O  O45  1  0.751096  0.812110  0.686074  1
  O  O46  1  0.746103  0.186739  0.690877  1
  O  O47  1  0.999582  0.313453  0.311638  1
  O  O48  1  0.004034  0.685551  0.308533  1
  O  O49  1  0.967225  0.002431  0.687047  1
