# generated using pymatgen
data_Ag2SnO3
_symmetry_space_group_name_H-M   'P 1'
_cell_length_a   5.74815865
_cell_length_b   12.90303198
_cell_length_c   29.86567856
_cell_angle_alpha   90.00000000
_cell_angle_beta   90.00000000
_cell_angle_gamma   89.99999213
_symmetry_Int_Tables_number   1
_chemical_formula_structural   Ag2SnO3
_chemical_formula_sum   'Ag48 Sn24 O72'
_cell_volume   2215.09780340
_cell_formula_units_Z   24
loop_
 _symmetry_equiv_pos_site_id
 _symmetry_equiv_pos_as_xyz
  1  'x, y, z'
loop_
 _atom_site_type_symbol
 _atom_site_label
 _atom_site_symmetry_multiplicity
 _atom_site_fract_x
 _atom_site_fract_y
 _atom_site_fract_z
 _atom_site_occupancy
  Ag  Ag0  1  0.750006  0.775302  0.111091  1
  Ag  Ag1  1  0.926214  0.995030  0.499255  1
  Ag  Ag2  1  0.750337  0.196415  0.555643  1
  Ag  Ag3  1  0.408997  0.995591  0.554216  1
  Ag  Ag4  1  0.911999  0.999160  0.279441  1
  Ag  Ag5  1  0.249994  0.724698  0.611091  1
  Ag  Ag6  1  0.414971  0.995537  0.446438  1
  Ag  Ag7  1  0.427070  0.997353  0.666283  1
  Ag  Ag8  1  0.908967  0.996158  0.387521  1
  Ag  Ag9  1  0.926848  0.002608  0.167163  1
  Ag  Ag10  1  0.085420  0.503898  0.113020  1
  Ag  Ag11  1  0.085029  0.495537  0.553562  1
  Ag  Ag12  1  0.749663  0.696415  0.444357  1
  Ag  Ag13  1  0.914971  0.004463  0.053562  1
  Ag  Ag14  1  0.249663  0.303585  0.055643  1
  Ag  Ag15  1  0.908997  0.004410  0.945784  1
  Ag  Ag16  1  0.073786  0.504970  0.999255  1
  Ag  Ag17  1  0.749884  0.274469  0.222150  1
  Ag  Ag18  1  0.410841  0.000803  0.779489  1
  Ag  Ag19  1  0.250337  0.803585  0.944357  1
  Ag  Ag20  1  0.585029  0.504463  0.946438  1
  Ag  Ag21  1  0.927070  0.002647  0.833717  1
  Ag  Ag22  1  0.072930  0.497353  0.333717  1
  Ag  Ag23  1  0.589159  0.499197  0.279489  1
  Ag  Ag24  1  0.091003  0.495590  0.445784  1
  Ag  Ag25  1  0.749994  0.275302  0.888909  1
  Ag  Ag26  1  0.588002  0.499160  0.720559  1
  Ag  Ag27  1  0.073152  0.497392  0.667163  1
  Ag  Ag28  1  0.411998  0.000840  0.220559  1
  Ag  Ag29  1  0.426848  0.997392  0.332837  1
  Ag  Ag30  1  0.091033  0.503842  0.887521  1
  Ag  Ag31  1  0.088001  0.500840  0.779441  1
  Ag  Ag32  1  0.408967  0.003842  0.112479  1
  Ag  Ag33  1  0.250116  0.225531  0.722150  1
  Ag  Ag34  1  0.426214  0.004969  0.000745  1
  Ag  Ag35  1  0.572930  0.502647  0.166283  1
  Ag  Ag36  1  0.910841  0.999197  0.720511  1
  Ag  Ag37  1  0.573786  0.495031  0.500745  1
  Ag  Ag38  1  0.414580  0.003898  0.886980  1
  Ag  Ag39  1  0.914580  0.996102  0.613020  1
  Ag  Ag40  1  0.250006  0.224698  0.388909  1
  Ag  Ag41  1  0.573152  0.502608  0.832837  1
  Ag  Ag42  1  0.591033  0.496158  0.612479  1
  Ag  Ag43  1  0.585420  0.496102  0.386980  1
  Ag  Ag44  1  0.750116  0.774469  0.777850  1
  Ag  Ag45  1  0.089159  0.500803  0.220511  1
  Ag  Ag46  1  0.249884  0.725531  0.277850  1
  Ag  Ag47  1  0.591003  0.504409  0.054216  1
  Sn  Sn48  1  0.251169  0.751808  0.166686  1
  Sn  Sn49  1  0.249790  0.750089  0.388958  1
  Sn  Sn50  1  0.749133  0.250393  0.666600  1
  Sn  Sn51  1  0.250742  0.251569  0.944476  1
  Sn  Sn52  1  0.750867  0.750393  0.333400  1
  Sn  Sn53  1  0.748994  0.751664  0.222247  1
  Sn  Sn54  1  0.749790  0.249911  0.111042  1
  Sn  Sn55  1  0.250867  0.249607  0.166600  1
  Sn  Sn56  1  0.750742  0.748431  0.555524  1
  Sn  Sn57  1  0.251006  0.748336  0.722247  1
  Sn  Sn58  1  0.751006  0.251664  0.777753  1
  Sn  Sn59  1  0.749463  0.251065  0.000028  1
  Sn  Sn60  1  0.748831  0.748192  0.666686  1
  Sn  Sn61  1  0.751169  0.248192  0.333314  1
  Sn  Sn62  1  0.249258  0.751569  0.055524  1
  Sn  Sn63  1  0.750210  0.749911  0.888958  1
  Sn  Sn64  1  0.750537  0.751065  0.999972  1
  Sn  Sn65  1  0.250210  0.250089  0.611042  1
  Sn  Sn66  1  0.749258  0.248431  0.444476  1
  Sn  Sn67  1  0.248831  0.251808  0.833314  1
  Sn  Sn68  1  0.249463  0.748935  0.499972  1
  Sn  Sn69  1  0.248994  0.248336  0.277753  1
  Sn  Sn70  1  0.249133  0.749607  0.833400  1
  Sn  Sn71  1  0.250537  0.248935  0.500028  1
  O  O72  1  0.630481  0.336476  0.722079  1
  O  O73  1  0.440771  0.835087  0.674716  1
  O  O74  1  0.369702  0.166261  0.888993  1
  O  O75  1  0.439107  0.166997  0.992246  1
  O  O76  1  0.060893  0.666997  0.007754  1
  O  O77  1  0.059887  0.665807  0.881416  1
  O  O78  1  0.869519  0.836476  0.277921  1
  O  O79  1  0.059369  0.333593  0.452092  1
  O  O80  1  0.440113  0.165807  0.118584  1
  O  O81  1  0.944766  0.840269  0.176351  1
  O  O82  1  0.050864  0.341180  0.121988  1
  O  O83  1  0.946270  0.841923  0.045821  1
  O  O84  1  0.054149  0.662828  0.212489  1
  O  O85  1  0.051752  0.342174  0.989324  1
  O  O86  1  0.560085  0.664733  0.841259  1
  O  O87  1  0.449137  0.841180  0.878012  1
  O  O88  1  0.446270  0.158077  0.454179  1
  O  O89  1  0.553730  0.341923  0.954179  1
  O  O90  1  0.128989  0.333459  0.555482  1
  O  O91  1  0.852380  0.842078  0.944216  1
  O  O92  1  0.630298  0.333739  0.388993  1
  O  O93  1  0.550863  0.658820  0.378012  1
  O  O94  1  0.445725  0.159707  0.656914  1
  O  O95  1  0.444766  0.159731  0.323649  1
  O  O96  1  0.945851  0.837172  0.712489  1
  O  O97  1  0.858063  0.161209  0.722567  1
  O  O98  1  0.058950  0.338143  0.785546  1
  O  O99  1  0.628989  0.666541  0.944519  1
  O  O100  1  0.559369  0.666407  0.047908  1
  O  O101  1  0.369519  0.163524  0.222079  1
  O  O102  1  0.559887  0.334193  0.618584  1
  O  O103  1  0.555234  0.340269  0.823649  1
  O  O104  1  0.560893  0.333003  0.492246  1
  O  O105  1  0.147620  0.657922  0.444216  1
  O  O106  1  0.641937  0.661209  0.277433  1
  O  O107  1  0.055234  0.659731  0.676351  1
  O  O108  1  0.551752  0.657826  0.510676  1
  O  O109  1  0.940631  0.166407  0.952092  1
  O  O110  1  0.140755  0.341330  0.888858  1
  O  O111  1  0.060085  0.335267  0.658741  1
  O  O112  1  0.941050  0.161857  0.285546  1
  O  O113  1  0.940113  0.834193  0.381416  1
  O  O114  1  0.054275  0.659707  0.343086  1
  O  O115  1  0.053730  0.658077  0.545821  1
  O  O116  1  0.939107  0.833003  0.507754  1
  O  O117  1  0.949136  0.158820  0.621988  1
  O  O118  1  0.640753  0.658670  0.611142  1
  O  O119  1  0.352380  0.157922  0.555784  1
  O  O120  1  0.945725  0.840293  0.843086  1
  O  O121  1  0.141937  0.338791  0.222567  1
  O  O122  1  0.559229  0.664913  0.174716  1
  O  O123  1  0.859245  0.158670  0.388858  1
  O  O124  1  0.359247  0.841330  0.111142  1
  O  O125  1  0.939915  0.164733  0.158741  1
  O  O126  1  0.371011  0.833459  0.444518  1
  O  O127  1  0.358063  0.838791  0.777433  1
  O  O128  1  0.059229  0.335087  0.325284  1
  O  O129  1  0.439915  0.835267  0.341259  1
  O  O130  1  0.871011  0.166541  0.055482  1
  O  O131  1  0.558949  0.661857  0.714454  1
  O  O132  1  0.554149  0.337172  0.287511  1
  O  O133  1  0.445851  0.162828  0.787511  1
  O  O134  1  0.554275  0.340293  0.156914  1
  O  O135  1  0.130297  0.666261  0.111007  1
  O  O136  1  0.948248  0.157826  0.489324  1
  O  O137  1  0.130481  0.663524  0.777921  1
  O  O138  1  0.448248  0.842174  0.010676  1
  O  O139  1  0.441051  0.838143  0.214454  1
  O  O140  1  0.869703  0.833739  0.611007  1
  O  O141  1  0.440631  0.833593  0.547908  1
  O  O142  1  0.940771  0.164913  0.825284  1
  O  O143  1  0.647620  0.342078  0.055784  1
