# generated using pymatgen
data_Li2UCl6
_symmetry_space_group_name_H-M   'P 1'
_cell_length_a   11.18459256
_cell_length_b   11.18459231
_cell_length_c   6.05988674
_cell_angle_alpha   90.00000000
_cell_angle_beta   90.00000000
_cell_angle_gamma   120.00000074
_symmetry_Int_Tables_number   1
_chemical_formula_structural   Li2UCl6
_chemical_formula_sum   'Li6 U3 Cl18'
_cell_volume   656.50110573
_cell_formula_units_Z   3
loop_
 _symmetry_equiv_pos_site_id
 _symmetry_equiv_pos_as_xyz
  1  'x, y, z'
loop_
 _atom_site_type_symbol
 _atom_site_label
 _atom_site_symmetry_multiplicity
 _atom_site_fract_x
 _atom_site_fract_y
 _atom_site_fract_z
 _atom_site_occupancy
  Li  Li0  1  0.000000  0.663974  0.000000  1
  Li  Li1  1  0.336026  0.336026  0.000000  1
  Li  Li2  1  0.663974  0.663974  0.000000  1
  Li  Li3  1  0.336026  0.000000  0.000000  1
  Li  Li4  1  0.663974  0.000000  0.000000  1
  Li  Li5  1  1.000000  0.336026  0.000000  1
  U  U6  1  0.333333  0.666667  0.502457  1
  U  U7  1  0.666667  0.333333  0.497543  1
  U  U8  1  0.000000  0.000000  0.500000  1
  Cl  Cl9  1  0.109265  0.890735  0.241275  1
  Cl  Cl10  1  0.222691  0.777309  0.755629  1
  Cl  Cl11  1  0.113267  0.556634  0.245299  1
  Cl  Cl12  1  0.222691  0.445382  0.755629  1
  Cl  Cl13  1  0.109265  0.218530  0.241275  1
  Cl  Cl14  1  0.443366  0.886733  0.245299  1
  Cl  Cl15  1  0.218530  0.109265  0.758725  1
  Cl  Cl16  1  0.443366  0.556634  0.245299  1
  Cl  Cl17  1  0.554618  0.777309  0.755629  1
  Cl  Cl18  1  0.445382  0.222691  0.244371  1
  Cl  Cl19  1  0.556634  0.443366  0.754701  1
  Cl  Cl20  1  0.781470  0.890735  0.241275  1
  Cl  Cl21  1  0.777309  0.554618  0.244371  1
  Cl  Cl22  1  0.556634  0.113267  0.754701  1
  Cl  Cl23  1  0.890735  0.781470  0.758725  1
  Cl  Cl24  1  0.886733  0.443366  0.754701  1
  Cl  Cl25  1  0.777309  0.222691  0.244371  1
  Cl  Cl26  1  0.890735  0.109265  0.758725  1
