# generated using pymatgen
data_Ca5Mg5P5O21F4
_symmetry_space_group_name_H-M   'P 1'
_cell_length_a   5.51042431
_cell_length_b   5.51042386
_cell_length_c   70.68457683
_cell_angle_alpha   103.16990954
_cell_angle_beta   103.16990735
_cell_angle_gamma   106.81329877
_symmetry_Int_Tables_number   1
_chemical_formula_structural   Ca5Mg5P5O21F4
_chemical_formula_sum   'Ca20 Mg20 P20 O84 F16'
_cell_volume   1898.59014162
_cell_formula_units_Z   4
loop_
 _symmetry_equiv_pos_site_id
 _symmetry_equiv_pos_as_xyz
  1  'x, y, z'
loop_
 _atom_site_type_symbol
 _atom_site_label
 _atom_site_symmetry_multiplicity
 _atom_site_fract_x
 _atom_site_fract_y
 _atom_site_fract_z
 _atom_site_occupancy
  Ca  Ca0  1  0.161142  0.839131  0.974727  1
  Ca  Ca1  1  0.159204  0.840787  0.874998  1
  Ca  Ca2  1  0.161194  0.838537  0.774949  1
  Ca  Ca3  1  0.161378  0.838573  0.674998  1
  Ca  Ca4  1  0.161420  0.838580  0.575000  1
  Ca  Ca5  1  0.838894  0.160895  0.925280  1
  Ca  Ca6  1  0.161427  0.838622  0.475002  1
  Ca  Ca7  1  0.838947  0.161107  0.824672  1
  Ca  Ca8  1  0.161463  0.838806  0.375051  1
  Ca  Ca9  1  0.838582  0.161386  0.724992  1
  Ca  Ca10  1  0.159213  0.840796  0.275002  1
  Ca  Ca11  1  0.838543  0.161386  0.624996  1
  Ca  Ca12  1  0.160869  0.838858  0.175273  1
  Ca  Ca13  1  0.838614  0.161457  0.525004  1
  Ca  Ca14  1  0.160740  0.839260  0.075000  1
  Ca  Ca15  1  0.838614  0.161418  0.425008  1
  Ca  Ca16  1  0.838893  0.161053  0.325328  1
  Ca  Ca17  1  0.839105  0.161106  0.224720  1
  Ca  Ca18  1  0.840895  0.159112  0.125044  1
  Ca  Ca19  1  0.840888  0.159105  0.024956  1
  Mg  Mg20  1  0.500033  0.499971  0.949999  1
  Mg  Mg21  1  0.504361  0.504070  0.900489  1
  Mg  Mg22  1  0.495916  0.495525  0.849472  1
  Mg  Mg23  1  0.499812  0.500211  0.799849  1
  Mg  Mg24  1  0.499964  0.499893  0.749959  1
  Mg  Mg25  1  0.499965  0.500018  0.699993  1
  Mg  Mg26  1  0.500021  0.500008  0.649997  1
  Mg  Mg27  1  0.500002  0.500016  0.599998  1
  Mg  Mg28  1  0.499984  0.499998  0.550002  1
  Mg  Mg29  1  0.499992  0.499979  0.500003  1
  Mg  Mg30  1  0.499982  0.500035  0.450007  1
  Mg  Mg31  1  0.500107  0.500036  0.400041  1
  Mg  Mg32  1  0.499789  0.500188  0.350151  1
  Mg  Mg33  1  0.504475  0.504084  0.300528  1
  Mg  Mg34  1  0.495930  0.495639  0.249511  1
  Mg  Mg35  1  0.500029  0.499967  0.200001  1
  Mg  Mg36  1  0.503997  0.504387  0.150509  1
  Mg  Mg37  1  0.495740  0.495728  0.099618  1
  Mg  Mg38  1  0.504272  0.504260  0.050382  1
  Mg  Mg39  1  0.495613  0.496003  0.999491  1
  P  P40  1  0.180797  0.823081  0.925307  1
  P  P41  1  0.177052  0.819115  0.824628  1
  P  P42  1  0.178833  0.821078  0.724988  1
  P  P43  1  0.178768  0.821008  0.624969  1
  P  P44  1  0.819207  0.176950  0.974687  1
  P  P45  1  0.178992  0.821232  0.525031  1
  P  P46  1  0.820668  0.179287  0.874994  1
  P  P47  1  0.178922  0.821167  0.425012  1
  P  P48  1  0.821177  0.178805  0.774908  1
  P  P49  1  0.180885  0.822948  0.325372  1
  P  P50  1  0.821035  0.178794  0.674980  1
  P  P51  1  0.176919  0.819203  0.224693  1
  P  P52  1  0.821102  0.178898  0.575000  1
  P  P53  1  0.179163  0.820709  0.125055  1
  P  P54  1  0.821206  0.178965  0.475020  1
  P  P55  1  0.179291  0.820837  0.024945  1
  P  P56  1  0.821195  0.178823  0.375092  1
  P  P57  1  0.820713  0.179332  0.275006  1
  P  P58  1  0.823050  0.180793  0.175313  1
  P  P59  1  0.820997  0.179003  0.075000  1
  O  O60  1  0.094270  0.239851  0.990766  1
  O  O61  1  0.170253  0.610949  0.936753  1
  O  O62  1  0.098380  0.243332  0.890802  1
  O  O63  1  0.239122  0.097989  0.941115  1
  O  O64  1  0.394611  0.833603  0.914135  1
  O  O65  1  0.166438  0.605303  0.835813  1
  O  O66  1  0.097306  0.240988  0.790777  1
  O  O67  1  0.413134  0.586816  0.874987  1
  O  O68  1  0.239797  0.094159  0.840711  1
  O  O69  1  0.389329  0.829896  0.813208  1
  O  O70  1  0.605312  0.166290  0.985857  1
  O  O71  1  0.170761  0.610584  0.736571  1
  O  O72  1  0.760965  0.901972  0.958891  1
  O  O73  1  0.097088  0.240930  0.690846  1
  O  O74  1  0.240914  0.097020  0.740840  1
  O  O75  1  0.829815  0.388963  0.963254  1
  O  O76  1  0.389323  0.829179  0.713407  1
  O  O77  1  0.612114  0.168437  0.886702  1
  O  O78  1  0.170850  0.610586  0.636592  1
  O  O79  1  0.756720  0.901534  0.859196  1
  O  O80  1  0.905746  0.760193  0.909244  1
  O  O81  1  0.097072  0.240903  0.590843  1
  O  O82  1  0.240938  0.097183  0.640851  1
  O  O83  1  0.831512  0.387787  0.863279  1
  O  O84  1  0.389288  0.829193  0.613420  1
  O  O85  1  0.610828  0.170971  0.786540  1
  O  O86  1  0.170807  0.610712  0.536580  1
  O  O87  1  0.759136  0.902970  0.759110  1
  O  O88  1  0.902297  0.760990  0.808821  1
  O  O89  1  0.096892  0.240850  0.490837  1
  O  O90  1  0.240820  0.096877  0.540834  1
  O  O91  1  0.829215  0.389216  0.763364  1
  O  O92  1  0.389414  0.829150  0.513408  1
  O  O93  1  0.610603  0.170870  0.686590  1
  O  O94  1  0.170821  0.610677  0.436593  1
  O  O95  1  0.759150  0.903108  0.659163  1
  O  O96  1  0.902940  0.759153  0.709151  1
  O  O97  1  0.097030  0.240864  0.390890  1
  O  O98  1  0.240847  0.097060  0.440849  1
  O  O99  1  0.829167  0.389329  0.663416  1
  O  O100  1  0.389416  0.829239  0.413429  1
  O  O101  1  0.610658  0.170835  0.586587  1
  O  O102  1  0.170104  0.610671  0.336792  1
  O  O103  1  0.759097  0.902928  0.559157  1
  O  O104  1  0.903123  0.759180  0.609166  1
  O  O105  1  0.098466  0.243280  0.290804  1
  O  O106  1  0.239010  0.097703  0.341179  1
  O  O107  1  0.829165  0.389342  0.563413  1
  O  O108  1  0.394697  0.833562  0.314187  1
  O  O109  1  0.610671  0.170833  0.486584  1
  O  O110  1  0.166397  0.605389  0.235865  1
  O  O111  1  0.759070  0.902911  0.459154  1
  O  O112  1  0.902817  0.759062  0.509149  1
  O  O113  1  0.098028  0.239035  0.191109  1
  O  O114  1  0.413184  0.586866  0.275013  1
  O  O115  1  0.239807  0.094254  0.240756  1
  O  O116  1  0.829130  0.389397  0.463410  1
  O  O117  1  0.389051  0.829747  0.213247  1
  O  O118  1  0.610784  0.170785  0.386636  1
  O  O119  1  0.168272  0.612144  0.136748  1
  O  O120  1  0.759012  0.902694  0.359223  1
  O  O121  1  0.902980  0.759086  0.409160  1
  O  O122  1  0.094969  0.237825  0.091051  1
  O  O123  1  0.243329  0.098460  0.140854  1
  O  O124  1  0.829029  0.389172  0.363460  1
  O  O125  1  0.387522  0.831382  0.113325  1
  O  O126  1  0.612213  0.168488  0.286721  1
  O  O127  1  0.168618  0.612478  0.036675  1
  O  O128  1  0.756668  0.901620  0.259198  1
  O  O129  1  0.905841  0.760203  0.309289  1
  O  O130  1  0.243273  0.098670  0.040744  1
  O  O131  1  0.831563  0.387886  0.263298  1
  O  O132  1  0.387856  0.831728  0.013252  1
  O  O133  1  0.611037  0.170185  0.186746  1
  O  O134  1  0.760149  0.905730  0.159234  1
  O  O135  1  0.587138  0.413289  0.125058  1
  O  O136  1  0.902011  0.760878  0.208885  1
  O  O137  1  0.833710  0.394688  0.164143  1
  O  O138  1  0.605355  0.165568  0.086013  1
  O  O139  1  0.762175  0.905031  0.058949  1
  O  O140  1  0.586711  0.412862  0.024942  1
  O  O141  1  0.901330  0.756727  0.109256  1
  O  O142  1  0.834432  0.394645  0.063987  1
  O  O143  1  0.901540  0.756671  0.009146  1
  F  F144  1  0.414539  0.586717  0.974866  1
  F  F145  1  0.585335  0.413239  0.925098  1
  F  F146  1  0.414338  0.585057  0.774922  1
  F  F147  1  0.586194  0.414484  0.824827  1
  F  F148  1  0.414811  0.585162  0.674994  1
  F  F149  1  0.585149  0.414713  0.724979  1
  F  F150  1  0.414792  0.585208  0.575000  1
  F  F151  1  0.585175  0.414818  0.624992  1
  F  F152  1  0.414838  0.585189  0.475006  1
  F  F153  1  0.585182  0.414825  0.525008  1
  F  F154  1  0.414943  0.585662  0.375078  1
  F  F155  1  0.585287  0.414851  0.425021  1
  F  F156  1  0.585516  0.413806  0.325173  1
  F  F157  1  0.413283  0.585461  0.175134  1
  F  F158  1  0.586761  0.414665  0.224902  1
  F  F159  1  0.413440  0.586560  0.075000  1
