# generated using pymatgen
data_K2UI5
_symmetry_space_group_name_H-M   'P 1'
_cell_length_a   9.30861798
_cell_length_b   9.87296452
_cell_length_c   14.72448053
_cell_angle_alpha   89.99824270
_cell_angle_beta   90.00109330
_cell_angle_gamma   90.00084877
_symmetry_Int_Tables_number   1
_chemical_formula_structural   K2UI5
_chemical_formula_sum   'K8 U4 I20'
_cell_volume   1353.23357886
_cell_formula_units_Z   4
loop_
 _symmetry_equiv_pos_site_id
 _symmetry_equiv_pos_as_xyz
  1  'x, y, z'
loop_
 _atom_site_type_symbol
 _atom_site_label
 _atom_site_symmetry_multiplicity
 _atom_site_fract_x
 _atom_site_fract_y
 _atom_site_fract_z
 _atom_site_occupancy
  K  K0  1  0.563406  0.005225  0.671632  1
  K  K1  1  0.936582  0.005230  0.171625  1
  K  K2  1  0.436580  0.994778  0.328376  1
  K  K3  1  0.063438  0.994786  0.828367  1
  K  K4  1  0.063401  0.505185  0.828352  1
  K  K5  1  0.436568  0.505207  0.328379  1
  K  K6  1  0.563425  0.494767  0.671617  1
  K  K7  1  0.936591  0.494788  0.171644  1
  U  U8  1  0.574549  0.750015  0.996354  1
  U  U9  1  0.074496  0.250001  0.503611  1
  U  U10  1  0.425395  0.250009  0.003631  1
  U  U11  1  0.925529  0.750000  0.496400  1
  I  I12  1  0.167088  0.955791  0.573965  1
  I  I13  1  0.158851  0.250001  0.294522  1
  I  I14  1  0.841143  0.749999  0.705493  1
  I  I15  1  0.832937  0.044234  0.426044  1
  I  I16  1  0.667014  0.455737  0.926063  1
  I  I17  1  0.572629  0.750008  0.494327  1
  I  I18  1  0.667022  0.044277  0.926054  1
  I  I19  1  0.927392  0.750005  0.994328  1
  I  I20  1  0.879653  0.249995  0.682245  1
  I  I21  1  0.167080  0.544210  0.573972  1
  I  I22  1  0.379674  0.750001  0.817775  1
  I  I23  1  0.341159  0.250000  0.794578  1
  I  I24  1  0.332932  0.955837  0.073939  1
  I  I25  1  0.427380  0.249995  0.505664  1
  I  I26  1  0.120374  0.749999  0.317739  1
  I  I27  1  0.332933  0.544166  0.073936  1
  I  I28  1  0.620301  0.249999  0.182193  1
  I  I29  1  0.658857  0.749994  0.205460  1
  I  I30  1  0.832929  0.455762  0.426042  1
  I  I31  1  0.072689  0.250002  0.005670  1
