# generated using pymatgen
data_Ca3Ga2Si(SnO6)2
_symmetry_space_group_name_H-M   'P 1'
_cell_length_a   10.93377743
_cell_length_b   10.93377715
_cell_length_c   10.93377709
_cell_angle_alpha   110.23991271
_cell_angle_beta   109.08824665
_cell_angle_gamma   109.08824840
_symmetry_Int_Tables_number   1
_chemical_formula_structural   Ca3Ga2Si(SnO6)2
_chemical_formula_sum   'Ca12 Ga8 Si4 Sn8 O48'
_cell_volume   1006.07428166
_cell_formula_units_Z   4
loop_
 _symmetry_equiv_pos_site_id
 _symmetry_equiv_pos_as_xyz
  1  'x, y, z'
loop_
 _atom_site_type_symbol
 _atom_site_label
 _atom_site_symmetry_multiplicity
 _atom_site_fract_x
 _atom_site_fract_y
 _atom_site_fract_z
 _atom_site_occupancy
  Ca  Ca0  1  0.250000  0.875000  0.625000  1
  Ca  Ca1  1  0.124608  0.374608  0.750000  1
  Ca  Ca2  1  0.124608  0.250000  0.374608  1
  Ca  Ca3  1  0.250000  0.375000  0.125000  1
  Ca  Ca4  1  0.624608  0.874608  0.750000  1
  Ca  Ca5  1  0.375392  0.750000  0.125392  1
  Ca  Ca6  1  0.624608  0.250000  0.874608  1
  Ca  Ca7  1  0.750000  0.625000  0.875000  1
  Ca  Ca8  1  0.375392  0.125392  0.250000  1
  Ca  Ca9  1  0.875392  0.750000  0.625392  1
  Ca  Ca10  1  0.875392  0.625392  0.250000  1
  Ca  Ca11  1  0.750000  0.125000  0.375000  1
  Ga  Ga12  1  0.125626  0.750000  0.875626  1
  Ga  Ga13  1  0.125626  0.875626  0.250000  1
  Ga  Ga14  1  0.374374  0.624374  0.750000  1
  Ga  Ga15  1  0.374374  0.250000  0.624374  1
  Ga  Ga16  1  0.625626  0.750000  0.375626  1
  Ga  Ga17  1  0.625626  0.375626  0.250000  1
  Ga  Ga18  1  0.874374  0.124374  0.750000  1
  Ga  Ga19  1  0.874374  0.250000  0.124374  1
  Si  Si20  1  0.250000  0.125000  0.875000  1
  Si  Si21  1  0.250000  0.625000  0.375000  1
  Si  Si22  1  0.750000  0.875000  0.125000  1
  Si  Si23  1  0.750000  0.375000  0.625000  1
  Sn  Sn24  1  0.000000  0.500000  0.000000  1
  Sn  Sn25  1  0.500000  0.000000  0.500000  1
  Sn  Sn26  1  0.000000  0.000000  0.000000  1
  Sn  Sn27  1  0.500000  0.500000  0.500000  1
  Sn  Sn28  1  0.500000  0.500000  0.000000  1
  Sn  Sn29  1  0.500000  0.000000  0.000000  1
  Sn  Sn30  1  0.000000  0.000000  0.500000  1
  Sn  Sn31  1  0.000000  0.500000  0.500000  1
  O  O32  1  0.111408  0.995691  0.700871  1
  O  O33  1  0.027799  0.319490  0.904403  1
  O  O34  1  0.124891  0.599489  0.921007  1
  O  O35  1  0.084912  0.708309  0.680510  1
  O  O36  1  0.084912  0.876604  0.404403  1
  O  O37  1  0.111408  0.615716  0.410536  1
  O  O38  1  0.178482  0.474598  0.599489  1
  O  O39  1  0.415088  0.819490  0.791691  1
  O  O40  1  0.375109  0.578993  0.900511  1
  O  O41  1  0.294820  0.299129  0.910536  1
  O  O42  1  0.321518  0.921007  0.296116  1
  O  O43  1  0.027799  0.208309  0.123396  1
  O  O44  1  0.178482  0.203884  0.578993  1
  O  O45  1  0.205180  0.589464  0.200871  1
  O  O46  1  0.388592  0.799129  0.504309  1
  O  O47  1  0.294820  0.495691  0.384284  1
  O  O48  1  0.321518  0.900511  0.025402  1
  O  O49  1  0.124891  0.025402  0.203884  1
  O  O50  1  0.388592  0.089464  0.884284  1
  O  O51  1  0.527799  0.623396  0.708309  1
  O  O52  1  0.527799  0.404403  0.819490  1
  O  O53  1  0.375109  0.296116  0.474598  1
  O  O54  1  0.584912  0.904403  0.376604  1
  O  O55  1  0.205180  0.115716  0.004309  1
  O  O56  1  0.794820  0.884284  0.995691  1
  O  O57  1  0.415088  0.095597  0.623396  1
  O  O58  1  0.624891  0.703884  0.525402  1
  O  O59  1  0.472201  0.595597  0.180510  1
  O  O60  1  0.472201  0.376604  0.291691  1
  O  O61  1  0.611408  0.910536  0.115716  1
  O  O62  1  0.875109  0.974598  0.796116  1
  O  O63  1  0.678482  0.099489  0.974598  1
  O  O64  1  0.705180  0.504309  0.615716  1
  O  O65  1  0.611408  0.200871  0.495691  1
  O  O66  1  0.794820  0.410536  0.799129  1
  O  O67  1  0.821518  0.796116  0.421007  1
  O  O68  1  0.972201  0.791691  0.876604  1
  O  O69  1  0.678482  0.078993  0.703884  1
  O  O70  1  0.624891  0.421007  0.099489  1
  O  O71  1  0.705180  0.700871  0.089464  1
  O  O72  1  0.584912  0.180510  0.208309  1
  O  O73  1  0.821518  0.525402  0.400511  1
  O  O74  1  0.888592  0.384284  0.589464  1
  O  O75  1  0.915088  0.123396  0.595597  1
  O  O76  1  0.915088  0.291691  0.319490  1
  O  O77  1  0.875109  0.400511  0.078993  1
  O  O78  1  0.972201  0.680510  0.095597  1
  O  O79  1  0.888592  0.004309  0.299129  1
