# generated using pymatgen
data_K2CeAg3Te4
_symmetry_space_group_name_H-M   'P 1'
_cell_length_a   4.67952887
_cell_length_b   15.51463143
_cell_length_c   17.34343920
_cell_angle_alpha   90.00000000
_cell_angle_beta   90.00000000
_cell_angle_gamma   90.00000000
_symmetry_Int_Tables_number   1
_chemical_formula_structural   K2CeAg3Te4
_chemical_formula_sum   'K8 Ce4 Ag12 Te16'
_cell_volume   1259.15390289
_cell_formula_units_Z   4
loop_
 _symmetry_equiv_pos_site_id
 _symmetry_equiv_pos_as_xyz
  1  'x, y, z'
loop_
 _atom_site_type_symbol
 _atom_site_label
 _atom_site_symmetry_multiplicity
 _atom_site_fract_x
 _atom_site_fract_y
 _atom_site_fract_z
 _atom_site_occupancy
  K  K0  1  0.750000  0.100833  0.918435  1
  K  K1  1  0.250000  0.655704  0.115939  1
  K  K2  1  0.250000  0.600833  0.581565  1
  K  K3  1  0.250000  0.899167  0.081565  1
  K  K4  1  0.250000  0.844296  0.615939  1
  K  K5  1  0.750000  0.399167  0.418435  1
  K  K6  1  0.750000  0.155704  0.384061  1
  K  K7  1  0.750000  0.344296  0.884061  1
  Ce  Ce8  1  0.250000  0.771668  0.357279  1
  Ce  Ce9  1  0.250000  0.728332  0.857279  1
  Ce  Ce10  1  0.750000  0.228332  0.642721  1
  Ce  Ce11  1  0.750000  0.271668  0.142721  1
  Ag  Ag12  1  0.750000  0.569848  0.968005  1
  Ag  Ag13  1  0.750000  0.902015  0.777400  1
  Ag  Ag14  1  0.250000  0.097985  0.222600  1
  Ag  Ag15  1  0.250000  0.402015  0.722600  1
  Ag  Ag16  1  0.750000  0.597985  0.277400  1
  Ag  Ag17  1  0.250000  0.069848  0.531995  1
  Ag  Ag18  1  0.250000  0.452576  0.227020  1
  Ag  Ag19  1  0.750000  0.547424  0.772980  1
  Ag  Ag20  1  0.250000  0.430152  0.031995  1
  Ag  Ag21  1  0.250000  0.047424  0.727020  1
  Ag  Ag22  1  0.750000  0.952576  0.272980  1
  Ag  Ag23  1  0.750000  0.930152  0.468005  1
  Te  Te24  1  0.750000  0.776856  0.227330  1
  Te  Te25  1  0.750000  0.750164  0.482085  1
  Te  Te26  1  0.250000  0.939031  0.861721  1
  Te  Te27  1  0.250000  0.984021  0.376014  1
  Te  Te28  1  0.250000  0.223144  0.772670  1
  Te  Te29  1  0.250000  0.560969  0.361721  1
  Te  Te30  1  0.250000  0.250164  0.017915  1
  Te  Te31  1  0.750000  0.015979  0.623986  1
  Te  Te32  1  0.750000  0.439031  0.638279  1
  Te  Te33  1  0.750000  0.060969  0.138279  1
  Te  Te34  1  0.250000  0.276856  0.272670  1
  Te  Te35  1  0.250000  0.249836  0.517915  1
  Te  Te36  1  0.250000  0.515979  0.876014  1
  Te  Te37  1  0.750000  0.723144  0.727330  1
  Te  Te38  1  0.750000  0.749836  0.982085  1
  Te  Te39  1  0.750000  0.484021  0.123986  1
