# generated using pymatgen
data_Ho5(Ge5Ir2)2
_symmetry_space_group_name_H-M   'P 1'
_cell_length_a   13.03110334
_cell_length_b   13.03110334
_cell_length_c   4.31447764
_cell_angle_alpha   90.00000000
_cell_angle_beta   90.00000000
_cell_angle_gamma   90.00000000
_symmetry_Int_Tables_number   1
_chemical_formula_structural   Ho5(Ge5Ir2)2
_chemical_formula_sum   'Ho10 Ge20 Ir8'
_cell_volume   732.63995635
_cell_formula_units_Z   2
loop_
 _symmetry_equiv_pos_site_id
 _symmetry_equiv_pos_as_xyz
  1  'x, y, z'
loop_
 _atom_site_type_symbol
 _atom_site_label
 _atom_site_symmetry_multiplicity
 _atom_site_fract_x
 _atom_site_fract_y
 _atom_site_fract_z
 _atom_site_occupancy
  Ho  Ho0  1  0.500000  0.500000  0.000000  1
  Ho  Ho1  1  0.000000  0.000000  0.000000  1
  Ho  Ho2  1  0.173152  0.673152  0.500000  1
  Ho  Ho3  1  0.826848  0.326848  0.500000  1
  Ho  Ho4  1  0.326848  0.173152  0.500000  1
  Ho  Ho5  1  0.673152  0.826848  0.500000  1
  Ho  Ho6  1  0.384745  0.884745  0.500000  1
  Ho  Ho7  1  0.615255  0.115255  0.500000  1
  Ho  Ho8  1  0.115255  0.384745  0.500000  1
  Ho  Ho9  1  0.884745  0.615255  0.500000  1
  Ge  Ge10  1  0.066914  0.566914  0.000000  1
  Ge  Ge11  1  0.933086  0.433086  0.000000  1
  Ge  Ge12  1  0.433086  0.066914  0.000000  1
  Ge  Ge13  1  0.566914  0.933086  0.000000  1
  Ge  Ge14  1  0.699458  0.663986  0.000000  1
  Ge  Ge15  1  0.300542  0.336014  0.000000  1
  Ge  Ge16  1  0.800542  0.163986  0.000000  1
  Ge  Ge17  1  0.199458  0.836014  0.000000  1
  Ge  Ge18  1  0.663986  0.300542  0.000000  1
  Ge  Ge19  1  0.336014  0.699458  0.000000  1
  Ge  Ge20  1  0.163986  0.199458  0.000000  1
  Ge  Ge21  1  0.836014  0.800542  0.000000  1
  Ge  Ge22  1  0.007870  0.843834  0.500000  1
  Ge  Ge23  1  0.992130  0.156166  0.500000  1
  Ge  Ge24  1  0.492130  0.343834  0.500000  1
  Ge  Ge25  1  0.507870  0.656166  0.500000  1
  Ge  Ge26  1  0.843834  0.992130  0.500000  1
  Ge  Ge27  1  0.156166  0.007870  0.500000  1
  Ge  Ge28  1  0.343834  0.507870  0.500000  1
  Ge  Ge29  1  0.656166  0.492130  0.500000  1
  Ir  Ir30  1  0.019005  0.752996  0.000000  1
  Ir  Ir31  1  0.980995  0.247004  0.000000  1
  Ir  Ir32  1  0.480995  0.252996  0.000000  1
  Ir  Ir33  1  0.519005  0.747004  0.000000  1
  Ir  Ir34  1  0.752996  0.980995  0.000000  1
  Ir  Ir35  1  0.247004  0.019005  0.000000  1
  Ir  Ir36  1  0.252996  0.519005  0.000000  1
  Ir  Ir37  1  0.747004  0.480995  0.000000  1
