# generated using pymatgen
data_ScF3
_symmetry_space_group_name_H-M   'P 1'
_cell_length_a   3.63900056
_cell_length_b   3.44025411
_cell_length_c   3.96217371
_cell_angle_alpha   90.10129735
_cell_angle_beta   117.33662266
_cell_angle_gamma   89.77942512
_symmetry_Int_Tables_number   1
_chemical_formula_structural   ScF3
_chemical_formula_sum   'Sc1 F3'
_cell_volume   44.06302208
_cell_formula_units_Z   1
loop_
 _symmetry_equiv_pos_site_id
 _symmetry_equiv_pos_as_xyz
  1  'x, y, z'
loop_
 _atom_site_type_symbol
 _atom_site_label
 _atom_site_symmetry_multiplicity
 _atom_site_fract_x
 _atom_site_fract_y
 _atom_site_fract_z
 _atom_site_occupancy
  Sc  Sc0  1  0.000859  0.000000  0.001717  1
  F  F1  1  0.499385  0.186714  0.499288  1
  F  F2  1  0.999903  0.813286  0.499288  1
  F  F3  1  0.499854  0.500000  0.999707  1
