# generated using pymatgen
data_Ca3Si2(H3O5)2
_symmetry_space_group_name_H-M   'P 1'
_cell_length_a   8.63236916
_cell_length_b   8.63236916
_cell_length_c   13.39583595
_cell_angle_alpha   48.06932741
_cell_angle_beta   131.93067259
_cell_angle_gamma   141.55138590
_symmetry_Int_Tables_number   1
_chemical_formula_structural   Ca3Si2(H3O5)2
_chemical_formula_sum   'Ca6 Si4 H12 O20'
_cell_volume   438.54384998
_cell_formula_units_Z   2
loop_
 _symmetry_equiv_pos_site_id
 _symmetry_equiv_pos_as_xyz
  1  'x, y, z'
loop_
 _atom_site_type_symbol
 _atom_site_label
 _atom_site_symmetry_multiplicity
 _atom_site_fract_x
 _atom_site_fract_y
 _atom_site_fract_z
 _atom_site_occupancy
  Ca  Ca0  1  0.158235  0.765200  0.792963  1
  Ca  Ca1  1  0.234800  0.841765  0.292963  1
  Ca  Ca2  1  0.747036  0.145432  0.713827  1
  Ca  Ca3  1  0.854568  0.252964  0.213827  1
  Ca  Ca4  1  0.472673  0.463159  0.542041  1
  Ca  Ca5  1  0.536841  0.527327  0.042041  1
  Si  Si6  1  0.059199  0.828320  0.503441  1
  Si  Si7  1  0.171680  0.940801  0.003441  1
  Si  Si8  1  0.884605  0.149997  0.503158  1
  Si  Si9  1  0.850003  0.115395  0.003158  1
  H  H10  1  0.092934  0.097023  0.737442  1
  H  H11  1  0.902977  0.907066  0.237442  1
  H  H12  1  0.007989  0.528250  0.502124  1
  H  H13  1  0.471750  0.992011  0.002124  1
  H  H14  1  0.713606  0.391196  0.872899  1
  H  H15  1  0.608804  0.286394  0.372899  1
  H  H16  1  0.650241  0.596052  0.769568  1
  H  H17  1  0.403948  0.349759  0.269568  1
  H  H18  1  0.316160  0.427820  0.796993  1
  H  H19  1  0.572180  0.683840  0.296993  1
  H  H20  1  0.354186  0.674584  0.658372  1
  H  H21  1  0.325416  0.645814  0.158372  1
  O  O22  1  0.086059  0.110156  0.842776  1
  O  O23  1  0.889844  0.913941  0.342776  1
  O  O24  1  0.092937  0.093468  0.661088  1
  O  O25  1  0.906532  0.907063  0.161088  1
  O  O26  1  0.795571  0.240784  0.521085  1
  O  O27  1  0.759216  0.204429  0.021085  1
  O  O28  1  0.154993  0.728797  0.491398  1
  O  O29  1  0.271203  0.845007  0.991398  1
  O  O30  1  0.601809  0.931653  0.898451  1
  O  O31  1  0.068347  0.398191  0.398451  1
  O  O32  1  0.098145  0.366246  0.942926  1
  O  O33  1  0.633754  0.901855  0.442926  1
  O  O34  1  0.875663  0.575198  0.608903  1
  O  O35  1  0.424802  0.124337  0.108903  1
  O  O36  1  0.322341  0.053311  0.582497  1
  O  O37  1  0.946689  0.677659  0.082497  1
  O  O38  1  0.700706  0.521466  0.772126  1
  O  O39  1  0.478534  0.299294  0.272126  1
  O  O40  1  0.450006  0.626981  0.761670  1
  O  O41  1  0.373019  0.549994  0.261670  1
