# generated using pymatgen
data_Mo2RuSe4
_symmetry_space_group_name_H-M   'P 1'
_cell_length_a   6.72898971
_cell_length_b   13.52435045
_cell_length_c   9.30826837
_cell_angle_alpha   46.55616597
_cell_angle_beta   94.93143658
_cell_angle_gamma   93.82943539
_symmetry_Int_Tables_number   1
_chemical_formula_structural   Mo2RuSe4
_chemical_formula_sum   'Mo8 Ru4 Se16'
_cell_volume   612.72546322
_cell_formula_units_Z   4
loop_
 _symmetry_equiv_pos_site_id
 _symmetry_equiv_pos_as_xyz
  1  'x, y, z'
loop_
 _atom_site_type_symbol
 _atom_site_label
 _atom_site_symmetry_multiplicity
 _atom_site_fract_x
 _atom_site_fract_y
 _atom_site_fract_z
 _atom_site_occupancy
  Mo  Mo0  1  0.233742  0.933208  0.548001  1
  Mo  Mo1  1  0.233482  0.434053  0.546233  1
  Mo  Mo2  1  0.417073  0.654364  0.238009  1
  Mo  Mo3  1  0.456486  0.088680  0.584874  1
  Mo  Mo4  1  0.543514  0.911320  0.415126  1
  Mo  Mo5  1  0.582927  0.345636  0.761991  1
  Mo  Mo6  1  0.766518  0.565947  0.453767  1
  Mo  Mo7  1  0.766258  0.066792  0.451999  1
  Ru  Ru8  1  0.451462  0.591555  0.589656  1
  Ru  Ru9  1  0.412075  0.162234  0.227642  1
  Ru  Ru10  1  0.587925  0.837766  0.772358  1
  Ru  Ru11  1  0.548538  0.408445  0.410344  1
  Se  Se12  1  0.133084  0.680197  0.374957  1
  Se  Se13  1  0.130978  0.180964  0.367959  1
  Se  Se14  1  0.280054  0.871588  0.876841  1
  Se  Se15  1  0.264876  0.382707  0.869794  1
  Se  Se16  1  0.220899  0.495529  0.220052  1
  Se  Se17  1  0.215699  0.007064  0.210562  1
  Se  Se18  1  0.370367  0.696497  0.737316  1
  Se  Se19  1  0.374736  0.201781  0.719428  1
  Se  Se20  1  0.625264  0.798219  0.280572  1
  Se  Se21  1  0.629633  0.303503  0.262684  1
  Se  Se22  1  0.779101  0.504471  0.779948  1
  Se  Se23  1  0.735124  0.617293  0.130206  1
  Se  Se24  1  0.784301  0.992935  0.789438  1
  Se  Se25  1  0.719946  0.128412  0.123159  1
  Se  Se26  1  0.869022  0.819036  0.632041  1
  Se  Se27  1  0.866916  0.319803  0.625043  1
