# generated using pymatgen
data_CdHg3C6S6(N3Cl)2
_symmetry_space_group_name_H-M   'P 1'
_cell_length_a   21.47816230
_cell_length_b   21.47816251
_cell_length_c   21.47816233
_cell_angle_alpha   30.73005603
_cell_angle_beta   30.73005506
_cell_angle_gamma   30.73005691
_symmetry_Int_Tables_number   1
_chemical_formula_structural   CdHg3C6S6(N3Cl)2
_chemical_formula_sum   'Cd4 Hg12 C24 S24 N24 Cl8'
_cell_volume   2294.16685154
_cell_formula_units_Z   4
loop_
 _symmetry_equiv_pos_site_id
 _symmetry_equiv_pos_as_xyz
  1  'x, y, z'
loop_
 _atom_site_type_symbol
 _atom_site_label
 _atom_site_symmetry_multiplicity
 _atom_site_fract_x
 _atom_site_fract_y
 _atom_site_fract_z
 _atom_site_occupancy
  Cd  Cd0  1  0.224260  0.224260  0.224260  1
  Cd  Cd1  1  0.041495  0.041495  0.041495  1
  Cd  Cd2  1  0.724260  0.724260  0.724260  1
  Cd  Cd3  1  0.541495  0.541495  0.541495  1
  Hg  Hg4  1  0.851742  0.778739  0.236028  1
  Hg  Hg5  1  0.778739  0.236028  0.851742  1
  Hg  Hg6  1  0.049710  0.387495  0.502141  1
  Hg  Hg7  1  0.002141  0.887495  0.549710  1
  Hg  Hg8  1  0.887495  0.549710  0.002141  1
  Hg  Hg9  1  0.236028  0.851742  0.778739  1
  Hg  Hg10  1  0.502141  0.049710  0.387495  1
  Hg  Hg11  1  0.351742  0.736028  0.278739  1
  Hg  Hg12  1  0.278739  0.351742  0.736028  1
  Hg  Hg13  1  0.549710  0.002141  0.887495  1
  Hg  Hg14  1  0.736028  0.278739  0.351742  1
  Hg  Hg15  1  0.387495  0.502141  0.049710  1
  C  C16  1  0.373644  0.423644  0.984989  1
  C  C17  1  0.000610  0.507386  0.578630  1
  C  C18  1  0.388894  0.795375  0.337064  1
  C  C19  1  0.984989  0.373644  0.423644  1
  C  C20  1  0.251019  0.772625  0.192504  1
  C  C21  1  0.692504  0.272625  0.751019  1
  C  C22  1  0.484989  0.923644  0.873644  1
  C  C23  1  0.192504  0.251019  0.772625  1
  C  C24  1  0.795375  0.337064  0.388894  1
  C  C25  1  0.500610  0.078630  0.007386  1
  C  C26  1  0.888894  0.837064  0.295375  1
  C  C27  1  0.295375  0.888894  0.837064  1
  C  C28  1  0.272625  0.751019  0.692504  1
  C  C29  1  0.007386  0.500610  0.078630  1
  C  C30  1  0.337064  0.388894  0.795375  1
  C  C31  1  0.078630  0.007386  0.500610  1
  C  C32  1  0.507386  0.578630  0.000610  1
  C  C33  1  0.578630  0.000610  0.507386  1
  C  C34  1  0.751019  0.692504  0.272625  1
  C  C35  1  0.837064  0.295375  0.888894  1
  C  C36  1  0.873644  0.484989  0.923644  1
  C  C37  1  0.923644  0.873644  0.484989  1
  C  C38  1  0.772625  0.192504  0.251019  1
  C  C39  1  0.423644  0.984989  0.373644  1
  S  S40  1  0.133176  0.860859  0.755260  1
  S  S41  1  0.955436  0.380534  0.001575  1
  S  S42  1  0.633176  0.255260  0.360859  1
  S  S43  1  0.501575  0.880534  0.455436  1
  S  S44  1  0.013544  0.898415  0.645393  1
  S  S45  1  0.880534  0.455436  0.501575  1
  S  S46  1  0.755260  0.133176  0.860859  1
  S  S47  1  0.513544  0.145393  0.398415  1
  S  S48  1  0.312242  0.908209  0.249559  1
  S  S49  1  0.001575  0.955436  0.380534  1
  S  S50  1  0.812242  0.749559  0.408209  1
  S  S51  1  0.398415  0.513544  0.145393  1
  S  S52  1  0.249559  0.312242  0.908209  1
  S  S53  1  0.645393  0.013544  0.898415  1
  S  S54  1  0.360859  0.633176  0.255260  1
  S  S55  1  0.860859  0.755260  0.133176  1
  S  S56  1  0.408209  0.812242  0.749559  1
  S  S57  1  0.749559  0.408209  0.812242  1
  S  S58  1  0.255260  0.360859  0.633176  1
  S  S59  1  0.898415  0.645393  0.013544  1
  S  S60  1  0.380534  0.001575  0.955436  1
  S  S61  1  0.455436  0.501575  0.880534  1
  S  S62  1  0.145393  0.398415  0.513544  1
  S  S63  1  0.908209  0.249559  0.312242  1
  N  N64  1  0.817393  0.555404  0.868735  1
  N  N65  1  0.440992  0.717746  0.400052  1
  N  N66  1  0.127418  0.082168  0.399872  1
  N  N67  1  0.646348  0.369463  0.674675  1
  N  N68  1  0.082168  0.399872  0.127418  1
  N  N69  1  0.146348  0.174675  0.869463  1
  N  N70  1  0.717746  0.400052  0.440992  1
  N  N71  1  0.055404  0.317393  0.368735  1
  N  N72  1  0.368735  0.055404  0.317393  1
  N  N73  1  0.900052  0.217746  0.940992  1
  N  N74  1  0.174675  0.869463  0.146348  1
  N  N75  1  0.940992  0.900052  0.217746  1
  N  N76  1  0.217746  0.940992  0.900052  1
  N  N77  1  0.399872  0.127418  0.082168  1
  N  N78  1  0.868735  0.817393  0.555404  1
  N  N79  1  0.317393  0.368735  0.055404  1
  N  N80  1  0.582168  0.627418  0.899872  1
  N  N81  1  0.674675  0.646348  0.369463  1
  N  N82  1  0.369463  0.674675  0.646348  1
  N  N83  1  0.627418  0.899872  0.582168  1
  N  N84  1  0.400052  0.440992  0.717746  1
  N  N85  1  0.899872  0.582168  0.627418  1
  N  N86  1  0.869463  0.146348  0.174675  1
  N  N87  1  0.555404  0.868735  0.817393  1
  Cl  Cl88  1  0.800058  0.800058  0.800058  1
  Cl  Cl89  1  0.067844  0.120711  0.721080  1
  Cl  Cl90  1  0.567844  0.221080  0.620711  1
  Cl  Cl91  1  0.721080  0.067844  0.120711  1
  Cl  Cl92  1  0.221080  0.620711  0.567844  1
  Cl  Cl93  1  0.300058  0.300058  0.300058  1
  Cl  Cl94  1  0.620711  0.567844  0.221080  1
  Cl  Cl95  1  0.120711  0.721080  0.067844  1
