# generated using pymatgen
data_B5H15C3N
_symmetry_space_group_name_H-M   'P 1'
_cell_length_a   8.56770954
_cell_length_b   12.22476903
_cell_length_c   16.96814297
_cell_angle_alpha   90.00000000
_cell_angle_beta   90.00000000
_cell_angle_gamma   100.70295863
_symmetry_Int_Tables_number   1
_chemical_formula_structural   B5H15C3N
_chemical_formula_sum   'B40 H120 C24 N8'
_cell_volume   1746.29612361
_cell_formula_units_Z   8
loop_
 _symmetry_equiv_pos_site_id
 _symmetry_equiv_pos_as_xyz
  1  'x, y, z'
loop_
 _atom_site_type_symbol
 _atom_site_label
 _atom_site_symmetry_multiplicity
 _atom_site_fract_x
 _atom_site_fract_y
 _atom_site_fract_z
 _atom_site_occupancy
  B  B0  1  0.846040  0.642100  0.831325  1
  B  B1  1  0.132274  0.209328  0.192136  1
  B  B2  1  0.871177  0.176220  0.564023  1
  B  B3  1  0.999168  0.239400  0.634288  1
  B  B4  1  0.000832  0.260600  0.134288  1
  B  B5  1  0.674787  0.701833  0.806320  1
  B  B6  1  0.292994  0.169771  0.136494  1
  B  B7  1  0.325213  0.298167  0.193680  1
  B  B8  1  0.128823  0.323780  0.064023  1
  B  B9  1  0.707006  0.330229  0.636494  1
  B  B10  1  0.290489  0.250527  0.045183  1
  B  B11  1  0.437903  0.780269  0.386571  1
  B  B12  1  0.322933  0.879573  0.396962  1
  B  B13  1  0.846040  0.142100  0.668675  1
  B  B14  1  0.709511  0.249473  0.545183  1
  B  B15  1  0.108071  0.675165  0.412370  1
  B  B16  1  0.153960  0.857900  0.331325  1
  B  B17  1  0.000832  0.760600  0.365712  1
  B  B18  1  0.108071  0.175165  0.087630  1
  B  B19  1  0.871177  0.676220  0.935977  1
  B  B20  1  0.562097  0.219731  0.613429  1
  B  B21  1  0.677067  0.120427  0.603038  1
  B  B22  1  0.153960  0.357900  0.168675  1
  B  B23  1  0.322933  0.379573  0.103038  1
  B  B24  1  0.290489  0.750527  0.454817  1
  B  B25  1  0.325213  0.798167  0.306320  1
  B  B26  1  0.292994  0.669771  0.363506  1
  B  B27  1  0.437903  0.280269  0.113429  1
  B  B28  1  0.709511  0.749473  0.954817  1
  B  B29  1  0.674787  0.201833  0.693680  1
  B  B30  1  0.677067  0.620427  0.896962  1
  B  B31  1  0.891929  0.324835  0.587630  1
  B  B32  1  0.867726  0.290672  0.692136  1
  B  B33  1  0.867726  0.790672  0.807864  1
  B  B34  1  0.562097  0.719731  0.886571  1
  B  B35  1  0.132274  0.709328  0.307864  1
  B  B36  1  0.891929  0.824835  0.912370  1
  B  B37  1  0.707006  0.830229  0.863506  1
  B  B38  1  0.128823  0.823780  0.435977  1
  B  B39  1  0.999168  0.739400  0.865712  1
  H  H40  1  0.153790  0.855113  0.161138  1
  H  H41  1  0.511658  0.569215  0.272100  1
  H  H42  1  0.953152  0.588559  0.584533  1
  H  H43  1  0.728822  0.036053  0.997167  1
  H  H44  1  0.578780  0.284521  0.107917  1
  H  H45  1  0.318981  0.715130  0.124004  1
  H  H46  1  0.985502  0.769220  0.114753  1
  H  H47  1  0.847758  0.370175  0.922585  1
  H  H48  1  0.323248  0.079190  0.149626  1
  H  H49  1  0.014498  0.230780  0.885247  1
  H  H50  1  0.607549  0.636141  0.473912  1
  H  H51  1  0.398702  0.916543  0.073101  1
  H  H52  1  0.308900  0.338029  0.757893  1
  H  H53  1  0.676752  0.420810  0.649626  1
  H  H54  1  0.321751  0.729492  0.521911  1
  H  H55  1  0.046848  0.911441  0.084533  1
  H  H56  1  0.654755  0.437178  0.320050  1
  H  H57  1  0.691100  0.661971  0.242107  1
  H  H58  1  0.488342  0.930785  0.772100  1
  H  H59  1  0.280874  0.947429  0.587703  1
  H  H60  1  0.879325  0.220563  0.005327  1
  H  H61  1  0.420967  0.068230  0.684002  1
  H  H62  1  0.844589  0.519052  0.293642  1
  H  H63  1  0.318981  0.215130  0.375996  1
  H  H64  1  0.464800  0.384697  0.827718  1
  H  H65  1  0.846210  0.644887  0.661138  1
  H  H66  1  0.120675  0.279437  0.505327  1
  H  H67  1  0.911247  0.842314  0.749013  1
  H  H68  1  0.153790  0.355113  0.338862  1
  H  H69  1  0.921385  0.127182  0.510728  1
  H  H70  1  0.535200  0.615303  0.172282  1
  H  H71  1  0.140328  0.745582  0.859519  1
  H  H72  1  0.676752  0.920810  0.850374  1
  H  H73  1  0.420967  0.568230  0.815998  1
  H  H74  1  0.831717  0.449533  0.119813  1
  H  H75  1  0.789487  0.379033  0.257613  1
  H  H76  1  0.847758  0.870175  0.577415  1
  H  H77  1  0.831717  0.949533  0.380187  1
  H  H78  1  0.691100  0.161971  0.257893  1
  H  H79  1  0.271178  0.463947  0.497167  1
  H  H80  1  0.620671  0.525314  0.912619  1
  H  H81  1  0.953152  0.088559  0.915467  1
  H  H82  1  0.958958  0.907338  0.945996  1
  H  H83  1  0.985502  0.269220  0.385247  1
  H  H84  1  0.678249  0.270508  0.478089  1
  H  H85  1  0.127742  0.435728  0.206419  1
  H  H86  1  0.872258  0.064272  0.706419  1
  H  H87  1  0.612341  0.179282  0.757105  1
  H  H88  1  0.210513  0.120967  0.757613  1
  H  H89  1  0.387659  0.320718  0.257105  1
  H  H90  1  0.719126  0.552571  0.087703  1
  H  H91  1  0.844589  0.019052  0.206358  1
  H  H92  1  0.859672  0.754418  0.359519  1
  H  H93  1  0.078615  0.372818  0.010728  1
  H  H94  1  0.078615  0.872818  0.489272  1
  H  H95  1  0.669417  0.323229  0.977968  1
  H  H96  1  0.120318  0.910290  0.656461  1
  H  H97  1  0.879682  0.589710  0.156461  1
  H  H98  1  0.620671  0.025314  0.587381  1
  H  H99  1  0.120318  0.410290  0.843539  1
  H  H100  1  0.879682  0.089710  0.343539  1
  H  H101  1  0.958958  0.407338  0.554004  1
  H  H102  1  0.088753  0.657686  0.249013  1
  H  H103  1  0.041042  0.092662  0.054004  1
  H  H104  1  0.210513  0.620967  0.742387  1
  H  H105  1  0.421220  0.715479  0.892083  1
  H  H106  1  0.872258  0.564272  0.793581  1
  H  H107  1  0.345245  0.062822  0.820050  1
  H  H108  1  0.127742  0.935728  0.293581  1
  H  H109  1  0.921385  0.627182  0.989272  1
  H  H110  1  0.330583  0.176771  0.477968  1
  H  H111  1  0.321751  0.229492  0.978089  1
  H  H112  1  0.379329  0.974686  0.412619  1
  H  H113  1  0.681019  0.784870  0.624004  1
  H  H114  1  0.152242  0.129825  0.422585  1
  H  H115  1  0.719126  0.052571  0.412297  1
  H  H116  1  0.014498  0.730780  0.614753  1
  H  H117  1  0.678249  0.770508  0.021911  1
  H  H118  1  0.607549  0.136141  0.026088  1
  H  H119  1  0.308900  0.838029  0.742107  1
  H  H120  1  0.879325  0.720563  0.494673  1
  H  H121  1  0.578780  0.784521  0.392083  1
  H  H122  1  0.846210  0.144887  0.838862  1
  H  H123  1  0.168283  0.050467  0.619813  1
  H  H124  1  0.789487  0.879033  0.242387  1
  H  H125  1  0.488342  0.430785  0.727900  1
  H  H126  1  0.579033  0.431770  0.184002  1
  H  H127  1  0.041042  0.592662  0.445996  1
  H  H128  1  0.601298  0.583457  0.573101  1
  H  H129  1  0.654755  0.937178  0.179950  1
  H  H130  1  0.911247  0.342314  0.750987  1
  H  H131  1  0.511658  0.069215  0.227900  1
  H  H132  1  0.330583  0.676771  0.022032  1
  H  H133  1  0.535200  0.115303  0.327718  1
  H  H134  1  0.155411  0.480948  0.706358  1
  H  H135  1  0.612341  0.679282  0.742895  1
  H  H136  1  0.046848  0.411441  0.415467  1
  H  H137  1  0.155411  0.980948  0.793642  1
  H  H138  1  0.398702  0.416543  0.426899  1
  H  H139  1  0.387659  0.820718  0.242895  1
  H  H140  1  0.681019  0.284870  0.875996  1
  H  H141  1  0.152242  0.629825  0.077415  1
  H  H142  1  0.464800  0.884697  0.672282  1
  H  H143  1  0.323248  0.579190  0.350374  1
  H  H144  1  0.579033  0.931770  0.315998  1
  H  H145  1  0.392451  0.863859  0.973912  1
  H  H146  1  0.140328  0.245582  0.640481  1
  H  H147  1  0.392451  0.363859  0.526088  1
  H  H148  1  0.088753  0.157686  0.250987  1
  H  H149  1  0.728822  0.536053  0.502833  1
  H  H150  1  0.345245  0.562822  0.679950  1
  H  H151  1  0.601298  0.083457  0.926899  1
  H  H152  1  0.271178  0.963947  0.002833  1
  H  H153  1  0.421220  0.215479  0.607917  1
  H  H154  1  0.859672  0.254418  0.140481  1
  H  H155  1  0.669417  0.823229  0.522032  1
  H  H156  1  0.280874  0.447429  0.912297  1
  H  H157  1  0.120675  0.779437  0.994673  1
  H  H158  1  0.379329  0.474686  0.087381  1
  H  H159  1  0.168283  0.550467  0.880187  1
  C  C160  1  0.745759  0.454335  0.274079  1
  C  C161  1  0.087259  0.336886  0.393858  1
  C  C162  1  0.676488  0.607167  0.521475  1
  C  C163  1  0.912741  0.663114  0.606142  1
  C  C164  1  0.216286  0.976884  0.636595  1
  C  C165  1  0.597159  0.092736  0.275645  1
  C  C166  1  0.253165  0.198149  0.431275  1
  C  C167  1  0.783714  0.523116  0.136595  1
  C  C168  1  0.402841  0.907264  0.724355  1
  C  C169  1  0.746835  0.801851  0.568725  1
  C  C170  1  0.746835  0.301851  0.931275  1
  C  C171  1  0.676488  0.107167  0.978525  1
  C  C172  1  0.402841  0.407264  0.775645  1
  C  C173  1  0.323512  0.892833  0.021475  1
  C  C174  1  0.745759  0.954335  0.225921  1
  C  C175  1  0.253165  0.698149  0.068725  1
  C  C176  1  0.597159  0.592736  0.224355  1
  C  C177  1  0.087259  0.836886  0.106142  1
  C  C178  1  0.254241  0.545665  0.725921  1
  C  C179  1  0.783714  0.023116  0.363405  1
  C  C180  1  0.254241  0.045665  0.774079  1
  C  C181  1  0.323512  0.392833  0.478525  1
  C  C182  1  0.912741  0.163114  0.893858  1
  C  C183  1  0.216286  0.476884  0.863405  1
  N  N184  1  0.808438  0.699827  0.544319  1
  N  N185  1  0.808438  0.199827  0.955681  1
  N  N186  1  0.329628  0.004756  0.703506  1
  N  N187  1  0.670372  0.995244  0.296494  1
  N  N188  1  0.329628  0.504756  0.796494  1
  N  N189  1  0.191562  0.800173  0.044319  1
  N  N190  1  0.670372  0.495244  0.203506  1
  N  N191  1  0.191562  0.300173  0.455681  1
