# generated using pymatgen
data_Nd14Cl32O
_symmetry_space_group_name_H-M   'P 1'
_cell_length_a   12.73648462
_cell_length_b   12.73648514
_cell_length_c   12.73648550
_cell_angle_alpha   54.25571631
_cell_angle_beta   54.25571591
_cell_angle_gamma   54.25571526
_symmetry_Int_Tables_number   1
_chemical_formula_structural   Nd14Cl32O
_chemical_formula_sum   'Nd14 Cl32 O1'
_cell_volume   1265.11317991
_cell_formula_units_Z   1
loop_
 _symmetry_equiv_pos_site_id
 _symmetry_equiv_pos_as_xyz
  1  'x, y, z'
loop_
 _atom_site_type_symbol
 _atom_site_label
 _atom_site_symmetry_multiplicity
 _atom_site_fract_x
 _atom_site_fract_y
 _atom_site_fract_z
 _atom_site_occupancy
  Nd  Nd0  1  0.671487  0.200593  0.438890  1
  Nd  Nd1  1  0.755288  0.024254  0.056418  1
  Nd  Nd2  1  0.438890  0.671487  0.200593  1
  Nd  Nd3  1  0.328513  0.799407  0.561110  1
  Nd  Nd4  1  0.743533  0.743533  0.743533  1
  Nd  Nd5  1  0.943582  0.244712  0.975746  1
  Nd  Nd6  1  0.256467  0.256467  0.256467  1
  Nd  Nd7  1  0.975746  0.943582  0.244712  1
  Nd  Nd8  1  0.056418  0.755288  0.024254  1
  Nd  Nd9  1  0.799407  0.561110  0.328513  1
  Nd  Nd10  1  0.200593  0.438890  0.671487  1
  Nd  Nd11  1  0.024254  0.056418  0.755288  1
  Nd  Nd12  1  0.244712  0.975746  0.943582  1
  Nd  Nd13  1  0.561110  0.328513  0.799407  1
  Cl  Cl14  1  0.059865  0.453160  0.127721  1
  Cl  Cl15  1  0.162489  0.215052  0.703122  1
  Cl  Cl16  1  0.190409  0.234729  0.932131  1
  Cl  Cl17  1  0.703122  0.162489  0.215052  1
  Cl  Cl18  1  0.026425  0.401722  0.429544  1
  Cl  Cl19  1  0.400122  0.400122  0.400122  1
  Cl  Cl20  1  0.127721  0.059865  0.453160  1
  Cl  Cl21  1  0.837511  0.784948  0.296878  1
  Cl  Cl22  1  0.784948  0.296878  0.837511  1
  Cl  Cl23  1  0.546840  0.872279  0.940135  1
  Cl  Cl24  1  0.067869  0.809591  0.765271  1
  Cl  Cl25  1  0.932131  0.190409  0.234729  1
  Cl  Cl26  1  0.765271  0.067869  0.809591  1
  Cl  Cl27  1  0.453160  0.127721  0.059865  1
  Cl  Cl28  1  0.310918  0.518389  0.760313  1
  Cl  Cl29  1  0.872279  0.940135  0.546840  1
  Cl  Cl30  1  0.234729  0.932131  0.190409  1
  Cl  Cl31  1  0.239687  0.689082  0.481611  1
  Cl  Cl32  1  0.598278  0.570456  0.973575  1
  Cl  Cl33  1  0.760313  0.310918  0.518389  1
  Cl  Cl34  1  0.215052  0.703122  0.162489  1
  Cl  Cl35  1  0.570456  0.973575  0.598278  1
  Cl  Cl36  1  0.809591  0.765271  0.067869  1
  Cl  Cl37  1  0.940135  0.546840  0.872279  1
  Cl  Cl38  1  0.518389  0.760313  0.310918  1
  Cl  Cl39  1  0.296878  0.837511  0.784948  1
  Cl  Cl40  1  0.689082  0.481611  0.239687  1
  Cl  Cl41  1  0.973575  0.598278  0.570456  1
  Cl  Cl42  1  0.401722  0.429544  0.026425  1
  Cl  Cl43  1  0.481611  0.239687  0.689082  1
  Cl  Cl44  1  0.599878  0.599878  0.599878  1
  Cl  Cl45  1  0.429544  0.026425  0.401722  1
  O  O46  1  0.000000  0.000000  0.000000  1
