# generated using pymatgen
data_UGa
_symmetry_space_group_name_H-M   'P 1'
_cell_length_a   6.06613050
_cell_length_b   6.06613056
_cell_length_c   10.92320167
_cell_angle_alpha   90.00000000
_cell_angle_beta   90.00000000
_cell_angle_gamma   126.79168187
_symmetry_Int_Tables_number   1
_chemical_formula_structural   UGa
_chemical_formula_sum   'U8 Ga8'
_cell_volume   321.88998027
_cell_formula_units_Z   8
loop_
 _symmetry_equiv_pos_site_id
 _symmetry_equiv_pos_as_xyz
  1  'x, y, z'
loop_
 _atom_site_type_symbol
 _atom_site_label
 _atom_site_symmetry_multiplicity
 _atom_site_fract_x
 _atom_site_fract_y
 _atom_site_fract_z
 _atom_site_occupancy
  U  U0  1  0.765550  0.234450  0.000000  1
  U  U1  1  0.765550  0.234450  0.500000  1
  U  U2  1  0.234450  0.765550  0.500000  1
  U  U3  1  0.000000  0.000000  0.000000  1
  U  U4  1  0.234450  0.765550  0.000000  1
  U  U5  1  0.002625  0.002625  0.250000  1
  U  U6  1  0.000000  0.000000  0.500000  1
  U  U7  1  0.997375  0.997375  0.750000  1
  Ga  Ga8  1  0.503266  0.503266  0.126042  1
  Ga  Ga9  1  0.991659  0.495212  0.250000  1
  Ga  Ga10  1  0.496734  0.496734  0.626042  1
  Ga  Ga11  1  0.504788  0.008341  0.750000  1
  Ga  Ga12  1  0.008341  0.504788  0.750000  1
  Ga  Ga13  1  0.496734  0.496734  0.873958  1
  Ga  Ga14  1  0.503266  0.503266  0.373958  1
  Ga  Ga15  1  0.495212  0.991659  0.250000  1
