# generated using pymatgen
data_Ce17O32
_symmetry_space_group_name_H-M   'P 1'
_cell_length_a   66.29136774
_cell_length_b   41.07550474
_cell_length_c   10.30843234
_cell_angle_alpha   18.01949028
_cell_angle_beta   19.05567014
_cell_angle_gamma   4.70807612
_symmetry_Int_Tables_number   1
_chemical_formula_structural   Ce17O32
_chemical_formula_sum   'Ce17 O32'
_cell_volume   709.11343642
_cell_formula_units_Z   1
loop_
 _symmetry_equiv_pos_site_id
 _symmetry_equiv_pos_as_xyz
  1  'x, y, z'
loop_
 _atom_site_type_symbol
 _atom_site_label
 _atom_site_symmetry_multiplicity
 _atom_site_fract_x
 _atom_site_fract_y
 _atom_site_fract_z
 _atom_site_occupancy
  Ce  Ce0  1  0.989118  0.021212  0.986817  1
  Ce  Ce1  1  0.062285  0.979890  0.060902  1
  Ce  Ce2  1  0.107374  0.015401  0.998472  1
  Ce  Ce3  1  0.190479  0.978143  0.982223  1
  Ce  Ce4  1  0.245714  0.987553  0.992585  1
  Ce  Ce5  1  0.283698  0.012447  0.007415  1
  Ce  Ce6  1  0.338933  0.021857  0.017777  1
  Ce  Ce7  1  0.422038  0.984599  0.001528  1
  Ce  Ce8  1  0.467127  0.020110  0.939098  1
  Ce  Ce9  1  0.540294  0.978788  0.013183  1
  Ce  Ce10  1  0.565603  0.044874  0.965077  1
  Ce  Ce11  1  0.642510  0.009842  0.992644  1
  Ce  Ce12  1  0.707949  0.997185  0.997129  1
  Ce  Ce13  1  0.764706  0.000000  0.000000  1
  Ce  Ce14  1  0.821462  0.002815  0.002871  1
  Ce  Ce15  1  0.886902  0.990158  0.007356  1
  Ce  Ce16  1  0.963808  0.955126  0.034923  1
  O  O17  1  0.069865  0.257723  0.242414  1
  O  O18  1  0.166638  0.206362  0.198905  1
  O  O19  1  0.194867  0.245996  0.249362  1
  O  O20  1  0.284471  0.191454  0.278936  1
  O  O21  1  0.329054  0.200319  0.299707  1
  O  O22  1  0.372656  0.243346  0.245116  1
  O  O23  1  0.033677  0.771990  0.722360  1
  O  O24  1  0.411663  0.285028  0.210959  1
  O  O25  1  0.117749  0.714972  0.789041  1
  O  O26  1  0.495735  0.228010  0.277640  1
  O  O27  1  0.156756  0.756654  0.754884  1
  O  O28  1  0.527871  0.278317  0.231690  1
  O  O29  1  0.200358  0.799681  0.700293  1
  O  O30  1  0.607743  0.239930  0.250434  1
  O  O31  1  0.667815  0.238894  0.258888  1
  O  O32  1  0.244941  0.808546  0.721064  1
  O  O33  1  0.334544  0.754004  0.750638  1
  O  O34  1  0.705885  0.285184  0.221955  1
  O  O35  1  0.362774  0.793638  0.801095  1
  O  O36  1  0.742877  0.310997  0.225268  1
  O  O37  1  0.839459  0.245165  0.265786  1
  O  O38  1  0.459546  0.742277  0.757586  1
  O  O39  1  0.861592  0.291719  0.311105  1
  O  O40  1  0.955075  0.250755  0.245917  1
  O  O41  1  0.574336  0.749245  0.754083  1
  O  O42  1  0.667820  0.708281  0.688895  1
  O  O43  1  0.689952  0.754835  0.734214  1
  O  O44  1  0.786535  0.689003  0.774732  1
  O  O45  1  0.823527  0.714816  0.778045  1
  O  O46  1  0.861597  0.761106  0.741112  1
  O  O47  1  0.921669  0.760070  0.749566  1
  O  O48  1  0.001541  0.721683  0.768310  1
