# generated using pymatgen
data_Ba2La3Si3O12F
_symmetry_space_group_name_H-M   'P 1'
_cell_length_a   10.01028061
_cell_length_b   10.06285290
_cell_length_c   14.90735235
_cell_angle_alpha   90.06722278
_cell_angle_beta   90.01106194
_cell_angle_gamma   120.15457795
_symmetry_Int_Tables_number   1
_chemical_formula_structural   Ba2La3Si3O12F
_chemical_formula_sum   'Ba8 La12 Si12 O48 F4'
_cell_volume   1298.43277027
_cell_formula_units_Z   4
loop_
 _symmetry_equiv_pos_site_id
 _symmetry_equiv_pos_as_xyz
  1  'x, y, z'
loop_
 _atom_site_type_symbol
 _atom_site_label
 _atom_site_symmetry_multiplicity
 _atom_site_fract_x
 _atom_site_fract_y
 _atom_site_fract_z
 _atom_site_occupancy
  Ba  Ba0  1  0.238226  0.982690  0.125060  1
  Ba  Ba1  1  0.335999  0.667776  0.501720  1
  Ba  Ba2  1  0.333129  0.666145  0.748229  1
  Ba  Ba3  1  0.747041  0.763439  0.125646  1
  Ba  Ba4  1  0.666555  0.333862  0.750194  1
  Ba  Ba5  1  0.665022  0.334761  0.998569  1
  Ba  Ba6  1  0.666065  0.331852  0.500119  1
  Ba  Ba7  1  0.763636  0.016404  0.375743  1
  La  La8  1  0.250154  0.991917  0.623894  1
  La  La9  1  0.007072  0.261848  0.126048  1
  La  La10  1  0.006125  0.258619  0.625115  1
  La  La11  1  0.334685  0.668652  0.000801  1
  La  La12  1  0.342611  0.671967  0.252619  1
  La  La13  1  0.258834  0.250442  0.372599  1
  La  La14  1  0.261024  0.253214  0.877913  1
  La  La15  1  0.739877  0.746475  0.622866  1
  La  La16  1  0.664755  0.334810  0.247261  1
  La  La17  1  0.993847  0.736035  0.373072  1
  La  La18  1  0.993584  0.738011  0.876580  1
  La  La19  1  0.747466  0.007032  0.875867  1
  Si  Si20  1  0.030197  0.397763  0.369494  1
  Si  Si21  1  0.030913  0.389435  0.877563  1
  Si  Si22  1  0.358732  0.965806  0.372512  1
  Si  Si23  1  0.357861  0.966601  0.874083  1
  Si  Si24  1  0.397521  0.371020  0.127374  1
  Si  Si25  1  0.384823  0.359317  0.625092  1
  Si  Si26  1  0.601400  0.629510  0.372873  1
  Si  Si27  1  0.607812  0.642024  0.874532  1
  Si  Si28  1  0.633213  0.034060  0.124294  1
  Si  Si29  1  0.640315  0.027231  0.628848  1
  Si  Si30  1  0.975746  0.615049  0.625203  1
  Si  Si31  1  0.976168  0.597927  0.126644  1
  O  O32  1  0.250167  0.917269  0.464276  1
  O  O33  1  0.239302  0.886594  0.959472  1
  O  O34  1  0.232220  0.889783  0.290224  1
  O  O35  1  0.243083  0.905475  0.785277  1
  O  O36  1  0.163976  0.655700  0.125502  1
  O  O37  1  0.164396  0.708841  0.624646  1
  O  O38  1  0.123752  0.588377  0.368641  1
  O  O39  1  0.111905  0.579582  0.880721  1
  O  O40  1  0.097209  0.345064  0.282548  1
  O  O41  1  0.094368  0.334975  0.790413  1
  O  O42  1  0.079083  0.332359  0.458105  1
  O  O43  1  0.100639  0.347010  0.967560  1
  O  O44  1  0.471241  0.890165  0.879070  1
  O  O45  1  0.457960  0.876834  0.367705  1
  O  O46  1  0.330236  0.493425  0.125545  1
  O  O47  1  0.290963  0.453737  0.624587  1
  O  O48  1  0.502185  0.846347  0.124385  1
  O  O49  1  0.546736  0.839526  0.624974  1
  O  O50  1  0.409199  0.520594  0.372383  1
  O  O51  1  0.416742  0.527998  0.879502  1
  O  O52  1  0.337998  0.261881  0.218382  1
  O  O53  1  0.336548  0.263963  0.035591  1
  O  O54  1  0.335062  0.243760  0.713432  1
  O  O55  1  0.336039  0.244231  0.536034  1
  O  O56  1  0.659146  0.731461  0.466056  1
  O  O57  1  0.634624  0.742436  0.286715  1
  O  O58  1  0.646269  0.759501  0.960195  1
  O  O59  1  0.661252  0.754951  0.785427  1
  O  O60  1  0.586713  0.460092  0.133130  1
  O  O61  1  0.573838  0.476380  0.625810  1
  O  O62  1  0.468586  0.155389  0.364276  1
  O  O63  1  0.453875  0.154297  0.876483  1
  O  O64  1  0.699364  0.545564  0.876610  1
  O  O65  1  0.684713  0.523856  0.363690  1
  O  O66  1  0.542946  0.131589  0.132333  1
  O  O67  1  0.520576  0.095620  0.627033  1
  O  O68  1  0.928968  0.658952  0.036218  1
  O  O69  1  0.908539  0.662568  0.536299  1
  O  O70  1  0.922168  0.652795  0.217253  1
  O  O71  1  0.908687  0.664146  0.713413  1
  O  O72  1  0.879369  0.407264  0.130560  1
  O  O73  1  0.905325  0.427164  0.625800  1
  O  O74  1  0.844338  0.335124  0.362839  1
  O  O75  1  0.842876  0.300952  0.876457  1
  O  O76  1  0.759234  0.094359  0.206942  1
  O  O77  1  0.745049  0.081431  0.033697  1
  O  O78  1  0.753191  0.091596  0.718823  1
  O  O79  1  0.763061  0.103276  0.545140  1
  F  F80  1  0.004375  0.028161  0.125908  1
  F  F81  1  0.001123  0.999510  0.878132  1
  F  F82  1  0.021116  0.996342  0.372658  1
  F  F83  1  0.999260  0.000037  0.624699  1
