# generated using pymatgen
data_Mg3AlFe(SiO4)3
_symmetry_space_group_name_H-M   'P 1'
_cell_length_a   4.86541615
_cell_length_b   5.03465543
_cell_length_c   14.06691078
_cell_angle_alpha   90.00000000
_cell_angle_beta   90.05156386
_cell_angle_gamma   90.00000000
_symmetry_Int_Tables_number   1
_chemical_formula_structural   Mg3AlFe(SiO4)3
_chemical_formula_sum   'Mg6 Al2 Fe2 Si6 O24'
_cell_volume   344.57860046
_cell_formula_units_Z   2
loop_
 _symmetry_equiv_pos_site_id
 _symmetry_equiv_pos_as_xyz
  1  'x, y, z'
loop_
 _atom_site_type_symbol
 _atom_site_label
 _atom_site_symmetry_multiplicity
 _atom_site_fract_x
 _atom_site_fract_y
 _atom_site_fract_z
 _atom_site_occupancy
  Mg  Mg0  1  0.009221  0.947996  0.368815  1
  Mg  Mg1  1  0.011662  0.945545  0.881982  1
  Mg  Mg2  1  0.488338  0.445545  0.368018  1
  Mg  Mg3  1  0.490779  0.447996  0.881185  1
  Mg  Mg4  1  0.513084  0.563400  0.124481  1
  Mg  Mg5  1  0.986916  0.063400  0.125519  1
  Al  Al6  1  0.006420  0.494106  0.754301  1
  Al  Al7  1  0.493580  0.994106  0.495699  1
  Fe  Fe8  1  0.519100  0.558236  0.624015  1
  Fe  Fe9  1  0.980900  0.058236  0.625985  1
  Si  Si10  1  0.997795  0.506463  0.001203  1
  Si  Si11  1  0.999506  0.506342  0.248341  1
  Si  Si12  1  0.009786  0.491612  0.496340  1
  Si  Si13  1  0.502205  0.006463  0.248797  1
  Si  Si14  1  0.490214  0.991612  0.753660  1
  Si  Si15  1  0.500494  0.006342  0.001659  1
  O  O16  1  0.103378  0.471868  0.124367  1
  O  O17  1  0.119275  0.451411  0.621868  1
  O  O18  1  0.172423  0.187399  0.471898  1
  O  O19  1  0.196423  0.211222  0.274736  1
  O  O20  1  0.199327  0.209408  0.974795  1
  O  O21  1  0.190047  0.172271  0.777005  1
  O  O22  1  0.309953  0.672271  0.472995  1
  O  O23  1  0.300673  0.709408  0.275205  1
  O  O24  1  0.327577  0.687399  0.778102  1
  O  O25  1  0.303577  0.711222  0.975264  1
  O  O26  1  0.396622  0.971868  0.125633  1
  O  O27  1  0.380725  0.951411  0.628132  1
  O  O28  1  0.603421  0.042017  0.368818  1
  O  O29  1  0.605602  0.041497  0.876363  1
  O  O30  1  0.695720  0.303654  0.027947  1
  O  O31  1  0.697537  0.306822  0.221088  1
  O  O32  1  0.705039  0.302477  0.530765  1
  O  O33  1  0.685256  0.286254  0.718590  1
  O  O34  1  0.802463  0.806822  0.028912  1
  O  O35  1  0.804280  0.803654  0.222053  1
  O  O36  1  0.794961  0.802477  0.719235  1
  O  O37  1  0.814744  0.786254  0.531410  1
  O  O38  1  0.894398  0.541497  0.373637  1
  O  O39  1  0.896579  0.542017  0.881182  1
