# generated using pymatgen
data_Cs4Re6C4S9N4
_symmetry_space_group_name_H-M   'P 1'
_cell_length_a   10.04539515
_cell_length_b   10.07995587
_cell_length_c   15.28835266
_cell_angle_alpha   102.17997607
_cell_angle_beta   107.67929332
_cell_angle_gamma   101.84807845
_symmetry_Int_Tables_number   1
_chemical_formula_structural   Cs4Re6C4S9N4
_chemical_formula_sum   'Cs8 Re12 C8 S18 N8'
_cell_volume   1380.10920410
_cell_formula_units_Z   2
loop_
 _symmetry_equiv_pos_site_id
 _symmetry_equiv_pos_as_xyz
  1  'x, y, z'
loop_
 _atom_site_type_symbol
 _atom_site_label
 _atom_site_symmetry_multiplicity
 _atom_site_fract_x
 _atom_site_fract_y
 _atom_site_fract_z
 _atom_site_occupancy
  Cs  Cs0  1  0.276032  0.350179  0.768344  1
  Cs  Cs1  1  0.901315  0.209336  0.399306  1
  Cs  Cs2  1  0.265200  0.896282  0.304324  1
  Cs  Cs3  1  0.723967  0.649821  0.231657  1
  Cs  Cs4  1  0.734802  0.103716  0.695676  1
  Cs  Cs5  1  0.898190  0.683426  0.907036  1
  Cs  Cs6  1  0.101811  0.316576  0.092965  1
  Cs  Cs7  1  0.098684  0.790643  0.600703  1
  Re  Re8  1  0.610865  0.671876  0.498690  1
  Re  Re9  1  0.491803  0.414488  0.375891  1
  Re  Re10  1  0.508470  0.859396  0.900813  1
  Re  Re11  1  0.670626  0.984657  0.083957  1
  Re  Re12  1  0.670151  0.452762  0.553442  1
  Re  Re13  1  0.508212  0.585513  0.624114  1
  Re  Re14  1  0.329374  0.015344  0.916044  1
  Re  Re15  1  0.491530  0.140596  0.099181  1
  Re  Re16  1  0.389376  0.860477  0.033466  1
  Re  Re17  1  0.389124  0.328123  0.501314  1
  Re  Re18  1  0.610622  0.139524  0.966527  1
  Re  Re19  1  0.329845  0.547231  0.446555  1
  C  C20  1  0.138530  0.037021  0.822784  1
  C  C21  1  0.265500  0.136859  0.508330  1
  C  C22  1  0.861467  0.962991  0.177224  1
  C  C23  1  0.734485  0.863138  0.491666  1
  C  C24  1  0.258309  0.708679  0.071641  1
  C  C25  1  0.860253  0.398513  0.617632  1
  C  C26  1  0.741690  0.291321  0.928360  1
  C  C27  1  0.139743  0.601479  0.382358  1
  S  S28  1  0.470548  0.340259  0.208968  1
  S  S29  1  0.437923  0.270184  0.982188  1
  S  S30  1  0.451649  0.779290  0.563651  1
  S  S31  1  0.233115  0.306287  0.339959  1
  S  S32  1  0.529453  0.659741  0.791033  1
  S  S33  1  0.438400  0.624102  0.337790  1
  S  S34  1  0.451852  0.013095  0.800890  1
  S  S35  1  0.562076  0.729818  0.017812  1
  S  S36  1  0.767314  0.988254  0.956589  1
  S  S37  1  0.548160  0.986915  0.199118  1
  S  S38  1  0.232685  0.011746  0.043411  1
  S  S39  1  0.752598  0.241952  0.137568  1
  S  S40  1  0.246687  0.464694  0.563421  1
  S  S41  1  0.548362  0.220710  0.436348  1
  S  S42  1  0.753296  0.535282  0.436569  1
  S  S43  1  0.247404  0.758047  0.862436  1
  S  S44  1  0.561597  0.375899  0.662209  1
  S  S45  1  0.766871  0.693708  0.660043  1
  N  N46  1  0.821526  0.368532  0.905720  1
  N  N47  1  0.034117  0.630085  0.341902  1
  N  N48  1  0.965638  0.944687  0.228989  1
  N  N49  1  0.178475  0.631468  0.094280  1
  N  N50  1  0.965889  0.369908  0.658093  1
  N  N51  1  0.805470  0.964967  0.483637  1
  N  N52  1  0.034368  0.055322  0.771025  1
  N  N53  1  0.194548  0.035082  0.516349  1
