# generated using pymatgen
data_Cs3Mo6(P5O19)2
_symmetry_space_group_name_H-M   'P 1'
_cell_length_a   6.56179958
_cell_length_b   9.69398275
_cell_length_c   14.55011888
_cell_angle_alpha   89.86628123
_cell_angle_beta   91.17809543
_cell_angle_gamma   105.99436340
_symmetry_Int_Tables_number   1
_chemical_formula_structural   Cs3Mo6(P5O19)2
_chemical_formula_sum   'Cs3 Mo6 P10 O38'
_cell_volume   889.51076837
_cell_formula_units_Z   1
loop_
 _symmetry_equiv_pos_site_id
 _symmetry_equiv_pos_as_xyz
  1  'x, y, z'
loop_
 _atom_site_type_symbol
 _atom_site_label
 _atom_site_symmetry_multiplicity
 _atom_site_fract_x
 _atom_site_fract_y
 _atom_site_fract_z
 _atom_site_occupancy
  Cs  Cs0  1  0.000000  0.000000  0.000000  1
  Cs  Cs1  1  0.041625  0.373448  0.283490  1
  Cs  Cs2  1  0.958375  0.626552  0.716510  1
  Mo  Mo3  1  0.734435  0.665939  0.388458  1
  Mo  Mo4  1  0.716085  0.631909  0.135072  1
  Mo  Mo5  1  0.619750  0.960059  0.750040  1
  Mo  Mo6  1  0.380250  0.039941  0.249960  1
  Mo  Mo7  1  0.265565  0.334061  0.611542  1
  Mo  Mo8  1  0.283915  0.368091  0.864928  1
  P  P9  1  0.714504  0.236562  0.588899  1
  P  P10  1  0.491770  0.704500  0.575593  1
  P  P11  1  0.285496  0.763438  0.411101  1
  P  P12  1  0.843461  0.953393  0.251763  1
  P  P13  1  0.510925  0.281110  0.060580  1
  P  P14  1  0.156539  0.046607  0.748237  1
  P  P15  1  0.508230  0.295500  0.424407  1
  P  P16  1  0.260510  0.718160  0.112804  1
  P  P17  1  0.739490  0.281840  0.887196  1
  P  P18  1  0.489075  0.718890  0.939420  1
  O  O19  1  0.652787  0.410476  0.110667  1
  O  O20  1  0.337725  0.774256  0.010419  1
  O  O21  1  0.637189  0.201549  0.481260  1
  O  O22  1  0.258629  0.395804  0.736436  1
  O  O23  1  0.584715  0.332983  0.627524  1
  O  O24  1  0.975218  0.364185  0.897011  1
  O  O25  1  0.070370  0.054678  0.242494  1
  O  O26  1  0.388363  0.614248  0.143886  1
  O  O27  1  0.300131  0.944319  0.749770  1
  O  O28  1  0.174687  0.127186  0.655253  1
  O  O29  1  0.054881  0.674308  0.412430  1
  O  O30  1  0.668295  0.686463  0.997901  1
  O  O31  1  0.578295  0.845771  0.877383  1
  O  O32  1  0.415285  0.667017  0.372476  1
  O  O33  1  0.024782  0.635815  0.102989  1
  O  O34  1  0.662275  0.225744  0.989581  1
  O  O35  1  0.655131  0.448747  0.424752  1
  O  O36  1  0.324780  0.911155  0.368252  1
  O  O37  1  0.421705  0.154229  0.122617  1
  O  O38  1  0.293745  0.851224  0.170498  1
  O  O39  1  0.741371  0.604196  0.263564  1
  O  O40  1  0.344869  0.551253  0.575248  1
  O  O41  1  0.675220  0.088845  0.631748  1
  O  O42  1  0.535321  0.765309  0.672207  1
  O  O43  1  0.701779  0.716020  0.525403  1
  O  O44  1  0.211173  0.148127  0.832411  1
  O  O45  1  0.347213  0.589524  0.889333  1
  O  O46  1  0.298221  0.283980  0.474597  1
  O  O47  1  0.464679  0.234691  0.327793  1
  O  O48  1  0.825313  0.872814  0.344747  1
  O  O49  1  0.699869  0.055681  0.250230  1
  O  O50  1  0.788827  0.851873  0.167589  1
  O  O51  1  0.706255  0.148776  0.829502  1
  O  O52  1  0.929630  0.945322  0.757506  1
  O  O53  1  0.331705  0.313537  0.002099  1
  O  O54  1  0.945119  0.325692  0.587570  1
  O  O55  1  0.611637  0.385752  0.856114  1
  O  O56  1  0.362811  0.798451  0.518741  1
