# generated using pymatgen
data_H3NO
_symmetry_space_group_name_H-M   'P 1'
_cell_length_a   8.32417412
_cell_length_b   5.57049961
_cell_length_c   5.12448833
_cell_angle_alpha   84.11242150
_cell_angle_beta   93.54969312
_cell_angle_gamma   94.55880538
_symmetry_Int_Tables_number   1
_chemical_formula_structural   H3NO
_chemical_formula_sum   'H12 N4 O4'
_cell_volume   235.27374088
_cell_formula_units_Z   4
loop_
 _symmetry_equiv_pos_site_id
 _symmetry_equiv_pos_as_xyz
  1  'x, y, z'
loop_
 _atom_site_type_symbol
 _atom_site_label
 _atom_site_symmetry_multiplicity
 _atom_site_fract_x
 _atom_site_fract_y
 _atom_site_fract_z
 _atom_site_occupancy
  H  H0  1  0.901340  0.325407  0.653751  1
  H  H1  1  0.266541  0.761330  0.433240  1
  H  H2  1  0.946523  0.376322  0.366519  1
  H  H3  1  0.577068  0.580647  0.126195  1
  H  H4  1  0.223649  0.927228  0.801934  1
  H  H5  1  0.521692  0.614651  0.825637  1
  H  H6  1  0.400050  0.267262  0.408396  1
  H  H7  1  0.545546  0.223198  0.600767  1
  H  H8  1  0.546289  0.992316  0.252187  1
  H  H9  1  0.138359  0.909158  0.747053  1
  H  H10  1  0.954269  0.857522  0.122031  1
  H  H11  1  0.815678  0.698872  0.991681  1
  N  N12  1  0.479064  0.855206  0.359050  1
  N  N13  1  0.247492  0.427078  0.955016  1
  N  N14  1  0.140567  0.310971  0.025792  1
  N  N15  1  0.334139  0.898996  0.326056  1
  O  O16  1  0.933064  0.244578  0.507922  1
  O  O17  1  0.604393  0.666310  0.955786  1
  O  O18  1  0.495750  0.351464  0.487707  1
  O  O19  1  0.927723  0.695881  0.068351  1
