# generated using pymatgen
data_NaPH3C2N3O4
_symmetry_space_group_name_H-M   'P 1'
_cell_length_a   7.26385269
_cell_length_b   12.66488935
_cell_length_c   7.33045418
_cell_angle_alpha   90.00000000
_cell_angle_beta   99.18724854
_cell_angle_gamma   90.00000000
_symmetry_Int_Tables_number   1
_chemical_formula_structural   NaPH3C2N3O4
_chemical_formula_sum   'Na4 P4 H12 C8 N12 O16'
_cell_volume   665.72070134
_cell_formula_units_Z   4
loop_
 _symmetry_equiv_pos_site_id
 _symmetry_equiv_pos_as_xyz
  1  'x, y, z'
loop_
 _atom_site_type_symbol
 _atom_site_label
 _atom_site_symmetry_multiplicity
 _atom_site_fract_x
 _atom_site_fract_y
 _atom_site_fract_z
 _atom_site_occupancy
  Na  Na0  1  0.683668  0.965697  0.382747  1
  Na  Na1  1  0.183668  0.534303  0.882747  1
  Na  Na2  1  0.316332  0.034303  0.617253  1
  Na  Na3  1  0.816332  0.465697  0.117253  1
  P  P4  1  0.237047  0.575813  0.393653  1
  P  P5  1  0.737047  0.924187  0.893653  1
  P  P6  1  0.762953  0.424187  0.606347  1
  P  P7  1  0.262953  0.075813  0.106347  1
  H  H8  1  0.932946  0.718045  0.134662  1
  H  H9  1  0.432946  0.781955  0.634662  1
  H  H10  1  0.067054  0.281955  0.865338  1
  H  H11  1  0.567054  0.218045  0.365338  1
  H  H12  1  0.570731  0.590391  0.398772  1
  H  H13  1  0.070731  0.909609  0.898772  1
  H  H14  1  0.429269  0.409609  0.601228  1
  H  H15  1  0.929269  0.090391  0.101228  1
  H  H16  1  0.353135  0.765886  0.681532  1
  H  H17  1  0.853135  0.734114  0.181532  1
  H  H18  1  0.646865  0.234114  0.318468  1
  H  H19  1  0.146865  0.265886  0.818468  1
  C  C20  1  0.155975  0.800945  0.433312  1
  C  C21  1  0.655975  0.699055  0.933312  1
  C  C22  1  0.844025  0.199055  0.566688  1
  C  C23  1  0.344025  0.300945  0.066688  1
  C  C24  1  0.445215  0.736091  0.330186  1
  C  C25  1  0.945215  0.763909  0.830186  1
  C  C26  1  0.554785  0.263909  0.669814  1
  C  C27  1  0.054785  0.236091  0.169814  1
  N  N28  1  0.130909  0.697702  0.400893  1
  N  N29  1  0.630909  0.802298  0.900893  1
  N  N30  1  0.869091  0.302298  0.599107  1
  N  N31  1  0.369091  0.197702  0.099107  1
  N  N32  1  0.447089  0.632380  0.373905  1
  N  N33  1  0.947089  0.867620  0.873905  1
  N  N34  1  0.552911  0.367620  0.626095  1
  N  N35  1  0.052911  0.132380  0.126095  1
  N  N36  1  0.254647  0.774825  0.287630  1
  N  N37  1  0.754647  0.725175  0.787630  1
  N  N38  1  0.745353  0.225175  0.712370  1
  N  N39  1  0.245353  0.274825  0.212370  1
  O  O40  1  0.149425  0.527226  0.213726  1
  O  O41  1  0.649425  0.972774  0.713726  1
  O  O42  1  0.850575  0.472774  0.786274  1
  O  O43  1  0.350575  0.027226  0.286274  1
  O  O44  1  0.748199  0.482688  0.427239  1
  O  O45  1  0.248199  0.017312  0.927239  1
  O  O46  1  0.251801  0.517312  0.572761  1
  O  O47  1  0.751801  0.982688  0.072761  1
  O  O48  1  0.095688  0.877749  0.503435  1
  O  O49  1  0.595688  0.622251  0.003435  1
  O  O50  1  0.904312  0.122251  0.496565  1
  O  O51  1  0.404312  0.377749  0.996565  1
  O  O52  1  0.576821  0.793990  0.310763  1
  O  O53  1  0.076821  0.706010  0.810763  1
  O  O54  1  0.423179  0.206010  0.689237  1
  O  O55  1  0.923179  0.293990  0.189237  1
