# generated using pymatgen
data_Pr4MgRu
_symmetry_space_group_name_H-M   'P 1'
_cell_length_a   10.09101019
_cell_length_b   10.09106576
_cell_length_c   10.09095120
_cell_angle_alpha   59.99984984
_cell_angle_beta   59.99913163
_cell_angle_gamma   60.00001643
_symmetry_Int_Tables_number   1
_chemical_formula_structural   Pr4MgRu
_chemical_formula_sum   'Pr16 Mg4 Ru4'
_cell_volume   726.58344766
_cell_formula_units_Z   4
loop_
 _symmetry_equiv_pos_site_id
 _symmetry_equiv_pos_as_xyz
  1  'x, y, z'
loop_
 _atom_site_type_symbol
 _atom_site_label
 _atom_site_symmetry_multiplicity
 _atom_site_fract_x
 _atom_site_fract_y
 _atom_site_fract_z
 _atom_site_occupancy
  Pr  Pr0  1  0.938636  0.938639  0.561360  1
  Pr  Pr1  1  0.811589  0.188413  0.811586  1
  Pr  Pr2  1  0.344638  0.966073  0.344642  1
  Pr  Pr3  1  0.561365  0.938638  0.938635  1
  Pr  Pr4  1  0.938637  0.561364  0.938636  1
  Pr  Pr5  1  0.561367  0.561366  0.938633  1
  Pr  Pr6  1  0.938637  0.561359  0.561369  1
  Pr  Pr7  1  0.344644  0.344642  0.966073  1
  Pr  Pr8  1  0.344641  0.344640  0.344645  1
  Pr  Pr9  1  0.811589  0.811594  0.188411  1
  Pr  Pr10  1  0.561363  0.938633  0.561365  1
  Pr  Pr11  1  0.811592  0.188410  0.188410  1
  Pr  Pr12  1  0.966074  0.344638  0.344646  1
  Pr  Pr13  1  0.188417  0.811588  0.811585  1
  Pr  Pr14  1  0.188408  0.188409  0.811593  1
  Pr  Pr15  1  0.188407  0.811591  0.188415  1
  Mg  Mg16  1  0.578463  0.264613  0.578462  1
  Mg  Mg17  1  0.578462  0.578463  0.578463  1
  Mg  Mg18  1  0.264611  0.578464  0.578461  1
  Mg  Mg19  1  0.578462  0.578463  0.264612  1
  Ru  Ru20  1  0.138009  0.585974  0.138005  1
  Ru  Ru21  1  0.585974  0.138009  0.138010  1
  Ru  Ru22  1  0.138008  0.138011  0.138006  1
  Ru  Ru23  1  0.138007  0.138008  0.585977  1
