# generated using pymatgen
data_Ba3La9Mg7Nb5O36
_symmetry_space_group_name_H-M   'P 1'
_cell_length_a   5.70096557
_cell_length_b   34.32392407
_cell_length_c   9.91406075
_cell_angle_alpha   29.94389158
_cell_angle_beta   54.89767621
_cell_angle_gamma   60.11378112
_symmetry_Int_Tables_number   1
_chemical_formula_structural   Ba3La9Mg7Nb5O36
_chemical_formula_sum   'Ba3 La9 Mg7 Nb5 O36'
_cell_volume   792.22742144
_cell_formula_units_Z   1
loop_
 _symmetry_equiv_pos_site_id
 _symmetry_equiv_pos_as_xyz
  1  'x, y, z'
loop_
 _atom_site_type_symbol
 _atom_site_label
 _atom_site_symmetry_multiplicity
 _atom_site_fract_x
 _atom_site_fract_y
 _atom_site_fract_z
 _atom_site_occupancy
  Ba  Ba0  1  0.750730  0.166315  0.750327  1
  Ba  Ba1  1  0.748810  0.333333  0.751190  1
  Ba  Ba2  1  0.750730  0.500352  0.748213  1
  La  La3  1  0.272612  0.974408  0.304163  1
  La  La4  1  0.255142  0.160137  0.264448  1
  La  La5  1  0.235254  0.333333  0.264746  1
  La  La6  1  0.255142  0.506530  0.225268  1
  La  La7  1  0.272612  0.692259  0.150614  1
  La  La8  1  0.218478  0.833333  0.281522  1
  La  La9  1  0.740662  0.675415  0.733095  1
  La  La10  1  0.783939  0.833333  0.716061  1
  La  La11  1  0.740662  0.991252  0.785581  1
  Mg  Mg12  1  0.999903  0.998753  0.003838  1
  Mg  Mg13  1  0.999503  0.163797  0.009107  1
  Mg  Mg14  1  0.002258  0.333333  0.997742  1
  Mg  Mg15  1  0.999503  0.502870  0.991886  1
  Mg  Mg16  1  0.999903  0.667914  0.996357  1
  Mg  Mg17  1  0.994176  0.833333  0.005824  1
  Mg  Mg18  1  0.506554  0.833333  0.493446  1
  Nb  Nb19  1  0.499190  0.996642  0.510884  1
  Nb  Nb20  1  0.501382  0.165879  0.500981  1
  Nb  Nb21  1  0.498820  0.333333  0.501180  1
  Nb  Nb22  1  0.501382  0.500788  0.496255  1
  Nb  Nb23  1  0.499190  0.670025  0.490737  1
  O  O24  1  0.235705  0.082447  0.279940  1
  O  O25  1  0.744500  0.992103  0.279190  1
  O  O26  1  0.250021  0.984656  0.796012  1
  O  O27  1  0.276246  0.078977  0.743486  1
  O  O28  1  0.254010  0.246121  0.257889  1
  O  O29  1  0.709733  0.082447  0.279940  1
  O  O30  1  0.748089  0.164614  0.258071  1
  O  O31  1  0.255421  0.166041  0.746456  1
  O  O32  1  0.256342  0.251385  0.739077  1
  O  O33  1  0.256342  0.415282  0.247385  1
  O  O34  1  0.762921  0.078977  0.743486  1
  O  O35  1  0.753481  0.246121  0.257889  1
  O  O36  1  0.749380  0.333333  0.250620  1
  O  O37  1  0.255995  0.333333  0.744005  1
  O  O38  1  0.254010  0.420545  0.734620  1
  O  O39  1  0.276246  0.587690  0.217347  1
  O  O40  1  0.757196  0.251385  0.739077  1
  O  O41  1  0.757196  0.415282  0.247385  1
  O  O42  1  0.748089  0.502053  0.245751  1
  O  O43  1  0.255421  0.500626  0.742701  1
  O  O44  1  0.235705  0.584220  0.774622  1
  O  O45  1  0.242508  0.746791  0.258431  1
  O  O46  1  0.753481  0.420545  0.734620  1
  O  O47  1  0.762921  0.587690  0.217347  1
  O  O48  1  0.744500  0.674564  0.231809  1
  O  O49  1  0.250021  0.682011  0.703945  1
  O  O50  1  0.238700  0.751903  0.754503  1
  O  O51  1  0.238700  0.914764  0.265921  1
  O  O52  1  0.709733  0.584220  0.774622  1
  O  O53  1  0.759884  0.746791  0.258431  1
  O  O54  1  0.749254  0.833333  0.250746  1
  O  O55  1  0.247564  0.833333  0.752436  1
  O  O56  1  0.242508  0.919875  0.739178  1
  O  O57  1  0.740876  0.914764  0.265921  1
  O  O58  1  0.740876  0.751903  0.754503  1
  O  O59  1  0.759884  0.919875  0.739178  1
