# generated using pymatgen
data_InRe2C10ClO10
_symmetry_space_group_name_H-M   'P 1'
_cell_length_a   10.73510346
_cell_length_b   13.03937115
_cell_length_c   25.64021236
_cell_angle_alpha   90.00000000
_cell_angle_beta   97.08642599
_cell_angle_gamma   90.00000000
_symmetry_Int_Tables_number   1
_chemical_formula_structural   InRe2C10ClO10
_chemical_formula_sum   'In8 Re16 C80 Cl8 O80'
_cell_volume   3561.67486682
_cell_formula_units_Z   8
loop_
 _symmetry_equiv_pos_site_id
 _symmetry_equiv_pos_as_xyz
  1  'x, y, z'
loop_
 _atom_site_type_symbol
 _atom_site_label
 _atom_site_symmetry_multiplicity
 _atom_site_fract_x
 _atom_site_fract_y
 _atom_site_fract_z
 _atom_site_occupancy
  In  In0  1  0.427877  0.279855  0.111778  1
  In  In1  1  0.072123  0.779855  0.388222  1
  In  In2  1  0.927877  0.220145  0.611778  1
  In  In3  1  0.504639  0.293916  0.266193  1
  In  In4  1  0.572123  0.720145  0.888222  1
  In  In5  1  0.495361  0.706084  0.733807  1
  In  In6  1  0.004639  0.206084  0.766193  1
  In  In7  1  0.995361  0.793916  0.233807  1
  Re  Re8  1  0.823258  0.666708  0.931294  1
  Re  Re9  1  0.323258  0.833292  0.431294  1
  Re  Re10  1  0.750011  0.234232  0.314801  1
  Re  Re11  1  0.749989  0.734232  0.185199  1
  Re  Re12  1  0.369357  0.789302  0.940994  1
  Re  Re13  1  0.809051  0.138067  0.825545  1
  Re  Re14  1  0.190949  0.861933  0.174455  1
  Re  Re15  1  0.250011  0.265768  0.814801  1
  Re  Re16  1  0.869357  0.710698  0.440994  1
  Re  Re17  1  0.690949  0.638067  0.674455  1
  Re  Re18  1  0.130643  0.289302  0.559006  1
  Re  Re19  1  0.676742  0.166708  0.568706  1
  Re  Re20  1  0.309051  0.361933  0.325545  1
  Re  Re21  1  0.630643  0.210698  0.059006  1
  Re  Re22  1  0.249989  0.765768  0.685199  1
  Re  Re23  1  0.176742  0.333292  0.068706  1
  C  C24  1  0.784301  0.153220  0.251963  1
  C  C25  1  0.729591  0.026238  0.594338  1
  C  C26  1  0.178734  0.645499  0.720204  1
  C  C27  1  0.347884  0.685980  0.452011  1
  C  C28  1  0.652116  0.314020  0.547989  1
  C  C29  1  0.733421  0.659354  0.478345  1
  C  C30  1  0.611125  0.341008  0.017431  1
  C  C31  1  0.209300  0.239113  0.297733  1
  C  C32  1  0.270409  0.973762  0.405662  1
  C  C33  1  0.229591  0.473762  0.094338  1
  C  C34  1  0.908116  0.198919  0.356980  1
  C  C35  1  0.426076  0.479155  0.345629  1
  C  C36  1  0.678734  0.854501  0.220204  1
  C  C37  1  0.814394  0.592297  0.629488  1
  C  C38  1  0.198036  0.180142  0.872938  1
  C  C39  1  0.242830  0.215440  0.615385  1
  C  C40  1  0.127494  0.297634  0.139401  1
  C  C41  1  0.872506  0.702366  0.860599  1
  C  C42  1  0.508431  0.123863  0.539436  1
  C  C43  1  0.993131  0.352738  0.509862  1
  C  C44  1  0.290700  0.739113  0.202267  1
  C  C45  1  0.821266  0.354501  0.279796  1
  C  C46  1  0.627494  0.202366  0.639401  1
  C  C47  1  0.709300  0.260887  0.797733  1
  C  C48  1  0.233421  0.840646  0.978345  1
  C  C49  1  0.284301  0.346780  0.751963  1
  C  C50  1  0.388875  0.658992  0.982569  1
  C  C51  1  0.888875  0.841008  0.482569  1
  C  C52  1  0.091884  0.801081  0.643020  1
  C  C53  1  0.301964  0.680142  0.627062  1
  C  C54  1  0.770409  0.526238  0.905662  1
  C  C55  1  0.130440  0.411294  0.606152  1
  C  C56  1  0.847884  0.814020  0.952011  1
  C  C57  1  0.573924  0.520845  0.654371  1
  C  C58  1  0.239424  0.437508  0.260102  1
  C  C59  1  0.257170  0.715440  0.884615  1
  C  C60  1  0.739424  0.062492  0.760102  1
  C  C61  1  0.698036  0.319858  0.372938  1
  C  C62  1  0.601721  0.724172  0.617142  1
  C  C63  1  0.321266  0.145499  0.779796  1
  C  C64  1  0.747981  0.142160  0.501204  1
  C  C65  1  0.630440  0.088706  0.106152  1
  C  C66  1  0.247981  0.357840  0.001204  1
  C  C67  1  0.006869  0.647262  0.490138  1
  C  C68  1  0.314394  0.907703  0.129488  1
  C  C69  1  0.408116  0.301081  0.856980  1
  C  C70  1  0.766579  0.159354  0.021655  1
  C  C71  1  0.215699  0.846780  0.748037  1
  C  C72  1  0.506869  0.852738  0.990138  1
  C  C73  1  0.491569  0.876137  0.460564  1
  C  C74  1  0.185606  0.407703  0.370512  1
  C  C75  1  0.790700  0.760887  0.702267  1
  C  C76  1  0.591884  0.698919  0.143020  1
  C  C77  1  0.652941  0.115582  0.339380  1
  C  C78  1  0.152116  0.185980  0.047989  1
  C  C79  1  0.715699  0.653220  0.248037  1
  C  C80  1  0.760576  0.562492  0.739898  1
  C  C81  1  0.757170  0.784560  0.384615  1
  C  C82  1  0.685606  0.092297  0.870512  1
  C  C83  1  0.252019  0.857840  0.498796  1
  C  C84  1  0.398279  0.275828  0.382858  1
  C  C85  1  0.742830  0.284560  0.115385  1
  C  C86  1  0.926076  0.020845  0.845629  1
  C  C87  1  0.008431  0.376137  0.039436  1
  C  C88  1  0.752019  0.642160  0.998796  1
  C  C89  1  0.869560  0.588706  0.393848  1
  C  C90  1  0.073924  0.979155  0.154371  1
  C  C91  1  0.111125  0.158992  0.517431  1
  C  C92  1  0.801964  0.819858  0.127062  1
  C  C93  1  0.991569  0.623863  0.960564  1
  C  C94  1  0.260576  0.937508  0.239898  1
  C  C95  1  0.493131  0.147262  0.009862  1
  C  C96  1  0.847059  0.615582  0.160620  1
  C  C97  1  0.898279  0.224172  0.882858  1
  C  C98  1  0.266579  0.340646  0.521655  1
  C  C99  1  0.101721  0.775828  0.117141  1
  C  C100  1  0.152941  0.384418  0.839380  1
  C  C101  1  0.347059  0.884418  0.660620  1
  C  C102  1  0.372506  0.797634  0.360599  1
  C  C103  1  0.369560  0.911294  0.893848  1
  Cl  Cl104  1  0.015066  0.085234  0.684519  1
  Cl  Cl105  1  0.912363  0.338670  0.694173  1
  Cl  Cl106  1  0.087637  0.661330  0.305827  1
  Cl  Cl107  1  0.587637  0.838670  0.805827  1
  Cl  Cl108  1  0.984934  0.914766  0.315481  1
  Cl  Cl109  1  0.515066  0.414766  0.184519  1
  Cl  Cl110  1  0.412363  0.161330  0.194173  1
  Cl  Cl111  1  0.484934  0.585234  0.815481  1
  O  O112  1  0.911789  0.388371  0.481618  1
  O  O113  1  0.149428  0.170001  0.281170  1
  O  O114  1  0.115328  0.433704  0.398965  1
  O  O115  1  0.350572  0.670001  0.218830  1
  O  O116  1  0.757857  0.944720  0.609013  1
  O  O117  1  0.403683  0.775036  0.320529  1
  O  O118  1  0.411789  0.111629  0.981618  1
  O  O119  1  0.834131  0.868648  0.093244  1
  O  O120  1  0.594700  0.049063  0.354196  1
  O  O121  1  0.805541  0.327934  0.148291  1
  O  O122  1  0.805687  0.106045  0.215849  1
  O  O123  1  0.047950  0.725193  0.084605  1
  O  O124  1  0.305541  0.172066  0.648291  1
  O  O125  1  0.633468  0.919404  0.242298  1
  O  O126  1  0.347490  0.370273  0.499530  1
  O  O127  1  0.505886  0.453257  0.642796  1
  O  O128  1  0.405300  0.950937  0.645804  1
  O  O129  1  0.800788  0.520853  0.778206  1
  O  O130  1  0.300788  0.979147  0.278206  1
  O  O131  1  0.850572  0.829999  0.718830  1
  O  O132  1  0.599696  0.416600  0.993657  1
  O  O133  1  0.199212  0.479147  0.221794  1
  O  O134  1  0.242143  0.055280  0.390987  1
  O  O135  1  0.133468  0.580596  0.742298  1
  O  O136  1  0.099696  0.083400  0.493657  1
  O  O137  1  0.139667  0.100753  0.035913  1
  O  O138  1  0.694459  0.827934  0.351709  1
  O  O139  1  0.096317  0.275036  0.179471  1
  O  O140  1  0.384672  0.933704  0.101035  1
  O  O141  1  0.694313  0.606045  0.284151  1
  O  O142  1  0.498259  0.679218  0.117176  1
  O  O143  1  0.596317  0.224964  0.679471  1
  O  O144  1  0.194313  0.893955  0.784151  1
  O  O145  1  0.789062  0.129386  0.461945  1
  O  O146  1  0.952050  0.274807  0.915395  1
  O  O147  1  0.591890  0.900935  0.478517  1
  O  O148  1  0.742143  0.444720  0.890987  1
  O  O149  1  0.494114  0.546743  0.357204  1
  O  O150  1  0.194459  0.672066  0.851709  1
  O  O151  1  0.334131  0.631352  0.593244  1
  O  O152  1  0.129544  0.481596  0.633492  1
  O  O153  1  0.699212  0.020853  0.721794  1
  O  O154  1  0.210938  0.870614  0.538055  1
  O  O155  1  0.847490  0.129727  0.999530  1
  O  O156  1  0.547950  0.774807  0.584605  1
  O  O157  1  0.001741  0.179218  0.382824  1
  O  O158  1  0.860333  0.899247  0.964087  1
  O  O159  1  0.094700  0.450937  0.854196  1
  O  O160  1  0.588211  0.888371  0.018382  1
  O  O161  1  0.400304  0.583400  0.006343  1
  O  O162  1  0.289062  0.370614  0.961945  1
  O  O163  1  0.665869  0.368648  0.406756  1
  O  O164  1  0.866532  0.419404  0.257702  1
  O  O165  1  0.360333  0.600753  0.464087  1
  O  O166  1  0.652510  0.629727  0.500470  1
  O  O167  1  0.305687  0.393955  0.715849  1
  O  O168  1  0.366532  0.080596  0.757702  1
  O  O169  1  0.408110  0.099065  0.521483  1
  O  O170  1  0.152510  0.870273  0.000470  1
  O  O171  1  0.649428  0.329999  0.781170  1
  O  O172  1  0.994114  0.953257  0.857204  1
  O  O173  1  0.639667  0.399247  0.535913  1
  O  O174  1  0.908110  0.400935  0.021483  1
  O  O175  1  0.884672  0.566296  0.601035  1
  O  O176  1  0.165869  0.131352  0.906756  1
  O  O177  1  0.900304  0.916600  0.506343  1
  O  O178  1  0.452050  0.225193  0.415395  1
  O  O179  1  0.870456  0.518404  0.366508  1
  O  O180  1  0.370456  0.981596  0.866508  1
  O  O181  1  0.257857  0.555280  0.109013  1
  O  O182  1  0.629544  0.018404  0.133492  1
  O  O183  1  0.905300  0.549063  0.145804  1
  O  O184  1  0.615328  0.066296  0.898965  1
  O  O185  1  0.501741  0.320782  0.882824  1
  O  O186  1  0.091890  0.599065  0.978517  1
  O  O187  1  0.088211  0.611629  0.518382  1
  O  O188  1  0.998259  0.820782  0.617176  1
  O  O189  1  0.005886  0.046743  0.142796  1
  O  O190  1  0.903683  0.724964  0.820529  1
  O  O191  1  0.710938  0.629386  0.038055  1
