# generated using pymatgen
data_Er2S3
_symmetry_space_group_name_H-M   'P 1'
_cell_length_a   21.41677473
_cell_length_b   8.24976716
_cell_length_c   8.24976763
_cell_angle_alpha   90.00000000
_cell_angle_beta   54.70391751
_cell_angle_gamma   54.70391756
_symmetry_Int_Tables_number   1
_chemical_formula_structural   Er2S3
_chemical_formula_sum   'Er16 S24'
_cell_volume   840.22613392
_cell_formula_units_Z   8
loop_
 _symmetry_equiv_pos_site_id
 _symmetry_equiv_pos_as_xyz
  1  'x, y, z'
loop_
 _atom_site_type_symbol
 _atom_site_label
 _atom_site_symmetry_multiplicity
 _atom_site_fract_x
 _atom_site_fract_y
 _atom_site_fract_z
 _atom_site_occupancy
  Er  Er0  1  0.995148  0.395216  0.248330  1
  Er  Er1  1  0.083019  0.625471  0.375471  1
  Er  Er2  1  0.166667  0.250000  0.631938  1
  Er  Er3  1  0.250314  0.874529  0.124529  1
  Er  Er4  1  0.338185  0.380659  0.251670  1
  Er  Er5  1  0.338185  0.104784  0.733773  1
  Er  Er6  1  0.166667  0.750000  0.868062  1
  Er  Er7  1  0.495148  0.266227  0.619341  1
  Er  Er8  1  0.666667  0.368062  0.250000  1
  Er  Er9  1  0.583019  0.875471  0.125471  1
  Er  Er10  1  0.495148  0.748330  0.895216  1
  Er  Er11  1  0.666667  0.131938  0.750000  1
  Er  Er12  1  0.750314  0.624529  0.374529  1
  Er  Er13  1  0.838185  0.233773  0.604784  1
  Er  Er14  1  0.838185  0.751670  0.880659  1
  Er  Er15  1  0.995148  0.119341  0.766227  1
  S  S16  1  0.047721  0.998570  0.362145  1
  S  S17  1  0.127429  0.489214  0.992892  1
  S  S18  1  0.047721  0.358266  0.494691  1
  S  S19  1  0.285612  0.141734  0.137855  1
  S  S20  1  0.285612  0.501430  0.005309  1
  S  S21  1  0.127429  0.628499  0.624821  1
  S  S22  1  0.381560  0.004209  0.348678  1
  S  S23  1  0.205904  0.871501  0.507108  1
  S  S24  1  0.451774  0.493358  0.995791  1
  S  S25  1  0.381560  0.351110  0.506642  1
  S  S26  1  0.205904  0.010786  0.875179  1
  S  S27  1  0.627429  0.124821  0.128499  1
  S  S28  1  0.627429  0.492892  0.989214  1
  S  S29  1  0.451774  0.651322  0.648890  1
  S  S30  1  0.705904  0.007108  0.371501  1
  S  S31  1  0.547721  0.862145  0.498570  1
  S  S32  1  0.785612  0.505309  0.001430  1
  S  S33  1  0.705904  0.375179  0.510786  1
  S  S34  1  0.547721  0.994691  0.858266  1
  S  S35  1  0.951774  0.148890  0.151322  1
  S  S36  1  0.951774  0.495791  0.993358  1
  S  S37  1  0.785612  0.637855  0.641734  1
  S  S38  1  0.881560  0.848678  0.504209  1
  S  S39  1  0.881560  0.006642  0.851110  1
