# generated using pymatgen
data_Eu(InAs)2
_symmetry_space_group_name_H-M   'P 1'
_cell_length_a   4.32183774
_cell_length_b   4.31719042
_cell_length_c   17.75253973
_cell_angle_alpha   89.88800055
_cell_angle_beta   90.02145230
_cell_angle_gamma   119.92951590
_symmetry_Int_Tables_number   1
_chemical_formula_structural   Eu(InAs)2
_chemical_formula_sum   'Eu2 In4 As4'
_cell_volume   287.05682114
_cell_formula_units_Z   2
loop_
 _symmetry_equiv_pos_site_id
 _symmetry_equiv_pos_as_xyz
  1  'x, y, z'
loop_
 _atom_site_type_symbol
 _atom_site_label
 _atom_site_symmetry_multiplicity
 _atom_site_fract_x
 _atom_site_fract_y
 _atom_site_fract_z
 _atom_site_occupancy
  Eu  Eu0  1  0.999895  0.000001  0.500020  1
  Eu  Eu1  1  0.000069  0.999879  0.000028  1
  In  In2  1  0.333204  0.669684  0.829581  1
  In  In3  1  0.668955  0.336372  0.329946  1
  In  In4  1  0.666858  0.330340  0.170410  1
  In  In5  1  0.331143  0.663699  0.670027  1
  As  As6  1  0.666867  0.332925  0.603997  1
  As  As7  1  0.667308  0.334566  0.895607  1
  As  As8  1  0.332617  0.665439  0.104412  1
  As  As9  1  0.333085  0.667095  0.395972  1
