# generated using pymatgen
data_Zr14P9
_symmetry_space_group_name_H-M   'P 1'
_cell_length_a   3.70225464
_cell_length_b   16.83233973
_cell_length_c   27.78289362
_cell_angle_alpha   90.00000000
_cell_angle_beta   90.00000000
_cell_angle_gamma   90.00000000
_symmetry_Int_Tables_number   1
_chemical_formula_structural   Zr14P9
_chemical_formula_sum   'Zr56 P36'
_cell_volume   1731.36347003
_cell_formula_units_Z   4
loop_
 _symmetry_equiv_pos_site_id
 _symmetry_equiv_pos_as_xyz
  1  'x, y, z'
loop_
 _atom_site_type_symbol
 _atom_site_label
 _atom_site_symmetry_multiplicity
 _atom_site_fract_x
 _atom_site_fract_y
 _atom_site_fract_z
 _atom_site_occupancy
  Zr  Zr0  1  0.000000  0.486651  0.695987  1
  Zr  Zr1  1  0.000000  0.901283  0.895276  1
  Zr  Zr2  1  0.000000  0.862574  0.646760  1
  Zr  Zr3  1  0.000000  0.201590  0.857834  1
  Zr  Zr4  1  0.500000  0.699211  0.509528  1
  Zr  Zr5  1  0.000000  0.754701  0.416365  1
  Zr  Zr6  1  0.500000  0.232725  0.687223  1
  Zr  Zr7  1  0.000000  0.333433  0.762125  1
  Zr  Zr8  1  0.000000  0.267275  0.187223  1
  Zr  Zr9  1  0.500000  0.767275  0.312777  1
  Zr  Zr10  1  0.500000  0.598717  0.395276  1
  Zr  Zr11  1  0.500000  0.401283  0.604724  1
  Zr  Zr12  1  0.000000  0.513349  0.304013  1
  Zr  Zr13  1  0.500000  0.019487  0.677421  1
  Zr  Zr14  1  0.000000  0.800789  0.009528  1
  Zr  Zr15  1  0.500000  0.449253  0.080122  1
  Zr  Zr16  1  0.000000  0.863624  0.530874  1
  Zr  Zr17  1  0.500000  0.930633  0.076255  1
  Zr  Zr18  1  0.500000  0.013349  0.195987  1
  Zr  Zr19  1  0.000000  0.430633  0.423745  1
  Zr  Zr20  1  0.500000  0.701590  0.642166  1
  Zr  Zr21  1  0.000000  0.519487  0.822579  1
  Zr  Zr22  1  0.500000  0.980513  0.322579  1
  Zr  Zr23  1  0.000000  0.500000  0.000000  1
  Zr  Zr24  1  0.500000  0.363624  0.969126  1
  Zr  Zr25  1  0.500000  0.300789  0.490472  1
  Zr  Zr26  1  0.000000  0.732725  0.812777  1
  Zr  Zr27  1  0.500000  0.745299  0.916365  1
  Zr  Zr28  1  0.500000  0.362574  0.853240  1
  Zr  Zr29  1  0.500000  0.069367  0.923745  1
  Zr  Zr30  1  0.000000  0.480513  0.177421  1
  Zr  Zr31  1  0.500000  0.637426  0.146760  1
  Zr  Zr32  1  0.000000  0.118826  0.755757  1
  Zr  Zr33  1  0.500000  0.636376  0.030874  1
  Zr  Zr34  1  0.000000  0.136376  0.469126  1
  Zr  Zr35  1  0.000000  0.245299  0.583635  1
  Zr  Zr36  1  0.000000  0.199211  0.990472  1
  Zr  Zr37  1  0.000000  0.569367  0.576255  1
  Zr  Zr38  1  0.000000  0.949253  0.419878  1
  Zr  Zr39  1  0.500000  0.254701  0.083635  1
  Zr  Zr40  1  0.500000  0.550747  0.919878  1
  Zr  Zr41  1  0.000000  0.050747  0.580122  1
  Zr  Zr42  1  0.000000  0.000000  0.000000  1
  Zr  Zr43  1  0.500000  0.500000  0.500000  1
  Zr  Zr44  1  0.500000  0.381174  0.255757  1
  Zr  Zr45  1  0.000000  0.881174  0.244243  1
  Zr  Zr46  1  0.500000  0.833433  0.737875  1
  Zr  Zr47  1  0.500000  0.166567  0.262125  1
  Zr  Zr48  1  0.000000  0.137426  0.353240  1
  Zr  Zr49  1  0.500000  0.986651  0.804013  1
  Zr  Zr50  1  0.000000  0.098717  0.104724  1
  Zr  Zr51  1  0.500000  0.618826  0.744243  1
  Zr  Zr52  1  0.000000  0.666567  0.237875  1
  Zr  Zr53  1  0.500000  0.000000  0.500000  1
  Zr  Zr54  1  0.500000  0.298410  0.357834  1
  Zr  Zr55  1  0.000000  0.798410  0.142166  1
  P  P56  1  0.000000  0.604104  0.466771  1
  P  P57  1  0.000000  0.048516  0.857124  1
  P  P58  1  0.000000  0.268823  0.422172  1
  P  P59  1  0.500000  0.451484  0.357124  1
  P  P60  1  0.500000  0.231177  0.922172  1
  P  P61  1  0.000000  0.726387  0.714151  1
  P  P62  1  0.000000  0.867530  0.342026  1
  P  P63  1  0.000000  0.341905  0.665152  1
  P  P64  1  0.000000  0.731177  0.577828  1
  P  P65  1  0.000000  0.273613  0.285849  1
  P  P66  1  0.500000  0.155626  0.537819  1
  P  P67  1  0.000000  0.437030  0.907968  1
  P  P68  1  0.000000  0.395896  0.533229  1
  P  P69  1  0.500000  0.895896  0.966771  1
  P  P70  1  0.500000  0.367530  0.157974  1
  P  P71  1  0.500000  0.844374  0.462181  1
  P  P72  1  0.000000  0.562970  0.092032  1
  P  P73  1  0.500000  0.158095  0.165152  1
  P  P74  1  0.000000  0.132470  0.657974  1
  P  P75  1  0.500000  0.937030  0.592032  1
  P  P76  1  0.500000  0.841905  0.834848  1
  P  P77  1  0.000000  0.047460  0.266688  1
  P  P78  1  0.000000  0.344374  0.037819  1
  P  P79  1  0.000000  0.658095  0.334848  1
  P  P80  1  0.500000  0.632470  0.842026  1
  P  P81  1  0.500000  0.768823  0.077828  1
  P  P82  1  0.500000  0.547460  0.233312  1
  P  P83  1  0.000000  0.951484  0.142876  1
  P  P84  1  0.500000  0.226387  0.785849  1
  P  P85  1  0.500000  0.452540  0.766688  1
  P  P86  1  0.500000  0.548516  0.642876  1
  P  P87  1  0.000000  0.952540  0.733312  1
  P  P88  1  0.000000  0.655626  0.962181  1
  P  P89  1  0.500000  0.104104  0.033229  1
  P  P90  1  0.500000  0.773613  0.214151  1
  P  P91  1  0.500000  0.062970  0.407968  1
