# generated using pymatgen
data_Gd(Al10Cr)2
_symmetry_space_group_name_H-M   'P 1'
_cell_length_a   10.17241193
_cell_length_b   10.17067726
_cell_length_c   10.17579174
_cell_angle_alpha   60.02314841
_cell_angle_beta   59.95834048
_cell_angle_gamma   59.98196590
_symmetry_Int_Tables_number   1
_chemical_formula_structural   Gd(Al10Cr)2
_chemical_formula_sum   'Gd2 Al40 Cr4'
_cell_volume   744.22930318
_cell_formula_units_Z   2
loop_
 _symmetry_equiv_pos_site_id
 _symmetry_equiv_pos_as_xyz
  1  'x, y, z'
loop_
 _atom_site_type_symbol
 _atom_site_label
 _atom_site_symmetry_multiplicity
 _atom_site_fract_x
 _atom_site_fract_y
 _atom_site_fract_z
 _atom_site_occupancy
  Gd  Gd0  1  0.875035  0.874968  0.874995  1
  Gd  Gd1  1  0.124956  0.124973  0.125058  1
  Al  Al2  1  0.210053  0.673713  0.942716  1
  Al  Al3  1  0.238107  0.511887  0.238121  1
  Al  Al4  1  0.673585  0.942644  0.210098  1
  Al  Al5  1  0.326562  0.326667  0.057285  1
  Al  Al6  1  0.761975  0.761887  0.488021  1
  Al  Al7  1  0.511934  0.238136  0.511862  1
  Al  Al8  1  0.326441  0.789479  0.326660  1
  Al  Al9  1  0.511831  0.238283  0.238152  1
  Al  Al10  1  0.761960  0.488046  0.488093  1
  Al  Al11  1  0.999785  0.999797  0.999754  1
  Al  Al12  1  0.326397  0.789507  0.057394  1
  Al  Al13  1  0.326586  0.326599  0.789484  1
  Al  Al14  1  0.942739  0.210136  0.673604  1
  Al  Al15  1  0.326586  0.057496  0.326512  1
  Al  Al16  1  0.789581  0.326461  0.326637  1
  Al  Al17  1  0.673659  0.673522  0.942838  1
  Al  Al18  1  0.488069  0.488027  0.761984  1
  Al  Al19  1  0.942633  0.673499  0.673690  1
  Al  Al20  1  0.210036  0.673700  0.673513  1
  Al  Al21  1  0.789454  0.057276  0.326645  1
  Al  Al22  1  0.238125  0.238250  0.511834  1
  Al  Al23  1  0.238159  0.511814  0.511807  1
  Al  Al24  1  0.673751  0.210057  0.942693  1
  Al  Al25  1  0.487967  0.762006  0.487983  1
  Al  Al26  1  0.210036  0.942844  0.673548  1
  Al  Al27  1  0.942537  0.673553  0.210230  1
  Al  Al28  1  0.511823  0.511807  0.238174  1
  Al  Al29  1  0.057341  0.789333  0.326615  1
  Al  Al30  1  0.999760  0.999756  0.500761  1
  Al  Al31  1  0.673582  0.942647  0.673673  1
  Al  Al32  1  0.789580  0.326430  0.057355  1
  Al  Al33  1  0.762042  0.487910  0.762015  1
  Al  Al34  1  0.326598  0.057512  0.789381  1
  Al  Al35  1  0.057528  0.326629  0.789278  1
  Al  Al36  1  0.999749  0.500700  0.999761  1
  Al  Al37  1  0.057466  0.326675  0.326521  1
  Al  Al38  1  0.488084  0.761842  0.761926  1
  Al  Al39  1  0.673761  0.210085  0.673544  1
  Al  Al40  1  0.500538  0.999798  0.999837  1
  Al  Al41  1  0.673612  0.673635  0.209986  1
  Cr  Cr42  1  0.999822  0.500051  0.500030  1
  Cr  Cr43  1  0.500089  0.500040  0.500035  1
  Cr  Cr44  1  0.500024  0.999843  0.500051  1
  Cr  Cr45  1  0.500058  0.500080  0.999845  1
