# generated using pymatgen
data_H4N2O3
_symmetry_space_group_name_H-M   'P 1'
_cell_length_a   5.76611437
_cell_length_b   5.76611437
_cell_length_c   4.93644682
_cell_angle_alpha   90.00000000
_cell_angle_beta   90.00000000
_cell_angle_gamma   90.00000000
_symmetry_Int_Tables_number   1
_chemical_formula_structural   H4N2O3
_chemical_formula_sum   'H8 N4 O6'
_cell_volume   164.12735375
_cell_formula_units_Z   2
loop_
 _symmetry_equiv_pos_site_id
 _symmetry_equiv_pos_as_xyz
  1  'x, y, z'
loop_
 _atom_site_type_symbol
 _atom_site_label
 _atom_site_symmetry_multiplicity
 _atom_site_fract_x
 _atom_site_fract_y
 _atom_site_fract_z
 _atom_site_occupancy
  H  H0  1  0.519010  0.355189  0.378709  1
  H  H1  1  0.980990  0.855189  0.621291  1
  H  H2  1  0.480990  0.644811  0.378709  1
  H  H3  1  0.019010  0.144811  0.621291  1
  H  H4  1  0.644811  0.519010  0.621291  1
  H  H5  1  0.855189  0.019010  0.378709  1
  H  H6  1  0.355189  0.480990  0.621291  1
  H  H7  1  0.144811  0.980990  0.378709  1
  N  N8  1  0.500000  0.500000  0.500000  1
  N  N9  1  0.000000  0.000000  0.500000  1
  N  N10  1  0.000000  0.500000  0.021808  1
  N  N11  1  0.500000  0.000000  0.978192  1
  O  O12  1  0.000000  0.500000  0.276940  1
  O  O13  1  0.500000  0.000000  0.723060  1
  O  O14  1  0.364209  0.864209  0.106686  1
  O  O15  1  0.135791  0.364209  0.893314  1
  O  O16  1  0.635791  0.135791  0.106686  1
  O  O17  1  0.864209  0.635791  0.893314  1
