# generated using pymatgen
data_Na3Li3In2F12
_symmetry_space_group_name_H-M   'P 1'
_cell_length_a   11.16822132
_cell_length_b   11.16822132
_cell_length_c   11.16822132
_cell_angle_alpha   109.47122064
_cell_angle_beta   109.47122063
_cell_angle_gamma   109.47122064
_symmetry_Int_Tables_number   1
_chemical_formula_structural   Na3Li3In2F12
_chemical_formula_sum   'Na12 Li12 In8 F48'
_cell_volume   1072.33416849
_cell_formula_units_Z   4
loop_
 _symmetry_equiv_pos_site_id
 _symmetry_equiv_pos_as_xyz
  1  'x, y, z'
loop_
 _atom_site_type_symbol
 _atom_site_label
 _atom_site_symmetry_multiplicity
 _atom_site_fract_x
 _atom_site_fract_y
 _atom_site_fract_z
 _atom_site_occupancy
  Li  Li0  1  0.875000  0.125000  0.750000  1
  Li  Li1  1  0.125000  0.875000  0.250000  1
  Li  Li2  1  0.250000  0.625000  0.375000  1
  Li  Li3  1  0.125000  0.750000  0.875000  1
  Li  Li4  1  0.750000  0.875000  0.125000  1
  Li  Li5  1  0.375000  0.250000  0.625000  1
  Li  Li6  1  0.625000  0.750000  0.375000  1
  Li  Li7  1  0.875000  0.250000  0.125000  1
  Li  Li8  1  0.250000  0.125000  0.875000  1
  Li  Li9  1  0.750000  0.375000  0.625000  1
  Li  Li10  1  0.375000  0.625000  0.750000  1
  Li  Li11  1  0.625000  0.375000  0.250000  1
  F  F12  1  0.523132  0.622184  0.704697  1
  F  F13  1  0.877816  0.400948  0.082513  1
  F  F14  1  0.795303  0.417487  0.818435  1
  F  F15  1  0.976868  0.681565  0.099052  1
  F  F16  1  0.976868  0.795303  0.877816  1
  F  F17  1  0.681565  0.099052  0.976868  1
  F  F18  1  0.417487  0.099052  0.622184  1
  F  F19  1  0.099052  0.976868  0.681565  1
  F  F20  1  0.082513  0.704697  0.681565  1
  F  F21  1  0.400948  0.818435  0.523132  1
  F  F22  1  0.818435  0.523132  0.400948  1
  F  F23  1  0.877816  0.976868  0.795303  1
  F  F24  1  0.099052  0.622184  0.417487  1
  F  F25  1  0.681565  0.082513  0.704697  1
  F  F26  1  0.795303  0.877816  0.976868  1
  F  F27  1  0.622184  0.417487  0.099052  1
  F  F28  1  0.704697  0.681565  0.082513  1
  F  F29  1  0.082513  0.877816  0.400948  1
  F  F30  1  0.417487  0.818435  0.795303  1
  F  F31  1  0.818435  0.795303  0.417487  1
  F  F32  1  0.622184  0.704697  0.523132  1
  F  F33  1  0.704697  0.523132  0.622184  1
  F  F34  1  0.400948  0.082513  0.877816  1
  F  F35  1  0.523132  0.400948  0.818435  1
  F  F36  1  0.476868  0.377816  0.295303  1
  F  F37  1  0.122184  0.599052  0.917487  1
  F  F38  1  0.204697  0.582513  0.181565  1
  F  F39  1  0.023132  0.318435  0.900948  1
  F  F40  1  0.023132  0.204697  0.122184  1
  F  F41  1  0.318435  0.900948  0.023132  1
  F  F42  1  0.582513  0.900948  0.377816  1
  F  F43  1  0.900948  0.023132  0.318435  1
  F  F44  1  0.917487  0.295303  0.318435  1
  F  F45  1  0.599052  0.181565  0.476868  1
  F  F46  1  0.181565  0.476868  0.599052  1
  F  F47  1  0.122184  0.023132  0.204697  1
  F  F48  1  0.900948  0.377816  0.582513  1
  F  F49  1  0.318435  0.917487  0.295303  1
  F  F50  1  0.204697  0.122184  0.023132  1
  F  F51  1  0.377816  0.582513  0.900948  1
  F  F52  1  0.295303  0.318435  0.917487  1
  F  F53  1  0.917487  0.122184  0.599052  1
  F  F54  1  0.582513  0.181565  0.204697  1
  F  F55  1  0.181565  0.204697  0.582513  1
  F  F56  1  0.377816  0.295303  0.476868  1
  F  F57  1  0.295303  0.476868  0.377816  1
  F  F58  1  0.599052  0.917487  0.122184  1
  F  F59  1  0.476868  0.599052  0.181565  1
  Na  Na60  1  0.250000  0.875000  0.625000  1
  Na  Na61  1  0.875000  0.625000  0.250000  1
  Na  Na62  1  0.625000  0.875000  0.750000  1
  Na  Na63  1  0.875000  0.750000  0.625000  1
  Na  Na64  1  0.625000  0.250000  0.875000  1
  Na  Na65  1  0.750000  0.625000  0.875000  1
  Na  Na66  1  0.750000  0.125000  0.375000  1
  Na  Na67  1  0.125000  0.375000  0.750000  1
  Na  Na68  1  0.375000  0.125000  0.250000  1
  Na  Na69  1  0.125000  0.250000  0.375000  1
  Na  Na70  1  0.375000  0.750000  0.125000  1
  Na  Na71  1  0.250000  0.375000  0.125000  1
  In  In72  1  0.500000  0.500000  0.500000  1
  In  In73  1  0.500000  0.500000  0.000000  1
  In  In74  1  0.500000  0.000000  0.500000  1
  In  In75  1  0.000000  0.500000  0.500000  1
  In  In76  1  0.500000  0.000000  0.000000  1
  In  In77  1  0.000000  0.000000  0.500000  1
  In  In78  1  0.000000  0.500000  0.000000  1
  In  In79  1  0.000000  0.000000  0.000000  1
