# generated using pymatgen
data_Nb20(O13F7)3
_symmetry_space_group_name_H-M   'P 1'
_cell_length_a   4.13265011
_cell_length_b   3.88634511
_cell_length_c   80.30905148
_cell_angle_alpha   90.00000000
_cell_angle_beta   90.00000000
_cell_angle_gamma   90.00000000
_symmetry_Int_Tables_number   1
_chemical_formula_structural   Nb20(O13F7)3
_chemical_formula_sum   'Nb20 O39 F21'
_cell_volume   1289.83601003
_cell_formula_units_Z   1
loop_
 _symmetry_equiv_pos_site_id
 _symmetry_equiv_pos_as_xyz
  1  'x, y, z'
loop_
 _atom_site_type_symbol
 _atom_site_label
 _atom_site_symmetry_multiplicity
 _atom_site_fract_x
 _atom_site_fract_y
 _atom_site_fract_z
 _atom_site_occupancy
  Nb  Nb0  1  0.000000  0.000000  0.000000  1
  Nb  Nb1  1  0.000000  0.000000  0.052573  1
  Nb  Nb2  1  0.000000  0.000000  0.102489  1
  Nb  Nb3  1  0.000000  0.000000  0.152432  1
  Nb  Nb4  1  0.000000  0.000000  0.202455  1
  Nb  Nb5  1  0.000000  0.000000  0.252300  1
  Nb  Nb6  1  0.000000  0.000000  0.302171  1
  Nb  Nb7  1  0.000000  0.000000  0.352056  1
  Nb  Nb8  1  0.000000  0.000000  0.401861  1
  Nb  Nb9  1  0.000000  0.000000  0.451325  1
  Nb  Nb10  1  0.000000  0.000000  0.500000  1
  Nb  Nb11  1  0.000000  0.000000  0.548675  1
  Nb  Nb12  1  0.000000  0.000000  0.598139  1
  Nb  Nb13  1  0.000000  0.000000  0.647944  1
  Nb  Nb14  1  0.000000  0.000000  0.697829  1
  Nb  Nb15  1  0.000000  0.000000  0.747700  1
  Nb  Nb16  1  0.000000  0.000000  0.797545  1
  Nb  Nb17  1  0.000000  0.000000  0.847568  1
  Nb  Nb18  1  0.000000  0.000000  0.897511  1
  Nb  Nb19  1  0.000000  0.000000  0.947427  1
  O  O20  1  0.000000  0.000000  0.074912  1
  O  O21  1  0.000000  0.000000  0.125000  1
  O  O22  1  0.000000  0.000000  0.174891  1
  O  O23  1  0.000000  0.500000  0.149219  1
  O  O24  1  0.000000  0.000000  0.224763  1
  O  O25  1  0.000000  0.500000  0.249071  1
  O  O26  1  0.000000  0.000000  0.274718  1
  O  O27  1  0.000000  0.500000  0.299088  1
  O  O28  1  0.000000  0.000000  0.324669  1
  O  O29  1  0.000000  0.500000  0.349157  1
  O  O30  1  0.000000  0.000000  0.374635  1
  O  O31  1  0.000000  0.500000  0.399305  1
  O  O32  1  0.000000  0.000000  0.424715  1
  O  O33  1  0.000000  0.500000  0.449568  1
  O  O34  1  0.000000  0.000000  0.474900  1
  O  O35  1  0.000000  0.500000  0.500000  1
  O  O36  1  0.000000  0.000000  0.525100  1
  O  O37  1  0.000000  0.000000  0.575285  1
  O  O38  1  0.000000  0.500000  0.550432  1
  O  O39  1  0.000000  0.500000  0.600695  1
  O  O40  1  0.000000  0.000000  0.625365  1
  O  O41  1  0.000000  0.000000  0.675331  1
  O  O42  1  0.000000  0.500000  0.650843  1
  O  O43  1  0.000000  0.000000  0.725282  1
  O  O44  1  0.000000  0.500000  0.700912  1
  O  O45  1  0.000000  0.500000  0.750929  1
  O  O46  1  0.000000  0.000000  0.775237  1
  O  O47  1  0.000000  0.000000  0.825109  1
  O  O48  1  0.000000  0.500000  0.850781  1
  O  O49  1  0.000000  0.000000  0.875000  1
  O  O50  1  0.000000  0.000000  0.925088  1
  O  O51  1  0.000000  0.500000  0.950782  1
  O  O52  1  0.500000  0.000000  0.000000  1
  O  O53  1  0.000000  0.500000  0.000000  1
  O  O54  1  0.000000  0.500000  0.049218  1
  O  O55  1  0.000000  0.500000  0.099310  1
  O  O56  1  0.000000  0.500000  0.199079  1
  O  O57  1  0.000000  0.500000  0.800921  1
  O  O58  1  0.000000  0.500000  0.900690  1
  F  F59  1  0.000000  0.000000  0.974634  1
  F  F60  1  0.500000  0.000000  0.050131  1
  F  F61  1  0.500000  0.000000  0.100069  1
  F  F62  1  0.500000  0.000000  0.149928  1
  F  F63  1  0.500000  0.000000  0.199828  1
  F  F64  1  0.500000  0.000000  0.249793  1
  F  F65  1  0.500000  0.000000  0.299758  1
  F  F66  1  0.500000  0.000000  0.349759  1
  F  F67  1  0.500000  0.000000  0.449982  1
  F  F68  1  0.500000  0.000000  0.399839  1
  F  F69  1  0.500000  0.000000  0.500000  1
  F  F70  1  0.500000  0.000000  0.550018  1
  F  F71  1  0.500000  0.000000  0.600161  1
  F  F72  1  0.500000  0.000000  0.650241  1
  F  F73  1  0.500000  0.000000  0.700242  1
  F  F74  1  0.500000  0.000000  0.750207  1
  F  F75  1  0.500000  0.000000  0.800172  1
  F  F76  1  0.500000  0.000000  0.850072  1
  F  F77  1  0.500000  0.000000  0.899931  1
  F  F78  1  0.500000  0.000000  0.949869  1
  F  F79  1  0.000000  0.000000  0.025366  1
