# generated using pymatgen
data_Cs2PO3F
_symmetry_space_group_name_H-M   'P 1'
_cell_length_a   6.47228551
_cell_length_b   8.50548031
_cell_length_c   11.20680868
_cell_angle_alpha   90.00000000
_cell_angle_beta   90.00000000
_cell_angle_gamma   90.00000000
_symmetry_Int_Tables_number   1
_chemical_formula_structural   Cs2PO3F
_chemical_formula_sum   'Cs8 P4 O12 F4'
_cell_volume   616.93366315
_cell_formula_units_Z   4
loop_
 _symmetry_equiv_pos_site_id
 _symmetry_equiv_pos_as_xyz
  1  'x, y, z'
loop_
 _atom_site_type_symbol
 _atom_site_label
 _atom_site_symmetry_multiplicity
 _atom_site_fract_x
 _atom_site_fract_y
 _atom_site_fract_z
 _atom_site_occupancy
  O  O0  1  0.750000  0.200683  0.046930  1
  O  O1  1  0.250000  0.799317  0.953070  1
  O  O2  1  0.250000  0.299317  0.546930  1
  O  O3  1  0.750000  0.700683  0.453070  1
  O  O4  1  0.949184  0.218636  0.848662  1
  O  O5  1  0.449184  0.781364  0.151338  1
  O  O6  1  0.550816  0.718636  0.651338  1
  O  O7  1  0.050816  0.281364  0.348662  1
  O  O8  1  0.050816  0.781364  0.151338  1
  O  O9  1  0.550816  0.218636  0.848662  1
  O  O10  1  0.449184  0.281364  0.348662  1
  O  O11  1  0.949184  0.718636  0.651338  1
  F  F12  1  0.750000  0.949988  0.573878  1
  F  F13  1  0.250000  0.050012  0.426122  1
  F  F14  1  0.250000  0.550012  0.073878  1
  F  F15  1  0.750000  0.449988  0.926122  1
  P  P16  1  0.250000  0.747544  0.083495  1
  P  P17  1  0.750000  0.252456  0.916505  1
  P  P18  1  0.250000  0.247544  0.416505  1
  P  P19  1  0.750000  0.752456  0.583495  1
  Cs  Cs20  1  0.250000  0.500731  0.785557  1
  Cs  Cs21  1  0.750000  0.499269  0.214443  1
  Cs  Cs22  1  0.250000  0.000731  0.714443  1
  Cs  Cs23  1  0.750000  0.999269  0.285557  1
  Cs  Cs24  1  0.250000  0.675318  0.417791  1
  Cs  Cs25  1  0.750000  0.324682  0.582209  1
  Cs  Cs26  1  0.250000  0.175318  0.082209  1
  Cs  Cs27  1  0.750000  0.824682  0.917791  1
