# generated using pymatgen
data_CsTiH24(SO10)2
_symmetry_space_group_name_H-M   'P 1'
_cell_length_a   12.46264217
_cell_length_b   12.47522485
_cell_length_c   12.43422385
_cell_angle_alpha   90.00000000
_cell_angle_beta   90.00000000
_cell_angle_gamma   90.00000000
_symmetry_Int_Tables_number   1
_chemical_formula_structural   CsTiH24(SO10)2
_chemical_formula_sum   'Cs4 Ti4 H96 S8 O80'
_cell_volume   1933.20179273
_cell_formula_units_Z   4
loop_
 _symmetry_equiv_pos_site_id
 _symmetry_equiv_pos_as_xyz
  1  'x, y, z'
loop_
 _atom_site_type_symbol
 _atom_site_label
 _atom_site_symmetry_multiplicity
 _atom_site_fract_x
 _atom_site_fract_y
 _atom_site_fract_z
 _atom_site_occupancy
  Cs  Cs0  1  0.000000  0.500000  0.000000  1
  Cs  Cs1  1  0.500000  0.000000  0.000000  1
  Cs  Cs2  1  0.000000  0.000000  0.500000  1
  Cs  Cs3  1  0.500000  0.500000  0.500000  1
  Ti  Ti4  1  0.500000  0.000000  0.500000  1
  Ti  Ti5  1  0.000000  0.500000  0.500000  1
  Ti  Ti6  1  0.500000  0.500000  0.000000  1
  Ti  Ti7  1  0.000000  0.000000  0.000000  1
  H  H8  1  0.509406  0.227914  0.222601  1
  H  H9  1  0.009406  0.272086  0.777399  1
  H  H10  1  0.490594  0.727914  0.277399  1
  H  H11  1  0.990594  0.772086  0.722601  1
  H  H12  1  0.490594  0.772086  0.777399  1
  H  H13  1  0.990594  0.727914  0.222601  1
  H  H14  1  0.509406  0.272086  0.722601  1
  H  H15  1  0.009406  0.227914  0.277399  1
  H  H16  1  0.627998  0.219738  0.184232  1
  H  H17  1  0.127998  0.280262  0.815768  1
  H  H18  1  0.372002  0.719738  0.315768  1
  H  H19  1  0.872002  0.780262  0.684232  1
  H  H20  1  0.372002  0.780262  0.815768  1
  H  H21  1  0.872002  0.719738  0.184232  1
  H  H22  1  0.627998  0.280262  0.684232  1
  H  H23  1  0.127998  0.219738  0.315768  1
  H  H24  1  0.778943  0.011071  0.269400  1
  H  H25  1  0.278943  0.488929  0.730600  1
  H  H26  1  0.221057  0.511071  0.230600  1
  H  H27  1  0.721057  0.988929  0.769400  1
  H  H28  1  0.221057  0.988929  0.730600  1
  H  H29  1  0.721057  0.511071  0.269400  1
  H  H30  1  0.778943  0.488929  0.769400  1
  H  H31  1  0.278943  0.011071  0.230600  1
  H  H32  1  0.816640  0.129289  0.280932  1
  H  H33  1  0.316640  0.370711  0.719068  1
  H  H34  1  0.183360  0.629289  0.219068  1
  H  H35  1  0.683360  0.870711  0.780932  1
  H  H36  1  0.183360  0.870711  0.719068  1
  H  H37  1  0.683360  0.629289  0.280932  1
  H  H38  1  0.816640  0.370711  0.780932  1
  H  H39  1  0.316640  0.129289  0.219068  1
  H  H40  1  0.728548  0.282087  0.491542  1
  H  H41  1  0.228548  0.217913  0.508458  1
  H  H42  1  0.271452  0.782087  0.008458  1
  H  H43  1  0.771452  0.717913  0.991542  1
  H  H44  1  0.271452  0.717913  0.508458  1
  H  H45  1  0.771452  0.782087  0.491542  1
  H  H46  1  0.728548  0.217913  0.991542  1
  H  H47  1  0.228548  0.282087  0.008458  1
  H  H48  1  0.720312  0.320678  0.372573  1
  H  H49  1  0.220312  0.179322  0.627427  1
  H  H50  1  0.279688  0.820678  0.127427  1
  H  H51  1  0.779688  0.679322  0.872573  1
  H  H52  1  0.279688  0.679322  0.627427  1
  H  H53  1  0.779688  0.820678  0.372573  1
  H  H54  1  0.720312  0.179322  0.872573  1
  H  H55  1  0.220312  0.320678  0.127427  1
  H  H56  1  0.713754  0.938797  0.477833  1
  H  H57  1  0.213754  0.561203  0.522167  1
  H  H58  1  0.286246  0.438797  0.022167  1
  H  H59  1  0.786246  0.061203  0.977833  1
  H  H60  1  0.286246  0.061203  0.522167  1
  H  H61  1  0.786246  0.438797  0.477833  1
  H  H62  1  0.713754  0.561203  0.977833  1
  H  H63  1  0.213754  0.938797  0.022167  1
  H  H64  1  0.708884  0.064615  0.521853  1
  H  H65  1  0.208884  0.435385  0.478147  1
  H  H66  1  0.291116  0.564615  0.978147  1
  H  H67  1  0.791116  0.935385  0.021853  1
  H  H68  1  0.291116  0.935385  0.478147  1
  H  H69  1  0.791116  0.564615  0.521853  1
  H  H70  1  0.708884  0.435385  0.021853  1
  H  H71  1  0.208884  0.064615  0.978147  1
  H  H72  1  0.521966  0.211763  0.565415  1
  H  H73  1  0.021966  0.288237  0.434585  1
  H  H74  1  0.478034  0.711763  0.934585  1
  H  H75  1  0.978034  0.788237  0.065415  1
  H  H76  1  0.478034  0.788237  0.434585  1
  H  H77  1  0.978034  0.711763  0.565415  1
  H  H78  1  0.521966  0.288237  0.065415  1
  H  H79  1  0.021966  0.211763  0.934585  1
  H  H80  1  0.473637  0.208166  0.441548  1
  H  H81  1  0.973637  0.291834  0.558452  1
  H  H82  1  0.526363  0.708166  0.058452  1
  H  H83  1  0.026363  0.791834  0.941548  1
  H  H84  1  0.526363  0.791834  0.558452  1
  H  H85  1  0.026363  0.708166  0.441548  1
  H  H86  1  0.473637  0.291834  0.941548  1
  H  H87  1  0.973637  0.208166  0.058452  1
  H  H88  1  0.438745  0.025777  0.286577  1
  H  H89  1  0.938745  0.474223  0.713423  1
  H  H90  1  0.561255  0.525777  0.213423  1
  H  H91  1  0.061255  0.974223  0.786577  1
  H  H92  1  0.561255  0.974223  0.713423  1
  H  H93  1  0.061255  0.525777  0.286577  1
  H  H94  1  0.438745  0.474223  0.786577  1
  H  H95  1  0.938745  0.025777  0.213423  1
  H  H96  1  0.561406  0.976872  0.289637  1
  H  H97  1  0.061406  0.523128  0.710363  1
  H  H98  1  0.438594  0.476872  0.210363  1
  H  H99  1  0.938594  0.023128  0.789637  1
  H  H100  1  0.438594  0.023128  0.710363  1
  H  H101  1  0.938594  0.476872  0.289637  1
  H  H102  1  0.561406  0.523128  0.789637  1
  H  H103  1  0.061406  0.976872  0.210363  1
  S  S104  1  0.826533  0.327151  0.171546  1
  S  S105  1  0.326533  0.172849  0.828454  1
  S  S106  1  0.173467  0.827151  0.328454  1
  S  S107  1  0.673467  0.672849  0.671546  1
  S  S108  1  0.173467  0.672849  0.828454  1
  S  S109  1  0.673467  0.827151  0.171546  1
  S  S110  1  0.826533  0.172849  0.671546  1
  S  S111  1  0.326533  0.327151  0.328454  1
  O  O112  1  0.757801  0.259532  0.243436  1
  O  O113  1  0.257801  0.240468  0.756564  1
  O  O114  1  0.242199  0.759532  0.256564  1
  O  O115  1  0.742199  0.740468  0.743436  1
  O  O116  1  0.242199  0.740468  0.756564  1
  O  O117  1  0.742199  0.759532  0.243436  1
  O  O118  1  0.757801  0.240468  0.743436  1
  O  O119  1  0.257801  0.259532  0.256564  1
  O  O120  1  0.778448  0.331606  0.061813  1
  O  O121  1  0.278448  0.168394  0.938187  1
  O  O122  1  0.221552  0.831606  0.438187  1
  O  O123  1  0.721552  0.668394  0.561813  1
  O  O124  1  0.221552  0.668394  0.938187  1
  O  O125  1  0.721552  0.831606  0.061813  1
  O  O126  1  0.778448  0.168394  0.561813  1
  O  O127  1  0.278448  0.331606  0.438187  1
  O  O128  1  0.936658  0.280404  0.164324  1
  O  O129  1  0.436658  0.219596  0.835676  1
  O  O130  1  0.063342  0.780404  0.335676  1
  O  O131  1  0.563342  0.719596  0.664324  1
  O  O132  1  0.063342  0.719596  0.835676  1
  O  O133  1  0.563342  0.780404  0.164324  1
  O  O134  1  0.936658  0.219596  0.664324  1
  O  O135  1  0.436658  0.280404  0.335676  1
  O  O136  1  0.834267  0.438570  0.215820  1
  O  O137  1  0.334267  0.061430  0.784180  1
  O  O138  1  0.165733  0.938570  0.284180  1
  O  O139  1  0.665733  0.561430  0.715820  1
  O  O140  1  0.165733  0.561430  0.784180  1
  O  O141  1  0.665733  0.938570  0.215820  1
  O  O142  1  0.834267  0.061430  0.715820  1
  O  O143  1  0.334267  0.438570  0.284180  1
  O  O144  1  0.553582  0.207362  0.159744  1
  O  O145  1  0.053582  0.292638  0.840256  1
  O  O146  1  0.446418  0.707362  0.340256  1
  O  O147  1  0.946418  0.792638  0.659744  1
  O  O148  1  0.446418  0.792638  0.840256  1
  O  O149  1  0.946418  0.707362  0.159744  1
  O  O150  1  0.553582  0.292638  0.659744  1
  O  O151  1  0.053582  0.207362  0.340256  1
  O  O152  1  0.840851  0.054661  0.292885  1
  O  O153  1  0.340851  0.445339  0.707115  1
  O  O154  1  0.159149  0.554661  0.207115  1
  O  O155  1  0.659149  0.945339  0.792885  1
  O  O156  1  0.159149  0.945339  0.707115  1
  O  O157  1  0.659149  0.554661  0.292885  1
  O  O158  1  0.840851  0.445339  0.792885  1
  O  O159  1  0.340851  0.054661  0.207115  1
  O  O160  1  0.706973  0.344524  0.447181  1
  O  O161  1  0.206973  0.155476  0.552819  1
  O  O162  1  0.293027  0.844524  0.052819  1
  O  O163  1  0.793027  0.655476  0.947181  1
  O  O164  1  0.293027  0.655476  0.552819  1
  O  O165  1  0.793027  0.844524  0.447181  1
  O  O166  1  0.706973  0.155476  0.947181  1
  O  O167  1  0.206973  0.344524  0.052819  1
  O  O168  1  0.664995  0.001250  0.498714  1
  O  O169  1  0.164995  0.498750  0.501286  1
  O  O170  1  0.335005  0.501250  0.001286  1
  O  O171  1  0.835005  0.998750  0.998714  1
  O  O172  1  0.335005  0.998750  0.501286  1
  O  O173  1  0.835005  0.501250  0.498714  1
  O  O174  1  0.664995  0.498750  0.998714  1
  O  O175  1  0.164995  0.001250  0.001286  1
  O  O176  1  0.495962  0.163659  0.504605  1
  O  O177  1  0.995962  0.336341  0.495395  1
  O  O178  1  0.504038  0.663659  0.995395  1
  O  O179  1  0.004038  0.836341  0.004605  1
  O  O180  1  0.504038  0.836341  0.495395  1
  O  O181  1  0.004038  0.663659  0.504605  1
  O  O182  1  0.495962  0.336341  0.004605  1
  O  O183  1  0.995962  0.163659  0.995395  1
  O  O184  1  0.500305  0.002628  0.334743  1
  O  O185  1  0.000305  0.497372  0.665257  1
  O  O186  1  0.499695  0.502628  0.165257  1
  O  O187  1  0.999695  0.997372  0.834743  1
  O  O188  1  0.499695  0.997372  0.665257  1
  O  O189  1  0.999695  0.502628  0.334743  1
  O  O190  1  0.500305  0.497372  0.834743  1
  O  O191  1  0.000305  0.002628  0.165257  1
