# generated using pymatgen
data_Ba2Al4Si6H14O27
_symmetry_space_group_name_H-M   'P 1'
_cell_length_a   8.77625143
_cell_length_b   8.36894480
_cell_length_c   8.30023814
_cell_angle_alpha   88.08238405
_cell_angle_beta   81.54228137
_cell_angle_gamma   90.59548644
_symmetry_Int_Tables_number   1
_chemical_formula_structural   Ba2Al4Si6H14O27
_chemical_formula_sum   'Ba2 Al4 Si6 H14 O27'
_cell_volume   602.59558133
_cell_formula_units_Z   1
loop_
 _symmetry_equiv_pos_site_id
 _symmetry_equiv_pos_as_xyz
  1  'x, y, z'
loop_
 _atom_site_type_symbol
 _atom_site_label
 _atom_site_symmetry_multiplicity
 _atom_site_fract_x
 _atom_site_fract_y
 _atom_site_fract_z
 _atom_site_occupancy
  Ba  Ba0  1  0.014492  0.039912  0.456811  1
  Ba  Ba1  1  0.037496  0.490997  0.977000  1
  Al  Al2  1  0.326420  0.719354  0.494892  1
  Al  Al3  1  0.317036  0.356885  0.468287  1
  Al  Al4  1  0.674432  0.849124  0.020470  1
  Al  Al5  1  0.727866  0.191232  0.022624  1
  Si  Si6  1  0.043615  0.952204  0.947425  1
  Si  Si7  1  0.381830  0.904065  0.248501  1
  Si  Si8  1  0.302554  0.025335  0.706019  1
  Si  Si9  1  0.648515  0.477019  0.902330  1
  Si  Si10  1  0.671105  0.401808  0.341033  1
  Si  Si11  1  -0.005861  0.459281  0.442815  1
  H  H12  1  0.320574  0.563523  0.237637  1
  H  H13  1  0.369925  0.507934  0.720969  1
  H  H14  1  0.338035  0.113769  0.094009  1
  H  H15  1  0.245377  0.787709  0.974272  1
  H  H16  1  -0.008015  0.965041  0.784182  1
  H  H17  1  0.037223  0.739849  0.436544  1
  H  H18  1  0.978298  0.089712  0.054103  1
  H  H19  1  0.890609  0.848738  0.024378  1
  H  H20  1  0.016315  0.498292  0.610871  1
  H  H21  1  0.966353  0.552356  0.294864  1
  H  H22  1  0.766861  0.343572  0.604279  1
  H  H23  1  0.733332  0.684665  0.361300  1
  H  H24  1  0.705291  0.040414  0.770767  1
  H  H25  1  0.659872  0.001776  0.283953  1
  O  O26  1  0.210914  0.828320  0.339132  1
  O  O27  1  0.266280  0.171756  0.588322  1
  O  O28  1  0.316050  0.550983  0.355840  1
  O  O29  1  0.309442  0.521210  0.630753  1
  O  O30  1  0.250255  0.848653  0.659072  1
  O  O31  1  0.219077  0.058627  0.892839  1
  O  O32  1  0.132681  0.782445  0.000224  1
  O  O33  1  0.332831  0.517079  0.026682  1
  O  O34  1  0.120694  0.325286  0.386697  1
  O  O35  1  0.514683  0.311868  0.411280  1
  O  O36  1  0.477251  0.857728  0.398913  1
  O  O37  1  0.492758  0.010831  0.732879  1
  O  O38  1  0.343974  0.095194  0.210768  1
  O  O39  1  0.549644  0.344557  0.792997  1
  O  O40  1  0.470705  0.831494  0.080573  1
  O  O41  1  0.540060  0.302270  0.979543  1
  O  O42  1  0.447536  0.577953  0.916517  1
  O  O43  1  0.835055  0.806621  0.396797  1
  O  O44  1  0.609619  0.054604  0.615044  1
  O  O45  1  0.808473  0.361983  0.486894  1
  O  O46  1  0.932115  0.723456  0.504777  1
  O  O47  1  0.807911  0.361062  0.870256  1
  O  O48  1  0.662046  0.592132  0.327513  1
  O  O49  1  0.697455  0.013990  0.167146  1
  O  O50  1  0.728720  0.025934  0.883606  1
  O  O51  1  0.771156  0.323530  0.182107  1
  O  O52  1  0.723419  0.651409  0.930165  1
