# generated using pymatgen
data_Fe5Ni7S16
_symmetry_space_group_name_H-M   'P 1'
_cell_length_a   6.71521934
_cell_length_b   6.64694969
_cell_length_c   26.43163930
_cell_angle_alpha   60.21574213
_cell_angle_beta   60.49487211
_cell_angle_gamma   60.58006949
_symmetry_Int_Tables_number   1
_chemical_formula_structural   Fe5Ni7S16
_chemical_formula_sum   'Fe10 Ni14 S32'
_cell_volume   842.33805364
_cell_formula_units_Z   2
loop_
 _symmetry_equiv_pos_site_id
 _symmetry_equiv_pos_as_xyz
  1  'x, y, z'
loop_
 _atom_site_type_symbol
 _atom_site_label
 _atom_site_symmetry_multiplicity
 _atom_site_fract_x
 _atom_site_fract_y
 _atom_site_fract_z
 _atom_site_occupancy
  Fe  Fe0  1  0.120808  0.124029  0.032583  1
  Fe  Fe1  1  0.499819  0.499762  0.125341  1
  Fe  Fe2  1  0.500283  0.495583  0.252801  1
  Fe  Fe3  1  0.500236  0.499840  0.374460  1
  Fe  Fe4  1  0.500385  0.503424  0.498527  1
  Fe  Fe5  1  0.499981  0.001324  0.374724  1
  Fe  Fe6  1  0.499811  0.500121  0.625234  1
  Fe  Fe7  1  0.499370  0.496110  0.751386  1
  Fe  Fe8  1  0.500435  0.496145  0.873721  1
  Fe  Fe9  1  0.500411  0.008680  0.873663  1
  Ni  Ni10  1  0.500362  0.499393  -0.000121  1
  Ni  Ni11  1  0.125472  0.124321  0.280677  1
  Ni  Ni12  1  0.500086  -0.000353  0.124989  1
  Ni  Ni13  1  0.120354  0.125264  0.532251  1
  Ni  Ni14  1  0.999102  0.499874  0.125202  1
  Ni  Ni15  1  0.879423  0.874630  0.217881  1
  Ni  Ni16  1  0.125610  0.123965  0.780601  1
  Ni  Ni17  1  -0.000130  0.500085  0.375033  1
  Ni  Ni18  1  0.875281  0.875840  0.469157  1
  Ni  Ni19  1  0.499854  0.000110  0.625017  1
  Ni  Ni20  1  0.000183  0.499920  0.624991  1
  Ni  Ni21  1  0.878932  0.874481  0.717972  1
  Ni  Ni22  1  0.998399  0.500577  0.875089  1
  Ni  Ni23  1  0.878225  0.875785  0.968372  1
  S  S24  1  0.253730  0.254681  0.063430  1
  S  S25  1  0.261517  0.261313  0.180600  1
  S  S26  1  0.259130  0.734731  0.064672  1
  S  S27  1  0.734522  0.259673  0.064565  1
  S  S28  1  0.260385  0.255581  0.314223  1
  S  S29  1  0.276878  0.734328  0.186608  1
  S  S30  1  0.735056  0.275518  0.186552  1
  S  S31  1  0.261104  0.256688  0.431641  1
  S  S32  1  0.739798  0.738980  0.069152  1
  S  S33  1  0.258932  0.727175  0.314398  1
  S  S34  1  0.732148  0.253711  0.314638  1
  S  S35  1  0.738460  0.738091  0.187258  1
  S  S36  1  0.260914  0.261320  0.563270  1
  S  S37  1  0.270610  0.744802  0.435272  1
  S  S38  1  0.739476  0.274309  0.435639  1
  S  S39  1  0.738582  0.743500  0.318380  1
  S  S40  1  0.261138  0.261108  0.681059  1
  S  S41  1  0.262561  0.725620  0.563954  1
  S  S42  1  0.724489  0.263544  0.563771  1
  S  S43  1  0.738746  0.744430  0.435897  1
  S  S44  1  0.258936  0.257001  0.814197  1
  S  S45  1  0.274159  0.737678  0.686156  1
  S  S46  1  0.738453  0.273408  0.686006  1
  S  S47  1  0.258535  0.725737  0.814422  1
  S  S48  1  0.739148  0.738949  0.568911  1
  S  S49  1  0.258956  0.253079  0.933900  1
  S  S50  1  0.732648  0.255348  0.813745  1
  S  S51  1  0.739259  0.738810  0.686705  1
  S  S52  1  0.276364  0.744662  0.933718  1
  S  S53  1  0.739728  0.274431  0.934324  1
  S  S54  1  0.734418  0.744813  0.818634  1
  S  S55  1  0.738528  0.748072  0.934755  1
