# generated using pymatgen
data_Ba2TlCuHgO5
_symmetry_space_group_name_H-M   'P 1'
_cell_length_a   3.91053599
_cell_length_b   3.91054352
_cell_length_c   24.05481841
_cell_angle_alpha   90.00004894
_cell_angle_beta   89.99975145
_cell_angle_gamma   89.99979898
_symmetry_Int_Tables_number   1
_chemical_formula_structural   Ba2TlCuHgO5
_chemical_formula_sum   'Ba4 Tl2 Cu2 Hg2 O10'
_cell_volume   367.85400894
_cell_formula_units_Z   2
loop_
 _symmetry_equiv_pos_site_id
 _symmetry_equiv_pos_as_xyz
  1  'x, y, z'
loop_
 _atom_site_type_symbol
 _atom_site_label
 _atom_site_symmetry_multiplicity
 _atom_site_fract_x
 _atom_site_fract_y
 _atom_site_fract_z
 _atom_site_occupancy
  Ba  Ba0  1  0.499992  0.499996  0.919117  1
  Ba  Ba1  1  0.000001  0.000005  0.584928  1
  Ba  Ba2  1  0.499998  0.500000  0.084931  1
  Ba  Ba3  1  -0.000003  0.000001  0.419009  1
  Tl  Tl4  1  0.500002  0.500000  0.700719  1
  Tl  Tl5  1  0.000001  0.000000  0.200842  1
  Cu  Cu6  1  0.000002  0.999995  0.005982  1
  Cu  Cu7  1  0.500007  0.500000  0.506023  1
  Hg  Hg8  1  0.500000  0.500001  0.295328  1
  Hg  Hg9  1  0.000002  0.999999  0.795531  1
  O  O10  1  0.000002  0.500002  0.498302  1
  O  O11  1  0.499998  0.500005  0.608491  1
  O  O12  1  0.500001  0.500002  0.210678  1
  O  O13  1  0.499997  0.000000  0.498302  1
  O  O14  1  -0.000000  0.999999  0.710544  1
  O  O15  1  0.499998  0.500001  0.379022  1
  O  O16  1  -0.000001  0.999999  0.878817  1
  O  O17  1  0.999997  0.000003  0.108768  1
  O  O18  1  0.000003  0.499996  0.998332  1
  O  O19  1  0.500002  0.999997  0.998333  1
