# generated using pymatgen
data_Ba2Eu2Ti2Cu2O11
_symmetry_space_group_name_H-M   'P 1'
_cell_length_a   3.92492588
_cell_length_b   3.92433109
_cell_length_c   15.95445028
_cell_angle_alpha   89.99997804
_cell_angle_beta   89.99947563
_cell_angle_gamma   89.98776469
_symmetry_Int_Tables_number   1
_chemical_formula_structural   Ba2Eu2Ti2Cu2O11
_chemical_formula_sum   'Ba2 Eu2 Ti2 Cu2 O11'
_cell_volume   245.74174413
_cell_formula_units_Z   1
loop_
 _symmetry_equiv_pos_site_id
 _symmetry_equiv_pos_as_xyz
  1  'x, y, z'
loop_
 _atom_site_type_symbol
 _atom_site_label
 _atom_site_symmetry_multiplicity
 _atom_site_fract_x
 _atom_site_fract_y
 _atom_site_fract_z
 _atom_site_occupancy
  Eu  Eu0  1  0.500000  0.500000  0.999947  1
  Eu  Eu1  1  0.500000  0.500002  0.499997  1
  Ba  Ba2  1  0.500002  0.499997  0.762397  1
  Ba  Ba3  1  0.499998  0.500002  0.237697  1
  Ti  Ti4  1  0.000001  0.999998  0.624636  1
  Ti  Ti5  1  0.999999  0.000002  0.375353  1
  Cu  Cu6  1  0.999999  0.000000  0.109593  1
  Cu  Cu7  1  0.000001  0.000000  0.890380  1
  O  O8  1  0.000006  0.999999  0.743105  1
  O  O9  1  0.000005  0.500001  0.614521  1
  O  O10  1  0.500005  0.000002  0.614530  1
  O  O11  1  0.499995  -0.000001  0.385465  1
  O  O12  1  0.000002  0.000000  0.499994  1
  O  O13  1  0.999994  0.000001  0.256910  1
  O  O14  1  0.500000  0.999996  0.095749  1
  O  O15  1  0.500000  -0.000000  0.904251  1
  O  O16  1  0.999998  0.500002  0.904233  1
  O  O17  1  0.999992  0.499999  0.385474  1
  O  O18  1  0.000002  0.499999  0.095768  1
