# generated using pymatgen
data_FeCu4Re14(Mo3S20)2
_symmetry_space_group_name_H-M   'P 1'
_cell_length_a   6.83017923
_cell_length_b   6.83017889
_cell_length_c   34.17596936
_cell_angle_alpha   59.75457955
_cell_angle_beta   59.75458119
_cell_angle_gamma   59.73603082
_symmetry_Int_Tables_number   1
_chemical_formula_structural   FeCu4Re14(Mo3S20)2
_chemical_formula_sum   'Fe1 Cu4 Re14 Mo6 S40'
_cell_volume   1120.93793619
_cell_formula_units_Z   1
loop_
 _symmetry_equiv_pos_site_id
 _symmetry_equiv_pos_as_xyz
  1  'x, y, z'
loop_
 _atom_site_type_symbol
 _atom_site_label
 _atom_site_symmetry_multiplicity
 _atom_site_fract_x
 _atom_site_fract_y
 _atom_site_fract_z
 _atom_site_occupancy
  Fe  Fe0  1  0.999536  0.999536  0.800209  1
  Cu  Cu1  1  0.000166  0.000166  0.000145  1
  Cu  Cu2  1  0.000318  0.000318  0.200005  1
  Cu  Cu3  1  0.000355  0.000355  0.399952  1
  Cu  Cu4  1  0.000225  0.000225  0.600065  1
  Re  Re5  1  0.187203  0.603681  0.120828  1
  Re  Re6  1  0.603670  0.603670  0.037532  1
  Re  Re7  1  0.603681  0.187203  0.120828  1
  Re  Re8  1  0.187349  0.603892  0.320703  1
  Re  Re9  1  0.603759  0.603759  0.237466  1
  Re  Re10  1  0.603892  0.187349  0.320703  1
  Re  Re11  1  0.187479  0.603853  0.520708  1
  Re  Re12  1  0.603853  0.187479  0.520708  1
  Re  Re13  1  0.603818  0.603818  0.437437  1
  Re  Re14  1  0.189242  0.603774  0.720370  1
  Re  Re15  1  0.603774  0.189242  0.720370  1
  Re  Re16  1  0.604010  0.604010  0.637327  1
  Re  Re17  1  0.186709  0.602846  0.921275  1
  Re  Re18  1  0.602846  0.186709  0.921275  1
  Mo  Mo19  1  0.603115  0.603115  0.120699  1
  Mo  Mo20  1  0.603351  0.603351  0.320551  1
  Mo  Mo21  1  0.603250  0.603250  0.520578  1
  Mo  Mo22  1  0.603154  0.603154  0.720331  1
  Mo  Mo23  1  0.602064  0.602064  0.838594  1
  Mo  Mo24  1  0.602277  0.602277  0.921089  1
  S  S25  1  0.365232  0.365232  0.073084  1
  S  S26  1  0.363430  0.363430  0.181088  1
  S  S27  1  0.363347  0.905393  0.072714  1
  S  S28  1  0.365379  0.365379  0.273026  1
  S  S29  1  0.405706  0.866872  0.173479  1
  S  S30  1  0.905393  0.363347  0.072714  1
  S  S31  1  0.866928  0.866928  0.081218  1
  S  S32  1  0.363726  0.363726  0.380911  1
  S  S33  1  0.866872  0.405706  0.173479  1
  S  S34  1  0.363459  0.905433  0.272655  1
  S  S35  1  0.864123  0.864123  0.172942  1
  S  S36  1  0.365504  0.365504  0.473013  1
  S  S37  1  0.406117  0.866985  0.373346  1
  S  S38  1  0.905433  0.363459  0.272655  1
  S  S39  1  0.867139  0.867139  0.281091  1
  S  S40  1  0.363695  0.363695  0.580909  1
  S  S41  1  0.363585  0.905245  0.472635  1
  S  S42  1  0.866985  0.406117  0.373346  1
  S  S43  1  0.864258  0.864258  0.372786  1
  S  S44  1  0.365740  0.365740  0.672818  1
  S  S45  1  0.405906  0.867056  0.573374  1
  S  S46  1  0.905245  0.363585  0.472635  1
  S  S47  1  0.867150  0.867150  0.481088  1
  S  S48  1  0.363472  0.363472  0.780920  1
  S  S49  1  0.363977  0.905535  0.672448  1
  S  S50  1  0.867056  0.405906  0.573374  1
  S  S51  1  0.864341  0.864341  0.572806  1
  S  S52  1  0.362868  0.362868  0.873988  1
  S  S53  1  0.405212  0.870412  0.772362  1
  S  S54  1  0.905535  0.363977  0.672448  1
  S  S55  1  0.866312  0.866312  0.681548  1
  S  S56  1  0.362907  0.362907  0.981297  1
  S  S57  1  0.361417  0.905580  0.873491  1
  S  S58  1  0.870412  0.405212  0.772362  1
  S  S59  1  0.867099  0.867099  0.771540  1
  S  S60  1  0.406184  0.866773  0.973412  1
  S  S61  1  0.905580  0.361417  0.873491  1
  S  S62  1  0.867309  0.867309  0.881491  1
  S  S63  1  0.866773  0.406184  0.973412  1
  S  S64  1  0.864094  0.864094  0.972857  1
