# generated using pymatgen
data_CoBC8(OF2)5
_symmetry_space_group_name_H-M   'P 1'
_cell_length_a   8.22644536
_cell_length_b   13.08193866
_cell_length_c   14.32881302
_cell_angle_alpha   90.00000000
_cell_angle_beta   90.00000000
_cell_angle_gamma   98.98522500
_symmetry_Int_Tables_number   1
_chemical_formula_structural   CoBC8(OF2)5
_chemical_formula_sum   'Co4 B4 C32 O20 F40'
_cell_volume   1523.11323372
_cell_formula_units_Z   4
loop_
 _symmetry_equiv_pos_site_id
 _symmetry_equiv_pos_as_xyz
  1  'x, y, z'
loop_
 _atom_site_type_symbol
 _atom_site_label
 _atom_site_symmetry_multiplicity
 _atom_site_fract_x
 _atom_site_fract_y
 _atom_site_fract_z
 _atom_site_occupancy
  Co  Co0  1  0.775887  0.760868  0.602287  1
  Co  Co1  1  0.224113  0.239132  0.397713  1
  Co  Co2  1  0.775887  0.260868  0.897713  1
  Co  Co3  1  0.224113  0.739132  0.102287  1
  B  B4  1  0.222033  0.499192  0.758419  1
  B  B5  1  0.777967  0.500808  0.241581  1
  B  B6  1  0.777967  0.000808  0.258419  1
  B  B7  1  0.222033  0.999192  0.741581  1
  C  C8  1  0.802255  0.399164  0.911830  1
  C  C9  1  0.747485  0.621877  0.612405  1
  C  C10  1  0.598267  0.508211  0.192949  1
  C  C11  1  0.167616  0.612392  0.782038  1
  C  C12  1  0.231253  0.723508  0.228691  1
  C  C13  1  0.197745  0.600836  0.088170  1
  C  C14  1  0.598267  0.008211  0.307051  1
  C  C15  1  0.252515  0.378123  0.387595  1
  C  C16  1  0.747485  0.121877  0.887595  1
  C  C17  1  0.022387  0.740920  0.050616  1
  C  C18  1  0.167616  0.112392  0.717962  1
  C  C19  1  0.197745  0.100836  0.411830  1
  C  C20  1  0.407475  0.249633  0.469953  1
  C  C21  1  0.977613  0.759080  0.550616  1
  C  C22  1  0.401733  0.991789  0.692949  1
  C  C23  1  0.832384  0.887608  0.282038  1
  C  C24  1  0.252515  0.878123  0.112405  1
  C  C25  1  0.769124  0.016009  0.144387  1
  C  C26  1  0.769124  0.516009  0.355613  1
  C  C27  1  0.592525  0.250367  0.969953  1
  C  C28  1  0.231253  0.223508  0.271309  1
  C  C29  1  0.768747  0.276492  0.771309  1
  C  C30  1  0.977613  0.259080  0.949384  1
  C  C31  1  0.768747  0.776492  0.728691  1
  C  C32  1  0.592525  0.750367  0.530047  1
  C  C33  1  0.401733  0.491789  0.807051  1
  C  C34  1  0.230876  0.483991  0.644387  1
  C  C35  1  0.832384  0.387608  0.217962  1
  C  C36  1  0.022387  0.240920  0.449384  1
  C  C37  1  0.230876  0.983991  0.855613  1
  C  C38  1  0.802255  0.899164  0.588170  1
  C  C39  1  0.407475  0.749633  0.030047  1
  O  O40  1  0.766360  0.288268  0.692226  1
  O  O41  1  0.521859  0.255156  0.516311  1
  O  O42  1  0.730525  0.533637  0.616974  1
  O  O43  1  0.521859  0.755156  0.983689  1
  O  O44  1  0.478141  0.244844  0.016311  1
  O  O45  1  0.104262  0.258078  0.982124  1
  O  O46  1  0.730525  0.033637  0.883026  1
  O  O47  1  0.817193  0.986776  0.577632  1
  O  O48  1  0.478141  0.744844  0.483689  1
  O  O49  1  0.104262  0.758078  0.517876  1
  O  O50  1  0.233640  0.711732  0.307774  1
  O  O51  1  0.269475  0.966363  0.116974  1
  O  O52  1  0.233640  0.211732  0.192226  1
  O  O53  1  0.817193  0.486776  0.922368  1
  O  O54  1  0.895738  0.241922  0.482124  1
  O  O55  1  0.182807  0.513224  0.077632  1
  O  O56  1  0.766360  0.788268  0.807774  1
  O  O57  1  0.182807  0.013224  0.422368  1
  O  O58  1  0.269475  0.466363  0.383026  1
  O  O59  1  0.895738  0.741922  0.017876  1
  F  F60  1  0.636241  0.955268  0.102126  1
  F  F61  1  0.003508  0.614911  0.760692  1
  F  F62  1  0.242177  0.883708  0.881618  1
  F  F63  1  0.820055  0.862623  0.376415  1
  F  F64  1  0.820055  0.362623  0.123585  1
  F  F65  1  0.996492  0.385089  0.239308  1
  F  F66  1  0.996492  0.885089  0.260692  1
  F  F67  1  0.899437  0.580128  0.203690  1
  F  F68  1  0.481374  0.920747  0.294346  1
  F  F69  1  0.390433  0.477661  0.902438  1
  F  F70  1  0.757823  0.616292  0.381618  1
  F  F71  1  0.363759  0.544732  0.602126  1
  F  F72  1  0.524074  0.589450  0.225120  1
  F  F73  1  0.906104  0.493022  0.402219  1
  F  F74  1  0.100563  0.919872  0.703690  1
  F  F75  1  0.179945  0.637377  0.876415  1
  F  F76  1  0.609567  0.022339  0.402438  1
  F  F77  1  0.179945  0.137377  0.623585  1
  F  F78  1  0.255359  0.694876  0.736137  1
  F  F79  1  0.255359  0.194876  0.763863  1
  F  F80  1  0.906104  0.993022  0.097781  1
  F  F81  1  0.518626  0.579253  0.794346  1
  F  F82  1  0.518626  0.079253  0.705654  1
  F  F83  1  0.481374  0.420747  0.205654  1
  F  F84  1  0.003508  0.114911  0.739308  1
  F  F85  1  0.100563  0.419872  0.796310  1
  F  F86  1  0.524074  0.089450  0.274881  1
  F  F87  1  0.757823  0.116292  0.118382  1
  F  F88  1  0.475926  0.410550  0.774880  1
  F  F89  1  0.744641  0.305124  0.263863  1
  F  F90  1  0.899437  0.080128  0.296310  1
  F  F91  1  0.609567  0.522339  0.097562  1
  F  F92  1  0.363759  0.044732  0.897874  1
  F  F93  1  0.093896  0.006978  0.902219  1
  F  F94  1  0.744641  0.805124  0.236137  1
  F  F95  1  0.242177  0.383708  0.618382  1
  F  F96  1  0.093896  0.506978  0.597781  1
  F  F97  1  0.636241  0.455268  0.397874  1
  F  F98  1  0.475926  0.910550  0.725120  1
  F  F99  1  0.390433  0.977661  0.597562  1
