# generated using pymatgen
data_Ba3La7Ti3Cr7O30
_symmetry_space_group_name_H-M   'P 1'
_cell_length_a   5.60867126
_cell_length_b   27.99658106
_cell_length_c   9.69451715
_cell_angle_alpha   30.02467845
_cell_angle_beta   55.11642111
_cell_angle_gamma   60.33806751
_symmetry_Int_Tables_number   1
_chemical_formula_structural   Ba3La7Ti3Cr7O30
_chemical_formula_sum   'Ba3 La7 Ti3 Cr7 O30'
_cell_volume   624.83592287
_cell_formula_units_Z   1
loop_
 _symmetry_equiv_pos_site_id
 _symmetry_equiv_pos_as_xyz
  1  'x, y, z'
loop_
 _atom_site_type_symbol
 _atom_site_label
 _atom_site_symmetry_multiplicity
 _atom_site_fract_x
 _atom_site_fract_y
 _atom_site_fract_z
 _atom_site_occupancy
  Ba  Ba0  1  0.249365  0.998565  0.252419  1
  Ba  Ba1  1  0.746686  0.998271  0.756634  1
  Ba  Ba2  1  0.749401  0.203461  0.740437  1
  La  La3  1  0.246331  0.200245  0.254411  1
  La  La4  1  0.245904  0.403290  0.240631  1
  La  La5  1  0.251191  0.603230  0.240145  1
  La  La6  1  0.249732  0.794520  0.265917  1
  La  La7  1  0.749829  0.400866  0.751472  1
  La  La8  1  0.747588  0.595767  0.760914  1
  La  La9  1  0.743338  0.798316  0.752079  1
  Ti  Ti10  1  0.002776  0.999654  0.999768  1
  Ti  Ti11  1  0.492882  0.996101  0.512797  1
  Ti  Ti12  1  0.989954  0.202675  0.999087  1
  Cr  Cr13  1  0.505552  0.202826  0.491073  1
  Cr  Cr14  1  0.499300  0.403187  0.493594  1
  Cr  Cr15  1  0.997957  0.403477  0.990780  1
  Cr  Cr16  1  0.499834  0.599534  0.501074  1
  Cr  Cr17  1  0.998591  0.598849  0.003496  1
  Cr  Cr18  1  0.494483  0.796677  0.508922  1
  Cr  Cr19  1  0.003115  0.796237  0.008696  1
  O  O20  1  0.262495  0.108325  0.229615  1
  O  O21  1  0.252702  0.009309  0.724965  1
  O  O22  1  0.230827  0.106678  0.733088  1
  O  O23  1  0.310052  0.316193  0.183037  1
  O  O24  1  0.761823  0.097042  0.251302  1
  O  O25  1  0.243498  0.222043  0.700845  1
  O  O26  1  0.750562  0.194492  0.262072  1
  O  O27  1  0.195327  0.312332  0.745582  1
  O  O28  1  0.742604  0.094314  0.768422  1
  O  O29  1  0.312685  0.515602  0.183546  1
  O  O30  1  0.820193  0.292350  0.227043  1
  O  O31  1  0.247242  0.428770  0.677978  1
  O  O32  1  0.750667  0.392169  0.269756  1
  O  O33  1  0.182154  0.517452  0.735133  1
  O  O34  1  0.692515  0.293528  0.802860  1
  O  O35  1  0.316492  0.714953  0.190805  1
  O  O36  1  0.820973  0.485876  0.253500  1
  O  O37  1  0.255413  0.623407  0.691875  1
  O  O38  1  0.743774  0.576238  0.309663  1
  O  O39  1  0.176743  0.712433  0.750981  1
  O  O40  1  0.675641  0.484373  0.817971  1
  O  O41  1  0.263072  0.902404  0.231644  1
  O  O42  1  0.817617  0.682622  0.265758  1
  O  O43  1  0.266012  0.805101  0.737313  1
  O  O44  1  0.737884  0.774455  0.313773  1
  O  O45  1  0.228650  0.903900  0.756407  1
  O  O46  1  0.691602  0.683320  0.812342  1
  O  O47  1  0.798094  0.885636  0.267944  1
  O  O48  1  0.746266  0.985788  0.286260  1
  O  O49  1  0.705388  0.886532  0.796879  1
