# generated using pymatgen
data_Li3ScCl6
_symmetry_space_group_name_H-M   'P 1'
_cell_length_a   6.35567010
_cell_length_b   6.35567048
_cell_length_c   25.66706897
_cell_angle_alpha   99.74384136
_cell_angle_beta   99.74384205
_cell_angle_gamma   119.70624408
_symmetry_Int_Tables_number   1
_chemical_formula_structural   Li3ScCl6
_chemical_formula_sum   'Li12 Sc4 Cl24'
_cell_volume   847.87410624
_cell_formula_units_Z   4
loop_
 _symmetry_equiv_pos_site_id
 _symmetry_equiv_pos_as_xyz
  1  'x, y, z'
loop_
 _atom_site_type_symbol
 _atom_site_label
 _atom_site_symmetry_multiplicity
 _atom_site_fract_x
 _atom_site_fract_y
 _atom_site_fract_z
 _atom_site_occupancy
  Li  Li0  1  0.333047  0.666940  0.749993  1
  Li  Li1  1  0.333060  0.666953  0.500007  1
  Li  Li2  1  0.335442  0.666758  0.249992  1
  Li  Li3  1  0.666646  0.333347  0.749998  1
  Li  Li4  1  0.333242  0.664558  0.000008  1
  Li  Li5  1  0.832920  0.168327  0.875004  1
  Li  Li6  1  0.666653  0.333354  0.500002  1
  Li  Li7  1  0.499559  0.500441  0.125000  1
  Li  Li8  1  0.832067  0.167933  0.625000  1
  Li  Li9  1  0.664322  0.333370  0.250065  1
  Li  Li10  1  0.831673  0.167080  0.374996  1
  Li  Li11  1  0.666630  0.335678  0.999935  1
  Sc  Sc12  1  0.001843  0.998158  0.750012  1
  Sc  Sc13  1  0.001842  0.998157  0.499988  1
  Sc  Sc14  1  0.003945  0.002191  0.249993  1
  Sc  Sc15  1  0.997809  0.996055  0.000007  1
  Cl  Cl16  1  0.068908  0.391727  0.809424  1
  Cl  Cl17  1  0.234280  0.243238  0.941625  1
  Cl  Cl18  1  0.068847  0.391625  0.559438  1
  Cl  Cl19  1  0.606561  0.932748  0.941124  1
  Cl  Cl20  1  0.237674  0.247383  0.692241  1
  Cl  Cl21  1  0.067252  0.393439  0.308876  1
  Cl  Cl22  1  0.608375  0.931153  0.690562  1
  Cl  Cl23  1  0.407377  0.077289  0.807806  1
  Cl  Cl24  1  0.237780  0.247569  0.442248  1
  Cl  Cl25  1  0.752431  0.762220  0.807752  1
  Cl  Cl26  1  0.087958  0.401141  0.059424  1
  Cl  Cl27  1  0.608273  0.931092  0.440576  1
  Cl  Cl28  1  0.407277  0.077275  0.557786  1
  Cl  Cl29  1  0.924724  0.593558  0.942180  1
  Cl  Cl30  1  0.252630  0.253667  0.193261  1
  Cl  Cl31  1  0.752617  0.762326  0.557759  1
  Cl  Cl32  1  0.598859  0.912042  0.190576  1
  Cl  Cl33  1  0.406442  0.075276  0.307820  1
  Cl  Cl34  1  0.922725  0.592723  0.692214  1
  Cl  Cl35  1  0.756762  0.765720  0.308375  1
  Cl  Cl36  1  0.403621  0.088120  0.058871  1
  Cl  Cl37  1  0.922711  0.592623  0.442194  1
  Cl  Cl38  1  0.746333  0.747370  0.056739  1
  Cl  Cl39  1  0.911880  0.596379  0.191129  1
