# generated using pymatgen
data_Na2H4RuC5(N2O)3
_symmetry_space_group_name_H-M   'P 1'
_cell_length_a   6.32965388
_cell_length_b   12.13351084
_cell_length_c   15.88744713
_cell_angle_alpha   90.00000000
_cell_angle_beta   90.00000000
_cell_angle_gamma   90.00000000
_symmetry_Int_Tables_number   1
_chemical_formula_structural   Na2H4RuC5(N2O)3
_chemical_formula_sum   'Na8 H16 Ru4 C20 N24 O12'
_cell_volume   1220.17061905
_cell_formula_units_Z   4
loop_
 _symmetry_equiv_pos_site_id
 _symmetry_equiv_pos_as_xyz
  1  'x, y, z'
loop_
 _atom_site_type_symbol
 _atom_site_label
 _atom_site_symmetry_multiplicity
 _atom_site_fract_x
 _atom_site_fract_y
 _atom_site_fract_z
 _atom_site_occupancy
  Na  Na0  1  0.000000  0.500000  0.746451  1
  Na  Na1  1  0.500000  0.000000  0.753549  1
  Na  Na2  1  0.000000  0.500000  0.253549  1
  Na  Na3  1  0.500000  0.000000  0.246451  1
  Na  Na4  1  0.500000  0.500000  0.877189  1
  Na  Na5  1  0.000000  0.000000  0.622811  1
  Na  Na6  1  0.500000  0.500000  0.122811  1
  Na  Na7  1  0.000000  0.000000  0.377189  1
  H  H8  1  0.678944  0.300321  0.787033  1
  H  H9  1  0.321056  0.699679  0.787033  1
  H  H10  1  0.178944  0.199679  0.712967  1
  H  H11  1  0.821056  0.800321  0.712967  1
  H  H12  1  0.321056  0.699679  0.212967  1
  H  H13  1  0.678944  0.300321  0.212967  1
  H  H14  1  0.821056  0.800321  0.287033  1
  H  H15  1  0.178944  0.199679  0.287033  1
  H  H16  1  0.560951  0.382091  0.728120  1
  H  H17  1  0.439049  0.617909  0.728120  1
  H  H18  1  0.060951  0.117909  0.771880  1
  H  H19  1  0.939049  0.882091  0.771880  1
  H  H20  1  0.439049  0.617909  0.271880  1
  H  H21  1  0.560951  0.382091  0.271880  1
  H  H22  1  0.939049  0.882091  0.228120  1
  H  H23  1  0.060951  0.117909  0.228120  1
  Ru  Ru24  1  0.998230  0.219149  0.000000  1
  Ru  Ru25  1  0.001770  0.780851  0.000000  1
  Ru  Ru26  1  0.498230  0.280851  0.500000  1
  Ru  Ru27  1  0.501770  0.719149  0.500000  1
  C  C28  1  0.741557  0.320700  0.000000  1
  C  C29  1  0.258443  0.679300  0.000000  1
  C  C30  1  0.241557  0.179300  0.500000  1
  C  C31  1  0.758443  0.820700  0.500000  1
  C  C32  1  0.111185  0.323370  0.091202  1
  C  C33  1  0.888815  0.676630  0.091202  1
  C  C34  1  0.611185  0.176630  0.408798  1
  C  C35  1  0.388815  0.823370  0.408798  1
  C  C36  1  0.888815  0.676630  0.908798  1
  C  C37  1  0.111185  0.323370  0.908798  1
  C  C38  1  0.388815  0.823370  0.591202  1
  C  C39  1  0.611185  0.176630  0.591202  1
  C  C40  1  0.839461  0.133735  0.907790  1
  C  C41  1  0.160539  0.866265  0.907790  1
  C  C42  1  0.339461  0.366265  0.592210  1
  C  C43  1  0.660539  0.633735  0.592210  1
  C  C44  1  0.160539  0.866265  0.092210  1
  C  C45  1  0.839461  0.133735  0.092210  1
  C  C46  1  0.660539  0.633735  0.407790  1
  C  C47  1  0.339461  0.366265  0.407790  1
  N  N48  1  0.233350  0.137802  0.000000  1
  N  N49  1  0.766650  0.862198  0.000000  1
  N  N50  1  0.733350  0.362198  0.500000  1
  N  N51  1  0.266650  0.637802  0.500000  1
  N  N52  1  0.594067  0.379030  0.000000  1
  N  N53  1  0.405933  0.620970  0.000000  1
  N  N54  1  0.094067  0.120970  0.500000  1
  N  N55  1  0.905933  0.879030  0.500000  1
  N  N56  1  0.170165  0.383518  0.144088  1
  N  N57  1  0.829835  0.616482  0.144088  1
  N  N58  1  0.670165  0.116482  0.355912  1
  N  N59  1  0.329835  0.883518  0.355912  1
  N  N60  1  0.829835  0.616482  0.855912  1
  N  N61  1  0.170165  0.383518  0.855912  1
  N  N62  1  0.329835  0.883518  0.644088  1
  N  N63  1  0.670165  0.116482  0.644088  1
  N  N64  1  0.744332  0.090042  0.853675  1
  N  N65  1  0.255669  0.909958  0.853675  1
  N  N66  1  0.244332  0.409958  0.646325  1
  N  N67  1  0.755668  0.590042  0.646325  1
  N  N68  1  0.255669  0.909958  0.146325  1
  N  N69  1  0.744332  0.090042  0.146325  1
  N  N70  1  0.755668  0.590042  0.353675  1
  N  N71  1  0.244332  0.409958  0.353675  1
  O  O72  1  0.393538  0.092617  0.000000  1
  O  O73  1  0.606462  0.907383  0.000000  1
  O  O74  1  0.893538  0.407383  0.500000  1
  O  O75  1  0.106462  0.592617  0.500000  1
  O  O76  1  0.673730  0.377807  0.770265  1
  O  O77  1  0.326270  0.622193  0.770265  1
  O  O78  1  0.173730  0.122193  0.729735  1
  O  O79  1  0.826270  0.877807  0.729735  1
  O  O80  1  0.326270  0.622193  0.229735  1
  O  O81  1  0.673730  0.377807  0.229735  1
  O  O82  1  0.826270  0.877807  0.270265  1
  O  O83  1  0.173730  0.122193  0.270265  1
