# generated using pymatgen
data_SiAg5ClO4
_symmetry_space_group_name_H-M   'P 1'
_cell_length_a   12.96365023
_cell_length_b   13.11123353
_cell_length_c   19.47314702
_cell_angle_alpha   90.00000000
_cell_angle_beta   90.00000000
_cell_angle_gamma   118.87477982
_symmetry_Int_Tables_number   1
_chemical_formula_structural   SiAg5ClO4
_chemical_formula_sum   'Si16 Ag80 Cl16 O64'
_cell_volume   2898.35133037
_cell_formula_units_Z   16
loop_
 _symmetry_equiv_pos_site_id
 _symmetry_equiv_pos_as_xyz
  1  'x, y, z'
loop_
 _atom_site_type_symbol
 _atom_site_label
 _atom_site_symmetry_multiplicity
 _atom_site_fract_x
 _atom_site_fract_y
 _atom_site_fract_z
 _atom_site_occupancy
  Si  Si0  1  0.677607  0.576640  0.607344  1
  Si  Si1  1  0.315545  0.933419  0.100317  1
  Si  Si2  1  0.815545  0.933419  0.399683  1
  Si  Si3  1  0.177607  0.576640  0.892656  1
  Si  Si4  1  0.565208  0.678558  0.102922  1
  Si  Si5  1  0.065208  0.678558  0.397078  1
  Si  Si6  1  0.684455  0.066581  0.899683  1
  Si  Si7  1  0.934792  0.321442  0.602922  1
  Si  Si8  1  0.566549  0.172459  0.394920  1
  Si  Si9  1  0.822393  0.423360  0.107344  1
  Si  Si10  1  0.322393  0.423360  0.392656  1
  Si  Si11  1  0.184455  0.066581  0.600317  1
  Si  Si12  1  0.433451  0.827541  0.605080  1
  Si  Si13  1  0.066549  0.172459  0.105080  1
  Si  Si14  1  0.933451  0.827541  0.894920  1
  Si  Si15  1  0.434792  0.321442  0.897078  1
  Ag  Ag16  1  0.583486  0.924869  0.751680  1
  Ag  Ag17  1  0.496141  0.332615  0.294058  1
  Ag  Ag18  1  0.549648  0.702408  0.393181  1
  Ag  Ag19  1  0.056492  0.945405  0.461738  1
  Ag  Ag20  1  0.950352  0.297592  0.893181  1
  Ag  Ag21  1  0.555648  0.942037  0.462554  1
  Ag  Ag22  1  0.436762  0.563003  0.539117  1
  Ag  Ag23  1  0.070924  0.432436  0.748312  1
  Ag  Ag24  1  0.334677  0.204513  0.056392  1
  Ag  Ag25  1  0.052172  0.425917  0.453601  1
  Ag  Ag26  1  0.447828  0.574083  0.953601  1
  Ag  Ag27  1  0.186395  0.806455  0.956211  1
  Ag  Ag28  1  0.313605  0.193545  0.456211  1
  Ag  Ag29  1  0.083486  0.924869  0.748320  1
  Ag  Ag30  1  0.205637  0.256048  0.254720  1
  Ag  Ag31  1  0.817970  0.458767  0.700777  1
  Ag  Ag32  1  0.944352  0.057963  0.962554  1
  Ag  Ag33  1  0.182030  0.541233  0.299223  1
  Ag  Ag34  1  0.705637  0.256048  0.245280  1
  Ag  Ag35  1  0.686395  0.806455  0.543789  1
  Ag  Ag36  1  0.460939  0.830911  0.195849  1
  Ag  Ag37  1  0.296064  0.941156  0.399683  1
  Ag  Ag38  1  0.796064  0.941156  0.100317  1
  Ag  Ag39  1  0.445346  0.806721  0.901003  1
  Ag  Ag40  1  0.700562  0.307167  0.535239  1
  Ag  Ag41  1  0.429076  0.567564  0.248312  1
  Ag  Ag42  1  0.355542  0.003111  0.699744  1
  Ag  Ag43  1  0.055648  0.942037  0.037446  1
  Ag  Ag44  1  0.730411  0.802498  0.246885  1
  Ag  Ag45  1  0.039061  0.169089  0.695849  1
  Ag  Ag46  1  0.996141  0.332615  0.205942  1
  Ag  Ag47  1  0.450352  0.297592  0.606819  1
  Ag  Ag48  1  0.769589  0.197502  0.746885  1
  Ag  Ag49  1  0.554654  0.193279  0.098997  1
  Ag  Ag50  1  0.570924  0.432436  0.751688  1
  Ag  Ag51  1  0.203936  0.058844  0.899683  1
  Ag  Ag52  1  0.003859  0.667385  0.794058  1
  Ag  Ag53  1  0.503859  0.667385  0.705942  1
  Ag  Ag54  1  0.791894  0.440020  0.394933  1
  Ag  Ag55  1  0.799438  0.692833  0.035239  1
  Ag  Ag56  1  0.317970  0.458767  0.799223  1
  Ag  Ag57  1  0.947828  0.574083  0.546399  1
  Ag  Ag58  1  0.665323  0.795488  0.943608  1
  Ag  Ag59  1  0.230411  0.802498  0.253115  1
  Ag  Ag60  1  0.774996  0.664961  0.446764  1
  Ag  Ag61  1  0.049648  0.702408  0.106819  1
  Ag  Ag62  1  0.291894  0.440020  0.105067  1
  Ag  Ag63  1  0.916514  0.075131  0.251680  1
  Ag  Ag64  1  0.416514  0.075131  0.248320  1
  Ag  Ag65  1  0.682030  0.541233  0.200777  1
  Ag  Ag66  1  0.294363  0.743952  0.754720  1
  Ag  Ag67  1  0.063238  0.436997  0.039117  1
  Ag  Ag68  1  0.165323  0.795488  0.556392  1
  Ag  Ag69  1  0.563238  0.436997  0.460883  1
  Ag  Ag70  1  0.144458  0.996889  0.199744  1
  Ag  Ag71  1  0.556492  0.945405  0.038262  1
  Ag  Ag72  1  0.054654  0.193279  0.401003  1
  Ag  Ag73  1  0.539061  0.169089  0.804151  1
  Ag  Ag74  1  0.834677  0.204513  0.443608  1
  Ag  Ag75  1  0.960939  0.830911  0.304151  1
  Ag  Ag76  1  0.794363  0.743952  0.745280  1
  Ag  Ag77  1  0.552172  0.425917  0.046399  1
  Ag  Ag78  1  0.225004  0.335039  0.553236  1
  Ag  Ag79  1  0.274996  0.664961  0.053236  1
  Ag  Ag80  1  0.200562  0.307167  0.964761  1
  Ag  Ag81  1  0.855542  0.003111  0.800256  1
  Ag  Ag82  1  0.208106  0.559980  0.605067  1
  Ag  Ag83  1  0.943508  0.054595  0.538262  1
  Ag  Ag84  1  0.708106  0.559980  0.894933  1
  Ag  Ag85  1  0.945346  0.806721  0.598997  1
  Ag  Ag86  1  0.299438  0.692833  0.464761  1
  Ag  Ag87  1  0.813605  0.193545  0.043789  1
  Ag  Ag88  1  0.703936  0.058844  0.600317  1
  Ag  Ag89  1  0.443508  0.054595  0.961738  1
  Ag  Ag90  1  0.269589  0.197502  0.753115  1
  Ag  Ag91  1  0.929076  0.567564  0.251688  1
  Ag  Ag92  1  0.444352  0.057963  0.537446  1
  Ag  Ag93  1  0.644458  0.996889  0.300256  1
  Ag  Ag94  1  0.725004  0.335039  0.946764  1
  Ag  Ag95  1  0.936762  0.563003  0.960883  1
  Cl  Cl96  1  0.903557  0.807296  0.178470  1
  Cl  Cl97  1  0.670932  0.074590  0.180808  1
  Cl  Cl98  1  0.829068  0.925410  0.680808  1
  Cl  Cl99  1  0.327575  0.421760  0.670415  1
  Cl  Cl100  1  0.933283  0.337010  0.328158  1
  Cl  Cl101  1  0.566717  0.662990  0.828158  1
  Cl  Cl102  1  0.596443  0.192704  0.678470  1
  Cl  Cl103  1  0.329068  0.925410  0.819192  1
  Cl  Cl104  1  0.172425  0.578240  0.170415  1
  Cl  Cl105  1  0.433283  0.337010  0.171842  1
  Cl  Cl106  1  0.170932  0.074590  0.319192  1
  Cl  Cl107  1  0.066717  0.662990  0.671842  1
  Cl  Cl108  1  0.096443  0.192704  0.821530  1
  Cl  Cl109  1  0.403557  0.807296  0.321530  1
  Cl  Cl110  1  0.827575  0.421760  0.829585  1
  Cl  Cl111  1  0.672425  0.578240  0.329585  1
  O  O112  1  0.934618  0.601334  0.432477  1
  O  O113  1  0.599640  0.646875  0.606766  1
  O  O114  1  0.357347  0.392163  0.900084  1
  O  O115  1  0.700617  0.349462  0.062564  1
  O  O116  1  0.099640  0.646875  0.893234  1
  O  O117  1  0.694096  0.859711  0.353094  1
  O  O118  1  0.305904  0.140289  0.646906  1
  O  O119  1  0.139667  0.098840  0.099935  1
  O  O120  1  0.893244  0.553347  0.071152  1
  O  O121  1  0.194096  0.859711  0.146906  1
  O  O122  1  0.299383  0.650538  0.937436  1
  O  O123  1  0.857347  0.392163  0.599916  1
  O  O124  1  0.434618  0.601334  0.067523  1
  O  O125  1  0.799383  0.650538  0.562564  1
  O  O126  1  0.141005  0.293136  0.151046  1
  O  O127  1  0.635784  0.802248  0.059663  1
  O  O128  1  0.719547  0.042285  0.977277  1
  O  O129  1  0.065382  0.398666  0.567523  1
  O  O130  1  0.864216  0.197752  0.559663  1
  O  O131  1  0.609322  0.939864  0.860505  1
  O  O132  1  0.200617  0.349462  0.437436  1
  O  O133  1  0.542875  0.210201  0.472745  1
  O  O134  1  0.890678  0.060136  0.360505  1
  O  O135  1  0.780453  0.957715  0.477277  1
  O  O136  1  0.062127  0.903300  0.856763  1
  O  O137  1  0.051102  0.708166  0.315567  1
  O  O138  1  0.390694  0.861225  0.095199  1
  O  O139  1  0.109306  0.138775  0.595199  1
  O  O140  1  0.562127  0.903300  0.643237  1
  O  O141  1  0.364216  0.197752  0.940337  1
  O  O142  1  0.358995  0.706864  0.651046  1
  O  O143  1  0.708479  0.561889  0.688554  1
  O  O144  1  0.606756  0.446653  0.571152  1
  O  O145  1  0.551102  0.708166  0.184433  1
  O  O146  1  0.142653  0.607837  0.400084  1
  O  O147  1  0.291521  0.438111  0.311446  1
  O  O148  1  0.042875  0.210201  0.027255  1
  O  O149  1  0.448898  0.291834  0.815567  1
  O  O150  1  0.219547  0.042285  0.522723  1
  O  O151  1  0.106756  0.446653  0.928848  1
  O  O152  1  0.393244  0.553347  0.428848  1
  O  O153  1  0.791521  0.438111  0.188554  1
  O  O154  1  0.639667  0.098840  0.400065  1
  O  O155  1  0.860333  0.901160  0.900065  1
  O  O156  1  0.457125  0.789799  0.527255  1
  O  O157  1  0.642653  0.607837  0.099916  1
  O  O158  1  0.948898  0.291834  0.684433  1
  O  O159  1  0.609306  0.138775  0.904801  1
  O  O160  1  0.437873  0.096700  0.356763  1
  O  O161  1  0.937873  0.096700  0.143237  1
  O  O162  1  0.360333  0.901160  0.599935  1
  O  O163  1  0.280453  0.957715  0.022723  1
  O  O164  1  0.900360  0.353125  0.106766  1
  O  O165  1  0.208479  0.561889  0.811446  1
  O  O166  1  0.858995  0.706864  0.848954  1
  O  O167  1  0.805904  0.140289  0.853094  1
  O  O168  1  0.641005  0.293136  0.348954  1
  O  O169  1  0.390678  0.060136  0.139495  1
  O  O170  1  0.565382  0.398666  0.932477  1
  O  O171  1  0.890694  0.861225  0.404801  1
  O  O172  1  0.109322  0.939864  0.639495  1
  O  O173  1  0.957125  0.789799  0.972745  1
  O  O174  1  0.135784  0.802248  0.440337  1
  O  O175  1  0.400360  0.353125  0.393234  1
