# generated using pymatgen
data_Ba8Mn8O21
_symmetry_space_group_name_H-M   'P 1'
_cell_length_a   5.79187789
_cell_length_b   11.65342473
_cell_length_c   9.57537006
_cell_angle_alpha   89.96730020
_cell_angle_beta   90.01226498
_cell_angle_gamma   120.15930101
_symmetry_Int_Tables_number   1
_chemical_formula_structural   Ba8Mn8O21
_chemical_formula_sum   'Ba8 Mn8 O21'
_cell_volume   558.80427427
_cell_formula_units_Z   1
loop_
 _symmetry_equiv_pos_site_id
 _symmetry_equiv_pos_as_xyz
  1  'x, y, z'
loop_
 _atom_site_type_symbol
 _atom_site_label
 _atom_site_symmetry_multiplicity
 _atom_site_fract_x
 _atom_site_fract_y
 _atom_site_fract_z
 _atom_site_occupancy
  Ba  Ba0  1  0.994790  0.002584  0.508862  1
  Ba  Ba1  1  0.340639  0.830614  0.250296  1
  Ba  Ba2  1  0.986626  0.494199  0.029100  1
  Ba  Ba3  1  0.676552  0.669316  0.750444  1
  Ba  Ba4  1  0.330349  0.337019  0.250641  1
  Ba  Ba5  1  0.994792  0.002481  0.991632  1
  Ba  Ba6  1  0.986789  0.494220  0.471906  1
  Ba  Ba7  1  0.655867  0.162814  0.750424  1
  Mn  Mn8  1  0.333803  0.836899  0.898105  1
  Mn  Mn9  1  0.333698  0.836979  0.602491  1
  Mn  Mn10  1  0.664278  0.666710  0.389398  1
  Mn  Mn11  1  0.354083  0.333837  0.893877  1
  Mn  Mn12  1  0.664277  0.666624  0.111520  1
  Mn  Mn13  1  0.354335  0.333831  0.607475  1
  Mn  Mn14  1  0.690209  0.171661  0.391154  1
  Mn  Mn15  1  0.689989  0.171525  0.109723  1
  O  O16  1  0.989886  0.740441  0.996347  1
  O  O17  1  0.165496  0.886690  0.750346  1
  O  O18  1  0.488642  0.002878  0.483977  1
  O  O19  1  0.604111  0.889998  0.750201  1
  O  O20  1  0.488707  0.741874  0.505202  1
  O  O21  1  0.012375  0.264189  0.978873  1
  O  O22  1  0.013017  0.263764  0.521826  1
  O  O23  1  0.488551  0.741587  0.995272  1
  O  O24  1  0.372574  0.595327  0.250479  1
  O  O25  1  0.817057  0.813292  0.250278  1
  O  O26  1  0.494535  0.505479  0.504106  1
  O  O27  1  0.494839  0.505257  0.997354  1
  O  O28  1  0.187405  0.193306  0.750727  1
  O  O29  1  0.806475  0.592674  0.250613  1
  O  O30  1  0.651109  0.416486  0.750749  1
  O  O31  1  0.989612  0.740343  0.504555  1
  O  O32  1  0.484419  0.237669  0.480336  1
  O  O33  1  0.482599  0.237033  0.021297  1
  O  O34  1  0.813374  0.316149  0.250378  1
  O  O35  1  0.489906  0.002964  0.016318  1
  O  O36  1  0.829420  0.094449  0.250519  1
