# generated using pymatgen
data_NaCa9TaTi9O30
_symmetry_space_group_name_H-M   'P 1'
_cell_length_a   5.42412263
_cell_length_b   5.52755241
_cell_length_c   38.47727419
_cell_angle_alpha   90.00000000
_cell_angle_beta   90.00000000
_cell_angle_gamma   89.97743158
_symmetry_Int_Tables_number   1
_chemical_formula_structural   NaCa9TaTi9O30
_chemical_formula_sum   'Na2 Ca18 Ta2 Ti18 O60'
_cell_volume   1153.63024240
_cell_formula_units_Z   2
loop_
 _symmetry_equiv_pos_site_id
 _symmetry_equiv_pos_as_xyz
  1  'x, y, z'
loop_
 _atom_site_type_symbol
 _atom_site_label
 _atom_site_symmetry_multiplicity
 _atom_site_fract_x
 _atom_site_fract_y
 _atom_site_fract_z
 _atom_site_occupancy
  Na  Na0  1  0.511407  0.523030  0.850000  1
  Na  Na1  1  0.990703  0.030764  0.850000  1
  Ca  Ca2  1  0.014040  0.957031  0.150517  1
  Ca  Ca3  1  0.012281  0.957404  0.350000  1
  Ca  Ca4  1  0.014040  0.957031  0.549483  1
  Ca  Ca5  1  0.009931  0.953268  0.748853  1
  Ca  Ca6  1  0.009931  0.953268  0.951147  1
  Ca  Ca7  1  0.488283  0.457755  0.350000  1
  Ca  Ca8  1  0.490482  0.458888  0.150657  1
  Ca  Ca9  1  0.490482  0.458888  0.549343  1
  Ca  Ca10  1  0.485207  0.456243  0.748395  1
  Ca  Ca11  1  0.485207  0.456243  0.951605  1
  Ca  Ca12  1  0.510111  0.543865  0.050986  1
  Ca  Ca13  1  0.511799  0.542276  0.250235  1
  Ca  Ca14  1  0.510111  0.543865  0.649014  1
  Ca  Ca15  1  0.511799  0.542276  0.449765  1
  Ca  Ca16  1  0.987884  0.042608  0.250177  1
  Ca  Ca17  1  0.985886  0.045231  0.050797  1
  Ca  Ca18  1  0.985886  0.045231  0.649203  1
  Ca  Ca19  1  0.987884  0.042608  0.449823  1
  Ta  Ta20  1  0.505111  0.993565  0.900394  1
  Ta  Ta21  1  0.505111  0.993565  0.799606  1
  Ti  Ti22  1  0.011813  0.501194  0.100086  1
  Ti  Ti23  1  0.000796  0.499747  0.199881  1
  Ti  Ti24  1  0.000744  0.500211  0.300015  1
  Ti  Ti25  1  0.000744  0.500211  0.399985  1
  Ti  Ti26  1  0.011813  0.501194  0.599914  1
  Ti  Ti27  1  0.998450  0.489397  0.801615  1
  Ti  Ti28  1  0.998450  0.489397  0.898385  1
  Ti  Ti29  1  0.510173  0.004793  0.100958  1
  Ti  Ti30  1  0.500611  0.000406  0.300184  1
  Ti  Ti31  1  0.500883  0.000439  0.499254  1
  Ti  Ti32  1  0.486004  0.997322  0.698290  1
  Ti  Ti33  1  0.486004  0.997322  0.001710  1
  Ti  Ti34  1  0.500883  0.000439  0.200746  1
  Ti  Ti35  1  0.500611  0.000406  0.399816  1
  Ti  Ti36  1  0.510173  0.004793  0.599042  1
  Ti  Ti37  1  0.984215  0.500975  -0.000001  1
  Ti  Ti38  1  0.000796  0.499747  0.500119  1
  Ti  Ti39  1  0.984215  0.500975  0.700001  1
  O  O40  1  0.080105  0.479979  0.051082  1
  O  O41  1  0.079547  0.480444  0.250272  1
  O  O42  1  0.079547  0.480444  0.449728  1
  O  O43  1  0.080105  0.479979  0.648918  1
  O  O44  1  0.076280  0.484627  0.850000  1
  O  O45  1  0.210670  0.212816  0.109193  1
  O  O46  1  0.213434  0.213906  0.308622  1
  O  O47  1  0.213434  0.213906  0.391378  1
  O  O48  1  0.210670  0.212816  0.590807  1
  O  O49  1  0.212928  0.213911  0.508181  1
  O  O50  1  0.213765  0.212008  0.707790  1
  O  O51  1  0.212928  0.213911  0.191819  1
  O  O52  1  0.217806  0.222408  0.789917  1
  O  O53  1  0.217806  0.222408  0.910083  1
  O  O54  1  0.213765  0.212008  0.992210  1
  O  O55  1  0.284903  0.712494  0.109058  1
  O  O56  1  0.285818  0.714221  0.191789  1
  O  O57  1  0.286431  0.714110  0.308593  1
  O  O58  1  0.286431  0.714110  0.391407  1
  O  O59  1  0.284903  0.712494  0.590942  1
  O  O60  1  0.291823  0.714638  0.707945  1
  O  O61  1  0.285615  0.719329  0.910441  1
  O  O62  1  0.285615  0.719329  0.789559  1
  O  O63  1  0.285818  0.714221  0.508211  1
  O  O64  1  0.291823  0.714638  0.992055  1
  O  O65  1  0.417282  0.980037  0.050462  1
  O  O66  1  0.419107  0.980460  0.250161  1
  O  O67  1  0.417282  0.980037  0.649538  1
  O  O68  1  0.422900  0.984802  0.850000  1
  O  O69  1  0.419107  0.980460  0.449839  1
  O  O70  1  0.580141  0.019002  0.350000  1
  O  O71  1  0.579820  0.018991  0.549722  1
  O  O72  1  0.579820  0.018991  0.150278  1
  O  O73  1  0.584149  0.023084  0.950905  1
  O  O74  1  0.584149  0.023084  0.749095  1
  O  O75  1  0.712649  0.289229  0.009452  1
  O  O76  1  0.709110  0.284441  0.091880  1
  O  O77  1  0.712890  0.285221  0.291577  1
  O  O78  1  0.711964  0.285201  0.208787  1
  O  O79  1  0.709110  0.284441  0.608120  1
  O  O80  1  0.712890  0.285221  0.408423  1
  O  O81  1  0.711964  0.285201  0.491213  1
  O  O82  1  0.712649  0.289229  0.690548  1
  O  O83  1  0.716428  0.291741  0.806819  1
  O  O84  1  0.716428  0.291741  0.893181  1
  O  O85  1  0.791070  0.788828  0.009370  1
  O  O86  1  0.785227  0.786047  0.208843  1
  O  O87  1  0.783381  0.786356  0.092042  1
  O  O88  1  0.786105  0.785869  0.408444  1
  O  O89  1  0.783381  0.786356  0.607958  1
  O  O90  1  0.791070  0.788828  0.690630  1
  O  O91  1  0.786105  0.785869  0.291556  1
  O  O92  1  0.785227  0.786047  0.491157  1
  O  O93  1  0.795572  0.789639  0.806252  1
  O  O94  1  0.795572  0.789639  0.893748  1
  O  O95  1  0.918766  0.519280  0.150641  1
  O  O96  1  0.919673  0.519289  0.350000  1
  O  O97  1  0.918766  0.519280  0.549359  1
  O  O98  1  0.918662  0.519517  0.748731  1
  O  O99  1  0.918662  0.519517  0.951269  1
