# generated using pymatgen
data_RbTaPS6
_symmetry_space_group_name_H-M   'P 1'
_cell_length_a   14.45882685
_cell_length_b   16.15232743
_cell_length_c   18.03059628
_cell_angle_alpha   90.00000000
_cell_angle_beta   90.00000000
_cell_angle_gamma   106.69122466
_symmetry_Int_Tables_number   1
_chemical_formula_structural   RbTaPS6
_chemical_formula_sum   'Rb16 Ta16 P16 S96'
_cell_volume   4033.51093252
_cell_formula_units_Z   16
loop_
 _symmetry_equiv_pos_site_id
 _symmetry_equiv_pos_as_xyz
  1  'x, y, z'
loop_
 _atom_site_type_symbol
 _atom_site_label
 _atom_site_symmetry_multiplicity
 _atom_site_fract_x
 _atom_site_fract_y
 _atom_site_fract_z
 _atom_site_occupancy
  Rb  Rb0  1  0.053121  0.511097  0.625810  1
  Rb  Rb1  1  0.946879  0.488903  0.374190  1
  Rb  Rb2  1  0.851870  0.544577  0.067599  1
  Rb  Rb3  1  0.648130  0.955423  0.567599  1
  Rb  Rb4  1  0.489006  0.628788  0.515418  1
  Rb  Rb5  1  0.144304  0.977218  0.672424  1
  Rb  Rb6  1  0.855696  0.022782  0.327576  1
  Rb  Rb7  1  0.010994  0.871212  0.015418  1
  Rb  Rb8  1  0.989006  0.128788  0.984582  1
  Rb  Rb9  1  0.355696  0.522782  0.172424  1
  Rb  Rb10  1  0.446879  0.988903  0.125810  1
  Rb  Rb11  1  0.351870  0.044577  0.432401  1
  Rb  Rb12  1  0.148130  0.455423  0.932401  1
  Rb  Rb13  1  0.510994  0.371212  0.484582  1
  Rb  Rb14  1  0.644304  0.477218  0.827576  1
  Rb  Rb15  1  0.553121  0.011097  0.874190  1
  Ta  Ta16  1  0.751830  0.246234  0.612141  1
  Ta  Ta17  1  0.748170  0.253766  0.112141  1
  Ta  Ta18  1  0.292563  0.269368  0.712973  1
  Ta  Ta19  1  0.672299  0.835535  0.122154  1
  Ta  Ta20  1  0.327701  0.164465  0.877846  1
  Ta  Ta21  1  0.248170  0.753766  0.387859  1
  Ta  Ta22  1  0.637166  0.305191  0.276893  1
  Ta  Ta23  1  0.137166  0.805191  0.223107  1
  Ta  Ta24  1  0.707437  0.730632  0.287027  1
  Ta  Ta25  1  0.362834  0.694809  0.723107  1
  Ta  Ta26  1  0.827701  0.664465  0.622154  1
  Ta  Ta27  1  0.207437  0.230632  0.212973  1
  Ta  Ta28  1  0.251830  0.746234  0.887859  1
  Ta  Ta29  1  0.172299  0.335535  0.377846  1
  Ta  Ta30  1  0.862834  0.194809  0.776893  1
  Ta  Ta31  1  0.792563  0.769368  0.787027  1
  P  P32  1  0.692549  0.167687  0.441338  1
  P  P33  1  0.192549  0.667687  0.058662  1
  P  P34  1  0.840053  0.984648  0.787579  1
  P  P35  1  0.307451  0.832313  0.558662  1
  P  P36  1  0.807451  0.332313  0.941338  1
  P  P37  1  0.251198  0.548617  0.389630  1
  P  P38  1  0.340053  0.484648  0.712421  1
  P  P39  1  0.248802  0.951383  0.889630  1
  P  P40  1  0.748802  0.451383  0.610370  1
  P  P41  1  0.659947  0.515352  0.287579  1
  P  P42  1  0.286056  0.302177  0.044825  1
  P  P43  1  0.213944  0.197823  0.544825  1
  P  P44  1  0.713944  0.697823  0.955175  1
  P  P45  1  0.159947  0.015352  0.212421  1
  P  P46  1  0.751198  0.048617  0.110370  1
  P  P47  1  0.786056  0.802177  0.455175  1
  S  S48  1  0.188588  0.644106  0.799966  1
  S  S49  1  0.862692  0.333222  0.713795  1
  S  S50  1  0.554715  0.828983  0.042556  1
  S  S51  1  0.280242  0.261337  0.449371  1
  S  S52  1  0.411632  0.575064  0.788663  1
  S  S53  1  0.646631  0.346119  0.653422  1
  S  S54  1  0.696415  0.541816  0.559014  1
  S  S55  1  0.742085  0.237502  0.863722  1
  S  S56  1  0.936837  0.725547  0.734947  1
  S  S57  1  0.353369  0.653881  0.346578  1
  S  S58  1  0.723695  0.891989  0.743530  1
  S  S59  1  0.424046  0.415037  0.667543  1
  S  S60  1  0.613537  0.211455  0.521609  1
  S  S61  1  0.314393  0.329823  0.283539  1
  S  S62  1  0.168830  0.316232  0.108478  1
  S  S63  1  0.945285  0.671017  0.542556  1
  S  S64  1  0.436837  0.225547  0.765053  1
  S  S65  1  0.171594  0.604918  0.456973  1
  S  S66  1  0.688588  0.144106  0.700034  1
  S  S67  1  0.295290  0.564707  0.639664  1
  S  S68  1  0.328406  0.895082  0.956973  1
  S  S69  1  0.795290  0.064707  0.860336  1
  S  S70  1  0.137308  0.666778  0.286205  1
  S  S71  1  0.831959  0.529300  0.692060  1
  S  S72  1  0.719758  0.738663  0.550629  1
  S  S73  1  0.196415  0.041816  0.940986  1
  S  S74  1  0.875056  0.446588  0.898074  1
  S  S75  1  0.054715  0.328983  0.457444  1
  S  S76  1  0.690559  0.331161  0.010822  1
  S  S77  1  0.676720  0.783668  0.883496  1
  S  S78  1  0.995066  0.261552  0.838615  1
  S  S79  1  0.828406  0.395082  0.543027  1
  S  S80  1  0.384964  0.411538  0.020838  1
  S  S81  1  0.331959  0.029300  0.807940  1
  S  S82  1  0.362692  0.833222  0.786205  1
  S  S83  1  0.831170  0.683768  0.891522  1
  S  S84  1  0.113537  0.711455  0.978391  1
  S  S85  1  0.563163  0.774453  0.234947  1
  S  S86  1  0.088368  0.924936  0.288663  1
  S  S87  1  0.811412  0.355894  0.200034  1
  S  S88  1  0.668041  0.970700  0.192060  1
  S  S89  1  0.504934  0.238448  0.338615  1
  S  S90  1  0.575954  0.584963  0.332457  1
  S  S91  1  0.624944  0.053412  0.398074  1
  S  S92  1  0.853369  0.153881  0.153422  1
  S  S93  1  0.185607  0.170177  0.783539  1
  S  S94  1  0.911632  0.075064  0.711337  1
  S  S95  1  0.257914  0.762498  0.136278  1
  S  S96  1  0.146631  0.846119  0.846578  1
  S  S97  1  0.204710  0.935293  0.139664  1
  S  S98  1  0.809441  0.168839  0.510822  1
  S  S99  1  0.375056  0.946588  0.601926  1
  S  S100  1  0.190559  0.831161  0.489178  1
  S  S101  1  0.671594  0.104918  0.043027  1
  S  S102  1  0.303585  0.458184  0.440986  1
  S  S103  1  0.168041  0.470700  0.307940  1
  S  S104  1  0.615036  0.588462  0.979162  1
  S  S105  1  0.311412  0.855894  0.299966  1
  S  S106  1  0.803585  0.958184  0.059014  1
  S  S107  1  0.924046  0.915037  0.832457  1
  S  S108  1  0.637308  0.166778  0.213795  1
  S  S109  1  0.574543  0.240955  0.149857  1
  S  S110  1  0.124944  0.553412  0.101926  1
  S  S111  1  0.004934  0.738448  0.161385  1
  S  S112  1  0.776305  0.608011  0.243530  1
  S  S113  1  0.176720  0.283668  0.616504  1
  S  S114  1  0.309441  0.668839  0.989178  1
  S  S115  1  0.600435  0.684652  0.169912  1
  S  S116  1  0.386463  0.788545  0.478391  1
  S  S117  1  0.925457  0.259045  0.649857  1
  S  S118  1  0.063163  0.274453  0.265053  1
  S  S119  1  0.668830  0.816232  0.391522  1
  S  S120  1  0.100435  0.184652  0.330088  1
  S  S121  1  0.823280  0.716332  0.383496  1
  S  S122  1  0.074543  0.740955  0.350143  1
  S  S123  1  0.899565  0.815348  0.669912  1
  S  S124  1  0.780242  0.761337  0.050629  1
  S  S125  1  0.219758  0.238663  0.949371  1
  S  S126  1  0.495066  0.761552  0.661385  1
  S  S127  1  0.685607  0.670177  0.716461  1
  S  S128  1  0.588368  0.424936  0.211337  1
  S  S129  1  0.399565  0.315348  0.830088  1
  S  S130  1  0.242086  0.737502  0.636278  1
  S  S131  1  0.704710  0.435293  0.360336  1
  S  S132  1  0.886463  0.288545  0.021609  1
  S  S133  1  0.425457  0.759045  0.850143  1
  S  S134  1  0.115036  0.088462  0.520838  1
  S  S135  1  0.323280  0.216332  0.116504  1
  S  S136  1  0.075954  0.084963  0.167543  1
  S  S137  1  0.884964  0.911538  0.479162  1
  S  S138  1  0.223695  0.391989  0.756470  1
  S  S139  1  0.276305  0.108011  0.256470  1
  S  S140  1  0.331170  0.183768  0.608478  1
  S  S141  1  0.814393  0.829823  0.216461  1
  S  S142  1  0.757915  0.262498  0.363722  1
  S  S143  1  0.445285  0.171017  0.957444  1
