# generated using pymatgen
data_Ca3Al4Si8(ClO12)2
_symmetry_space_group_name_H-M   'P 1'
_cell_length_a   9.48640573
_cell_length_b   9.41719808
_cell_length_c   9.57448482
_cell_angle_alpha   94.21019598
_cell_angle_beta   95.54620426
_cell_angle_gamma   95.18288299
_symmetry_Int_Tables_number   1
_chemical_formula_structural   Ca3Al4Si8(ClO12)2
_chemical_formula_sum   'Ca3 Al4 Si8 Cl2 O24'
_cell_volume   844.93869109
_cell_formula_units_Z   1
loop_
 _symmetry_equiv_pos_site_id
 _symmetry_equiv_pos_as_xyz
  1  'x, y, z'
loop_
 _atom_site_type_symbol
 _atom_site_label
 _atom_site_symmetry_multiplicity
 _atom_site_fract_x
 _atom_site_fract_y
 _atom_site_fract_z
 _atom_site_occupancy
  Ca  Ca0  1  0.021944  0.021603  0.946193  1
  Ca  Ca1  1  0.251243  0.218625  0.206431  1
  Ca  Ca2  1  0.790100  0.759334  0.765604  1
  Al  Al3  1  0.115013  0.898392  0.665576  1
  Al  Al4  1  0.112701  0.330640  0.891415  1
  Al  Al5  1  0.343066  0.880277  0.113160  1
  Al  Al6  1  0.677063  0.116263  0.890157  1
  Si  Si7  1  0.117791  0.673221  0.904752  1
  Si  Si8  1  0.123965  0.896665  0.328509  1
  Si  Si9  1  0.330998  0.115927  0.892183  1
  Si  Si10  1  0.692226  0.892758  0.114723  1
  Si  Si11  1  0.883168  0.107529  0.666068  1
  Si  Si12  1  0.908873  0.675366  0.123776  1
  Si  Si13  1  0.893648  0.110143  0.330083  1
  Si  Si14  1  0.894606  0.329240  0.112582  1
  Cl  Cl15  1  0.768887  0.581039  0.565599  1
  Cl  Cl16  1  0.450443  0.358455  0.350255  1
  O  O17  1  0.997366  0.210442  0.775489  1
  O  O18  1  0.111149  0.751865  0.762303  1
  O  O19  1  0.046471  0.278827  0.057002  1
  O  O20  1  0.045915  0.047600  0.286543  1
  O  O21  1  0.097089  0.504572  0.872269  1
  O  O22  1  0.129078  0.879784  0.491038  1
  O  O23  1  0.279317  0.922370  0.275523  1
  O  O24  1  0.283126  0.276070  0.926451  1
  O  O25  1  0.224676  0.034543  0.763630  1
  O  O26  1  0.244733  0.731799  0.022836  1
  O  O27  1  0.276463  0.034865  0.032777  1
  O  O28  1  0.523696  0.875993  0.108734  1
  O  O29  1  0.495963  0.106162  0.884029  1
  O  O30  1  0.750264  0.957006  0.967772  1
  O  O31  1  0.764231  0.998452  0.252841  1
  O  O32  1  0.752679  0.734215  0.122296  1
  O  O33  1  0.726853  0.102395  0.718154  1
  O  O34  1  0.766992  0.257816  0.001368  1
  O  O35  1  0.892422  0.128794  0.499302  1
  O  O36  1  0.900037  0.503733  0.131417  1
  O  O37  1  0.961969  0.722439  0.968968  1
  O  O38  1  0.937797  0.947055  0.699701  1
  O  O39  1  0.893408  0.266744  0.268572  1
  O  O40  1  0.022573  0.760980  0.243920  1
