# generated using pymatgen
data_Na2Ca(SO4)2
_symmetry_space_group_name_H-M   'P 1'
_cell_length_a   6.61750106
_cell_length_b   6.61750106
_cell_length_c   8.69985949
_cell_angle_alpha   72.94830338
_cell_angle_beta   72.94830340
_cell_angle_gamma   78.32569933
_symmetry_Int_Tables_number   1
_chemical_formula_structural   Na2Ca(SO4)2
_chemical_formula_sum   'Na4 Ca2 S4 O16'
_cell_volume   345.38596607
_cell_formula_units_Z   2
loop_
 _symmetry_equiv_pos_site_id
 _symmetry_equiv_pos_as_xyz
  1  'x, y, z'
loop_
 _atom_site_type_symbol
 _atom_site_label
 _atom_site_symmetry_multiplicity
 _atom_site_fract_x
 _atom_site_fract_y
 _atom_site_fract_z
 _atom_site_occupancy
  O  O0  1  0.738970  0.481522  0.868744  1
  O  O1  1  0.518478  0.261030  0.631256  1
  O  O2  1  0.261030  0.518478  0.131256  1
  O  O3  1  0.481522  0.738970  0.368744  1
  O  O4  1  0.999834  0.326061  0.659902  1
  O  O5  1  0.673939  0.000166  0.840098  1
  O  O6  1  0.000166  0.673939  0.340098  1
  O  O7  1  0.326061  0.999834  0.159902  1
  O  O8  1  0.105279  0.569357  0.776728  1
  O  O9  1  0.430643  0.894721  0.723272  1
  O  O10  1  0.211592  0.036667  0.440752  1
  O  O11  1  0.963333  0.788408  0.059248  1
  O  O12  1  0.788408  0.963333  0.559248  1
  O  O13  1  0.036667  0.211592  0.940752  1
  O  O14  1  0.569357  0.105279  0.276728  1
  O  O15  1  0.894721  0.430643  0.223272  1
  Na  Na16  1  0.695335  0.586057  0.562159  1
  Na  Na17  1  0.304665  0.413943  0.437841  1
  Na  Na18  1  0.413943  0.304665  0.937841  1
  Na  Na19  1  0.586057  0.695335  0.062159  1
  S  S20  1  0.031855  0.600225  0.186027  1
  S  S21  1  0.968145  0.399775  0.813973  1
  S  S22  1  0.399775  0.968145  0.313973  1
  S  S23  1  0.600225  0.031855  0.686027  1
  Ca  Ca24  1  0.938827  0.061173  0.250000  1
  Ca  Ca25  1  0.061173  0.938827  0.750000  1
