# generated using pymatgen
data_NaZr2(PO4)3
_symmetry_space_group_name_H-M   'P 1'
_cell_length_a   9.24747349
_cell_length_b   9.24747349
_cell_length_c   9.24747348
_cell_angle_alpha   57.83823011
_cell_angle_beta   57.83823014
_cell_angle_gamma   57.83823009
_symmetry_Int_Tables_number   1
_chemical_formula_structural   NaZr2(PO4)3
_chemical_formula_sum   'Na2 Zr4 P6 O24'
_cell_volume   531.43031608
_cell_formula_units_Z   2
loop_
 _symmetry_equiv_pos_site_id
 _symmetry_equiv_pos_as_xyz
  1  'x, y, z'
loop_
 _atom_site_type_symbol
 _atom_site_label
 _atom_site_symmetry_multiplicity
 _atom_site_fract_x
 _atom_site_fract_y
 _atom_site_fract_z
 _atom_site_occupancy
  O  O0  1  0.780562  0.415694  0.562618  1
  O  O1  1  0.415694  0.562618  0.780562  1
  O  O2  1  0.562618  0.780562  0.415694  1
  O  O3  1  0.937382  0.084306  0.719438  1
  O  O4  1  0.084306  0.719438  0.937382  1
  O  O5  1  0.719438  0.937382  0.084306  1
  O  O6  1  0.219438  0.584306  0.437382  1
  O  O7  1  0.584306  0.437382  0.219438  1
  O  O8  1  0.437382  0.219438  0.584306  1
  O  O9  1  0.062618  0.915694  0.280562  1
  O  O10  1  0.915694  0.280562  0.062618  1
  O  O11  1  0.280562  0.062618  0.915694  1
  O  O12  1  0.380577  0.995808  0.209131  1
  O  O13  1  0.209131  0.380577  0.995808  1
  O  O14  1  0.995808  0.209131  0.380577  1
  O  O15  1  0.504192  0.119423  0.290869  1
  O  O16  1  0.290869  0.504192  0.119423  1
  O  O17  1  0.119423  0.290869  0.504192  1
  O  O18  1  0.619423  0.004192  0.790869  1
  O  O19  1  0.790869  0.619423  0.004192  1
  O  O20  1  0.004192  0.790869  0.619423  1
  O  O21  1  0.495808  0.880577  0.709131  1
  O  O22  1  0.709131  0.495808  0.880577  1
  O  O23  1  0.880577  0.709131  0.495808  1
  Na  Na24  1  0.000000  0.000000  0.000000  1
  Na  Na25  1  0.500000  0.500000  0.500000  1
  P  P26  1  0.750000  0.458955  0.041045  1
  P  P27  1  0.458955  0.041045  0.750000  1
  P  P28  1  0.250000  0.541045  0.958955  1
  P  P29  1  0.541045  0.958955  0.250000  1
  P  P30  1  0.041045  0.750000  0.458955  1
  P  P31  1  0.958955  0.250000  0.541045  1
  Zr  Zr32  1  0.354889  0.354889  0.354889  1
  Zr  Zr33  1  0.145111  0.145111  0.145111  1
  Zr  Zr34  1  0.854889  0.854889  0.854889  1
  Zr  Zr35  1  0.645111  0.645111  0.645111  1
