# generated using pymatgen
data_Gd2PbS4
_symmetry_space_group_name_H-M   'P 1'
_cell_length_a   7.42835129
_cell_length_b   7.42835121
_cell_length_c   7.42835083
_cell_angle_alpha   109.32879312
_cell_angle_beta   109.75644114
_cell_angle_gamma   109.32880116
_symmetry_Int_Tables_number   1
_chemical_formula_structural   Gd2PbS4
_chemical_formula_sum   'Gd4 Pb2 S8'
_cell_volume   315.53484105
_cell_formula_units_Z   2
loop_
 _symmetry_equiv_pos_site_id
 _symmetry_equiv_pos_as_xyz
  1  'x, y, z'
loop_
 _atom_site_type_symbol
 _atom_site_label
 _atom_site_symmetry_multiplicity
 _atom_site_fract_x
 _atom_site_fract_y
 _atom_site_fract_z
 _atom_site_occupancy
  Gd  Gd0  1  0.250000  0.630643  0.380643  1
  Gd  Gd1  1  0.750000  0.869357  0.119357  1
  Gd  Gd2  1  0.619357  0.369357  0.250000  1
  Gd  Gd3  1  0.880643  0.130643  0.750000  1
  Pb  Pb4  1  0.125000  0.750000  0.875000  1
  Pb  Pb5  1  0.375000  0.250000  0.625000  1
  S  S6  1  0.512719  0.995389  0.361489  1
  S  S7  1  0.133900  0.151230  0.138511  1
  S  S8  1  0.366100  0.504611  0.017330  1
  S  S9  1  0.517330  0.004611  0.866100  1
  S  S10  1  0.638511  0.651230  0.633900  1
  S  S11  1  0.982670  0.848770  0.487281  1
  S  S12  1  0.861489  0.495389  0.012719  1
  S  S13  1  0.987281  0.348770  0.482670  1
