# generated using pymatgen
data_SF6
_symmetry_space_group_name_H-M   'P 1'
_cell_length_a   8.31795581
_cell_length_b   8.21407324
_cell_length_c   4.86664870
_cell_angle_alpha   85.50357121
_cell_angle_beta   90.05434670
_cell_angle_gamma   120.56512079
_symmetry_Int_Tables_number   1
_chemical_formula_structural   SF6
_chemical_formula_sum   'S3 F18'
_cell_volume   285.13393442
_cell_formula_units_Z   3
loop_
 _symmetry_equiv_pos_site_id
 _symmetry_equiv_pos_as_xyz
  1  'x, y, z'
loop_
 _atom_site_type_symbol
 _atom_site_label
 _atom_site_symmetry_multiplicity
 _atom_site_fract_x
 _atom_site_fract_y
 _atom_site_fract_z
 _atom_site_occupancy
  S  S0  1  0.000000  0.000000  0.000000  1
  S  S1  1  0.668935  0.337379  0.408903  1
  S  S2  1  0.331065  0.662621  0.591097  1
  F  F3  1  0.902068  0.104442  0.120301  1
  F  F4  1  0.097932  0.895558  0.879699  1
  F  F5  1  0.807504  0.850665  0.878246  1
  F  F6  1  0.192496  0.149335  0.121754  1
  F  F7  1  0.053704  0.134159  0.720819  1
  F  F8  1  0.946296  0.865841  0.279181  1
  F  F9  1  0.587639  0.447617  0.229451  1
  F  F10  1  0.412361  0.552383  0.770549  1
  F  F11  1  0.750270  0.227246  0.588037  1
  F  F12  1  0.249730  0.772754  0.411963  1
  F  F13  1  0.596005  0.180436  0.193549  1
  F  F14  1  0.403995  0.819564  0.806451  1
  F  F15  1  0.740972  0.493940  0.623721  1
  F  F16  1  0.259028  0.506060  0.376279  1
  F  F17  1  0.862978  0.457015  0.235968  1
  F  F18  1  0.137022  0.542985  0.764032  1
  F  F19  1  0.474405  0.217331  0.581118  1
  F  F20  1  0.525595  0.782669  0.418882  1
