# generated using pymatgen
data_CdI2
_symmetry_space_group_name_H-M   'P 1'
_cell_length_a   4.34201401
_cell_length_b   4.34201427
_cell_length_c   103.16014525
_cell_angle_alpha   90.00000000
_cell_angle_beta   90.00000000
_cell_angle_gamma   119.99999794
_symmetry_Int_Tables_number   1
_chemical_formula_structural   CdI2
_chemical_formula_sum   'Cd14 I28'
_cell_volume   1684.32173353
_cell_formula_units_Z   14
loop_
 _symmetry_equiv_pos_site_id
 _symmetry_equiv_pos_as_xyz
  1  'x, y, z'
loop_
 _atom_site_type_symbol
 _atom_site_label
 _atom_site_symmetry_multiplicity
 _atom_site_fract_x
 _atom_site_fract_y
 _atom_site_fract_z
 _atom_site_occupancy
  Cd  Cd0  1  0.333333  0.666667  0.803574  1
  Cd  Cd1  1  0.666667  0.333333  0.160713  1
  Cd  Cd2  1  0.333333  0.666667  0.946439  1
  Cd  Cd3  1  0.666667  0.333333  0.589282  1
  Cd  Cd4  1  0.333333  0.666667  0.089282  1
  Cd  Cd5  1  0.000000  0.000000  0.732146  1
  Cd  Cd6  1  0.333333  0.666667  0.660713  1
  Cd  Cd7  1  0.666667  0.333333  0.303575  1
  Cd  Cd8  1  0.666667  0.333333  0.017848  1
  Cd  Cd9  1  0.666667  0.333333  0.446442  1
  Cd  Cd10  1  0.333333  0.666667  0.517848  1
  Cd  Cd11  1  0.333333  0.666667  0.374994  1
  Cd  Cd12  1  0.000000  0.000000  0.874995  1
  Cd  Cd13  1  0.333333  0.666667  0.232145  1
  I  I14  1  0.000000  0.000000  0.929678  1
  I  I15  1  0.000000  0.000000  0.643958  1
  I  I16  1  0.000000  0.000000  0.215380  1
  I  I17  1  0.333333  0.666667  0.177465  1
  I  I18  1  0.666667  0.333333  0.391733  1
  I  I19  1  0.000000  0.000000  0.072545  1
  I  I20  1  0.333333  0.666667  0.463181  1
  I  I21  1  0.666667  0.333333  0.820328  1
  I  I22  1  0.666667  0.333333  0.534604  1
  I  I23  1  0.666667  0.333333  0.106045  1
  I  I24  1  0.666667  0.333333  0.891739  1
  I  I25  1  0.666667  0.333333  0.963181  1
  I  I26  1  0.333333  0.666667  0.320330  1
  I  I27  1  0.666667  0.333333  0.248897  1
  I  I28  1  0.000000  0.000000  0.143956  1
  I  I29  1  0.000000  0.000000  0.572545  1
  I  I30  1  0.000000  0.000000  0.358236  1
  I  I31  1  0.000000  0.000000  0.001118  1
  I  I32  1  0.000000  0.000000  0.786807  1
  I  I33  1  0.000000  0.000000  0.286809  1
  I  I34  1  0.333333  0.666667  0.858254  1
  I  I35  1  0.666667  0.333333  0.677463  1
  I  I36  1  0.333333  0.666667  0.034606  1
  I  I37  1  0.000000  0.000000  0.501118  1
  I  I38  1  0.666667  0.333333  0.748904  1
  I  I39  1  0.333333  0.666667  0.715397  1
  I  I40  1  0.000000  0.000000  0.429682  1
  I  I41  1  0.333333  0.666667  0.606045  1
