# generated using pymatgen
data_Gd2S3
_symmetry_space_group_name_H-M   'P 1'
_cell_length_a   3.92356888
_cell_length_b   10.55937388
_cell_length_c   10.76914874
_cell_angle_alpha   89.99689207
_cell_angle_beta   90.00042642
_cell_angle_gamma   90.00038973
_symmetry_Int_Tables_number   1
_chemical_formula_structural   Gd2S3
_chemical_formula_sum   'Gd8 S12'
_cell_volume   446.17047075
_cell_formula_units_Z   4
loop_
 _symmetry_equiv_pos_site_id
 _symmetry_equiv_pos_as_xyz
  1  'x, y, z'
loop_
 _atom_site_type_symbol
 _atom_site_label
 _atom_site_symmetry_multiplicity
 _atom_site_fract_x
 _atom_site_fract_y
 _atom_site_fract_z
 _atom_site_occupancy
  Gd  Gd0  1  0.250012  0.313981  0.990856  1
  Gd  Gd1  1  0.250020  0.504953  0.309005  1
  Gd  Gd2  1  0.749994  0.813992  0.509144  1
  Gd  Gd3  1  0.250013  0.995064  0.809001  1
  Gd  Gd4  1  0.750001  0.686014  0.009154  1
  Gd  Gd5  1  0.750005  0.495064  0.690999  1
  Gd  Gd6  1  0.749993  0.004950  0.190992  1
  Gd  Gd7  1  0.250005  0.186018  0.490855  1
  S  S8  1  0.750009  0.802854  0.772377  1
  S  S9  1  0.249994  0.302852  0.727634  1
  S  S10  1  0.249994  0.627305  0.546565  1
  S  S11  1  0.749986  0.127299  0.953433  1
  S  S12  1  0.749988  0.055763  0.620111  1
  S  S13  1  0.249988  0.555764  0.879892  1
  S  S14  1  0.750003  0.697135  0.272377  1
  S  S15  1  0.250005  0.872697  0.046574  1
  S  S16  1  0.749994  0.444226  0.120115  1
  S  S17  1  0.250003  0.944228  0.379880  1
  S  S18  1  0.749997  0.372699  0.453419  1
  S  S19  1  0.249997  0.197141  0.227617  1
