# generated using pymatgen
data_KCa4Si8H16O28F
_symmetry_space_group_name_H-M   'P 1'
_cell_length_a   10.00433582
_cell_length_b   10.00433582
_cell_length_c   12.31830960
_cell_angle_alpha   90.00000000
_cell_angle_beta   90.00000000
_cell_angle_gamma   90.00000000
_symmetry_Int_Tables_number   1
_chemical_formula_structural   KCa4Si8H16O28F
_chemical_formula_sum   'K2 Ca8 Si16 H32 O56 F2'
_cell_volume   1232.89939104
_cell_formula_units_Z   2
loop_
 _symmetry_equiv_pos_site_id
 _symmetry_equiv_pos_as_xyz
  1  'x, y, z'
loop_
 _atom_site_type_symbol
 _atom_site_label
 _atom_site_symmetry_multiplicity
 _atom_site_fract_x
 _atom_site_fract_y
 _atom_site_fract_z
 _atom_site_occupancy
  K  K0  1  0.500000  0.500000  0.000000  1
  K  K1  1  0.000000  0.000000  0.500000  1
  Ca  Ca2  1  0.717489  0.709761  0.000000  1
  Ca  Ca3  1  0.209761  0.217489  0.500000  1
  Ca  Ca4  1  0.290239  0.717489  0.000000  1
  Ca  Ca5  1  0.217489  0.790239  0.500000  1
  Ca  Ca6  1  0.790239  0.782511  0.500000  1
  Ca  Ca7  1  0.282511  0.290239  0.000000  1
  Ca  Ca8  1  0.782511  0.209761  0.500000  1
  Ca  Ca9  1  0.709761  0.282511  0.000000  1
  Si  Si10  1  0.552196  0.714957  0.258036  1
  Si  Si11  1  0.785043  0.947804  0.241964  1
  Si  Si12  1  0.714957  0.447804  0.258036  1
  Si  Si13  1  0.052196  0.785043  0.758036  1
  Si  Si14  1  0.785043  0.947804  0.758036  1
  Si  Si15  1  0.714957  0.447804  0.741964  1
  Si  Si16  1  0.947804  0.214957  0.241964  1
  Si  Si17  1  0.552196  0.714957  0.741964  1
  Si  Si18  1  0.214957  0.052196  0.758036  1
  Si  Si19  1  0.947804  0.214957  0.758036  1
  Si  Si20  1  0.214957  0.052196  0.241964  1
  Si  Si21  1  0.447804  0.285043  0.741964  1
  Si  Si22  1  0.052196  0.785043  0.241964  1
  Si  Si23  1  0.285043  0.552196  0.741964  1
  Si  Si24  1  0.285043  0.552196  0.258036  1
  Si  Si25  1  0.447804  0.285043  0.258036  1
  H  H26  1  0.894627  0.412610  0.600241  1
  H  H27  1  0.412610  0.105373  0.399759  1
  H  H28  1  0.400330  0.664494  0.468979  1
  H  H29  1  0.394627  0.087390  0.899759  1
  H  H30  1  0.835506  0.099670  0.031021  1
  H  H31  1  0.900330  0.835506  0.031021  1
  H  H32  1  0.412610  0.105373  0.600241  1
  H  H33  1  0.599670  0.335506  0.468979  1
  H  H34  1  0.587390  0.894627  0.600241  1
  H  H35  1  0.835506  0.099670  0.968979  1
  H  H36  1  0.105373  0.587390  0.399759  1
  H  H37  1  0.164494  0.900330  0.968979  1
  H  H38  1  0.087390  0.605373  0.100241  1
  H  H39  1  0.664494  0.599670  0.531021  1
  H  H40  1  0.099670  0.164494  0.968979  1
  H  H41  1  0.394627  0.087390  0.100241  1
  H  H42  1  0.900330  0.835506  0.968979  1
  H  H43  1  0.335506  0.400330  0.468979  1
  H  H44  1  0.912610  0.394627  0.899759  1
  H  H45  1  0.605373  0.912610  0.899759  1
  H  H46  1  0.894627  0.412610  0.399759  1
  H  H47  1  0.587390  0.894627  0.399759  1
  H  H48  1  0.664494  0.599670  0.468979  1
  H  H49  1  0.105373  0.587390  0.600241  1
  H  H50  1  0.335506  0.400330  0.531021  1
  H  H51  1  0.912610  0.394627  0.100241  1
  H  H52  1  0.605373  0.912610  0.100241  1
  H  H53  1  0.087390  0.605373  0.899759  1
  H  H54  1  0.599670  0.335506  0.531021  1
  H  H55  1  0.400330  0.664494  0.531021  1
  H  H56  1  0.164494  0.900330  0.031021  1
  H  H57  1  0.099670  0.164494  0.031021  1
  O  O58  1  0.037126  0.785614  0.377652  1
  O  O59  1  0.666981  0.602390  0.706374  1
  O  O60  1  0.833019  0.102390  0.793626  1
  O  O61  1  0.701270  0.934906  0.097415  1
  O  O62  1  0.214386  0.037126  0.377652  1
  O  O63  1  0.462874  0.285614  0.122348  1
  O  O64  1  0.201270  0.565094  0.597415  1
  O  O65  1  0.285614  0.537126  0.877652  1
  O  O66  1  0.666981  0.602390  0.293626  1
  O  O67  1  0.934906  0.298730  0.097415  1
  O  O68  1  0.962874  0.214386  0.622348  1
  O  O69  1  0.372857  0.127143  0.750000  1
  O  O70  1  0.714386  0.462874  0.877652  1
  O  O71  1  0.065094  0.701270  0.902585  1
  O  O72  1  0.962874  0.214386  0.377652  1
  O  O73  1  0.127143  0.627143  0.750000  1
  O  O74  1  0.537126  0.714386  0.122348  1
  O  O75  1  0.872857  0.372857  0.250000  1
  O  O76  1  0.372857  0.127143  0.250000  1
  O  O77  1  0.872857  0.372857  0.750000  1
  O  O78  1  0.214386  0.037126  0.622348  1
  O  O79  1  0.397610  0.666981  0.706374  1
  O  O80  1  0.166981  0.897610  0.793626  1
  O  O81  1  0.333019  0.397610  0.706374  1
  O  O82  1  0.833019  0.102390  0.206374  1
  O  O83  1  0.166981  0.897610  0.206374  1
  O  O84  1  0.934906  0.298730  0.902585  1
  O  O85  1  0.037126  0.785614  0.622348  1
  O  O86  1  0.701270  0.934906  0.902585  1
  O  O87  1  0.065094  0.701270  0.097415  1
  O  O88  1  0.298730  0.065094  0.902585  1
  O  O89  1  0.627143  0.872857  0.250000  1
  O  O90  1  0.127143  0.627143  0.250000  1
  O  O91  1  0.397610  0.666981  0.293626  1
  O  O92  1  0.785614  0.962874  0.377652  1
  O  O93  1  0.627143  0.872857  0.750000  1
  O  O94  1  0.798730  0.434906  0.597415  1
  O  O95  1  0.298730  0.065094  0.097415  1
  O  O96  1  0.537126  0.714386  0.877652  1
  O  O97  1  0.201270  0.565094  0.402585  1
  O  O98  1  0.897610  0.833019  0.206374  1
  O  O99  1  0.897610  0.833019  0.793626  1
  O  O100  1  0.434906  0.201270  0.402585  1
  O  O101  1  0.565094  0.798730  0.597415  1
  O  O102  1  0.602390  0.333019  0.293626  1
  O  O103  1  0.714386  0.462874  0.122348  1
  O  O104  1  0.102390  0.166981  0.206374  1
  O  O105  1  0.333019  0.397610  0.293626  1
  O  O106  1  0.102390  0.166981  0.793626  1
  O  O107  1  0.285614  0.537126  0.122348  1
  O  O108  1  0.434906  0.201270  0.597415  1
  O  O109  1  0.602390  0.333019  0.706374  1
  O  O110  1  0.785614  0.962874  0.622348  1
  O  O111  1  0.462874  0.285614  0.877652  1
  O  O112  1  0.565094  0.798730  0.402585  1
  O  O113  1  0.798730  0.434906  0.402585  1
  F  F114  1  0.500000  0.500000  0.500000  1
  F  F115  1  0.000000  0.000000  0.000000  1
