# generated using pymatgen
data_KCN
_symmetry_space_group_name_H-M   'P 1'
_cell_length_a   6.82913269
_cell_length_b   5.73360929
_cell_length_c   5.54534022
_cell_angle_alpha   73.28516318
_cell_angle_beta   80.49071229
_cell_angle_gamma   78.59730969
_symmetry_Int_Tables_number   1
_chemical_formula_structural   KCN
_chemical_formula_sum   'K4 C4 N4'
_cell_volume   202.49011447
_cell_formula_units_Z   4
loop_
 _symmetry_equiv_pos_site_id
 _symmetry_equiv_pos_as_xyz
  1  'x, y, z'
loop_
 _atom_site_type_symbol
 _atom_site_label
 _atom_site_symmetry_multiplicity
 _atom_site_fract_x
 _atom_site_fract_y
 _atom_site_fract_z
 _atom_site_occupancy
  K  K0  1  0.240339  0.478256  0.759485  1
  K  K1  1  0.273717  0.131060  0.343779  1
  K  K2  1  0.700018  0.865182  0.689611  1
  K  K3  1  0.749678  0.509861  0.275489  1
  C  C4  1  0.170366  0.708466  0.220393  1
  C  C5  1  0.094900  0.925243  0.007825  1
  C  C6  1  0.916351  0.083881  0.973232  1
  C  C7  1  0.705629  0.089743  0.108722  1
  N  N8  1  0.355282  0.719347  0.084495  1
  N  N9  1  0.285889  0.925550  0.866506  1
  N  N10  1  0.857102  0.286275  0.766548  1
  N  N11  1  0.650730  0.277136  0.903915  1
