# generated using pymatgen
data_Re(TeBr2)2
_symmetry_space_group_name_H-M   'P 1'
_cell_length_a   11.05892056
_cell_length_b   11.05739977
_cell_length_c   11.05564367
_cell_angle_alpha   96.85207922
_cell_angle_beta   116.12903694
_cell_angle_gamma   116.13757283
_symmetry_Int_Tables_number   1
_chemical_formula_structural   Re(TeBr2)2
_chemical_formula_sum   'Re4 Te8 Br16'
_cell_volume   1003.93926941
_cell_formula_units_Z   4
loop_
 _symmetry_equiv_pos_site_id
 _symmetry_equiv_pos_as_xyz
  1  'x, y, z'
loop_
 _atom_site_type_symbol
 _atom_site_label
 _atom_site_symmetry_multiplicity
 _atom_site_fract_x
 _atom_site_fract_y
 _atom_site_fract_z
 _atom_site_occupancy
  Re  Re0  1  0.150501  0.604727  0.688116  1
  Re  Re1  1  0.916660  0.311583  0.462366  1
  Re  Re2  1  0.849380  0.537851  0.454243  1
  Re  Re3  1  0.083479  0.545783  0.395085  1
  Te  Te4  1  0.527780  0.429779  0.349560  1
  Te  Te5  1  0.127951  0.781055  0.549081  1
  Te  Te6  1  0.080342  0.650570  0.178286  1
  Te  Te7  1  0.872109  0.421114  0.653191  1
  Te  Te8  1  0.472388  0.821867  0.902113  1
  Te  Te9  1  0.232020  0.450981  0.578917  1
  Te  Te10  1  0.919675  0.097943  0.570205  1
  Te  Te11  1  0.767860  0.346749  0.218752  1
  Br  Br12  1  0.213552  0.158010  0.712100  1
  Br  Br13  1  0.374150  0.742379  0.454137  1
  Br  Br14  1  0.910309  0.104254  0.303000  1
  Br  Br15  1  0.445913  0.287897  0.501609  1
  Br  Br16  1  0.095349  0.892445  0.234743  1
  Br  Br17  1  0.342242  0.202843  0.107528  1
  Br  Br18  1  0.288184  0.545858  0.920020  1
  Br  Br19  1  0.089586  0.392666  0.193872  1
  Br  Br20  1  0.786364  0.498488  0.944369  1
  Br  Br21  1  0.801377  0.696979  0.607381  1
  Br  Br22  1  0.625861  0.079955  0.368183  1
  Br  Br23  1  0.198755  0.806112  0.895743  1
  Br  Br24  1  0.711844  0.631735  0.257694  1
  Br  Br25  1  0.554072  0.055657  0.842003  1
  Br  Br26  1  0.657633  0.765317  0.860590  1
  Br  Br27  1  0.904661  0.139402  0.797112  1
