# generated using pymatgen
data_Na2Nb18Tl7(PO8)9
_symmetry_space_group_name_H-M   'P 1'
_cell_length_a   8.61654599
_cell_length_b   8.62459322
_cell_length_c   25.86896283
_cell_angle_alpha   104.72435147
_cell_angle_beta   104.39779287
_cell_angle_gamma   104.79625540
_symmetry_Int_Tables_number   1
_chemical_formula_structural   Na2Nb18Tl7(PO8)9
_chemical_formula_sum   'Na2 Nb18 Tl7 P9 O72'
_cell_volume   1693.56221614
_cell_formula_units_Z   1
loop_
 _symmetry_equiv_pos_site_id
 _symmetry_equiv_pos_as_xyz
  1  'x, y, z'
loop_
 _atom_site_type_symbol
 _atom_site_label
 _atom_site_symmetry_multiplicity
 _atom_site_fract_x
 _atom_site_fract_y
 _atom_site_fract_z
 _atom_site_occupancy
  Na  Na0  1  0.005404  0.000994  0.331647  1
  Na  Na1  1  0.004693  0.001203  0.000110  1
  Nb  Nb2  1  0.137212  0.347318  0.822283  1
  Nb  Nb3  1  0.529517  0.652966  0.950376  1
  Nb  Nb4  1  0.334233  0.472908  0.718969  1
  Nb  Nb5  1  0.149710  0.346854  0.486980  1
  Nb  Nb6  1  0.645006  0.862805  0.847692  1
  Nb  Nb7  1  0.454154  0.154425  0.777960  1
  Nb  Nb8  1  0.540999  0.650007  0.620840  1
  Nb  Nb9  1  0.346765  0.455180  0.379923  1
  Nb  Nb10  1  0.145722  0.344416  0.153963  1
  Nb  Nb11  1  0.842598  0.538723  0.885843  1
  Nb  Nb12  1  0.661289  0.838487  0.509437  1
  Nb  Nb13  1  0.470403  0.139957  0.449896  1
  Nb  Nb14  1  0.535538  0.649806  0.282607  1
  Nb  Nb15  1  0.344550  0.463281  0.049629  1
  Nb  Nb16  1  0.856625  0.535805  0.552650  1
  Nb  Nb17  1  0.655287  0.852879  0.178240  1
  Nb  Nb18  1  0.464643  0.146767  0.115883  1
  Nb  Nb19  1  0.854024  0.537056  0.217629  1
  Tl  Tl20  1  0.582745  0.177476  0.972331  1
  Tl  Tl21  1  0.352656  0.183189  0.585234  1
  Tl  Tl22  1  0.687590  0.127335  0.646072  1
  Tl  Tl23  1  0.120844  0.895519  0.833822  1
  Tl  Tl24  1  0.488390  0.096964  0.293182  1
  Tl  Tl25  1  0.933377  0.610715  0.410727  1
  Tl  Tl26  1  0.952774  0.633283  0.082653  1
  P  P27  1  0.995995  0.233777  0.925791  1
  P  P28  1  0.993649  0.225172  0.588233  1
  P  P29  1  0.235644  0.773066  0.664156  1
  P  P30  1  0.997457  0.231166  0.255645  1
  P  P31  1  0.230333  0.768152  0.333432  1
  P  P32  1  0.228135  0.772387  0.000649  1
  P  P33  1  0.773424  0.994008  0.747766  1
  P  P34  1  0.776055  0.999469  0.407995  1
  P  P35  1  0.771596  0.999768  0.075605  1
  O  O36  1  0.056675  0.738698  0.955142  1
  O  O37  1  0.003229  0.476787  0.844677  1
  O  O38  1  0.135269  0.266937  0.982706  1
  O  O39  1  0.077860  0.213445  0.878499  1
  O  O40  1  0.063697  0.725333  0.617127  1
  O  O41  1  0.370646  0.787280  0.973985  1
  O  O42  1  0.274046  0.942801  0.711566  1
  O  O43  1  0.000926  0.469393  0.506111  1
  O  O44  1  0.179523  0.427105  0.763356  1
  O  O45  1  0.222566  0.632069  0.691547  1
  O  O46  1  0.347256  0.498393  0.883662  1
  O  O47  1  0.141420  0.272297  0.644185  1
  O  O48  1  0.067884  0.205670  0.538980  1
  O  O49  1  0.290143  0.184677  0.810881  1
  O  O50  1  0.058659  0.733329  0.287009  1
  O  O51  1  0.567065  0.820980  0.906389  1
  O  O52  1  0.378812  0.789826  0.637626  1
  O  O53  1  0.266175  0.943073  0.378281  1
  O  O54  1  0.491946  0.654774  0.784511  1
  O  O55  1  0.998149  0.476441  0.172624  1
  O  O56  1  0.196541  0.434966  0.431356  1
  O  O57  1  0.213869  0.627953  0.360509  1
  O  O58  1  0.347743  0.485644  0.554036  1
  O  O59  1  0.421567  0.293009  0.729141  1
  O  O60  1  0.135564  0.263149  0.312913  1
  O  O61  1  0.478553  0.524968  0.668262  1
  O  O62  1  0.706886  0.572097  0.938993  1
  O  O63  1  0.078678  0.218457  0.208645  1
  O  O64  1  0.295696  0.185548  0.476545  1
  O  O65  1  0.525867  0.006246  0.828216  1
  O  O66  1  0.576040  0.800387  0.566568  1
  O  O67  1  0.650819  0.350855  0.832413  1
  O  O68  1  0.373322  0.784855  0.306659  1
  O  O69  1  0.790761  0.910417  0.793799  1
  O  O70  1  0.809150  0.713423  0.860281  1
  O  O71  1  0.265129  0.946870  0.046442  1
  O  O72  1  0.507457  0.646714  0.444928  1
  O  O73  1  0.730826  0.859033  0.688473  1
  O  O74  1  0.183894  0.432140  0.096505  1
  O  O75  1  0.212423  0.633518  0.028684  1
  O  O76  1  0.634075  0.076571  0.743875  1
  O  O77  1  0.347184  0.501775  0.215971  1
  O  O78  1  0.427281  0.283936  0.393213  1
  O  O79  1  0.473251  0.517986  0.330128  1
  O  O80  1  0.710503  0.569394  0.602115  1
  O  O81  1  0.915877  0.373983  0.930737  1
  O  O82  1  0.293448  0.193182  0.142157  1
  O  O83  1  0.530341  0.994695  0.490155  1
  O  O84  1  0.857809  0.061029  0.915036  1
  O  O85  1  0.571362  0.815184  0.236090  1
  O  O86  1  0.655586  0.343967  0.498575  1
  O  O87  1  0.789599  0.914502  0.453699  1
  O  O88  1  0.816612  0.700183  0.519593  1
  O  O89  1  0.500556  0.652862  0.115787  1
  O  O90  1  0.739610  0.863149  0.349585  1
  O  O91  1  0.633566  0.080053  0.402666  1
  O  O92  1  0.431134  0.292155  0.061329  1
  O  O93  1  0.945385  0.133184  0.760356  1
  O  O94  1  0.469932  0.524617  0.999496  1
  O  O95  1  0.710263  0.572154  0.269769  1
  O  O96  1  0.908038  0.361550  0.592929  1
  O  O97  1  0.526788  0.001196  0.157675  1
  O  O98  1  0.859050  0.050569  0.576354  1
  O  O99  1  0.654688  0.347708  0.165836  1
  O  O100  1  0.784436  0.918604  0.122417  1
  O  O101  1  0.811419  0.708643  0.189715  1
  O  O102  1  0.737919  0.861793  0.018323  1
  O  O103  1  0.631538  0.083005  0.069764  1
  O  O104  1  0.948444  0.138375  0.419358  1
  O  O105  1  0.918608  0.372988  0.261469  1
  O  O106  1  0.860016  0.058127  0.244013  1
  O  O107  1  0.944716  0.137746  0.087228  1
