# generated using pymatgen
data_K4(BSe)9
_symmetry_space_group_name_H-M   'P 1'
_cell_length_a   10.01924387
_cell_length_b   16.25828591
_cell_length_c   22.65691290
_cell_angle_alpha   107.27622703
_cell_angle_beta   97.07200228
_cell_angle_gamma   106.00675033
_symmetry_Int_Tables_number   1
_chemical_formula_structural   K4(BSe)9
_chemical_formula_sum   'K24 B54 Se54'
_cell_volume   3301.98923640
_cell_formula_units_Z   6
loop_
 _symmetry_equiv_pos_site_id
 _symmetry_equiv_pos_as_xyz
  1  'x, y, z'
loop_
 _atom_site_type_symbol
 _atom_site_label
 _atom_site_symmetry_multiplicity
 _atom_site_fract_x
 _atom_site_fract_y
 _atom_site_fract_z
 _atom_site_occupancy
  K  K0  1  0.300080  0.400338  0.144711  1
  K  K1  1  0.853968  0.850285  0.715721  1
  K  K2  1  0.819073  0.910132  0.368836  1
  K  K3  1  0.341150  0.828016  0.621719  1
  K  K4  1  0.447002  0.839083  0.000006  1
  K  K5  1  0.215067  0.745801  0.804227  1
  K  K6  1  0.795336  0.753205  0.148393  1
  K  K7  1  0.826913  0.604817  0.516859  1
  K  K8  1  0.583958  0.097929  0.833127  1
  K  K9  1  0.750884  0.264727  0.166438  1
  K  K10  1  0.808754  0.390232  0.998776  1
  K  K11  1  0.643436  0.605801  0.853272  1
  K  K12  1  0.485119  0.505673  0.999899  1
  K  K13  1  0.716687  0.206926  0.377795  1
  K  K14  1  0.155347  0.254057  0.853649  1
  K  K15  1  0.307548  0.087546  0.483307  1
  K  K16  1  0.137913  0.595487  0.001243  1
  K  K17  1  0.174570  0.372861  0.448860  1
  K  K18  1  0.411590  0.941228  0.195620  1
  K  K19  1  0.450785  0.541354  0.630297  1
  K  K20  1  0.579886  0.484505  0.317769  1
  K  K21  1  0.136170  0.136083  0.285495  1
  K  K22  1  0.723885  0.920076  0.551452  1
  K  K23  1  0.261365  0.167345  0.680174  1
  B  B24  1  0.105989  0.589209  0.261500  1
  B  B25  1  0.028390  0.398375  0.316560  1
  B  B26  1  0.166394  0.016319  0.834226  1
  B  B27  1  0.143244  0.774088  0.331925  1
  B  B28  1  0.118065  0.869159  0.495108  1
  B  B29  1  0.802450  0.256870  0.601782  1
  B  B30  1  0.986326  0.023133  0.932038  1
  B  B31  1  0.458762  0.679616  0.492325  1
  B  B32  1  0.014062  0.664220  0.292523  1
  B  B33  1  0.908160  0.440827  0.737623  1
  B  B34  1  0.836692  0.983407  0.165845  1
  B  B35  1  0.058022  0.911621  0.000101  1
  B  B36  1  0.098554  0.274183  0.999231  1
  B  B37  1  0.809115  0.512434  0.177378  1
  B  B38  1  0.992952  0.620035  0.661984  1
  B  B39  1  0.054201  0.091308  0.068188  1
  B  B40  1  0.716563  0.257703  0.665355  1
  B  B41  1  0.982213  0.325472  0.632496  1
  B  B42  1  0.722434  0.372124  0.706771  1
  B  B43  1  0.632002  0.336510  0.821891  1
  B  B44  1  0.811978  0.442420  0.667337  1
  B  B45  1  0.670843  0.818814  0.833683  1
  B  B46  1  0.844916  0.328225  0.738175  1
  B  B47  1  0.940990  0.089270  0.999984  1
  B  B48  1  0.874215  0.016172  0.042913  1
  B  B49  1  0.946562  0.910556  0.932166  1
  B  B50  1  0.253177  0.768454  0.398408  1
  B  B51  1  0.349300  0.692459  0.367244  1
  B  B52  1  0.199981  0.654754  0.397990  1
  B  B53  1  0.012597  0.369884  0.717354  1
  B  B54  1  0.987403  0.438735  0.670777  1
  B  B55  1  0.831389  0.973471  0.957380  1
  B  B56  1  0.969140  0.188561  0.507932  1
  B  B57  1  0.219223  0.581946  0.324971  1
  B  B58  1  0.854873  0.369919  0.600908  1
  B  B59  1  0.329641  0.956833  0.337396  1
  B  B60  1  0.069786  0.706526  0.377451  1
  B  B61  1  0.014755  0.978415  0.068110  1
  B  B62  1  0.623647  0.374394  0.503954  1
  B  B63  1  0.692748  0.328990  0.621821  1
  B  B64  1  0.315570  0.767333  0.328793  1
  B  B65  1  0.121565  0.095769  0.000136  1
  B  B66  1  0.183107  0.526708  0.835849  1
  B  B67  1  0.879426  0.906659  0.000122  1
  B  B68  1  0.169291  0.702496  0.261784  1
  B  B69  1  0.294384  0.652041  0.282376  1
  B  B70  1  0.894826  0.257281  0.674905  1
  B  B71  1  0.891007  0.724403  0.000172  1
  B  B72  1  0.169071  0.027933  0.042855  1
  B  B73  1  0.050452  0.591708  0.334448  1
  B  B74  1  0.126692  0.985286  0.957513  1
  B  B75  1  0.331174  0.181252  0.166162  1
  B  B76  1  0.349063  0.691440  0.164525  1
  B  B77  1  0.713711  0.082046  0.683354  1
  Se  Se78  1  0.998575  0.547836  0.819348  1
  Se  Se79  1  0.082956  0.963531  0.557967  1
  Se  Se80  1  0.861254  0.804250  0.850552  1
  Se  Se81  1  0.953375  0.271421  0.302706  1
  Se  Se82  1  0.363080  0.077259  0.102121  1
  Se  Se83  1  0.916789  0.142695  0.685411  1
  Se  Se84  1  0.771406  0.151640  0.520725  1
  Se  Se85  1  0.139790  0.195312  0.150948  1
  Se  Se86  1  0.991281  0.486263  0.180561  1
  Se  Se87  1  0.202015  0.412901  0.778602  1
  Se  Se88  1  0.458824  0.883076  0.331165  1
  Se  Se89  1  0.811506  0.626942  0.243474  1
  Se  Se90  1  0.146071  0.397358  0.998941  1
  Se  Se91  1  0.833335  0.394956  0.518678  1
  Se  Se92  1  0.957413  0.757933  0.438066  1
  Se  Se93  1  0.229840  0.456627  0.314903  1
  Se  Se94  1  0.536869  0.706778  0.420504  1
  Se  Se95  1  0.126479  0.894910  0.333130  1
  Se  Se96  1  0.343551  0.613157  0.902000  1
  Se  Se97  1  0.568879  0.384767  0.755511  1
  Se  Se98  1  0.089412  0.793763  0.000334  1
  Se  Se99  1  0.901526  0.204122  0.999282  1
  Se  Se100  1  0.476325  0.261501  0.239160  1
  Se  Se101  1  0.128102  0.552170  0.668199  1
  Se  Se102  1  0.237515  0.024400  0.761058  1
  Se  Se103  1  0.750408  0.788478  0.000422  1
  Se  Se104  1  0.584756  0.702956  0.570685  1
  Se  Se105  1  0.015361  0.132824  0.429476  1
  Se  Se106  1  0.261543  0.975569  0.898283  1
  Se  Se107  1  0.444934  0.712225  0.099132  1
  Se  Se108  1  0.118285  0.288138  0.579954  1
  Se  Se109  1  0.179388  0.727851  0.180051  1
  Se  Se110  1  0.052515  0.738916  0.656695  1
  Se  Se111  1  0.638065  0.923465  0.897177  1
  Se  Se112  1  0.652963  0.969202  0.697438  1
  Se  Se113  1  0.313076  0.875334  0.480702  1
  Se  Se114  1  0.524698  0.406515  0.441605  1
  Se  Se115  1  0.794176  0.562118  0.666246  1
  Se  Se116  1  0.639062  0.428570  0.116037  1
  Se  Se117  1  0.912168  0.479198  0.338721  1
  Se  Se118  1  0.395475  0.081259  0.343339  1
  Se  Se119  1  0.246829  0.216204  0.999911  1
  Se  Se120  1  0.989368  0.044314  0.849177  1
  Se  Se121  1  0.740646  0.025627  0.102869  1
  Se  Se122  1  0.523520  0.314749  0.883161  1
  Se  Se123  1  0.248131  0.630267  0.478975  1
  Se  Se124  1  0.810526  0.306350  0.819148  1
  Se  Se125  1  0.764038  0.972934  0.238026  1
  Se  Se126  1  0.011953  0.953912  0.149800  1
  Se  Se127  1  0.520006  0.319984  0.560796  1
  Se  Se128  1  0.525378  0.736119  0.761398  1
  Se  Se129  1  0.422982  0.633572  0.221481  1
  Se  Se130  1  0.823658  0.602468  0.001089  1
  Se  Se131  1  0.574674  0.140723  0.661528  1
