# generated using pymatgen
data_Ag9(BiO3)2
_symmetry_space_group_name_H-M   'P 1'
_cell_length_a   8.98064585
_cell_length_b   8.98064582
_cell_length_c   25.13185523
_cell_angle_alpha   90.00000000
_cell_angle_beta   90.00000000
_cell_angle_gamma   104.48187268
_symmetry_Int_Tables_number   1
_chemical_formula_structural   Ag9(BiO3)2
_chemical_formula_sum   'Ag36 Bi8 O24'
_cell_volume   1962.53220225
_cell_formula_units_Z   4
loop_
 _symmetry_equiv_pos_site_id
 _symmetry_equiv_pos_as_xyz
  1  'x, y, z'
loop_
 _atom_site_type_symbol
 _atom_site_label
 _atom_site_symmetry_multiplicity
 _atom_site_fract_x
 _atom_site_fract_y
 _atom_site_fract_z
 _atom_site_occupancy
  Ag  Ag0  1  0.731101  0.268899  0.154692  1
  Ag  Ag1  1  0.517830  0.482170  0.151888  1
  Ag  Ag2  1  0.373403  0.373403  0.500000  1
  Ag  Ag3  1  0.000000  0.500000  0.500000  1
  Ag  Ag4  1  0.627478  0.119349  0.250000  1
  Ag  Ag5  1  0.627582  0.870367  0.340391  1
  Ag  Ag6  1  0.268899  0.731101  0.845308  1
  Ag  Ag7  1  0.129633  0.372418  0.340391  1
  Ag  Ag8  1  0.517830  0.482170  0.348112  1
  Ag  Ag9  1  0.870367  0.627582  0.659609  1
  Ag  Ag10  1  0.129633  0.372418  0.159609  1
  Ag  Ag11  1  0.626597  0.626597  0.500000  1
  Ag  Ag12  1  0.633343  0.618511  0.250000  1
  Ag  Ag13  1  0.637354  0.362646  0.445641  1
  Ag  Ag14  1  0.482170  0.517830  0.651888  1
  Ag  Ag15  1  0.362646  0.637354  0.945641  1
  Ag  Ag16  1  0.372418  0.129633  0.840391  1
  Ag  Ag17  1  0.731101  0.268899  0.345308  1
  Ag  Ag18  1  0.119349  0.627478  0.750000  1
  Ag  Ag19  1  0.372418  0.129633  0.659609  1
  Ag  Ag20  1  0.362646  0.637354  0.554359  1
  Ag  Ag21  1  0.482170  0.517830  0.848112  1
  Ag  Ag22  1  0.626597  0.626597  0.000000  1
  Ag  Ag23  1  0.366657  0.381489  0.750000  1
  Ag  Ag24  1  0.500000  0.000000  0.000000  1
  Ag  Ag25  1  0.880651  0.372522  0.250000  1
  Ag  Ag26  1  0.637354  0.362646  0.054359  1
  Ag  Ag27  1  0.870367  0.627582  0.840391  1
  Ag  Ag28  1  0.372522  0.880651  0.750000  1
  Ag  Ag29  1  0.618511  0.633343  0.750000  1
  Ag  Ag30  1  0.268899  0.731101  0.654692  1
  Ag  Ag31  1  0.627582  0.870367  0.159609  1
  Ag  Ag32  1  0.381489  0.366657  0.250000  1
  Ag  Ag33  1  0.373403  0.373403  0.000000  1
  Ag  Ag34  1  0.000000  0.500000  0.000000  1
  Ag  Ag35  1  0.500000  0.000000  0.500000  1
  Bi  Bi36  1  0.319019  0.058457  0.121174  1
  Bi  Bi37  1  0.058457  0.319019  0.621174  1
  Bi  Bi38  1  0.941543  0.680981  0.121174  1
  Bi  Bi39  1  0.680981  0.941543  0.878826  1
  Bi  Bi40  1  0.680981  0.941543  0.621174  1
  Bi  Bi41  1  0.058457  0.319019  0.878826  1
  Bi  Bi42  1  0.319019  0.058457  0.378826  1
  Bi  Bi43  1  0.941543  0.680981  0.378826  1
  O  O44  1  0.469880  0.939619  0.658481  1
  O  O45  1  0.579014  0.846924  0.951158  1
  O  O46  1  0.060381  0.530120  0.841519  1
  O  O47  1  0.846924  0.579014  0.048842  1
  O  O48  1  0.579014  0.846924  0.548842  1
  O  O49  1  0.683218  0.728159  0.844061  1
  O  O50  1  0.846924  0.579014  0.451158  1
  O  O51  1  0.420986  0.153076  0.048842  1
  O  O52  1  0.316782  0.271841  0.344061  1
  O  O53  1  0.939619  0.469880  0.341519  1
  O  O54  1  0.316782  0.271841  0.155939  1
  O  O55  1  0.271841  0.316782  0.655939  1
  O  O56  1  0.530120  0.060381  0.341519  1
  O  O57  1  0.271841  0.316782  0.844061  1
  O  O58  1  0.728159  0.683218  0.155939  1
  O  O59  1  0.728159  0.683218  0.344061  1
  O  O60  1  0.420986  0.153076  0.451158  1
  O  O61  1  0.683218  0.728159  0.655939  1
  O  O62  1  0.530120  0.060381  0.158481  1
  O  O63  1  0.153076  0.420986  0.548842  1
  O  O64  1  0.153076  0.420986  0.951158  1
  O  O65  1  0.060381  0.530120  0.658481  1
  O  O66  1  0.939619  0.469880  0.158481  1
  O  O67  1  0.469880  0.939619  0.841519  1
