# generated using pymatgen
data_Ca3(PO4)2
_symmetry_space_group_name_H-M   'P 1'
_cell_length_a   14.40690088
_cell_length_b   14.40690129
_cell_length_c   14.40690169
_cell_angle_alpha   43.44266049
_cell_angle_beta   43.44265893
_cell_angle_gamma   43.44265859
_symmetry_Int_Tables_number   1
_chemical_formula_structural   Ca3(PO4)2
_chemical_formula_sum   'Ca21 P14 O56'
_cell_volume   1282.72620364
_cell_formula_units_Z   7
loop_
 _symmetry_equiv_pos_site_id
 _symmetry_equiv_pos_as_xyz
  1  'x, y, z'
loop_
 _atom_site_type_symbol
 _atom_site_label
 _atom_site_symmetry_multiplicity
 _atom_site_fract_x
 _atom_site_fract_y
 _atom_site_fract_z
 _atom_site_occupancy
  Ca  Ca0  1  0.232349  0.232349  0.232349  1
  Ca  Ca1  1  0.143849  0.603561  0.170157  1
  Ca  Ca2  1  0.170157  0.143849  0.603561  1
  Ca  Ca3  1  0.603561  0.170157  0.143849  1
  Ca  Ca4  1  0.184238  0.214199  0.791161  1
  Ca  Ca5  1  0.214199  0.791161  0.184238  1
  Ca  Ca6  1  0.115836  0.631558  0.649844  1
  Ca  Ca7  1  0.791161  0.184238  0.214199  1
  Ca  Ca8  1  0.277314  0.328810  0.900320  1
  Ca  Ca9  1  0.328810  0.900320  0.277314  1
  Ca  Ca10  1  0.631558  0.649844  0.115836  1
  Ca  Ca11  1  0.649844  0.115836  0.631558  1
  Ca  Ca12  1  0.300672  0.698016  0.676432  1
  Ca  Ca13  1  0.900320  0.277314  0.328810  1
  Ca  Ca14  1  0.676432  0.300672  0.698016  1
  Ca  Ca15  1  0.698016  0.676432  0.300672  1
  Ca  Ca16  1  0.400167  0.820685  0.784069  1
  Ca  Ca17  1  0.784069  0.400167  0.820685  1
  Ca  Ca18  1  0.820685  0.784069  0.400167  1
  Ca  Ca19  1  0.732267  0.732267  0.732267  1
  Ca  Ca20  1  0.920245  0.920245  0.920245  1
  P  P21  1  0.997391  0.997391  0.997391  1
  P  P22  1  0.993578  0.568182  0.038587  1
  P  P23  1  0.038587  0.993578  0.568182  1
  P  P24  1  0.568182  0.038587  0.993578  1
  P  P25  1  0.054486  0.511981  0.539775  1
  P  P26  1  0.511981  0.539775  0.054486  1
  P  P27  1  0.539775  0.054486  0.511981  1
  P  P28  1  0.500651  0.500651  0.500651  1
  P  P29  1  0.420784  0.973398  0.389701  1
  P  P30  1  0.973398  0.389701  0.420784  1
  P  P31  1  0.389701  0.420784  0.973398  1
  P  P32  1  0.898620  0.468482  0.916668  1
  P  P33  1  0.916668  0.898620  0.468482  1
  P  P34  1  0.468482  0.916668  0.898620  1
  O  O35  1  0.036271  0.036271  0.036271  1
  O  O36  1  0.108005  0.093744  0.397562  1
  O  O37  1  0.093744  0.397562  0.108005  1
  O  O38  1  0.397562  0.108005  0.093744  1
  O  O39  1  0.539433  0.373082  0.951120  1
  O  O40  1  0.951120  0.539433  0.373082  1
  O  O41  1  0.373082  0.951120  0.539433  1
  O  O42  1  0.086216  0.348854  0.607869  1
  O  O43  1  0.105353  0.599690  0.368004  1
  O  O44  1  0.348854  0.607869  0.086216  1
  O  O45  1  0.368004  0.105353  0.599690  1
  O  O46  1  0.121333  0.507339  0.591832  1
  O  O47  1  0.607869  0.086216  0.348854  1
  O  O48  1  0.599690  0.368004  0.105353  1
  O  O49  1  0.264052  0.175434  0.909377  1
  O  O50  1  0.102558  0.806892  0.413053  1
  O  O51  1  0.507339  0.591832  0.121333  1
  O  O52  1  0.591832  0.121333  0.507339  1
  O  O53  1  0.413053  0.102558  0.806892  1
  O  O54  1  0.175434  0.909377  0.264052  1
  O  O55  1  0.119743  0.840029  0.571851  1
  O  O56  1  0.354392  0.478534  0.632011  1
  O  O57  1  0.080010  0.619348  0.867896  1
  O  O58  1  0.478534  0.632011  0.354392  1
  O  O59  1  0.806892  0.413053  0.102558  1
  O  O60  1  0.632011  0.354392  0.478534  1
  O  O61  1  0.909377  0.264052  0.175434  1
  O  O62  1  0.076625  0.962723  0.669534  1
  O  O63  1  0.571851  0.119743  0.840029  1
  O  O64  1  0.619348  0.867896  0.080010  1
  O  O65  1  0.540306  0.540306  0.540306  1
  O  O66  1  0.414066  0.411057  0.854479  1
  O  O67  1  0.411057  0.854479  0.414066  1
  O  O68  1  0.840029  0.571851  0.119743  1
  O  O69  1  0.867896  0.080010  0.619348  1
  O  O70  1  0.293957  0.604466  0.925357  1
  O  O71  1  0.669534  0.076625  0.962723  1
  O  O72  1  0.122625  0.972017  0.850915  1
  O  O73  1  0.387440  0.685228  0.768755  1
  O  O74  1  0.854479  0.414066  0.411057  1
  O  O75  1  0.768755  0.387440  0.685228  1
  O  O76  1  0.604466  0.925357  0.293957  1
  O  O77  1  0.962723  0.669534  0.076625  1
  O  O78  1  0.925357  0.293957  0.604466  1
  O  O79  1  0.685228  0.768755  0.387440  1
  O  O80  1  0.850915  0.122625  0.972017  1
  O  O81  1  0.351128  0.904853  0.922600  1
  O  O82  1  0.608419  0.878230  0.595940  1
  O  O83  1  0.595940  0.608419  0.878230  1
  O  O84  1  0.972017  0.850915  0.122625  1
  O  O85  1  0.878230  0.595940  0.608419  1
  O  O86  1  0.048149  0.443763  0.872848  1
  O  O87  1  0.922600  0.351128  0.904853  1
  O  O88  1  0.904853  0.922600  0.351128  1
  O  O89  1  0.443763  0.872848  0.048149  1
  O  O90  1  0.872848  0.048149  0.443763  1
