# generated using pymatgen
data_SrZrCo
_symmetry_space_group_name_H-M   'P 1'
_cell_length_a   4.64485273
_cell_length_b   4.64485649
_cell_length_c   4.64487057
_cell_angle_alpha   60.00010983
_cell_angle_beta   60.00004275
_cell_angle_gamma   59.99996404
_symmetry_Int_Tables_number   1
_chemical_formula_structural   SrZrCo
_chemical_formula_sum   'Sr1 Zr1 Co1'
_cell_volume   70.86034328
_cell_formula_units_Z   1
loop_
 _symmetry_equiv_pos_site_id
 _symmetry_equiv_pos_as_xyz
  1  'x, y, z'
loop_
 _atom_site_type_symbol
 _atom_site_label
 _atom_site_symmetry_multiplicity
 _atom_site_fract_x
 _atom_site_fract_y
 _atom_site_fract_z
 _atom_site_occupancy
  Sr  Sr0  1  0.499999  0.500000  0.500000  1
  Zr  Zr1  1  0.250001  0.250001  0.249999  1
  Co  Co2  1  1.000000  0.999999  0.000001  1
