# generated using pymatgen
data_Y2Ge5Ru3
_symmetry_space_group_name_H-M   'P 1'
_cell_length_a   5.79591510
_cell_length_b   8.49542899
_cell_length_c   8.49542902
_cell_angle_alpha   71.25306210
_cell_angle_beta   70.05489098
_cell_angle_gamma   70.05489398
_symmetry_Int_Tables_number   1
_chemical_formula_structural   Y2Ge5Ru3
_chemical_formula_sum   'Y4 Ge10 Ru6'
_cell_volume   359.54228810
_cell_formula_units_Z   2
loop_
 _symmetry_equiv_pos_site_id
 _symmetry_equiv_pos_as_xyz
  1  'x, y, z'
loop_
 _atom_site_type_symbol
 _atom_site_label
 _atom_site_symmetry_multiplicity
 _atom_site_fract_x
 _atom_site_fract_y
 _atom_site_fract_z
 _atom_site_occupancy
  Y  Y0  1  0.861157  0.370077  0.907610  1
  Y  Y1  1  0.638843  0.092390  0.629923  1
  Y  Y2  1  0.138843  0.629923  0.092390  1
  Y  Y3  1  0.361157  0.907610  0.370077  1
  Ge  Ge4  1  0.457199  0.292801  0.292801  1
  Ge  Ge5  1  0.412499  0.411382  0.763619  1
  Ge  Ge6  1  0.087501  0.236381  0.588618  1
  Ge  Ge7  1  0.750000  0.000000  0.000000  1
  Ge  Ge8  1  0.957199  0.292801  0.292801  1
  Ge  Ge9  1  0.250000  0.000000  0.000000  1
  Ge  Ge10  1  0.587501  0.588618  0.236381  1
  Ge  Ge11  1  0.042801  0.707199  0.707199  1
  Ge  Ge12  1  0.912499  0.763619  0.411382  1
  Ge  Ge13  1  0.542801  0.707199  0.707199  1
  Ru  Ru14  1  0.647559  0.761008  0.943873  1
  Ru  Ru15  1  0.852441  0.056127  0.238992  1
  Ru  Ru16  1  0.147559  0.943873  0.761008  1
  Ru  Ru17  1  0.352441  0.238992  0.056127  1
  Ru  Ru18  1  0.750000  0.500000  0.500000  1
  Ru  Ru19  1  0.250000  0.500000  0.500000  1
