# generated using pymatgen
data_Ni23Te42
_symmetry_space_group_name_H-M   'P 1'
_cell_length_a   11.67785240
_cell_length_b   27.39061922
_cell_length_c   8.45589637
_cell_angle_alpha   89.60979752
_cell_angle_beta   47.65266162
_cell_angle_gamma   120.30835761
_symmetry_Int_Tables_number   1
_chemical_formula_structural   Ni23Te42
_chemical_formula_sum   'Ni23 Te42'
_cell_volume   1448.68643997
_cell_formula_units_Z   1
loop_
 _symmetry_equiv_pos_site_id
 _symmetry_equiv_pos_as_xyz
  1  'x, y, z'
loop_
 _atom_site_type_symbol
 _atom_site_label
 _atom_site_symmetry_multiplicity
 _atom_site_fract_x
 _atom_site_fract_y
 _atom_site_fract_z
 _atom_site_occupancy
  Ni  Ni0  1  0.997027  0.856371  0.000594  1
  Ni  Ni1  1  0.331596  0.855569  0.001010  1
  Ni  Ni2  1  0.000909  0.571555  0.998770  1
  Ni  Ni3  1  0.331768  0.714967  0.002618  1
  Ni  Ni4  1  0.010485  0.430851  0.985420  1
  Ni  Ni5  1  0.327616  0.784481  0.503484  1
  Ni  Ni6  1  0.675162  0.859341  0.986754  1
  Ni  Ni7  1  0.334337  0.572358  0.997176  1
  Ni  Ni8  1  0.002459  0.286686  0.998582  1
  Ni  Ni9  1  0.666403  0.714683  0.003065  1
  Ni  Ni10  1  0.330377  0.427761  0.002145  1
  Ni  Ni11  1  -0.001338  0.141933  0.003833  1
  Ni  Ni12  1  0.665281  0.570093  0.002544  1
  Ni  Ni13  1  0.320931  0.283182  0.017229  1
  Ni  Ni14  1  0.002372  0.001025  0.997301  1
  Ni  Ni15  1  0.987168  0.711449  0.019175  1
  Ni  Ni16  1  0.666264  0.427185  0.001287  1
  Ni  Ni17  1  0.329320  0.141796  0.003685  1
  Ni  Ni18  1  0.665547  0.286314  0.000467  1
  Ni  Ni19  1  0.333215  0.999566  0.000514  1
  Ni  Ni20  1  0.667032  0.357378  0.500585  1
  Ni  Ni21  1  0.666411  0.142750  0.000787  1
  Ni  Ni22  1  0.667187  0.000059  0.001615  1
  Te  Te23  1  0.053911  0.868187  0.252655  1
  Te  Te24  1  0.052760  0.725087  0.261047  1
  Te  Te25  1  0.055628  0.582727  0.250914  1
  Te  Te26  1  0.391580  0.870645  0.244432  1
  Te  Te27  1  0.276381  0.987807  0.748579  1
  Te  Te28  1  0.391059  0.725637  0.246315  1
  Te  Te29  1  0.064035  0.442761  0.244028  1
  Te  Te30  1  0.271181  0.844667  0.758120  1
  Te  Te31  1  0.729442  0.870989  0.242784  1
  Te  Te32  1  0.388047  0.582746  0.252936  1
  Te  Te33  1  0.049981  0.297076  0.259485  1
  Te  Te34  1  0.608331  0.987455  0.750524  1
  Te  Te35  1  0.271094  0.700560  0.759976  1
  Te  Te36  1  0.716374  0.725357  0.260752  1
  Te  Te37  1  0.388394  0.439615  0.254101  1
  Te  Te38  1  0.613025  0.846203  0.742295  1
  Te  Te39  1  0.048213  0.152779  0.261925  1
  Te  Te40  1  0.283369  0.561373  0.740346  1
  Te  Te41  1  0.717203  0.581214  0.258928  1
  Te  Te42  1  0.384938  0.295987  0.260259  1
  Te  Te43  1  0.610531  0.703115  0.749415  1
  Te  Te44  1  0.947758  0.989873  0.743877  1
  Te  Te45  1  0.057353  0.011447  0.251310  1
  Te  Te46  1  0.282267  0.417441  0.742173  1
  Te  Te47  1  0.728314  0.442450  0.242014  1
  Te  Te48  1  0.389390  0.154313  0.251092  1
  Te  Te49  1  0.609721  0.559164  0.748122  1
  Te  Te50  1  0.947293  0.845861  0.742928  1
  Te  Te51  1  0.268904  0.271806  0.757886  1
  Te  Te52  1  0.726595  0.297519  0.242888  1
  Te  Te53  1  0.389374  0.011624  0.252439  1
  Te  Te54  1  0.605572  0.416543  0.759165  1
  Te  Te55  1  0.931302  0.699223  0.762309  1
  Te  Te56  1  0.278935  0.131785  0.748546  1
  Te  Te57  1  0.723857  0.155304  0.251357  1
  Te  Te58  1  0.944643  0.559750  0.748072  1
  Te  Te59  1  0.602834  0.271128  0.759903  1
  Te  Te60  1  0.723446  0.011366  0.252735  1
  Te  Te61  1  0.945353  0.416957  0.743048  1
  Te  Te62  1  0.610025  0.130408  0.749847  1
  Te  Te63  1  0.944078  0.274182  0.747241  1
  Te  Te64  1  0.941673  0.130514  0.752440  1
