# generated using pymatgen
data_Ba5Si3
_symmetry_space_group_name_H-M   'P 1'
_cell_length_a   8.49864985
_cell_length_b   8.49864985
_cell_length_c   16.64171548
_cell_angle_alpha   90.00000000
_cell_angle_beta   90.00000000
_cell_angle_gamma   90.00000000
_symmetry_Int_Tables_number   1
_chemical_formula_structural   Ba5Si3
_chemical_formula_sum   'Ba20 Si12'
_cell_volume   1201.98200396
_cell_formula_units_Z   4
loop_
 _symmetry_equiv_pos_site_id
 _symmetry_equiv_pos_as_xyz
  1  'x, y, z'
loop_
 _atom_site_type_symbol
 _atom_site_label
 _atom_site_symmetry_multiplicity
 _atom_site_fract_x
 _atom_site_fract_y
 _atom_site_fract_z
 _atom_site_occupancy
  Ba  Ba0  1  0.058771  0.920281  0.107019  1
  Ba  Ba1  1  0.920281  0.441229  0.107019  1
  Ba  Ba2  1  0.250000  0.250000  0.726742  1
  Ba  Ba3  1  0.079719  0.941229  0.392981  1
  Ba  Ba4  1  0.420281  0.941229  0.892981  1
  Ba  Ba5  1  0.941229  0.420281  0.392981  1
  Ba  Ba6  1  0.420281  0.558771  0.392981  1
  Ba  Ba7  1  0.920281  0.058771  0.607019  1
  Ba  Ba8  1  0.079719  0.558771  0.892981  1
  Ba  Ba9  1  0.941229  0.079719  0.892981  1
  Ba  Ba10  1  0.250000  0.250000  0.226742  1
  Ba  Ba11  1  0.579719  0.441229  0.607019  1
  Ba  Ba12  1  0.058771  0.579719  0.607019  1
  Ba  Ba13  1  0.558771  0.079719  0.392981  1
  Ba  Ba14  1  0.558771  0.420281  0.892981  1
  Ba  Ba15  1  0.579719  0.058771  0.107019  1
  Ba  Ba16  1  0.750000  0.750000  0.273258  1
  Ba  Ba17  1  0.750000  0.750000  0.773258  1
  Ba  Ba18  1  0.441229  0.579719  0.107019  1
  Ba  Ba19  1  0.441229  0.920281  0.607019  1
  Si  Si20  1  0.851123  0.351123  0.750000  1
  Si  Si21  1  0.148877  0.851123  0.750000  1
  Si  Si22  1  0.750000  0.750000  0.990117  1
  Si  Si23  1  0.351123  0.851123  0.250000  1
  Si  Si24  1  0.250000  0.250000  0.009883  1
  Si  Si25  1  0.851123  0.148877  0.250000  1
  Si  Si26  1  0.351123  0.648877  0.750000  1
  Si  Si27  1  0.648877  0.148877  0.750000  1
  Si  Si28  1  0.148877  0.648877  0.250000  1
  Si  Si29  1  0.648877  0.351123  0.250000  1
  Si  Si30  1  0.250000  0.250000  0.509883  1
  Si  Si31  1  0.750000  0.750000  0.490117  1
