# generated using pymatgen
data_LiAl(Si2O5)2
_symmetry_space_group_name_H-M   'P 1'
_cell_length_a   5.23127350
_cell_length_b   7.73733917
_cell_length_c   11.40632686
_cell_angle_alpha   105.48446448
_cell_angle_beta   90.00000000
_cell_angle_gamma   90.00000000
_symmetry_Int_Tables_number   1
_chemical_formula_structural   LiAl(Si2O5)2
_chemical_formula_sum   'Li2 Al2 Si8 O20'
_cell_volume   444.92625026
_cell_formula_units_Z   2
loop_
 _symmetry_equiv_pos_site_id
 _symmetry_equiv_pos_as_xyz
  1  'x, y, z'
loop_
 _atom_site_type_symbol
 _atom_site_label
 _atom_site_symmetry_multiplicity
 _atom_site_fract_x
 _atom_site_fract_y
 _atom_site_fract_z
 _atom_site_occupancy
  Li  Li0  1  0.742842  0.750000  0.750000  1
  Li  Li1  1  0.257158  0.250000  0.250000  1
  O  O2  1  0.212352  0.208564  0.958969  1
  O  O3  1  0.977483  0.427121  0.292067  1
  O  O4  1  0.977483  0.072879  0.207933  1
  O  O5  1  0.022517  0.572879  0.707933  1
  O  O6  1  0.022517  0.927121  0.792067  1
  O  O7  1  0.787648  0.708564  0.458969  1
  O  O8  1  0.787648  0.791436  0.041031  1
  O  O9  1  0.212352  0.291436  0.541031  1
  O  O10  1  0.712109  0.180533  0.909363  1
  O  O11  1  0.537872  0.272665  0.138851  1
  O  O12  1  0.500000  0.500000  0.000000  1
  O  O13  1  0.500000  0.000000  0.500000  1
  O  O14  1  0.042483  0.250000  0.750000  1
  O  O15  1  0.957517  0.750000  0.250000  1
  O  O16  1  0.712109  0.319467  0.590637  1
  O  O17  1  0.462128  0.727335  0.861149  1
  O  O18  1  0.287891  0.819467  0.090637  1
  O  O19  1  0.287891  0.680533  0.409363  1
  O  O20  1  0.462128  0.772665  0.638851  1
  O  O21  1  0.537872  0.227335  0.361149  1
  Al  Al22  1  0.242458  0.750000  0.750000  1
  Al  Al23  1  0.757542  0.250000  0.250000  1
  Si  Si24  1  0.001349  0.641616  0.352204  1
  Si  Si25  1  0.998651  0.358384  0.647796  1
  Si  Si26  1  0.998651  0.141616  0.852204  1
  Si  Si27  1  0.001349  0.858384  0.147796  1
  Si  Si28  1  0.505193  0.708670  0.998027  1
  Si  Si29  1  0.494807  0.208670  0.498027  1
  Si  Si30  1  0.494807  0.291330  0.001973  1
  Si  Si31  1  0.505193  0.791330  0.501973  1
