# generated using pymatgen
data_Mg3In
_symmetry_space_group_name_H-M   'P 1'
_cell_length_a   8.35757029
_cell_length_b   8.35757010
_cell_length_c   8.35756987
_cell_angle_alpha   59.93444354
_cell_angle_beta   59.93444565
_cell_angle_gamma   59.93444942
_symmetry_Int_Tables_number   1
_chemical_formula_structural   Mg3In
_chemical_formula_sum   'Mg12 In4'
_cell_volume   412.17235454
_cell_formula_units_Z   4
loop_
 _symmetry_equiv_pos_site_id
 _symmetry_equiv_pos_as_xyz
  1  'x, y, z'
loop_
 _atom_site_type_symbol
 _atom_site_label
 _atom_site_symmetry_multiplicity
 _atom_site_fract_x
 _atom_site_fract_y
 _atom_site_fract_z
 _atom_site_occupancy
  Mg  Mg0  1  0.443436  0.055342  0.055342  1
  Mg  Mg1  1  0.806564  0.194658  0.194658  1
  Mg  Mg2  1  0.307457  0.688280  0.688280  1
  Mg  Mg3  1  0.055342  0.055342  0.443436  1
  Mg  Mg4  1  0.055342  0.443436  0.055342  1
  Mg  Mg5  1  0.688280  0.307457  0.688280  1
  Mg  Mg6  1  0.561720  0.561720  -0.057457  1
  Mg  Mg7  1  0.194658  0.806564  0.194658  1
  Mg  Mg8  1  0.194658  0.194658  0.806564  1
  Mg  Mg9  1  0.688280  0.688280  0.307457  1
  Mg  Mg10  1  0.561720  -0.057457  0.561720  1
  Mg  Mg11  1  -0.057457  0.561720  0.561720  1
  In  In12  1  0.441422  0.441422  0.441422  1
  In  In13  1  0.951225  0.951225  0.951225  1
  In  In14  1  0.298775  0.298775  0.298775  1
  In  In15  1  0.808578  0.808578  0.808578  1
