# generated using pymatgen
data_Ag2CO3
_symmetry_space_group_name_H-M   'P 1'
_cell_length_a   9.23145363
_cell_length_b   18.38533232
_cell_length_c   3.44682293
_cell_angle_alpha   90.34686110
_cell_angle_beta   90.01684059
_cell_angle_gamma   120.16845110
_symmetry_Int_Tables_number   1
_chemical_formula_structural   Ag2CO3
_chemical_formula_sum   'Ag12 C6 O18'
_cell_volume   505.75513676
_cell_formula_units_Z   6
loop_
 _symmetry_equiv_pos_site_id
 _symmetry_equiv_pos_as_xyz
  1  'x, y, z'
loop_
 _atom_site_type_symbol
 _atom_site_label
 _atom_site_symmetry_multiplicity
 _atom_site_fract_x
 _atom_site_fract_y
 _atom_site_fract_z
 _atom_site_occupancy
  Ag  Ag0  1  0.345752  0.672681  0.503704  1
  Ag  Ag1  1  0.646049  0.821404  0.999130  1
  Ag  Ag2  1  0.346828  0.498174  0.997784  1
  Ag  Ag3  1  0.001153  0.827698  0.493009  1
  Ag  Ag4  1  0.339004  0.169964  0.503974  1
  Ag  Ag5  1  0.656417  0.499320  0.495671  1
  Ag  Ag6  1  0.004502  0.678008  0.999630  1
  Ag  Ag7  1  0.648859  0.329092  0.998224  1
  Ag  Ag8  1  0.350006  0.001749  0.999397  1
  Ag  Ag9  1  0.999665  0.330750  0.497503  1
  Ag  Ag10  1  0.659716  0.001445  0.505712  1
  Ag  Ag11  1  0.989869  0.170501  0.007101  1
  C  C12  1  0.334865  0.834027  0.501308  1
  C  C13  1  0.001665  0.501117  0.999064  1
  C  C14  1  0.331235  0.332747  0.496923  1
  C  C15  1  0.997575  0.998528  0.000979  1
  C  C16  1  0.667110  0.666655  0.497108  1
  C  C17  1  0.665564  0.168003  0.503746  1
  O  O18  1  0.059972  0.948715  0.000244  1
  O  O19  1  0.272612  0.883492  0.496996  1
  O  O20  1  0.233909  0.752396  0.503006  1
  O  O21  1  0.163643  0.551040  0.997482  1
  O  O22  1  0.495092  0.864605  0.502882  1
  O  O23  1  0.835836  0.966979  0.003895  1
  O  O24  1  0.505957  0.616967  0.502993  1
  O  O25  1  0.273432  0.384300  0.490537  1
  O  O26  1  0.729679  0.748229  0.493283  1
  O  O27  1  0.229124  0.252462  0.501243  1
  O  O28  1  0.097380  0.080177  0.998728  1
  O  O29  1  0.492992  0.362338  0.498027  1
  O  O30  1  0.766429  0.636003  0.495992  1
  O  O31  1  0.902483  0.532579  -0.000011  1
  O  O32  1  0.504753  0.116091  0.503817  1
  O  O33  1  0.724660  0.248299  0.497782  1
  O  O34  1  0.938340  0.419644  0.000079  1
  O  O35  1  0.767799  0.138112  0.508767  1
