# generated using pymatgen
data_Mn2Ga5
_symmetry_space_group_name_H-M   'P 1'
_cell_length_a   2.71769930
_cell_length_b   8.89994966
_cell_length_c   8.92878846
_cell_angle_alpha   89.92188130
_cell_angle_beta   90.05836907
_cell_angle_gamma   89.75653463
_symmetry_Int_Tables_number   1
_chemical_formula_structural   Mn2Ga5
_chemical_formula_sum   'Mn4 Ga10'
_cell_volume   215.96179807
_cell_formula_units_Z   2
loop_
 _symmetry_equiv_pos_site_id
 _symmetry_equiv_pos_as_xyz
  1  'x, y, z'
loop_
 _atom_site_type_symbol
 _atom_site_label
 _atom_site_symmetry_multiplicity
 _atom_site_fract_x
 _atom_site_fract_y
 _atom_site_fract_z
 _atom_site_occupancy
  Mn  Mn0  1  0.501343  0.678756  0.178203  1
  Mn  Mn1  1  0.499527  0.321613  0.821720  1
  Mn  Mn2  1  0.499679  0.821923  0.678157  1
  Mn  Mn3  1  0.499058  0.177959  0.322220  1
  Ga  Ga4  1  0.000875  0.294213  0.563767  1
  Ga  Ga5  1  0.999411  0.795067  0.934389  1
  Ga  Ga6  1  0.000983  0.565170  0.705891  1
  Ga  Ga7  1  -0.000279  -0.000124  0.499868  1
  Ga  Ga8  1  0.000186  0.205039  0.064750  1
  Ga  Ga9  1  -0.000450  0.937213  0.204828  1
  Ga  Ga10  1  0.000140  0.064080  0.795029  1
  Ga  Ga11  1  0.000162  0.499166  -0.000430  1
  Ga  Ga12  1  -0.000782  0.434414  0.294701  1
  Ga  Ga13  1  0.000146  0.705513  0.436906  1
