# generated using pymatgen
data_LiFe2(PO4)3
_symmetry_space_group_name_H-M   'P 1'
_cell_length_a   8.67000561
_cell_length_b   8.80097277
_cell_length_c   8.68958877
_cell_angle_alpha   60.73758051
_cell_angle_beta   60.07451780
_cell_angle_gamma   89.99999838
_symmetry_Int_Tables_number   1
_chemical_formula_structural   LiFe2(PO4)3
_chemical_formula_sum   'Li2 Fe4 P6 O24'
_cell_volume   474.53123379
_cell_formula_units_Z   2
loop_
 _symmetry_equiv_pos_site_id
 _symmetry_equiv_pos_as_xyz
  1  'x, y, z'
loop_
 _atom_site_type_symbol
 _atom_site_label
 _atom_site_symmetry_multiplicity
 _atom_site_fract_x
 _atom_site_fract_y
 _atom_site_fract_z
 _atom_site_occupancy
  Li  Li0  1  0.361270  0.550129  0.604877  1
  Li  Li1  1  0.033853  0.050129  0.604877  1
  Fe  Fe2  1  0.353278  0.073944  0.793270  1
  Fe  Fe3  1  0.146660  0.435560  0.200756  1
  Fe  Fe4  1  0.652584  0.935560  0.200756  1
  Fe  Fe5  1  0.853452  0.573944  0.793270  1
  P  P6  1  0.527261  0.742657  0.719062  1
  P  P7  1  0.042159  0.257691  0.996719  1
  P  P8  1  0.961122  0.757691  0.996719  1
  P  P9  1  0.247210  0.755174  0.280757  1
  P  P10  1  0.472033  0.255174  0.280757  1
  P  P11  1  0.753678  0.242657  0.719062  1
  O  O12  1  0.763266  0.397726  0.751699  1
  O  O13  1  0.241669  0.599559  0.247288  1
  O  O14  1  0.775546  0.753461  0.171307  1
  O  O15  1  0.485036  0.897726  0.751699  1
  O  O16  1  0.368364  0.555540  0.903772  1
  O  O17  1  0.121042  0.940012  0.859927  1
  O  O18  1  0.545626  0.774617  0.517976  1
  O  O19  1  0.276878  0.254810  0.318862  1
  O  O20  1  0.589411  0.237049  0.695891  1
  O  O21  1  0.457866  0.220534  0.479888  1
  O  O22  1  0.053147  0.253461  0.171307  1
  O  O23  1  0.233090  0.263517  0.824630  1
  O  O24  1  0.878394  0.084842  0.123910  1
  O  O25  1  0.278870  0.940949  0.092440  1
  O  O26  1  0.714697  0.737049  0.695891  1
  O  O27  1  0.942280  0.763517  0.824630  1
  O  O28  1  0.511044  0.099559  0.247288  1
  O  O29  1  0.628691  0.440949  0.092440  1
  O  O30  1  0.727864  0.055540  0.903772  1
  O  O31  1  0.019031  0.440012  0.859927  1
  O  O32  1  0.936398  0.274617  0.517976  1
  O  O33  1  0.997696  0.584842  0.123910  1
  O  O34  1  0.062244  0.720534  0.479888  1
  O  O35  1  0.404260  0.754810  0.318862  1
