# generated using pymatgen
data_BaLa2ZnO5
_symmetry_space_group_name_H-M   'P 1'
_cell_length_a   6.94516202
_cell_length_b   6.94516202
_cell_length_c   7.65150563
_cell_angle_alpha   116.99050496
_cell_angle_beta   116.99050497
_cell_angle_gamma   89.99999998
_symmetry_Int_Tables_number   1
_chemical_formula_structural   BaLa2ZnO5
_chemical_formula_sum   'Ba2 La4 Zn2 O10'
_cell_volume   283.02189427
_cell_formula_units_Z   2
loop_
 _symmetry_equiv_pos_site_id
 _symmetry_equiv_pos_as_xyz
  1  'x, y, z'
loop_
 _atom_site_type_symbol
 _atom_site_label
 _atom_site_symmetry_multiplicity
 _atom_site_fract_x
 _atom_site_fract_y
 _atom_site_fract_z
 _atom_site_occupancy
  O  O0  1  0.778556  0.278556  0.265559  1
  O  O1  1  0.512997  0.012997  0.734441  1
  O  O2  1  0.221444  0.721444  0.734441  1
  O  O3  1  0.012997  0.221444  0.734441  1
  O  O4  1  0.721444  0.512997  0.734441  1
  O  O5  1  0.987003  0.778556  0.265559  1
  O  O6  1  0.278556  0.487003  0.265559  1
  O  O7  1  0.487003  0.987003  0.265559  1
  O  O8  1  0.000000  0.000000  0.000000  1
  O  O9  1  0.500000  0.500000  0.000000  1
  Zn  Zn10  1  0.750000  0.250000  0.500000  1
  Zn  Zn11  1  0.250000  0.750000  0.500000  1
  Ba  Ba12  1  0.750000  0.750000  0.500000  1
  Ba  Ba13  1  0.250000  0.250000  0.500000  1
  La  La14  1  0.823609  0.323609  0.000000  1
  La  La15  1  0.676391  0.823609  0.000000  1
  La  La16  1  0.323609  0.176391  0.000000  1
  La  La17  1  0.176391  0.676391  0.000000  1
