# generated using pymatgen
data_NdInPd
_symmetry_space_group_name_H-M   'P 1'
_cell_length_a   8.19795636
_cell_length_b   8.16944847
_cell_length_c   3.77942676
_cell_angle_alpha   89.74039112
_cell_angle_beta   90.24038168
_cell_angle_gamma   119.85254875
_symmetry_Int_Tables_number   1
_chemical_formula_structural   NdInPd
_chemical_formula_sum   'Nd3 In3 Pd3'
_cell_volume   219.52941823
_cell_formula_units_Z   3
loop_
 _symmetry_equiv_pos_site_id
 _symmetry_equiv_pos_as_xyz
  1  'x, y, z'
loop_
 _atom_site_type_symbol
 _atom_site_label
 _atom_site_symmetry_multiplicity
 _atom_site_fract_x
 _atom_site_fract_y
 _atom_site_fract_z
 _atom_site_occupancy
  Nd  Nd0  1  0.000238  0.719151  0.501875  1
  Nd  Nd1  1  0.280760  0.281416  0.500627  1
  Nd  Nd2  1  0.718553  0.999344  0.499624  1
  In  In3  1  0.618556  0.616362  0.000312  1
  In  In4  1  0.999249  0.382190  0.001020  1
  In  In5  1  0.382504  0.999190  0.001164  1
  Pd  Pd6  1  0.999520  0.000552  0.001033  1
  Pd  Pd7  1  0.667185  0.334326  0.491416  1
  Pd  Pd8  1  0.333436  0.667468  0.502928  1
