# generated using pymatgen
data_Os(CO)4
_symmetry_space_group_name_H-M   'P 1'
_cell_length_a   8.17256068
_cell_length_b   14.78205665
_cell_length_c   15.14052971
_cell_angle_alpha   90.00000000
_cell_angle_beta   90.00000000
_cell_angle_gamma   100.90920528
_symmetry_Int_Tables_number   1
_chemical_formula_structural   Os(CO)4
_chemical_formula_sum   'Os12 C48 O48'
_cell_volume   1796.03117809
_cell_formula_units_Z   12
loop_
 _symmetry_equiv_pos_site_id
 _symmetry_equiv_pos_as_xyz
  1  'x, y, z'
loop_
 _atom_site_type_symbol
 _atom_site_label
 _atom_site_symmetry_multiplicity
 _atom_site_fract_x
 _atom_site_fract_y
 _atom_site_fract_z
 _atom_site_occupancy
  Os  Os0  1  0.197206  0.840144  0.419173  1
  Os  Os1  1  0.063931  0.296653  0.667703  1
  Os  Os2  1  0.936069  0.703347  0.332297  1
  Os  Os3  1  0.563931  0.796653  0.832297  1
  Os  Os4  1  0.555368  0.777572  0.026747  1
  Os  Os5  1  0.944632  0.722428  0.526747  1
  Os  Os6  1  0.436069  0.203347  0.167703  1
  Os  Os7  1  0.055368  0.277572  0.473253  1
  Os  Os8  1  0.302794  0.659856  0.919173  1
  Os  Os9  1  0.444632  0.222428  0.973253  1
  Os  Os10  1  0.697206  0.340144  0.080827  1
  Os  Os11  1  0.802794  0.159856  0.580827  1
  C  C12  1  0.552423  0.430629  0.093698  1
  C  C13  1  0.415195  0.871624  0.032494  1
  C  C14  1  0.197367  0.186289  0.486232  1
  C  C15  1  0.744014  0.608152  0.316781  1
  C  C16  1  0.255986  0.391848  0.683219  1
  C  C17  1  0.581462  0.112155  0.158997  1
  C  C18  1  0.302633  0.313711  0.986232  1
  C  C19  1  0.178728  0.608551  0.818360  1
  C  C20  1  0.747794  0.869766  0.051649  1
  C  C21  1  0.807645  0.405573  0.982119  1
  C  C22  1  0.918538  0.387845  0.658997  1
  C  C23  1  0.836909  0.246360  0.070186  1
  C  C24  1  0.488410  0.734692  0.142549  1
  C  C25  1  0.802376  0.799366  0.322959  1
  C  C26  1  0.081462  0.612155  0.341003  1
  C  C27  1  0.915195  0.371624  0.467506  1
  C  C28  1  0.584805  0.128376  0.967506  1
  C  C29  1  0.697624  0.700634  0.822959  1
  C  C30  1  0.987362  0.267836  0.784832  1
  C  C31  1  0.988410  0.234692  0.357451  1
  C  C32  1  0.418538  0.887845  0.841003  1
  C  C33  1  0.252206  0.130234  0.948351  1
  C  C34  1  0.447577  0.569371  0.906302  1
  C  C35  1  0.302376  0.299366  0.177041  1
  C  C36  1  0.487362  0.767836  0.715168  1
  C  C37  1  0.511590  0.265308  0.857451  1
  C  C38  1  0.084805  0.628376  0.532494  1
  C  C39  1  0.012638  0.732164  0.215168  1
  C  C40  1  0.821272  0.391449  0.181640  1
  C  C41  1  0.678728  0.108551  0.681640  1
  C  C42  1  0.321272  0.891449  0.318360  1
  C  C43  1  0.512638  0.232164  0.284832  1
  C  C44  1  0.052423  0.930629  0.406302  1
  C  C45  1  0.197624  0.200634  0.677041  1
  C  C46  1  0.244014  0.108152  0.183219  1
  C  C47  1  0.802633  0.813711  0.513768  1
  C  C48  1  0.752206  0.630234  0.551649  1
  C  C49  1  0.697367  0.686289  0.013768  1
  C  C50  1  0.192355  0.594427  0.017881  1
  C  C51  1  0.307645  0.905573  0.517881  1
  C  C52  1  0.336909  0.746360  0.429814  1
  C  C53  1  0.755986  0.891848  0.816781  1
  C  C54  1  0.011590  0.765308  0.642549  1
  C  C55  1  0.247794  0.369766  0.448351  1
  C  C56  1  0.663091  0.253640  0.570186  1
  C  C57  1  0.947577  0.069371  0.593698  1
  C  C58  1  0.163091  0.753640  0.929814  1
  C  C59  1  0.692355  0.094427  0.482119  1
  O  O60  1  0.561430  0.251746  0.355757  1
  O  O61  1  0.947618  0.213083  0.285642  1
  O  O62  1  0.869399  0.443826  0.920029  1
  O  O63  1  0.130601  0.556174  0.079971  1
  O  O64  1  0.928311  0.195541  0.065442  1
  O  O65  1  0.571689  0.304459  0.565442  1
  O  O66  1  0.395796  0.923680  0.257012  1
  O  O67  1  0.222850  0.355198  0.190322  1
  O  O68  1  0.023466  0.011168  0.602360  1
  O  O69  1  0.938570  0.248254  0.855757  1
  O  O70  1  0.660938  0.070377  0.958949  1
  O  O71  1  0.277150  0.144802  0.690322  1
  O  O72  1  0.976534  0.988832  0.397640  1
  O  O73  1  0.061430  0.751746  0.144243  1
  O  O74  1  0.447618  0.713083  0.214358  1
  O  O75  1  0.369399  0.943826  0.579971  1
  O  O76  1  0.628587  0.550126  0.305335  1
  O  O77  1  0.212103  0.365385  0.986824  1
  O  O78  1  0.428311  0.695541  0.434558  1
  O  O79  1  0.287897  0.134615  0.486824  1
  O  O80  1  0.476534  0.488832  0.102360  1
  O  O81  1  0.722850  0.855198  0.309678  1
  O  O82  1  0.438570  0.748254  0.644243  1
  O  O83  1  0.604204  0.076320  0.742988  1
  O  O84  1  0.630601  0.056174  0.420029  1
  O  O85  1  0.052382  0.786917  0.714358  1
  O  O86  1  0.871413  0.949874  0.805335  1
  O  O87  1  0.839062  0.429623  0.458949  1
  O  O88  1  0.867822  0.923230  0.065308  1
  O  O89  1  0.071689  0.804459  0.934558  1
  O  O90  1  0.777150  0.644802  0.809678  1
  O  O91  1  0.367822  0.423230  0.434692  1
  O  O92  1  0.834607  0.442617  0.658431  1
  O  O93  1  0.132178  0.076770  0.934692  1
  O  O94  1  0.334607  0.942617  0.841569  1
  O  O95  1  0.895796  0.423680  0.242988  1
  O  O96  1  0.552382  0.286917  0.785642  1
  O  O97  1  0.128587  0.050126  0.194665  1
  O  O98  1  0.371413  0.449874  0.694665  1
  O  O99  1  0.160938  0.570377  0.541051  1
  O  O100  1  0.632178  0.576770  0.565308  1
  O  O101  1  0.339062  0.929623  0.041051  1
  O  O102  1  0.165393  0.557383  0.341569  1
  O  O103  1  0.104204  0.576320  0.757012  1
  O  O104  1  0.523466  0.511168  0.897640  1
  O  O105  1  0.665393  0.057383  0.158431  1
  O  O106  1  0.787897  0.634615  0.013176  1
  O  O107  1  0.712103  0.865385  0.513176  1
