# generated using pymatgen
data_K3V3(BiO6)2
_symmetry_space_group_name_H-M   'P 1'
_cell_length_a   7.28800313
_cell_length_b   9.99295084
_cell_length_c   9.99295068
_cell_angle_alpha   89.82386521
_cell_angle_beta   73.80502541
_cell_angle_gamma   73.80502485
_symmetry_Int_Tables_number   1
_chemical_formula_structural   K3V3(BiO6)2
_chemical_formula_sum   'K6 V6 Bi4 O24'
_cell_volume   668.95409250
_cell_formula_units_Z   2
loop_
 _symmetry_equiv_pos_site_id
 _symmetry_equiv_pos_as_xyz
  1  'x, y, z'
loop_
 _atom_site_type_symbol
 _atom_site_label
 _atom_site_symmetry_multiplicity
 _atom_site_fract_x
 _atom_site_fract_y
 _atom_site_fract_z
 _atom_site_occupancy
  K  K0  1  0.250000  0.988365  0.011635  1
  K  K1  1  0.750000  0.011635  0.988365  1
  K  K2  1  0.750000  0.272698  0.727302  1
  K  K3  1  0.000000  0.500000  0.500000  1
  K  K4  1  0.250000  0.727302  0.272698  1
  K  K5  1  0.500000  0.500000  0.500000  1
  V  V6  1  0.637466  0.648760  0.866232  1
  V  V7  1  0.362534  0.351240  0.133768  1
  V  V8  1  0.137466  0.866232  0.648760  1
  V  V9  1  0.750000  0.753293  0.246707  1
  V  V10  1  0.250000  0.246707  0.753293  1
  V  V11  1  0.862534  0.133768  0.351240  1
  Bi  Bi12  1  0.154149  0.617115  0.914798  1
  Bi  Bi13  1  0.654149  0.914798  0.617115  1
  Bi  Bi14  1  0.345851  0.085202  0.382885  1
  Bi  Bi15  1  0.845851  0.382885  0.085202  1
  O  O16  1  0.953762  0.759021  0.102136  1
  O  O17  1  0.903338  0.986501  0.658335  1
  O  O18  1  0.850348  0.291703  0.422212  1
  O  O19  1  0.652165  0.817936  0.846678  1
  O  O20  1  0.323806  0.395759  0.758322  1
  O  O21  1  0.596662  0.341665  0.013499  1
  O  O22  1  0.344358  0.924739  0.548158  1
  O  O23  1  0.046238  0.240979  0.897864  1
  O  O24  1  0.347835  0.182064  0.153322  1
  O  O25  1  0.155642  0.451842  0.075261  1
  O  O26  1  0.676194  0.604241  0.241678  1
  O  O27  1  0.546238  0.897864  0.240979  1
  O  O28  1  0.655642  0.075261  0.451842  1
  O  O29  1  0.350348  0.422212  0.291703  1
  O  O30  1  0.844358  0.548158  0.924739  1
  O  O31  1  0.823806  0.758322  0.395759  1
  O  O32  1  0.149652  0.708297  0.577788  1
  O  O33  1  0.649652  0.577788  0.708297  1
  O  O34  1  0.453762  0.102136  0.759021  1
  O  O35  1  0.152165  0.846678  0.817936  1
  O  O36  1  0.403338  0.658335  0.986501  1
  O  O37  1  0.096662  0.013499  0.341665  1
  O  O38  1  0.176194  0.241678  0.604241  1
  O  O39  1  0.847835  0.153322  0.182064  1
