# generated using pymatgen
data_Ba2Pr(CuO2)4
_symmetry_space_group_name_H-M   'P 1'
_cell_length_a   3.94970793
_cell_length_b   3.92911032
_cell_length_c   13.95458464
_cell_angle_alpha   98.09310317
_cell_angle_beta   90.00000000
_cell_angle_gamma   90.00000000
_symmetry_Int_Tables_number   1
_chemical_formula_structural   Ba2Pr(CuO2)4
_chemical_formula_sum   'Ba2 Pr1 Cu4 O8'
_cell_volume   214.40214645
_cell_formula_units_Z   1
loop_
 _symmetry_equiv_pos_site_id
 _symmetry_equiv_pos_as_xyz
  1  'x, y, z'
loop_
 _atom_site_type_symbol
 _atom_site_label
 _atom_site_symmetry_multiplicity
 _atom_site_fract_x
 _atom_site_fract_y
 _atom_site_fract_z
 _atom_site_occupancy
  O  O0  1  0.000000  0.281421  0.562841  1
  O  O1  1  0.000000  0.718579  0.437159  1
  O  O2  1  0.000000  0.444214  0.888427  1
  O  O3  1  0.000000  0.555786  0.111573  1
  O  O4  1  0.500000  0.943655  0.887310  1
  O  O5  1  0.500000  0.056345  0.112690  1
  O  O6  1  0.000000  0.853704  0.707408  1
  O  O7  1  0.000000  0.146296  0.292592  1
  Cu  Cu8  1  0.000000  0.934939  0.869879  1
  Cu  Cu9  1  0.000000  0.065061  0.130121  1
  Cu  Cu10  1  0.000000  0.786998  0.573996  1
  Cu  Cu11  1  0.000000  0.213002  0.426004  1
  Ba  Ba12  1  0.500000  0.362981  0.725962  1
  Ba  Ba13  1  0.500000  0.637019  0.274038  1
  Pr  Pr14  1  0.500000  0.500000  0.000000  1
