# generated using pymatgen
data_AgH6C4(NO)2
_symmetry_space_group_name_H-M   'P 1'
_cell_length_a   6.49991735
_cell_length_b   6.96011519
_cell_length_c   12.64073665
_cell_angle_alpha   90.00000000
_cell_angle_beta   92.84210076
_cell_angle_gamma   90.00000000
_symmetry_Int_Tables_number   1
_chemical_formula_structural   AgH6C4(NO)2
_chemical_formula_sum   'Ag4 H24 C16 N8 O8'
_cell_volume   571.16570429
_cell_formula_units_Z   4
loop_
 _symmetry_equiv_pos_site_id
 _symmetry_equiv_pos_as_xyz
  1  'x, y, z'
loop_
 _atom_site_type_symbol
 _atom_site_label
 _atom_site_symmetry_multiplicity
 _atom_site_fract_x
 _atom_site_fract_y
 _atom_site_fract_z
 _atom_site_occupancy
  Ag  Ag0  1  0.000000  0.000000  0.500000  1
  Ag  Ag1  1  0.000000  0.000000  0.000000  1
  Ag  Ag2  1  0.500000  0.699321  0.750000  1
  Ag  Ag3  1  0.500000  0.300679  0.250000  1
  H  H4  1  0.863009  0.029961  0.749307  1
  H  H5  1  0.136991  0.029961  0.750693  1
  H  H6  1  0.136991  0.970039  0.250693  1
  H  H7  1  0.863009  0.970039  0.249307  1
  H  H8  1  0.796225  0.456080  0.583218  1
  H  H9  1  0.203775  0.456080  0.916782  1
  H  H10  1  0.203775  0.543920  0.416782  1
  H  H11  1  0.796225  0.543920  0.083218  1
  H  H12  1  0.669768  0.273452  0.653935  1
  H  H13  1  0.330232  0.273452  0.846065  1
  H  H14  1  0.330232  0.726548  0.346065  1
  H  H15  1  0.669768  0.726548  0.153935  1
  H  H16  1  0.313811  0.275866  0.652921  1
  H  H17  1  0.686189  0.275866  0.847079  1
  H  H18  1  0.686189  0.724134  0.347079  1
  H  H19  1  0.313811  0.724134  0.152921  1
  H  H20  1  0.170528  0.458227  0.584137  1
  H  H21  1  0.829472  0.458227  0.915863  1
  H  H22  1  0.829472  0.541773  0.415863  1
  H  H23  1  0.170528  0.541773  0.084137  1
  H  H24  1  0.994166  0.702107  0.679357  1
  H  H25  1  0.005835  0.702107  0.820643  1
  H  H26  1  0.005835  0.297893  0.320643  1
  H  H27  1  0.994166  0.297893  0.179357  1
  C  C28  1  0.000000  0.122294  0.750000  1
  C  C29  1  0.000000  0.877706  0.250000  1
  C  C30  1  0.807053  0.365410  0.654353  1
  C  C31  1  0.192947  0.365410  0.845647  1
  C  C32  1  0.192947  0.634590  0.345647  1
  C  C33  1  0.807053  0.634590  0.154353  1
  C  C34  1  0.175951  0.366585  0.654924  1
  C  C35  1  0.824049  0.366585  0.845076  1
  C  C36  1  0.824049  0.633415  0.345076  1
  C  C37  1  0.175951  0.633415  0.154924  1
  C  C38  1  0.000000  0.610378  0.750000  1
  C  C39  1  0.000000  0.389622  0.250000  1
  C  C40  1  0.507143  0.928383  0.548861  1
  C  C41  1  0.492857  0.928383  0.951139  1
  C  C42  1  0.492857  0.071617  0.451139  1
  C  C43  1  0.507143  0.071617  0.048861  1
  N  N44  1  0.991816  0.242195  0.652917  1
  N  N45  1  0.008184  0.242195  0.847083  1
  N  N46  1  0.008184  0.757805  0.347083  1
  N  N47  1  0.991816  0.757805  0.152917  1
  N  N48  1  0.810835  0.490643  0.749521  1
  N  N49  1  0.189165  0.490643  0.750479  1
  N  N50  1  0.189165  0.509357  0.250479  1
  N  N51  1  0.810835  0.509357  0.249521  1
  O  O52  1  0.342958  0.892990  0.595984  1
  O  O53  1  0.657042  0.892990  0.904016  1
  O  O54  1  0.657042  0.107010  0.404016  1
  O  O55  1  0.342958  0.107010  0.095984  1
  O  O56  1  0.318425  0.143118  0.423989  1
  O  O57  1  0.681575  0.143118  0.076011  1
  O  O58  1  0.681575  0.856882  0.576011  1
  O  O59  1  0.318425  0.856882  0.923989  1
