# generated using pymatgen
data_Ce5(In2Pt)2
_symmetry_space_group_name_H-M   'P 1'
_cell_length_a   3.82430227
_cell_length_b   8.15298965
_cell_length_c   18.41542679
_cell_angle_alpha   89.66810239
_cell_angle_beta   90.00016332
_cell_angle_gamma   90.00083642
_symmetry_Int_Tables_number   1
_chemical_formula_structural   Ce5(In2Pt)2
_chemical_formula_sum   'Ce10 In8 Pt4'
_cell_volume   574.17410790
_cell_formula_units_Z   2
loop_
 _symmetry_equiv_pos_site_id
 _symmetry_equiv_pos_as_xyz
  1  'x, y, z'
loop_
 _atom_site_type_symbol
 _atom_site_label
 _atom_site_symmetry_multiplicity
 _atom_site_fract_x
 _atom_site_fract_y
 _atom_site_fract_z
 _atom_site_occupancy
  Ce  Ce0  1  0.999950  0.626089  0.079311  1
  Ce  Ce1  1  0.999870  0.257929  0.722492  1
  Ce  Ce2  1  0.000131  0.741894  0.277470  1
  Ce  Ce3  1  0.000143  0.373666  0.920845  1
  Ce  Ce4  1  0.000065  0.124226  0.420299  1
  Ce  Ce5  1  0.000029  0.500854  0.500129  1
  Ce  Ce6  1  0.000009  0.875454  0.579901  1
  Ce  Ce7  1  0.000064  0.242045  0.222134  1
  Ce  Ce8  1  0.999946  0.000148  0.999970  1
  Ce  Ce9  1  0.999902  0.757989  0.777698  1
  In  In10  1  0.500001  0.068132  0.852085  1
  In  In11  1  0.499802  0.931952  0.147892  1
  In  In12  1  0.500014  0.789878  0.430126  1
  In  In13  1  0.500065  0.209900  0.569990  1
  In  In14  1  0.500002  0.710480  0.930289  1
  In  In15  1  0.499846  0.568739  0.648338  1
  In  In16  1  0.500139  0.431775  0.351521  1
  In  In17  1  0.499926  0.289335  0.069620  1
  Pt  Pt18  1  0.500023  0.478372  0.804799  1
  Pt  Pt19  1  0.500097  0.021388  0.304367  1
  Pt  Pt20  1  0.500002  0.977956  0.695480  1
  Pt  Pt21  1  0.499974  0.521799  0.195244  1
