# generated using pymatgen
data_CsPuP2S7
_symmetry_space_group_name_H-M   'P 1'
_cell_length_a   9.14203442
_cell_length_b   10.28160350
_cell_length_c   12.76248951
_cell_angle_alpha   90.00000000
_cell_angle_beta   90.00000000
_cell_angle_gamma   91.25541726
_symmetry_Int_Tables_number   1
_chemical_formula_structural   CsPuP2S7
_chemical_formula_sum   'Cs4 Pu4 P8 S28'
_cell_volume   1199.31935144
_cell_formula_units_Z   4
loop_
 _symmetry_equiv_pos_site_id
 _symmetry_equiv_pos_as_xyz
  1  'x, y, z'
loop_
 _atom_site_type_symbol
 _atom_site_label
 _atom_site_symmetry_multiplicity
 _atom_site_fract_x
 _atom_site_fract_y
 _atom_site_fract_z
 _atom_site_occupancy
  Cs  Cs0  1  0.866004  0.898168  0.697530  1
  Cs  Cs1  1  0.633996  0.101832  0.197530  1
  Cs  Cs2  1  0.366004  0.898168  0.802470  1
  Cs  Cs3  1  0.133996  0.101832  0.302470  1
  Pu  Pu4  1  0.394340  0.634786  0.140979  1
  Pu  Pu5  1  0.105660  0.365214  0.640979  1
  Pu  Pu6  1  0.605660  0.365214  0.859021  1
  Pu  Pu7  1  0.894340  0.634786  0.359021  1
  P  P8  1  0.475599  0.239820  0.606002  1
  P  P9  1  0.199650  0.676486  0.533256  1
  P  P10  1  0.800350  0.323514  0.466744  1
  P  P11  1  0.024401  0.760180  0.106002  1
  P  P12  1  0.699650  0.676486  0.966744  1
  P  P13  1  0.975599  0.239820  0.893998  1
  P  P14  1  0.524401  0.760180  0.393998  1
  P  P15  1  0.300350  0.323514  0.033256  1
  S  S16  1  0.922590  0.414982  0.828241  1
  S  S17  1  0.675198  0.513776  0.056857  1
  S  S18  1  0.324802  0.486224  0.943143  1
  S  S19  1  0.852420  0.359995  0.313805  1
  S  S20  1  0.925488  0.736322  0.952985  1
  S  S21  1  0.213834  0.852201  0.063205  1
  S  S22  1  0.352420  0.359995  0.186195  1
  S  S23  1  0.647580  0.640005  0.813805  1
  S  S24  1  0.574512  0.263678  0.452985  1
  S  S25  1  0.824802  0.486224  0.556857  1
  S  S26  1  0.388648  0.845298  0.290961  1
  S  S27  1  0.425488  0.736322  0.547015  1
  S  S28  1  0.286166  0.147799  0.563205  1
  S  S29  1  0.611352  0.154702  0.709039  1
  S  S30  1  0.147580  0.640005  0.686195  1
  S  S31  1  0.574228  0.818044  0.029298  1
  S  S32  1  0.425772  0.181956  0.970702  1
  S  S33  1  0.888648  0.845298  0.209039  1
  S  S34  1  0.175198  0.513776  0.443143  1
  S  S35  1  0.713834  0.852201  0.436795  1
  S  S36  1  0.925772  0.181956  0.529298  1
  S  S37  1  0.422590  0.414982  0.671759  1
  S  S38  1  0.074512  0.263678  0.047015  1
  S  S39  1  0.786166  0.147799  0.936795  1
  S  S40  1  0.074228  0.818044  0.470702  1
  S  S41  1  0.077410  0.585018  0.171759  1
  S  S42  1  0.577410  0.585018  0.328241  1
  S  S43  1  0.111352  0.154702  0.790961  1
