# generated using pymatgen
data_NaCa2TiSi2O8F
_symmetry_space_group_name_H-M   'P 1'
_cell_length_a   5.81170105
_cell_length_b   7.60214185
_cell_length_c   19.23405907
_cell_angle_alpha   101.36381586
_cell_angle_beta   90.30760723
_cell_angle_gamma   90.05383800
_symmetry_Int_Tables_number   1
_chemical_formula_structural   NaCa2TiSi2O8F
_chemical_formula_sum   'Na4 Ca8 Ti4 Si8 O32 F4'
_cell_volume   833.11406335
_cell_formula_units_Z   4
loop_
 _symmetry_equiv_pos_site_id
 _symmetry_equiv_pos_as_xyz
  1  'x, y, z'
loop_
 _atom_site_type_symbol
 _atom_site_label
 _atom_site_symmetry_multiplicity
 _atom_site_fract_x
 _atom_site_fract_y
 _atom_site_fract_z
 _atom_site_occupancy
  Na  Na0  1  0.270577  0.496185  0.495683  1
  Na  Na1  1  0.977750  0.000750  0.997296  1
  Na  Na2  1  0.981427  0.496703  0.998101  1
  Na  Na3  1  0.276288  0.044329  0.497846  1
  Ca  Ca4  1  0.077300  0.657513  0.328590  1
  Ca  Ca5  1  0.461856  0.329053  0.674517  1
  Ca  Ca6  1  0.787766  0.837090  0.176486  1
  Ca  Ca7  1  0.458705  0.830509  0.671380  1
  Ca  Ca8  1  0.188080  0.658325  0.822012  1
  Ca  Ca9  1  0.781363  0.335021  0.179197  1
  Ca  Ca10  1  0.177403  0.162406  0.823841  1
  Ca  Ca11  1  0.073494  0.154708  0.326572  1
  Ti  Ti12  1  0.775271  0.871411  0.501227  1
  Ti  Ti13  1  0.534632  0.236839  0.975120  1
  Ti  Ti14  1  0.413667  0.763921  0.026926  1
  Ti  Ti15  1  0.779288  0.311326  0.503282  1
  Si  Si16  1  0.294981  0.094895  0.153267  1
  Si  Si17  1  0.582139  0.431268  0.354652  1
  Si  Si18  1  0.683471  0.905062  0.844288  1
  Si  Si19  1  0.683620  0.442088  0.847859  1
  Si  Si20  1  0.948447  0.583592  0.650897  1
  Si  Si21  1  0.945573  0.049642  0.650524  1
  Si  Si22  1  0.578559  0.900435  0.351447  1
  Si  Si23  1  0.292033  0.560698  0.157031  1
  O  O24  1  0.713724  0.772220  0.047654  1
  O  O25  1  0.701432  0.590157  0.686409  1
  O  O26  1  0.663042  0.411409  0.928553  1
  O  O27  1  0.682495  0.275820  0.058199  1
  O  O28  1  0.665029  0.021323  0.924357  1
  O  O29  1  0.233615  0.228492  0.953951  1
  O  O30  1  0.320938  0.911070  0.324700  1
  O  O31  1  0.058654  0.600730  0.201907  1
  O  O32  1  0.536960  0.261334  0.555532  1
  O  O33  1  0.612714  0.987957  0.435167  1
  O  O34  1  0.612022  0.416878  0.436890  1
  O  O35  1  0.322293  0.398524  0.327657  1
  O  O36  1  0.058916  0.090723  0.196174  1
  O  O37  1  0.948709  0.055586  0.566386  1
  O  O38  1  0.804799  0.385325  0.306210  1
  O  O39  1  0.276257  0.983952  0.072350  1
  O  O40  1  0.450857  0.901220  0.799043  1
  O  O41  1  0.264112  0.606022  0.078604  1
  O  O42  1  0.540192  0.092375  0.189064  1
  O  O43  1  0.702311  0.083446  0.687471  1
  O  O44  1  0.937737  0.907153  0.814088  1
  O  O45  1  0.984290  0.730588  0.451207  1
  O  O46  1  0.802990  0.901245  0.303895  1
  O  O47  1  0.937500  0.406778  0.818003  1
  O  O48  1  0.555320  0.781248  0.548261  1
  O  O49  1  0.966531  0.472468  0.570117  1
  O  O50  1  0.183801  0.100228  0.691845  1
  O  O51  1  0.009199  0.208634  0.446650  1
  O  O52  1  0.452734  0.395202  0.802182  1
  O  O53  1  0.540791  0.593250  0.191617  1
  O  O54  1  0.186095  0.583473  0.694284  1
  O  O55  1  0.271594  0.720696  0.942861  1
  F  F56  1  0.680912  0.683877  0.865595  1
  F  F57  1  0.981843  0.804081  0.631234  1
  F  F58  1  0.261438  0.318804  0.133440  1
  F  F59  1  0.581467  0.670942  0.364399  1
