# generated using pymatgen
data_Mg54Ag17
_symmetry_space_group_name_H-M   'P 1'
_cell_length_a   12.44401349
_cell_length_b   12.44401350
_cell_length_c   12.44401350
_cell_angle_alpha   107.63696600
_cell_angle_beta   110.18673898
_cell_angle_gamma   110.60566619
_symmetry_Int_Tables_number   1
_chemical_formula_structural   Mg54Ag17
_chemical_formula_sum   'Mg54 Ag17'
_cell_volume   1482.24805565
_cell_formula_units_Z   1
loop_
 _symmetry_equiv_pos_site_id
 _symmetry_equiv_pos_as_xyz
  1  'x, y, z'
loop_
 _atom_site_type_symbol
 _atom_site_label
 _atom_site_symmetry_multiplicity
 _atom_site_fract_x
 _atom_site_fract_y
 _atom_site_fract_z
 _atom_site_occupancy
  Mg  Mg0  1  0.479685  0.873425  0.606260  1
  Mg  Mg1  1  0.267165  0.873425  0.393740  1
  Mg  Mg2  1  0.732835  0.126575  0.606260  1
  Mg  Mg3  1  0.520315  0.126575  0.393740  1
  Mg  Mg4  1  0.566835  0.674983  0.891852  1
  Mg  Mg5  1  0.783131  0.674983  0.108148  1
  Mg  Mg6  1  0.216869  0.325017  0.891852  1
  Mg  Mg7  1  0.433165  0.325017  0.108148  1
  Mg  Mg8  1  0.816583  0.098463  0.915045  1
  Mg  Mg9  1  0.183417  0.901537  0.084955  1
  Mg  Mg10  1  0.816583  0.901537  0.718120  1
  Mg  Mg11  1  0.183417  0.098463  0.281880  1
  Mg  Mg12  1  0.679083  0.396753  0.075836  1
  Mg  Mg13  1  0.320917  0.603247  0.924164  1
  Mg  Mg14  1  0.679083  0.603247  0.282330  1
  Mg  Mg15  1  0.320917  0.396753  0.717670  1
  Mg  Mg16  1  0.610963  0.779620  0.168656  1
  Mg  Mg17  1  0.884593  0.500000  0.384593  1
  Mg  Mg18  1  0.115407  0.500000  0.615407  1
  Mg  Mg19  1  0.378951  0.580080  0.581691  1
  Mg  Mg20  1  0.998389  0.797260  0.418309  1
  Mg  Mg21  1  0.001611  0.419920  0.798871  1
  Mg  Mg22  1  0.621049  0.202740  0.201129  1
  Mg  Mg23  1  0.621049  0.419920  0.418309  1
  Mg  Mg24  1  0.001611  0.202740  0.581691  1
  Mg  Mg25  1  0.998389  0.580080  0.201129  1
  Mg  Mg26  1  0.378951  0.797260  0.798871  1
  Mg  Mg27  1  0.306231  0.371708  0.292610  1
  Mg  Mg28  1  0.079098  0.013621  0.707390  1
  Mg  Mg29  1  0.920902  0.628292  0.934523  1
  Mg  Mg30  1  0.693769  0.986379  0.065477  1
  Mg  Mg31  1  0.693769  0.628292  0.707390  1
  Mg  Mg32  1  0.920902  0.986379  0.292610  1
  Mg  Mg33  1  0.079098  0.371708  0.065477  1
  Mg  Mg34  1  0.306231  0.013621  0.934523  1
  Mg  Mg35  1  0.437022  0.332612  0.532564  1
  Mg  Mg36  1  0.800048  0.904458  0.467436  1
  Mg  Mg37  1  0.199952  0.667388  0.104410  1
  Mg  Mg38  1  0.562978  0.095542  0.895590  1
  Mg  Mg39  1  0.562978  0.667388  0.467436  1
  Mg  Mg40  1  0.199952  0.095542  0.532564  1
  Mg  Mg41  1  0.800048  0.332612  0.895590  1
  Mg  Mg42  1  0.437022  0.904458  0.104410  1
  Mg  Mg43  1  0.114028  0.114028  0.000000  1
  Mg  Mg44  1  0.885972  0.885972  0.000000  1
  Mg  Mg45  1  0.500000  0.145362  0.645362  1
  Mg  Mg46  1  0.500000  0.854638  0.354638  1
  Mg  Mg47  1  0.102156  0.437756  0.335600  1
  Mg  Mg48  1  0.102156  0.766557  0.664400  1
  Mg  Mg49  1  0.897844  0.562244  0.664400  1
  Mg  Mg50  1  0.897844  0.233443  0.335600  1
  Mg  Mg51  1  0.389037  0.557693  0.168656  1
  Mg  Mg52  1  0.389037  0.220380  0.831344  1
  Mg  Mg53  1  0.610963  0.442307  0.831344  1
  Ag  Ag54  1  0.624566  0.832097  0.792469  1
  Ag  Ag55  1  0.039629  0.832097  0.207531  1
  Ag  Ag56  1  0.960371  0.167903  0.792469  1
  Ag  Ag57  1  0.375434  0.167903  0.207531  1
  Ag  Ag58  1  0.832530  0.290122  0.122652  1
  Ag  Ag59  1  0.167470  0.709878  0.877348  1
  Ag  Ag60  1  0.832530  0.709878  0.542408  1
  Ag  Ag61  1  0.167470  0.290122  0.457592  1
  Ag  Ag62  1  0.700828  0.034141  0.333313  1
  Ag  Ag63  1  0.700828  0.367514  0.666687  1
  Ag  Ag64  1  0.299172  0.965859  0.666687  1
  Ag  Ag65  1  0.299172  0.632486  0.333313  1
  Ag  Ag66  1  0.000000  0.831281  0.831281  1
  Ag  Ag67  1  0.000000  0.168719  0.168719  1
  Ag  Ag68  1  0.810890  0.310890  0.500000  1
  Ag  Ag69  1  0.189110  0.689110  0.500000  1
  Ag  Ag70  1  0.500000  0.500000  0.000000  1
