# generated using pymatgen
data_NaCaAlSi2O7
_symmetry_space_group_name_H-M   'P 1'
_cell_length_a   9.71566945
_cell_length_b   7.64243814
_cell_length_c   7.64243814
_cell_angle_alpha   90.00000000
_cell_angle_beta   90.00000000
_cell_angle_gamma   90.00000000
_symmetry_Int_Tables_number   1
_chemical_formula_structural   NaCaAlSi2O7
_chemical_formula_sum   'Na4 Ca4 Al4 Si8 O28'
_cell_volume   567.46175240
_cell_formula_units_Z   4
loop_
 _symmetry_equiv_pos_site_id
 _symmetry_equiv_pos_as_xyz
  1  'x, y, z'
loop_
 _atom_site_type_symbol
 _atom_site_label
 _atom_site_symmetry_multiplicity
 _atom_site_fract_x
 _atom_site_fract_y
 _atom_site_fract_z
 _atom_site_occupancy
  Na  Na0  1  0.480871  0.140144  0.640144  1
  Na  Na1  1  0.480871  0.859856  0.359856  1
  Na  Na2  1  0.519129  0.640144  0.859856  1
  Na  Na3  1  0.519129  0.359856  0.140144  1
  Ca  Ca4  1  0.027844  0.361905  0.138095  1
  Ca  Ca5  1  0.027844  0.638095  0.861905  1
  Ca  Ca6  1  0.972156  0.138095  0.638095  1
  Ca  Ca7  1  0.972156  0.861905  0.361905  1
  Al  Al8  1  0.000000  0.000000  0.000000  1
  Al  Al9  1  0.000000  0.500000  0.500000  1
  Al  Al10  1  0.500000  0.000000  0.000000  1
  Al  Al11  1  0.500000  0.500000  0.500000  1
  Si  Si12  1  0.685487  0.148933  0.351067  1
  Si  Si13  1  0.685487  0.851067  0.648933  1
  Si  Si14  1  0.801513  0.350887  0.850887  1
  Si  Si15  1  0.801513  0.649113  0.149113  1
  Si  Si16  1  0.198487  0.149113  0.350887  1
  Si  Si17  1  0.198487  0.850887  0.649113  1
  Si  Si18  1  0.314513  0.351067  0.851067  1
  Si  Si19  1  0.314513  0.648933  0.148933  1
  O  O20  1  0.147260  0.000000  0.500000  1
  O  O21  1  0.103992  0.921433  0.822320  1
  O  O22  1  0.103992  0.677680  0.578567  1
  O  O23  1  0.103992  0.078567  0.177680  1
  O  O24  1  0.103992  0.322320  0.421433  1
  O  O25  1  0.146732  0.351705  0.851705  1
  O  O26  1  0.146732  0.648295  0.148295  1
  O  O27  1  0.357234  0.162802  0.337198  1
  O  O28  1  0.357234  0.837198  0.662802  1
  O  O29  1  0.386882  0.832422  0.083010  1
  O  O30  1  0.386882  0.583010  0.332422  1
  O  O31  1  0.386882  0.416990  0.667578  1
  O  O32  1  0.386882  0.167578  0.916990  1
  O  O33  1  0.357989  0.500000  0.000000  1
  O  O34  1  0.642011  0.000000  0.500000  1
  O  O35  1  0.613118  0.916990  0.832422  1
  O  O36  1  0.613118  0.667578  0.583010  1
  O  O37  1  0.613118  0.083010  0.167578  1
  O  O38  1  0.613118  0.332422  0.416990  1
  O  O39  1  0.642766  0.337198  0.837198  1
  O  O40  1  0.642766  0.662802  0.162802  1
  O  O41  1  0.853268  0.148295  0.351705  1
  O  O42  1  0.853268  0.851705  0.648295  1
  O  O43  1  0.896008  0.822320  0.078567  1
  O  O44  1  0.896008  0.578567  0.322320  1
  O  O45  1  0.896008  0.421433  0.677680  1
  O  O46  1  0.896008  0.177680  0.921433  1
  O  O47  1  0.852740  0.500000  0.000000  1
