# generated using pymatgen
data_Tl(CO)2
_symmetry_space_group_name_H-M   'P 1'
_cell_length_a   6.40443908
_cell_length_b   7.52036869
_cell_length_c   14.89529933
_cell_angle_alpha   90.00000000
_cell_angle_beta   90.00000000
_cell_angle_gamma   90.00000000
_symmetry_Int_Tables_number   1
_chemical_formula_structural   Tl(CO)2
_chemical_formula_sum   'Tl8 C16 O16'
_cell_volume   717.41337084
_cell_formula_units_Z   8
loop_
 _symmetry_equiv_pos_site_id
 _symmetry_equiv_pos_as_xyz
  1  'x, y, z'
loop_
 _atom_site_type_symbol
 _atom_site_label
 _atom_site_symmetry_multiplicity
 _atom_site_fract_x
 _atom_site_fract_y
 _atom_site_fract_z
 _atom_site_occupancy
  Tl  Tl0  1  0.461358  0.612539  0.654437  1
  Tl  Tl1  1  0.906009  0.400051  0.459916  1
  Tl  Tl2  1  0.593991  0.599949  0.959916  1
  Tl  Tl3  1  0.961358  0.887461  0.345563  1
  Tl  Tl4  1  0.038642  0.387461  0.154437  1
  Tl  Tl5  1  0.093991  0.900051  0.040084  1
  Tl  Tl6  1  0.406009  0.099949  0.540084  1
  Tl  Tl7  1  0.538642  0.112539  0.845563  1
  C  C8  1  0.961379  0.369228  0.673154  1
  C  C9  1  0.594004  0.107385  0.056176  1
  C  C10  1  0.538621  0.630772  0.173154  1
  C  C11  1  0.905996  0.892615  0.556176  1
  C  C12  1  0.094004  0.392615  0.943824  1
  C  C13  1  0.001261  0.875350  0.730871  1
  C  C14  1  0.538828  0.115285  0.150714  1
  C  C15  1  0.405996  0.607385  0.443824  1
  C  C16  1  0.498739  0.124650  0.230871  1
  C  C17  1  0.461379  0.130772  0.326846  1
  C  C18  1  0.461172  0.615285  0.349286  1
  C  C19  1  0.501261  0.624650  0.269129  1
  C  C20  1  0.038621  0.869228  0.826846  1
  C  C21  1  0.961172  0.884715  0.650714  1
  C  C22  1  0.038828  0.384715  0.849286  1
  C  C23  1  0.998739  0.375350  0.769129  1
  O  O24  1  0.480967  0.477759  0.489049  1
  O  O25  1  0.710522  0.229446  0.025490  1
  O  O26  1  0.519033  0.977759  0.010951  1
  O  O27  1  0.378453  0.611289  0.123102  1
  O  O28  1  0.775382  0.346941  0.645768  1
  O  O29  1  0.878453  0.888711  0.876898  1
  O  O30  1  0.289477  0.729446  0.474510  1
  O  O31  1  0.621547  0.111289  0.376898  1
  O  O32  1  0.019033  0.522241  0.989049  1
  O  O33  1  0.275382  0.153059  0.354232  1
  O  O34  1  0.789478  0.770554  0.525490  1
  O  O35  1  0.980967  0.022241  0.510951  1
  O  O36  1  0.121547  0.388711  0.623102  1
  O  O37  1  0.210523  0.270554  0.974510  1
  O  O38  1  0.224618  0.846941  0.854232  1
  O  O39  1  0.724618  0.653059  0.145768  1
