# generated using pymatgen
data_K2OsO5
_symmetry_space_group_name_H-M   'P 1'
_cell_length_a   11.02304494
_cell_length_b   10.94497234
_cell_length_c   8.40595260
_cell_angle_alpha   90.80616371
_cell_angle_beta   91.50684775
_cell_angle_gamma   119.42116240
_symmetry_Int_Tables_number   1
_chemical_formula_structural   K2OsO5
_chemical_formula_sum   'K12 Os6 O30'
_cell_volume   882.62983976
_cell_formula_units_Z   6
loop_
 _symmetry_equiv_pos_site_id
 _symmetry_equiv_pos_as_xyz
  1  'x, y, z'
loop_
 _atom_site_type_symbol
 _atom_site_label
 _atom_site_symmetry_multiplicity
 _atom_site_fract_x
 _atom_site_fract_y
 _atom_site_fract_z
 _atom_site_occupancy
  K  K0  1  0.301838  0.965811  0.003781  1
  K  K1  1  0.043230  0.341312  0.989312  1
  K  K2  1  0.317158  0.650549  0.262309  1
  K  K3  1  0.343226  0.681620  0.743191  1
  K  K4  1  0.005257  0.012344  0.731674  1
  K  K5  1  0.380254  0.333542  0.557349  1
  K  K6  1  0.689279  0.719687  0.002797  1
  K  K7  1  0.678749  0.344008  0.257283  1
  K  K8  1  0.670163  0.349390  0.765015  1
  K  K9  1  0.971354  0.627818  0.512961  1
  K  K10  1  0.657776  0.033978  0.445125  1
  K  K11  1  0.014820  0.010966  0.263412  1
  Os  Os12  1  0.303096  0.968801  0.499437  1
  Os  Os13  1  0.028269  0.325466  0.493726  1
  Os  Os14  1  0.364442  0.332159  0.996285  1
  Os  Os15  1  0.670811  0.695267  0.503625  1
  Os  Os16  1  0.979482  0.624178  0.007546  1
  Os  Os17  1  0.673948  0.045574  0.994517  1
  O  O18  1  0.001288  0.797297  0.999458  1
  O  O19  1  0.213401  0.889254  0.314558  1
  O  O20  1  0.223353  0.880331  0.677034  1
  O  O21  1  0.166780  0.686386  0.995375  1
  O  O22  1  0.132925  0.516688  0.506752  1
  O  O23  1  0.117461  0.319750  0.674029  1
  O  O24  1  0.101887  0.317661  0.311003  1
  O  O25  1  0.395226  0.867815  0.490232  1
  O  O26  1  0.181849  0.196488  0.989153  1
  O  O27  1  0.311405  0.462002  0.035959  1
  O  O28  1  0.546046  0.862153  0.953689  1
  O  O29  1  0.480327  0.600716  0.507329  1
  O  O30  1  0.206501  0.065743  0.511087  1
  O  O31  1  0.433422  0.322039  0.183272  1
  O  O32  1  0.658350  0.776801  0.325104  1
  O  O33  1  0.685091  0.784773  0.687037  1
  O  O34  1  0.811650  0.005974  0.033711  1
  O  O35  1  0.395130  0.212427  0.871704  1
  O  O36  1  0.500306  0.467001  0.880656  1
  O  O37  1  0.465346  0.131122  0.503150  1
  O  O38  1  0.671310  0.529616  0.504738  1
  O  O39  1  0.860891  0.789090  0.489926  1
  O  O40  1  0.558812  0.044085  0.146306  1
  O  O41  1  0.789898  0.544100  0.021758  1
  O  O42  1  0.784666  0.229467  0.058315  1
  O  O43  1  0.663096  0.093122  0.795703  1
  O  O44  1  0.951041  0.524765  0.824972  1
  O  O45  1  0.984096  0.550835  0.194684  1
  O  O46  1  0.869800  0.335523  0.489161  1
  O  O47  1  0.926294  0.133306  0.494798  1
