# generated using pymatgen
data_Cu5Si(SbO6)2
_symmetry_space_group_name_H-M   'P 1'
_cell_length_a   9.51221752
_cell_length_b   9.71793190
_cell_length_c   19.19981204
_cell_angle_alpha   90.00000000
_cell_angle_beta   90.00000000
_cell_angle_gamma   90.00000000
_symmetry_Int_Tables_number   1
_chemical_formula_structural   Cu5Si(SbO6)2
_chemical_formula_sum   'Cu40 Si8 Sb16 O96'
_cell_volume   1774.81300104
_cell_formula_units_Z   8
loop_
 _symmetry_equiv_pos_site_id
 _symmetry_equiv_pos_as_xyz
  1  'x, y, z'
loop_
 _atom_site_type_symbol
 _atom_site_label
 _atom_site_symmetry_multiplicity
 _atom_site_fract_x
 _atom_site_fract_y
 _atom_site_fract_z
 _atom_site_occupancy
  Cu  Cu0  1  0.745689  0.500520  0.376873  1
  Cu  Cu1  1  0.978177  0.725037  0.375989  1
  Cu  Cu2  1  0.500000  0.457597  0.750000  1
  Cu  Cu3  1  0.500000  0.042403  0.250000  1
  Cu  Cu4  1  0.021823  0.725037  0.124011  1
  Cu  Cu5  1  0.978177  0.274963  0.875989  1
  Cu  Cu6  1  0.246741  0.755432  0.250544  1
  Cu  Cu7  1  0.745689  0.499480  0.876873  1
  Cu  Cu8  1  0.254311  0.000520  0.376873  1
  Cu  Cu9  1  0.217103  0.750000  0.500000  1
  Cu  Cu10  1  0.745689  0.999480  0.623127  1
  Cu  Cu11  1  0.246741  0.744568  0.749456  1
  Cu  Cu12  1  0.254311  0.500520  0.123127  1
  Cu  Cu13  1  0.021823  0.774963  0.875989  1
  Cu  Cu14  1  0.720905  0.750000  0.500000  1
  Cu  Cu15  1  0.753259  0.244568  0.749456  1
  Cu  Cu16  1  0.279095  0.250000  0.500000  1
  Cu  Cu17  1  0.246741  0.244568  0.750544  1
  Cu  Cu18  1  0.254311  0.999480  0.876873  1
  Cu  Cu19  1  0.753259  0.744568  0.750544  1
  Cu  Cu20  1  0.978177  0.774963  0.624011  1
  Cu  Cu21  1  0.745689  0.000520  0.123127  1
  Cu  Cu22  1  0.753259  0.755432  0.249456  1
  Cu  Cu23  1  0.720905  0.250000  0.000000  1
  Cu  Cu24  1  0.782897  0.250000  0.500000  1
  Cu  Cu25  1  0.246741  0.255432  0.249456  1
  Cu  Cu26  1  0.279095  0.750000  0.000000  1
  Cu  Cu27  1  0.782897  0.750000  0.000000  1
  Cu  Cu28  1  0.753259  0.255432  0.250544  1
  Cu  Cu29  1  0.500000  0.500000  0.000000  1
  Cu  Cu30  1  0.217103  0.250000  0.000000  1
  Cu  Cu31  1  0.500000  0.542403  0.250000  1
  Cu  Cu32  1  0.500000  0.000000  0.000000  1
  Cu  Cu33  1  0.500000  0.500000  0.500000  1
  Cu  Cu34  1  0.254311  0.499480  0.623127  1
  Cu  Cu35  1  0.021823  0.225037  0.375989  1
  Cu  Cu36  1  0.021823  0.274963  0.624011  1
  Cu  Cu37  1  0.500000  0.000000  0.500000  1
  Cu  Cu38  1  0.500000  0.957597  0.750000  1
  Cu  Cu39  1  0.978177  0.225037  0.124011  1
  Si  Si40  1  0.253392  0.992305  0.626833  1
  Si  Si41  1  0.746608  0.007695  0.373167  1
  Si  Si42  1  0.253392  0.492305  0.873167  1
  Si  Si43  1  0.253392  0.507695  0.373167  1
  Si  Si44  1  0.746608  0.992305  0.873167  1
  Si  Si45  1  0.746608  0.492305  0.626833  1
  Si  Si46  1  0.746608  0.507695  0.126833  1
  Si  Si47  1  0.253392  0.007695  0.126833  1
  Sb  Sb48  1  0.000000  0.039208  0.750000  1
  Sb  Sb49  1  0.515811  0.226520  0.624535  1
  Sb  Sb50  1  0.515811  0.773480  0.124535  1
  Sb  Sb51  1  0.484189  0.273480  0.124535  1
  Sb  Sb52  1  0.484189  0.226520  0.875465  1
  Sb  Sb53  1  0.000000  0.500000  0.000000  1
  Sb  Sb54  1  0.484189  0.726520  0.624535  1
  Sb  Sb55  1  0.515811  0.273480  0.375465  1
  Sb  Sb56  1  0.000000  0.000000  0.000000  1
  Sb  Sb57  1  0.000000  0.500000  0.500000  1
  Sb  Sb58  1  0.484189  0.773480  0.375465  1
  Sb  Sb59  1  0.000000  0.960792  0.250000  1
  Sb  Sb60  1  0.515811  0.726520  0.875465  1
  Sb  Sb61  1  0.000000  0.000000  0.500000  1
  Sb  Sb62  1  0.000000  0.460792  0.250000  1
  Sb  Sb63  1  0.000000  0.539208  0.750000  1
  O  O64  1  0.856216  0.434204  0.569437  1
  O  O65  1  0.143784  0.934204  0.569437  1
  O  O66  1  0.602343  0.313064  0.803230  1
  O  O67  1  0.066522  0.155318  0.943612  1
  O  O68  1  0.645768  0.866063  0.053782  1
  O  O69  1  0.645768  0.133937  0.553782  1
  O  O70  1  0.142848  0.376335  0.553019  1
  O  O71  1  0.645768  0.633937  0.946218  1
  O  O72  1  0.856216  0.934204  0.930563  1
  O  O73  1  0.905238  0.313889  0.306863  1
  O  O74  1  0.602343  0.186936  0.196770  1
  O  O75  1  0.890702  0.902067  0.691449  1
  O  O76  1  0.109298  0.402067  0.691449  1
  O  O77  1  0.170261  0.074900  0.688053  1
  O  O78  1  0.933478  0.344682  0.443612  1
  O  O79  1  0.829739  0.074900  0.811947  1
  O  O80  1  0.606679  0.411185  0.310009  1
  O  O81  1  0.829739  0.425100  0.188053  1
  O  O82  1  0.645768  0.366063  0.446218  1
  O  O83  1  0.428978  0.647344  0.055079  1
  O  O84  1  0.393321  0.911185  0.310009  1
  O  O85  1  0.066522  0.844682  0.443612  1
  O  O86  1  0.933478  0.655318  0.943612  1
  O  O87  1  0.665057  0.360522  0.660206  1
  O  O88  1  0.363234  0.096752  0.589787  1
  O  O89  1  0.363234  0.903248  0.089787  1
  O  O90  1  0.170261  0.425100  0.311947  1
  O  O91  1  0.354232  0.633937  0.553782  1
  O  O92  1  0.890702  0.402067  0.808551  1
  O  O93  1  0.571022  0.852656  0.555079  1
  O  O94  1  0.602343  0.686936  0.303230  1
  O  O95  1  0.393321  0.411185  0.189991  1
  O  O96  1  0.636766  0.403248  0.089787  1
  O  O97  1  0.571022  0.647344  0.444921  1
  O  O98  1  0.602343  0.813064  0.696770  1
  O  O99  1  0.170261  0.925100  0.188053  1
  O  O100  1  0.363234  0.403248  0.410213  1
  O  O101  1  0.890702  0.597933  0.308551  1
  O  O102  1  0.933478  0.155318  0.556388  1
  O  O103  1  0.354232  0.866063  0.446218  1
  O  O104  1  0.829739  0.574900  0.688053  1
  O  O105  1  0.856216  0.065796  0.430563  1
  O  O106  1  0.142848  0.123665  0.446981  1
  O  O107  1  0.571022  0.352656  0.944921  1
  O  O108  1  0.143784  0.434204  0.930563  1
  O  O109  1  0.109298  0.597933  0.191449  1
  O  O110  1  0.094762  0.186111  0.806863  1
  O  O111  1  0.606679  0.911185  0.189991  1
  O  O112  1  0.170261  0.574900  0.811947  1
  O  O113  1  0.109298  0.902067  0.808551  1
  O  O114  1  0.142848  0.876335  0.946981  1
  O  O115  1  0.393321  0.088815  0.810009  1
  O  O116  1  0.397657  0.313064  0.696770  1
  O  O117  1  0.856216  0.565796  0.069437  1
  O  O118  1  0.066522  0.344682  0.056388  1
  O  O119  1  0.397657  0.186936  0.303230  1
  O  O120  1  0.933478  0.844682  0.056388  1
  O  O121  1  0.094762  0.686111  0.693137  1
  O  O122  1  0.829739  0.925100  0.311947  1
  O  O123  1  0.636766  0.096752  0.910213  1
  O  O124  1  0.397657  0.813064  0.803230  1
  O  O125  1  0.142848  0.623665  0.053019  1
  O  O126  1  0.363234  0.596752  0.910213  1
  O  O127  1  0.665057  0.639478  0.160206  1
  O  O128  1  0.665057  0.860522  0.839794  1
  O  O129  1  0.905238  0.186111  0.693137  1
  O  O130  1  0.393321  0.588815  0.689991  1
  O  O131  1  0.094762  0.313889  0.193137  1
  O  O132  1  0.857152  0.623665  0.446981  1
  O  O133  1  0.636766  0.903248  0.410213  1
  O  O134  1  0.066522  0.655318  0.556388  1
  O  O135  1  0.334942  0.639478  0.339794  1
  O  O136  1  0.905238  0.686111  0.806863  1
  O  O137  1  0.857152  0.376335  0.946981  1
  O  O138  1  0.857152  0.876335  0.553019  1
  O  O139  1  0.857152  0.123665  0.053019  1
  O  O140  1  0.094762  0.813889  0.306863  1
  O  O141  1  0.428978  0.147344  0.444921  1
  O  O142  1  0.636766  0.596752  0.589787  1
  O  O143  1  0.143784  0.565796  0.430563  1
  O  O144  1  0.397657  0.686936  0.196770  1
  O  O145  1  0.665057  0.139478  0.339794  1
  O  O146  1  0.890702  0.097933  0.191449  1
  O  O147  1  0.606679  0.588815  0.810009  1
  O  O148  1  0.334942  0.139478  0.160206  1
  O  O149  1  0.606679  0.088815  0.689991  1
  O  O150  1  0.334942  0.860522  0.660206  1
  O  O151  1  0.143784  0.065796  0.069437  1
  O  O152  1  0.354232  0.366063  0.053782  1
  O  O153  1  0.905238  0.813889  0.193137  1
  O  O154  1  0.354232  0.133937  0.946218  1
  O  O155  1  0.428978  0.352656  0.555079  1
  O  O156  1  0.571022  0.147344  0.055079  1
  O  O157  1  0.334942  0.360522  0.839794  1
  O  O158  1  0.109298  0.097933  0.308551  1
  O  O159  1  0.428978  0.852656  0.944921  1
