# generated using pymatgen
data_NaZnSiHO4
_symmetry_space_group_name_H-M   'P 1'
_cell_length_a   7.76266752
_cell_length_b   9.49241765
_cell_length_c   5.21640211
_cell_angle_alpha   90.00000000
_cell_angle_beta   90.00000000
_cell_angle_gamma   90.00000000
_symmetry_Int_Tables_number   1
_chemical_formula_structural   NaZnSiHO4
_chemical_formula_sum   'Na4 Zn4 Si4 H4 O16'
_cell_volume   384.37832111
_cell_formula_units_Z   4
loop_
 _symmetry_equiv_pos_site_id
 _symmetry_equiv_pos_as_xyz
  1  'x, y, z'
loop_
 _atom_site_type_symbol
 _atom_site_label
 _atom_site_symmetry_multiplicity
 _atom_site_fract_x
 _atom_site_fract_y
 _atom_site_fract_z
 _atom_site_occupancy
  Na  Na0  1  0.204768  0.333364  0.023738  1
  Na  Na1  1  0.295232  0.666636  0.523738  1
  Na  Na2  1  0.704768  0.166636  0.976262  1
  Na  Na3  1  0.795232  0.833364  0.476262  1
  Zn  Zn4  1  0.889212  0.488911  0.478082  1
  Zn  Zn5  1  0.610788  0.511089  0.978082  1
  Zn  Zn6  1  0.389212  0.011089  0.521918  1
  Zn  Zn7  1  0.110788  0.988911  0.021918  1
  Si  Si8  1  0.015104  0.161515  0.511246  1
  Si  Si9  1  0.484896  0.838485  0.011246  1
  Si  Si10  1  0.515104  0.338485  0.488754  1
  Si  Si11  1  0.984896  0.661515  0.988754  1
  H  H12  1  0.779504  0.874951  0.973150  1
  H  H13  1  0.720496  0.125049  0.473150  1
  H  H14  1  0.279504  0.625049  0.026850  1
  H  H15  1  0.220496  0.374951  0.526850  1
  O  O16  1  0.019393  0.148895  0.823566  1
  O  O17  1  0.480607  0.851105  0.323566  1
  O  O18  1  0.519393  0.351105  0.176434  1
  O  O19  1  0.980607  0.648895  0.676434  1
  O  O20  1  0.039870  0.326477  0.422688  1
  O  O21  1  0.460130  0.673523  0.922688  1
  O  O22  1  0.539870  0.173523  0.577312  1
  O  O23  1  0.960130  0.826477  0.077312  1
  O  O24  1  0.667978  0.429972  0.633545  1
  O  O25  1  0.832022  0.570028  0.133545  1
  O  O26  1  0.167978  0.070028  0.366455  1
  O  O27  1  0.332022  0.929972  0.866455  1
  O  O28  1  0.333419  0.407398  0.608413  1
  O  O29  1  0.166581  0.592602  0.108413  1
  O  O30  1  0.833419  0.092602  0.391587  1
  O  O31  1  0.666581  0.907398  0.891587  1
