# generated using pymatgen
data_La2CdTe4
_symmetry_space_group_name_H-M   'P 1'
_cell_length_a   8.40221697
_cell_length_b   8.40221619
_cell_length_c   8.40221626
_cell_angle_alpha   111.27333371
_cell_angle_beta   111.27333241
_cell_angle_gamma   105.92417368
_symmetry_Int_Tables_number   1
_chemical_formula_structural   La2CdTe4
_chemical_formula_sum   'La4 Cd2 Te8'
_cell_volume   455.32292685
_cell_formula_units_Z   2
loop_
 _symmetry_equiv_pos_site_id
 _symmetry_equiv_pos_as_xyz
  1  'x, y, z'
loop_
 _atom_site_type_symbol
 _atom_site_label
 _atom_site_symmetry_multiplicity
 _atom_site_fract_x
 _atom_site_fract_y
 _atom_site_fract_z
 _atom_site_occupancy
  La  La0  1  0.118678  0.750000  0.868678  1
  La  La1  1  0.250000  0.618678  0.368678  1
  La  La2  1  0.381322  0.250000  0.631322  1
  La  La3  1  0.750000  0.881322  0.131322  1
  Cd  Cd4  1  0.625000  0.375000  0.250000  1
  Cd  Cd5  1  0.875000  0.125000  0.750000  1
  Te  Te6  1  0.004159  0.879703  0.516156  1
  Te  Te7  1  0.495841  0.011996  0.875544  1
  Te  Te8  1  0.120297  0.136453  0.124456  1
  Te  Te9  1  0.379703  0.504159  0.016156  1
  Te  Te10  1  0.636453  0.620297  0.624456  1
  Te  Te11  1  0.511996  0.995841  0.375544  1
  Te  Te12  1  0.863547  0.488004  0.983844  1
  Te  Te13  1  0.988004  0.363547  0.483844  1
