# generated using pymatgen
data_Te2AsS4N4(ClF2)3
_symmetry_space_group_name_H-M   'P 1'
_cell_length_a   10.11120490
_cell_length_b   10.40956254
_cell_length_c   10.44638890
_cell_angle_alpha   72.02859437
_cell_angle_beta   65.56164049
_cell_angle_gamma   91.36972902
_symmetry_Int_Tables_number   1
_chemical_formula_structural   Te2AsS4N4(ClF2)3
_chemical_formula_sum   'Te4 As2 S8 N8 Cl6 F12'
_cell_volume   937.47419702
_cell_formula_units_Z   2
loop_
 _symmetry_equiv_pos_site_id
 _symmetry_equiv_pos_as_xyz
  1  'x, y, z'
loop_
 _atom_site_type_symbol
 _atom_site_label
 _atom_site_symmetry_multiplicity
 _atom_site_fract_x
 _atom_site_fract_y
 _atom_site_fract_z
 _atom_site_occupancy
  Te  Te0  1  0.020140  0.725744  0.736820  1
  Te  Te1  1  0.571610  0.321496  0.155320  1
  Te  Te2  1  0.441354  0.689493  0.845444  1
  Te  Te3  1  0.981487  0.277048  0.257314  1
  As  As4  1  0.231544  0.325597  0.756174  1
  As  As5  1  0.761586  0.708453  0.248821  1
  S  S6  1  0.030573  0.315013  0.461309  1
  S  S7  1  0.279363  0.779222  0.422617  1
  S  S8  1  0.519506  0.198135  0.008717  1
  S  S9  1  0.225291  0.875536  0.972374  1
  S  S10  1  0.770009  0.115483  0.039271  1
  S  S11  1  0.479838  0.805204  0.005054  1
  S  S12  1  0.725727  0.239918  0.570870  1
  S  S13  1  0.982613  0.664981  0.540146  1
  N  N14  1  0.147303  0.718528  0.403342  1
  N  N15  1  0.345989  0.892846  0.027435  1
  N  N16  1  0.232482  0.776505  0.586465  1
  N  N17  1  0.255913  0.772545  0.885428  1
  N  N18  1  0.752379  0.227501  0.113201  1
  N  N19  1  0.768144  0.237711  0.409934  1
  N  N20  1  0.647838  0.103751  0.983433  1
  N  N21  1  0.862476  0.278621  0.596577  1
  Cl  Cl22  1  0.048132  0.037139  0.314477  1
  Cl  Cl23  1  0.328529  0.415157  0.123317  1
  Cl  Cl24  1  0.409329  0.153703  0.397026  1
  Cl  Cl25  1  0.593860  0.863008  0.611160  1
  Cl  Cl26  1  0.707588  0.588455  0.865165  1
  Cl  Cl27  1  0.963494  0.949580  0.705322  1
  F  F28  1  0.072653  0.263739  0.755131  1
  F  F29  1  0.297780  0.430680  0.569898  1
  F  F30  1  0.167812  0.220342  0.943226  1
  F  F31  1  0.225389  0.468958  0.808409  1
  F  F32  1  0.385856  0.248779  0.711839  1
  F  F33  1  0.578542  0.716254  0.269672  1
  F  F34  1  0.751326  0.555976  0.211180  1
  F  F35  1  0.833247  0.801510  0.052650  1
  F  F36  1  0.694093  0.611844  0.442308  1
  F  F37  1  0.763180  0.863782  0.282194  1
  F  F38  1  0.943113  0.706577  0.228811  1
  F  F39  1  0.017513  0.480384  0.157248  1
