# generated using pymatgen
data_K3Nb2CuSe12
_symmetry_space_group_name_H-M   'P 1'
_cell_length_a   9.70771126
_cell_length_b   13.90756736
_cell_length_c   15.62247004
_cell_angle_alpha   90.00000000
_cell_angle_beta   94.79872622
_cell_angle_gamma   90.00000000
_symmetry_Int_Tables_number   1
_chemical_formula_structural   K3Nb2CuSe12
_chemical_formula_sum   'K12 Nb8 Cu4 Se48'
_cell_volume   2101.80647075
_cell_formula_units_Z   4
loop_
 _symmetry_equiv_pos_site_id
 _symmetry_equiv_pos_as_xyz
  1  'x, y, z'
loop_
 _atom_site_type_symbol
 _atom_site_label
 _atom_site_symmetry_multiplicity
 _atom_site_fract_x
 _atom_site_fract_y
 _atom_site_fract_z
 _atom_site_occupancy
  K  K0  1  0.086703  0.409879  0.728251  1
  K  K1  1  0.413297  0.909879  0.771749  1
  K  K2  1  0.913297  0.590121  0.271749  1
  K  K3  1  0.586703  0.090121  0.228251  1
  K  K4  1  0.005583  0.102657  0.842002  1
  K  K5  1  0.494417  0.602657  0.657998  1
  K  K6  1  0.994417  0.897343  0.157998  1
  K  K7  1  0.505583  0.397343  0.342002  1
  K  K8  1  0.757185  0.916484  0.493790  1
  K  K9  1  0.242815  0.083516  0.506210  1
  K  K10  1  0.742815  0.416484  0.006210  1
  K  K11  1  0.257185  0.583516  0.993790  1
  Cu  Cu12  1  0.813014  0.195945  0.423085  1
  Cu  Cu13  1  0.686986  0.695945  0.076915  1
  Cu  Cu14  1  0.186986  0.804055  0.576915  1
  Cu  Cu15  1  0.313014  0.304055  0.923085  1
  Se  Se16  1  0.761432  0.819354  0.754315  1
  Se  Se17  1  0.663525  0.410331  0.565303  1
  Se  Se18  1  0.836475  0.910331  0.934697  1
  Se  Se19  1  0.336475  0.589669  0.434697  1
  Se  Se20  1  0.163525  0.089669  0.065303  1
  Se  Se21  1  0.936085  0.235726  0.564746  1
  Se  Se22  1  0.563915  0.735726  0.935254  1
  Se  Se23  1  0.063915  0.764274  0.435254  1
  Se  Se24  1  0.761674  0.297061  0.199969  1
  Se  Se25  1  0.738326  0.797061  0.300031  1
  Se  Se26  1  0.238326  0.702939  0.800031  1
  Se  Se27  1  0.261674  0.202938  0.699969  1
  Se  Se28  1  0.912329  0.073296  0.339510  1
  Se  Se29  1  0.587671  0.573296  0.160490  1
  Se  Se30  1  0.087671  0.926704  0.660490  1
  Se  Se31  1  0.412329  0.426704  0.839510  1
  Se  Se32  1  0.203459  0.278753  0.370252  1
  Se  Se33  1  0.296541  0.778753  0.129748  1
  Se  Se34  1  0.796541  0.721247  0.629748  1
  Se  Se35  1  0.703459  0.221247  0.870252  1
  Se  Se36  1  0.003645  0.389181  0.505151  1
  Se  Se37  1  0.496355  0.889181  0.994849  1
  Se  Se38  1  0.996355  0.610819  0.494849  1
  Se  Se39  1  0.503645  0.110819  0.005151  1
  Se  Se40  1  0.072105  0.331251  0.935954  1
  Se  Se41  1  0.427895  0.831251  0.564046  1
  Se  Se42  1  0.927895  0.668749  0.064046  1
  Se  Se43  1  0.572105  0.168749  0.435954  1
  Se  Se44  1  0.775069  0.073086  0.657556  1
  Se  Se45  1  0.467377  0.891446  0.327926  1
  Se  Se46  1  0.967377  0.608554  0.827926  1
  Se  Se47  1  0.532623  0.108554  0.672074  1
  Se  Se48  1  0.951131  0.164105  0.108962  1
  Se  Se49  1  0.548869  0.664105  0.391038  1
  Se  Se50  1  0.048869  0.835895  0.891038  1
  Se  Se51  1  0.451131  0.335895  0.608962  1
  Se  Se52  1  0.238568  0.180646  0.245685  1
  Se  Se53  1  0.261432  0.680646  0.254315  1
  Se  Se54  1  0.436085  0.264274  0.064746  1
  Se  Se55  1  0.738568  0.319354  0.745685  1
  Se  Se56  1  0.864772  0.360301  0.361598  1
  Se  Se57  1  0.635228  0.860301  0.138402  1
  Se  Se58  1  0.135228  0.639699  0.638402  1
  Se  Se59  1  0.364772  0.139699  0.861598  1
  Se  Se60  1  0.275069  0.426914  0.157556  1
  Se  Se61  1  0.224931  0.926914  0.342444  1
  Se  Se62  1  0.724931  0.573086  0.842444  1
  Se  Se63  1  0.032623  0.391446  0.172074  1
  Nb  Nb64  1  0.167471  0.275584  0.077750  1
  Nb  Nb65  1  0.486491  0.274903  0.776743  1
  Nb  Nb66  1  0.013509  0.774903  0.723257  1
  Nb  Nb67  1  0.513509  0.725097  0.223257  1
  Nb  Nb68  1  0.986491  0.225097  0.276743  1
  Nb  Nb69  1  0.667471  0.224416  0.577750  1
  Nb  Nb70  1  0.832529  0.724416  0.922250  1
  Nb  Nb71  1  0.332529  0.775584  0.422250  1
