# generated using pymatgen
data_Ba(HO)2
_symmetry_space_group_name_H-M   'P 1'
_cell_length_a   9.25532410
_cell_length_b   8.29207984
_cell_length_c   7.09058592
_cell_angle_alpha   90.00000000
_cell_angle_beta   101.58650491
_cell_angle_gamma   90.00000000
_symmetry_Int_Tables_number   1
_chemical_formula_structural   Ba(HO)2
_chemical_formula_sum   'Ba8 H16 O16'
_cell_volume   533.08445545
_cell_formula_units_Z   8
loop_
 _symmetry_equiv_pos_site_id
 _symmetry_equiv_pos_as_xyz
  1  'x, y, z'
loop_
 _atom_site_type_symbol
 _atom_site_label
 _atom_site_symmetry_multiplicity
 _atom_site_fract_x
 _atom_site_fract_y
 _atom_site_fract_z
 _atom_site_occupancy
  Ba  Ba0  1  0.925472  0.121453  0.251026  1
  Ba  Ba1  1  0.425472  0.378547  0.751026  1
  Ba  Ba2  1  0.074528  0.878547  0.748974  1
  Ba  Ba3  1  0.574528  0.621453  0.248974  1
  Ba  Ba4  1  0.345940  0.038604  0.273941  1
  Ba  Ba5  1  0.845940  0.461396  0.773941  1
  Ba  Ba6  1  0.654060  0.961396  0.726059  1
  Ba  Ba7  1  0.154060  0.538604  0.226059  1
  H  H8  1  0.717835  0.897441  0.366067  1
  H  H9  1  0.217835  0.602559  0.866067  1
  H  H10  1  0.282165  0.102559  0.633933  1
  H  H11  1  0.782165  0.397441  0.133933  1
  H  H12  1  0.196673  0.810120  0.424335  1
  H  H13  1  0.696673  0.689880  0.924335  1
  H  H14  1  0.803327  0.189880  0.575665  1
  H  H15  1  0.303327  0.310120  0.075665  1
  H  H16  1  0.929366  0.806156  0.108038  1
  H  H17  1  0.429366  0.693844  0.608038  1
  H  H18  1  0.070634  0.193844  0.891962  1
  H  H19  1  0.570634  0.306156  0.391962  1
  H  H20  1  0.374336  0.827057  0.933424  1
  H  H21  1  0.874336  0.672943  0.433424  1
  H  H22  1  0.625664  0.172943  0.066576  1
  H  H23  1  0.125664  0.327057  0.566576  1
  O  O24  1  0.628280  0.960477  0.315330  1
  O  O25  1  0.128280  0.539523  0.815330  1
  O  O26  1  0.371720  0.039523  0.684670  1
  O  O27  1  0.871720  0.460477  0.184670  1
  O  O28  1  0.103073  0.861048  0.359326  1
  O  O29  1  0.603073  0.638952  0.859326  1
  O  O30  1  0.896927  0.138952  0.640674  1
  O  O31  1  0.396927  0.361048  0.140674  1
  O  O32  1  0.871454  0.831003  0.980437  1
  O  O33  1  0.371454  0.668997  0.480437  1
  O  O34  1  0.128546  0.168997  0.019563  1
  O  O35  1  0.628546  0.331003  0.519563  1
  O  O36  1  0.321189  0.783123  0.028115  1
  O  O37  1  0.821189  0.716877  0.528115  1
  O  O38  1  0.678811  0.216877  0.971885  1
  O  O39  1  0.178811  0.283123  0.471885  1
