# generated using pymatgen
data_Cu27Se20
_symmetry_space_group_name_H-M   'P 1'
_cell_length_a   4.02215124
_cell_length_b   4.02215119
_cell_length_c   79.83886729
_cell_angle_alpha   59.74936522
_cell_angle_beta   59.74936564
_cell_angle_gamma   60.00000492
_symmetry_Int_Tables_number   1
_chemical_formula_structural   Cu27Se20
_chemical_formula_sum   'Cu27 Se20'
_cell_volume   909.83049051
_cell_formula_units_Z   1
loop_
 _symmetry_equiv_pos_site_id
 _symmetry_equiv_pos_as_xyz
  1  'x, y, z'
loop_
 _atom_site_type_symbol
 _atom_site_label
 _atom_site_symmetry_multiplicity
 _atom_site_fract_x
 _atom_site_fract_y
 _atom_site_fract_z
 _atom_site_occupancy
  Cu  Cu0  1  0.246033  0.246033  0.063095  1
  Cu  Cu1  1  0.754599  0.754599  0.036810  1
  Cu  Cu2  1  0.244569  0.244569  0.163315  1
  Cu  Cu3  1  0.744557  0.744557  0.088316  1
  Cu  Cu4  1  0.755151  0.755151  0.136727  1
  Cu  Cu5  1  0.744246  0.744246  0.188363  1
  Cu  Cu6  1  0.741866  0.741866  0.238720  1
  Cu  Cu7  1  0.749880  0.749880  0.287518  1
  Cu  Cu8  1  0.749572  0.749572  0.337564  1
  Cu  Cu9  1  0.749430  0.749430  0.387585  1
  Cu  Cu10  1  0.749533  0.749533  0.437570  1
  Cu  Cu11  1  0.749589  0.749589  0.487562  1
  Cu  Cu12  1  0.749316  0.749316  0.537603  1
  Cu  Cu13  1  0.246036  0.246036  0.663095  1
  Cu  Cu14  1  0.749777  0.749777  0.587533  1
  Cu  Cu15  1  0.763088  0.763088  0.635537  1
  Cu  Cu16  1  0.744134  0.744134  0.688380  1
  Cu  Cu17  1  0.245535  0.245535  0.763170  1
  Cu  Cu18  1  0.754652  0.754652  0.736802  1
  Cu  Cu19  1  0.743814  0.743814  0.788428  1
  Cu  Cu20  1  0.253941  0.253941  0.861909  1
  Cu  Cu21  1  0.754320  0.754320  0.836852  1
  Cu  Cu22  1  0.249985  0.249985  0.912502  1
  Cu  Cu23  1  0.243685  0.243685  0.963447  1
  Cu  Cu24  1  0.758113  0.758113  0.886283  1
  Cu  Cu25  1  0.749357  0.749357  0.937597  1
  Cu  Cu26  1  0.735213  0.735213  0.989718  1
  Se  Se27  1  0.997674  0.997674  0.000349  1
  Se  Se28  1  0.007979  0.007979  0.048803  1
  Se  Se29  1  0.997426  0.997426  0.100386  1
  Se  Se30  1  0.007410  0.007410  0.148888  1
  Se  Se31  1  0.994297  0.994297  0.200855  1
  Se  Se32  1  0.000830  0.000830  0.249875  1
  Se  Se33  1  0.999901  0.999901  0.300015  1
  Se  Se34  1  0.000316  0.000316  0.349953  1
  Se  Se35  1  0.000506  0.000506  0.399924  1
  Se  Se36  1  0.000176  0.000176  0.449974  1
  Se  Se37  1  0.000450  0.000450  0.499932  1
  Se  Se38  1  0.000903  0.000903  0.549865  1
  Se  Se39  1  0.005147  0.005147  0.599228  1
  Se  Se40  1  0.006587  0.006587  0.649012  1
  Se  Se41  1  0.997410  0.997410  0.700388  1
  Se  Se42  1  0.007775  0.007775  0.748834  1
  Se  Se43  1  0.997027  0.997027  0.800446  1
  Se  Se44  1  0.009068  0.009068  0.848640  1
  Se  Se45  1  0.000200  0.000200  0.899970  1
  Se  Se46  1  0.998925  0.998925  0.950161  1
