# generated using pymatgen
data_U3O8
_symmetry_space_group_name_H-M   'P 1'
_cell_length_a   4.16025141
_cell_length_b   7.01477328
_cell_length_c   6.78036184
_cell_angle_alpha   121.15038100
_cell_angle_beta   90.00000000
_cell_angle_gamma   90.00000000
_symmetry_Int_Tables_number   1
_chemical_formula_structural   U3O8
_chemical_formula_sum   'U3 O8'
_cell_volume   169.34202224
_cell_formula_units_Z   1
loop_
 _symmetry_equiv_pos_site_id
 _symmetry_equiv_pos_as_xyz
  1  'x, y, z'
loop_
 _atom_site_type_symbol
 _atom_site_label
 _atom_site_symmetry_multiplicity
 _atom_site_fract_x
 _atom_site_fract_y
 _atom_site_fract_z
 _atom_site_occupancy
  O  O0  1  0.999908  0.331932  0.294263  1
  O  O1  1  0.999908  0.668068  0.705737  1
  O  O2  1  0.000092  0.037669  0.705737  1
  O  O3  1  0.000000  0.500000  0.000000  1
  O  O4  1  0.500000  0.000000  0.000000  1
  O  O5  1  0.500000  0.315727  0.631454  1
  O  O6  1  0.500000  0.684273  0.368546  1
  O  O7  1  0.000092  0.962331  0.294263  1
  U  U8  1  0.000000  0.681313  0.362625  1
  U  U9  1  0.000000  0.318687  0.637375  1
  U  U10  1  0.000000  0.000000  0.000000  1
