# generated using pymatgen
data_Ca2Sn2F3
_symmetry_space_group_name_H-M   'P 1'
_cell_length_a   6.53593811
_cell_length_b   10.63768931
_cell_length_c   9.80379880
_cell_angle_alpha   84.50541771
_cell_angle_beta   53.11804708
_cell_angle_gamma   47.49102486
_symmetry_Int_Tables_number   1
_chemical_formula_structural   Ca2Sn2F3
_chemical_formula_sum   'Ca4 Sn4 F6'
_cell_volume   341.98145646
_cell_formula_units_Z   2
loop_
 _symmetry_equiv_pos_site_id
 _symmetry_equiv_pos_as_xyz
  1  'x, y, z'
loop_
 _atom_site_type_symbol
 _atom_site_label
 _atom_site_symmetry_multiplicity
 _atom_site_fract_x
 _atom_site_fract_y
 _atom_site_fract_z
 _atom_site_occupancy
  Ca  Ca0  1  -0.032659  0.035221  -0.025404  1
  Ca  Ca1  1  -0.099418  0.866531  0.633469  1
  Ca  Ca2  1  0.000520  0.353286  0.146714  1
  Ca  Ca3  1  -0.013025  0.525404  0.464779  1
  Sn  Sn4  1  0.726562  0.095056  0.404944  1
  Sn  Sn5  1  0.411403  0.417081  0.694324  1
  Sn  Sn6  1  0.634214  0.805676  0.082919  1
  Sn  Sn7  1  0.645315  0.567939  0.932061  1
  F  F8  1  0.344894  0.336755  0.163245  1
  F  F9  1  0.348647  0.562733  0.343881  1
  F  F10  1  0.161875  0.156119  0.937267  1
  F  F11  1  0.749866  0.041842  0.860145  1
  F  F12  1  0.553838  0.639855  0.458158  1
  F  F13  1  0.567967  0.828502  0.671498  1
