# generated using pymatgen
data_Cu3As2H16C16Br3(NO)2
_symmetry_space_group_name_H-M   'P 1'
_cell_length_a   10.28508841
_cell_length_b   11.85029213
_cell_length_c   11.87296597
_cell_angle_alpha   68.24524767
_cell_angle_beta   80.49388087
_cell_angle_gamma   68.20807485
_symmetry_Int_Tables_number   1
_chemical_formula_structural   Cu3As2H16C16Br3(NO)2
_chemical_formula_sum   'Cu6 As4 H32 C32 Br6 N4 O4'
_cell_volume   1247.34471726
_cell_formula_units_Z   2
loop_
 _symmetry_equiv_pos_site_id
 _symmetry_equiv_pos_as_xyz
  1  'x, y, z'
loop_
 _atom_site_type_symbol
 _atom_site_label
 _atom_site_symmetry_multiplicity
 _atom_site_fract_x
 _atom_site_fract_y
 _atom_site_fract_z
 _atom_site_occupancy
  Cu  Cu0  1  0.085590  0.661756  0.760084  1
  Cu  Cu1  1  0.848754  0.138511  0.451540  1
  Cu  Cu2  1  0.808582  0.815809  0.636590  1
  Cu  Cu3  1  0.151246  0.861489  0.548460  1
  Cu  Cu4  1  0.914410  0.338244  0.239916  1
  Cu  Cu5  1  0.191418  0.184191  0.363410  1
  As  As6  1  0.615053  0.165798  0.421562  1
  As  As7  1  0.425478  0.051118  0.331336  1
  As  As8  1  0.574522  0.948882  0.668664  1
  As  As9  1  0.384947  0.834202  0.578438  1
  H  H10  1  0.372159  0.329773  0.370339  1
  H  H11  1  0.512323  0.918165  0.889744  1
  H  H12  1  0.427742  0.083318  0.797923  1
  H  H13  1  0.479267  0.346994  0.076005  1
  H  H14  1  0.572258  0.916682  0.202077  1
  H  H15  1  0.611372  0.026085  0.826816  1
  H  H16  1  0.653615  0.654746  0.076289  1
  H  H17  1  0.135011  0.160362  0.079937  1
  H  H18  1  0.108576  0.369815  0.914910  1
  H  H19  1  0.496172  0.613637  0.730559  1
  H  H20  1  0.849774  0.031422  0.968343  1
  H  H21  1  0.521990  0.605808  0.581151  1
  H  H22  1  0.627841  0.670227  0.629661  1
  H  H23  1  0.150226  0.968578  0.031657  1
  H  H24  1  0.117881  0.386159  0.700886  1
  H  H25  1  0.152829  0.981816  0.819547  1
  H  H26  1  0.539506  0.674312  0.272839  1
  H  H27  1  0.864989  0.839638  0.920063  1
  H  H28  1  0.849225  0.305549  0.837268  1
  H  H29  1  0.713579  0.298720  0.687211  1
  H  H30  1  0.286421  0.701280  0.312789  1
  H  H31  1  0.150775  0.694451  0.162732  1
  H  H32  1  0.520733  0.653006  0.923995  1
  H  H33  1  0.503828  0.386363  0.269441  1
  H  H34  1  0.891424  0.630185  0.085090  1
  H  H35  1  0.460494  0.325688  0.727161  1
  H  H36  1  0.882119  0.613841  0.299114  1
  H  H37  1  0.478010  0.394192  0.418849  1
  H  H38  1  0.388628  0.973915  0.173184  1
  H  H39  1  0.487677  0.081835  0.110256  1
  H  H40  1  0.346385  0.345254  0.923711  1
  H  H41  1  0.847171  0.018184  0.180453  1
  C  C42  1  0.125263  0.294236  0.772408  1
  C  C43  1  0.524961  0.000394  0.812417  1
  C  C44  1  0.260329  0.686864  0.143632  1
  C  C45  1  0.475886  0.338405  0.363770  1
  C  C46  1  0.145145  0.066605  0.839418  1
  C  C47  1  0.337355  0.689466  0.228054  1
  C  C48  1  0.543954  0.663221  0.095541  1
  C  C49  1  0.134387  0.167155  0.986208  1
  C  C50  1  0.874737  0.705764  0.227592  1
  C  C51  1  0.739671  0.313136  0.856368  1
  C  C52  1  0.249837  0.669485  0.946186  1
  C  C53  1  0.877491  0.715578  0.106814  1
  C  C54  1  0.531216  0.337965  0.990758  1
  C  C55  1  0.456046  0.336779  0.904459  1
  C  C56  1  0.524114  0.661595  0.636230  1
  C  C57  1  0.144067  0.059346  0.959081  1
  C  C58  1  0.854157  0.808807  0.377874  1
  C  C59  1  0.137858  0.184204  0.745059  1
  C  C60  1  0.750163  0.330515  0.053814  1
  C  C61  1  0.855933  0.940654  0.040919  1
  C  C62  1  0.862142  0.815796  0.254941  1
  C  C63  1  0.478931  0.675991  0.205054  1
  C  C64  1  0.865613  0.832845  0.013792  1
  C  C65  1  0.521069  0.324009  0.794946  1
  C  C66  1  0.673548  0.327291  0.966753  1
  C  C67  1  0.122509  0.284422  0.893186  1
  C  C68  1  0.468784  0.662035  0.009242  1
  C  C69  1  0.475039  0.999606  0.187583  1
  C  C70  1  0.662645  0.310534  0.771946  1
  C  C71  1  0.145843  0.191193  0.622126  1
  C  C72  1  0.854855  0.933395  0.160582  1
  C  C73  1  0.326452  0.672709  0.033247  1
  Br  Br74  1  0.806873  0.366599  0.428353  1
  Br  Br75  1  0.932334  0.968118  0.657904  1
  Br  Br76  1  0.067666  0.031882  0.342096  1
  Br  Br77  1  0.861025  0.625538  0.820182  1
  Br  Br78  1  0.193127  0.633401  0.571647  1
  Br  Br79  1  0.138975  0.374462  0.179818  1
  N  N80  1  0.187326  0.667086  0.873539  1
  N  N81  1  0.812674  0.332914  0.126461  1
  N  N82  1  0.154036  0.195804  0.521616  1
  N  N83  1  0.845964  0.804196  0.478384  1
  O  O84  1  0.510436  0.111942  0.557312  1
  O  O85  1  0.418585  0.906649  0.678182  1
  O  O86  1  0.581415  0.093351  0.321818  1
  O  O87  1  0.489564  0.888058  0.442688  1
