# generated using pymatgen
data_Li(Mo3S4)2
_symmetry_space_group_name_H-M   'P 1'
_cell_length_a   6.53171573
_cell_length_b   13.06016433
_cell_length_c   9.05160911
_cell_angle_alpha   46.29847564
_cell_angle_beta   93.63809279
_cell_angle_gamma   92.21136146
_symmetry_Int_Tables_number   1
_chemical_formula_structural   Li(Mo3S4)2
_chemical_formula_sum   'Li2 Mo12 S16'
_cell_volume   557.08519910
_cell_formula_units_Z   2
loop_
 _symmetry_equiv_pos_site_id
 _symmetry_equiv_pos_as_xyz
  1  'x, y, z'
loop_
 _atom_site_type_symbol
 _atom_site_label
 _atom_site_symmetry_multiplicity
 _atom_site_fract_x
 _atom_site_fract_y
 _atom_site_fract_z
 _atom_site_occupancy
  Li  Li0  1  0.099947  0.513174  0.933560  1
  Li  Li1  1  0.900053  0.986826  0.066440  1
  Mo  Mo2  1  0.216167  0.928165  0.551181  1
  Mo  Mo3  1  0.217181  0.426920  0.550608  1
  Mo  Mo4  1  0.404496  0.667099  0.215098  1
  Mo  Mo5  1  0.453214  0.593332  0.590162  1
  Mo  Mo6  1  0.404836  0.165015  0.219707  1
  Mo  Mo7  1  0.450057  0.094248  0.594893  1
  Mo  Mo8  1  0.546786  0.906668  0.409838  1
  Mo  Mo9  1  0.595504  0.832901  0.784902  1
  Mo  Mo10  1  0.549943  0.405752  0.405107  1
  Mo  Mo11  1  0.595164  0.334985  0.780293  1
  Mo  Mo12  1  0.783833  0.571835  0.448819  1
  Mo  Mo13  1  0.782819  0.073080  0.449392  1
  S  S14  1  0.133835  0.670526  0.385788  1
  S  S15  1  0.131399  0.172467  0.384720  1
  S  S16  1  0.273069  0.873892  0.865959  1
  S  S17  1  0.215089  0.500348  0.218232  1
  S  S18  1  0.269330  0.373871  0.866918  1
  S  S19  1  0.215077  0.000711  0.219814  1
  S  S20  1  0.386470  0.699570  0.732246  1
  S  S21  1  0.389547  0.202704  0.727892  1
  S  S22  1  0.613530  0.800430  0.267754  1
  S  S23  1  0.610453  0.297296  0.272108  1
  S  S24  1  0.784911  0.999652  0.781768  1
  S  S25  1  0.726931  0.626108  0.134041  1
  S  S26  1  0.784923  0.499289  0.780186  1
  S  S27  1  0.730670  0.126129  0.133082  1
  S  S28  1  0.866165  0.829474  0.614212  1
  S  S29  1  0.868601  0.327533  0.615280  1
