# generated using pymatgen
data_CaGdTh(PO4)3
_symmetry_space_group_name_H-M   'P 1'
_cell_length_a   6.44786173
_cell_length_b   6.76211882
_cell_length_c   20.88324427
_cell_angle_alpha   90.23846342
_cell_angle_beta   89.71115643
_cell_angle_gamma   104.08774745
_symmetry_Int_Tables_number   1
_chemical_formula_structural   CaGdTh(PO4)3
_chemical_formula_sum   'Ca4 Gd4 Th4 P12 O48'
_cell_volume   883.13423514
_cell_formula_units_Z   4
loop_
 _symmetry_equiv_pos_site_id
 _symmetry_equiv_pos_as_xyz
  1  'x, y, z'
loop_
 _atom_site_type_symbol
 _atom_site_label
 _atom_site_symmetry_multiplicity
 _atom_site_fract_x
 _atom_site_fract_y
 _atom_site_fract_z
 _atom_site_occupancy
  Ca  Ca0  1  0.097724  0.286134  0.221945  1
  Ca  Ca1  1  0.603706  0.783351  0.943971  1
  Ca  Ca2  1  0.900931  0.718383  0.782933  1
  Ca  Ca3  1  0.906591  0.714457  0.447685  1
  Gd  Gd4  1  0.092914  0.286605  0.548921  1
  Gd  Gd5  1  0.397394  0.213475  0.387074  1
  Gd  Gd6  1  0.401741  0.212010  0.718958  1
  Gd  Gd7  1  0.905177  0.711085  0.114094  1
  Th  Th8  1  0.099134  0.287081  0.883416  1
  Th  Th9  1  0.396011  0.214610  0.054526  1
  Th  Th10  1  0.604429  0.781982  0.281695  1
  Th  Th11  1  0.606114  0.777730  0.613283  1
  P  P12  1  0.115400  0.803810  0.278047  1
  P  P13  1  0.114578  0.805266  0.612594  1
  P  P14  1  0.110704  0.806719  0.947195  1
  P  P15  1  0.386284  0.691116  0.112193  1
  P  P16  1  0.384399  0.697306  0.445946  1
  P  P17  1  0.389522  0.700321  0.778204  1
  P  P18  1  0.614372  0.305955  0.221142  1
  P  P19  1  0.611681  0.304036  0.554241  1
  P  P20  1  0.615717  0.302381  0.887938  1
  P  P21  1  0.882500  0.193018  0.054896  1
  P  P22  1  0.887515  0.199765  0.388661  1
  P  P23  1  0.886823  0.200052  0.719660  1
  O  O24  1  0.001862  0.879872  0.220625  1
  O  O25  1  0.001748  0.891122  0.557294  1
  O  O26  1  0.007895  0.893196  0.889981  1
  O  O27  1  0.056941  0.256180  0.001674  1
  O  O28  1  0.065623  0.251256  0.337304  1
  O  O29  1  0.063964  0.249730  0.667822  1
  O  O30  1  0.194279  0.522222  0.466311  1
  O  O31  1  0.186944  0.524251  0.131109  1
  O  O32  1  0.196706  0.522317  0.798927  1
  O  O33  1  0.223396  0.630464  0.261210  1
  O  O34  1  0.216526  0.627831  0.594336  1
  O  O35  1  0.209513  0.627902  0.928937  1
  O  O36  1  0.287897  0.876176  0.428749  1
  O  O37  1  0.287971  0.871680  0.095206  1
  O  O38  1  0.287077  0.876375  0.761629  1
  O  O39  1  0.312523  0.973638  0.299088  1
  O  O40  1  0.317408  0.969725  0.632907  1
  O  O41  1  0.305773  0.980117  0.968104  1
  O  O42  1  0.501788  0.609171  0.056269  1
  O  O43  1  0.492762  0.618323  0.386773  1
  O  O44  1  0.487179  0.616673  0.717447  1
  O  O45  1  0.442204  0.247429  0.167735  1
  O  O46  1  0.436361  0.245240  0.502961  1
  O  O47  1  0.440465  0.246936  0.835821  1
  O  O48  1  0.561184  0.755290  0.164283  1
  O  O49  1  0.557948  0.750644  0.498899  1
  O  O50  1  0.563713  0.749638  0.829324  1
  O  O51  1  0.504283  0.384445  0.279087  1
  O  O52  1  0.496570  0.376340  0.945367  1
  O  O53  1  0.498895  0.381829  0.612494  1
  O  O54  1  0.681161  0.030753  0.035097  1
  O  O55  1  0.692597  0.023842  0.366447  1
  O  O56  1  0.693006  0.023952  0.698735  1
  O  O57  1  0.711401  0.126182  0.237662  1
  O  O58  1  0.713061  0.125327  0.571136  1
  O  O59  1  0.719024  0.126867  0.905159  1
  O  O60  1  0.785384  0.373452  0.072990  1
  O  O61  1  0.774318  0.369399  0.404371  1
  O  O62  1  0.775346  0.369473  0.736594  1
  O  O63  1  0.803854  0.482083  0.200875  1
  O  O64  1  0.808873  0.475952  0.536765  1
  O  O65  1  0.812333  0.471787  0.868629  1
  O  O66  1  0.938447  0.746846  0.329672  1
  O  O67  1  0.940367  0.749375  0.000556  1
  O  O68  1  0.938639  0.744927  0.664348  1
  O  O69  1  0.003633  0.110580  0.108460  1
  O  O70  1  -0.006694  0.121710  0.447076  1
  O  O71  1  -0.003508  0.124835  0.778540  1
