# generated using pymatgen
data_U3(HO5)2
_symmetry_space_group_name_H-M   'P 1'
_cell_length_a   6.86301908
_cell_length_b   7.52882011
_cell_length_c   5.56301782
_cell_angle_alpha   108.12028758
_cell_angle_beta   124.50047024
_cell_angle_gamma   89.31857717
_symmetry_Int_Tables_number   1
_chemical_formula_structural   U3(HO5)2
_chemical_formula_sum   'U3 H2 O10'
_cell_volume   220.13296011
_cell_formula_units_Z   1
loop_
 _symmetry_equiv_pos_site_id
 _symmetry_equiv_pos_as_xyz
  1  'x, y, z'
loop_
 _atom_site_type_symbol
 _atom_site_label
 _atom_site_symmetry_multiplicity
 _atom_site_fract_x
 _atom_site_fract_y
 _atom_site_fract_z
 _atom_site_occupancy
  U  U0  1  0.000000  0.000000  0.000000  1
  U  U1  1  0.559760  0.750584  0.008358  1
  U  U2  1  0.440240  0.249416  0.991642  1
  H  H3  1  0.687188  0.405838  0.800553  1
  H  H4  1  0.312812  0.594162  0.199447  1
  O  O5  1  0.921829  0.769359  0.022040  1
  O  O6  1  0.078171  0.230641  0.977960  1
  O  O7  1  0.672746  0.451404  0.976413  1
  O  O8  1  0.327254  0.548596  0.023587  1
  O  O9  1  0.312473  0.958761  0.009898  1
  O  O10  1  0.687527  0.041239  0.990102  1
  O  O11  1  0.239030  0.145035  0.547003  1
  O  O12  1  0.760970  0.854965  0.452997  1
  O  O13  1  0.372501  0.655389  0.579883  1
  O  O14  1  0.627499  0.344611  0.420117  1
