# generated using pymatgen
data_KMgH5(SO5)2
_symmetry_space_group_name_H-M   'P 1'
_cell_length_a   5.82207171
_cell_length_b   6.24873227
_cell_length_c   6.65014163
_cell_angle_alpha   103.58609752
_cell_angle_beta   98.49839509
_cell_angle_gamma   100.64290538
_symmetry_Int_Tables_number   1
_chemical_formula_structural   KMgH5(SO5)2
_chemical_formula_sum   'K1 Mg1 H5 S2 O10'
_cell_volume   226.44574562
_cell_formula_units_Z   1
loop_
 _symmetry_equiv_pos_site_id
 _symmetry_equiv_pos_as_xyz
  1  'x, y, z'
loop_
 _atom_site_type_symbol
 _atom_site_label
 _atom_site_symmetry_multiplicity
 _atom_site_fract_x
 _atom_site_fract_y
 _atom_site_fract_z
 _atom_site_occupancy
  K  K0  1  0.312926  0.283153  0.517192  1
  Mg  Mg1  1  0.034160  0.874517  -0.052145  1
  H  H2  1  0.600808  0.669991  0.197380  1
  H  H3  1  0.468587  0.967357  0.232910  1
  H  H4  1  0.300976  0.778436  0.299189  1
  H  H5  1  0.452041  0.095285  0.888489  1
  H  H6  1  0.397760  0.451589  0.957305  1
  S  S7  1  0.881251  0.687529  0.474154  1
  S  S8  1  0.902403  0.367042  0.224719  1
  O  O9  1  0.051280  0.669966  0.665572  1
  O  O10  1  0.251407  0.322863  0.892542  1
  O  O11  1  0.299874  0.891674  0.219278  1
  O  O12  1  0.316692  0.143915  -0.019604  1
  O  O13  1  0.622651  0.613426  0.483929  1
  O  O14  1  0.589835  0.045980  0.739905  1
  O  O15  1  0.829077  0.622346  0.017394  1
  O  O16  1  0.809511  0.046357  0.829271  1
  O  O17  1  0.599624  0.672531  0.048008  1
  O  O18  1  0.794137  0.181040  0.321511  1
