# generated using pymatgen
data_Ce10S19
_symmetry_space_group_name_H-M   'P 1'
_cell_length_a   8.93011840
_cell_length_b   8.93011840
_cell_length_c   15.99080895
_cell_angle_alpha   90.00000000
_cell_angle_beta   90.00000000
_cell_angle_gamma   90.00000000
_symmetry_Int_Tables_number   1
_chemical_formula_structural   Ce10S19
_chemical_formula_sum   'Ce20 S38'
_cell_volume   1275.21927541
_cell_formula_units_Z   2
loop_
 _symmetry_equiv_pos_site_id
 _symmetry_equiv_pos_as_xyz
  1  'x, y, z'
loop_
 _atom_site_type_symbol
 _atom_site_label
 _atom_site_symmetry_multiplicity
 _atom_site_fract_x
 _atom_site_fract_y
 _atom_site_fract_z
 _atom_site_occupancy
  Ce  Ce0  1  0.750000  0.250000  0.386845  1
  Ce  Ce1  1  0.848654  0.959172  0.622040  1
  Ce  Ce2  1  0.651346  0.540828  0.622040  1
  Ce  Ce3  1  0.444584  0.146413  0.601842  1
  Ce  Ce4  1  0.459172  0.151346  0.122040  1
  Ce  Ce5  1  0.250000  0.750000  0.113155  1
  Ce  Ce6  1  0.040828  0.348654  0.122040  1
  Ce  Ce7  1  0.250000  0.750000  0.613155  1
  Ce  Ce8  1  0.151346  0.040828  0.377960  1
  Ce  Ce9  1  0.146413  0.055416  0.898158  1
  Ce  Ce10  1  0.555416  0.853587  0.398158  1
  Ce  Ce11  1  0.540828  0.848654  0.877960  1
  Ce  Ce12  1  0.944584  0.646413  0.398158  1
  Ce  Ce13  1  0.750000  0.250000  0.886845  1
  Ce  Ce14  1  0.055416  0.353587  0.601842  1
  Ce  Ce15  1  0.853587  0.944584  0.101842  1
  Ce  Ce16  1  0.959172  0.651346  0.877960  1
  Ce  Ce17  1  0.348654  0.459172  0.377960  1
  Ce  Ce18  1  0.353587  0.444584  0.898158  1
  Ce  Ce19  1  0.646413  0.555416  0.101842  1
  S  S20  1  0.048682  0.348449  0.424495  1
  S  S21  1  0.553606  0.852038  0.062782  1
  S  S22  1  0.352038  0.446394  0.562782  1
  S  S23  1  0.194241  0.528418  0.749183  1
  S  S24  1  0.471582  0.694241  0.249183  1
  S  S25  1  0.305759  0.971582  0.749183  1
  S  S26  1  0.805759  0.471582  0.250817  1
  S  S27  1  0.750000  0.250000  0.067344  1
  S  S28  1  0.451318  0.151551  0.424495  1
  S  S29  1  0.147962  0.053606  0.562782  1
  S  S30  1  0.647962  0.553606  0.437218  1
  S  S31  1  0.613635  0.077414  0.750069  1
  S  S32  1  0.077414  0.886365  0.749931  1
  S  S33  1  0.422586  0.613635  0.749931  1
  S  S34  1  0.028418  0.805759  0.249183  1
  S  S35  1  0.577414  0.386365  0.250069  1
  S  S36  1  0.951318  0.651551  0.575505  1
  S  S37  1  0.886365  0.422586  0.750069  1
  S  S38  1  0.694241  0.028418  0.250817  1
  S  S39  1  0.250000  0.750000  0.432656  1
  S  S40  1  0.348449  0.451318  0.075505  1
  S  S41  1  0.386365  0.922586  0.249931  1
  S  S42  1  0.750000  0.750000  0.750000  1
  S  S43  1  0.548682  0.848449  0.575505  1
  S  S44  1  0.528418  0.305759  0.750817  1
  S  S45  1  0.922586  0.113635  0.250069  1
  S  S46  1  0.651551  0.548682  0.924495  1
  S  S47  1  0.446394  0.147962  0.937218  1
  S  S48  1  0.946394  0.647962  0.062782  1
  S  S49  1  0.053606  0.352038  0.937218  1
  S  S50  1  0.848449  0.951318  0.924495  1
  S  S51  1  0.250000  0.250000  0.250000  1
  S  S52  1  0.971582  0.194241  0.750817  1
  S  S53  1  0.852038  0.946394  0.437218  1
  S  S54  1  0.113635  0.577414  0.249931  1
  S  S55  1  0.151551  0.048682  0.075505  1
  S  S56  1  0.250000  0.750000  0.932656  1
  S  S57  1  0.750000  0.250000  0.567344  1
