# generated using pymatgen
data_Al6C3N2
_symmetry_space_group_name_H-M   'P 1'
_cell_length_a   34.27871369
_cell_length_b   8.68687880
_cell_length_c   17.69656987
_cell_angle_alpha   168.38933077
_cell_angle_beta   171.07492452
_cell_angle_gamma   9.17979945
_symmetry_Int_Tables_number   1
_chemical_formula_structural   Al6C3N2
_chemical_formula_sum   'Al6 C3 N2'
_cell_volume   128.44303727
_cell_formula_units_Z   1
loop_
 _symmetry_equiv_pos_site_id
 _symmetry_equiv_pos_as_xyz
  1  'x, y, z'
loop_
 _atom_site_type_symbol
 _atom_site_label
 _atom_site_symmetry_multiplicity
 _atom_site_fract_x
 _atom_site_fract_y
 _atom_site_fract_z
 _atom_site_occupancy
  Al  Al0  1  0.263805  -0.002435  0.400204  1
  Al  Al1  1  0.076467  0.747741  0.226073  1
  Al  Al2  1  0.500643  0.735289  0.130507  1
  Al  Al3  1  0.632241  0.874360  0.773994  1
  Al  Al4  1  0.759474  0.924266  0.396600  1
  Al  Al5  1  0.165365  0.885621  0.805139  1
  C  C6  1  0.111991  0.886000  0.254661  1
  C  C7  1  0.699638  0.285870  0.830769  1
  C  C8  1  0.273046  0.908537  0.911243  1
  N  N9  1  0.669510  0.882986  0.308803  1
  N  N10  1  0.821127  -0.098532  0.955878  1
