# generated using pymatgen
data_VBiO4
_symmetry_space_group_name_H-M   'P 1'
_cell_length_a   6.16421480
_cell_length_b   6.16426706
_cell_length_c   6.16413699
_cell_angle_alpha   106.17339121
_cell_angle_beta   106.17359498
_cell_angle_gamma   116.28826180
_symmetry_Int_Tables_number   1
_chemical_formula_structural   VBiO4
_chemical_formula_sum   'V2 Bi2 O8'
_cell_volume   178.37175689
_cell_formula_units_Z   2
loop_
 _symmetry_equiv_pos_site_id
 _symmetry_equiv_pos_as_xyz
  1  'x, y, z'
loop_
 _atom_site_type_symbol
 _atom_site_label
 _atom_site_symmetry_multiplicity
 _atom_site_fract_x
 _atom_site_fract_y
 _atom_site_fract_z
 _atom_site_occupancy
  V  V0  1  0.375053  0.625012  0.749999  1
  V  V1  1  0.624971  0.375030  0.250013  1
  Bi  Bi2  1  0.125002  0.874990  0.249996  1
  Bi  Bi3  1  0.875000  0.125002  0.749999  1
  O  O4  1  0.271832  0.203491  0.068339  1
  O  O5  1  0.203494  0.635142  0.931656  1
  O  O6  1  0.364851  0.796493  0.568337  1
  O  O7  1  0.203499  0.271832  0.568340  1
  O  O8  1  0.796504  0.728178  0.431670  1
  O  O9  1  0.635147  0.203500  0.431648  1
  O  O10  1  0.796484  0.364839  0.068353  1
  O  O11  1  0.728163  0.796492  0.931651  1
