# generated using pymatgen
data_KCuPO4
_symmetry_space_group_name_H-M   'P 1'
_cell_length_a   6.79977287
_cell_length_b   6.84221587
_cell_length_c   18.06872568
_cell_angle_alpha   90.00702405
_cell_angle_beta   89.97779288
_cell_angle_gamma   89.99924311
_symmetry_Int_Tables_number   1
_chemical_formula_structural   KCuPO4
_chemical_formula_sum   'K8 Cu8 P8 O32'
_cell_volume   840.65667748
_cell_formula_units_Z   8
loop_
 _symmetry_equiv_pos_site_id
 _symmetry_equiv_pos_as_xyz
  1  'x, y, z'
loop_
 _atom_site_type_symbol
 _atom_site_label
 _atom_site_symmetry_multiplicity
 _atom_site_fract_x
 _atom_site_fract_y
 _atom_site_fract_z
 _atom_site_occupancy
  K  K0  1  0.529153  0.988168  0.676457  1
  K  K1  1  0.470759  0.011868  0.323553  1
  K  K2  1  0.529214  0.511831  0.176464  1
  K  K3  1  0.470827  0.488136  0.823536  1
  K  K4  1  0.970807  0.011848  0.176453  1
  K  K5  1  0.029244  0.511793  0.323562  1
  K  K6  1  0.970870  0.488143  0.676444  1
  K  K7  1  0.029182  0.988188  0.823537  1
  Cu  Cu8  1  0.201778  0.224854  0.993341  1
  Cu  Cu9  1  0.701584  0.224609  0.506674  1
  Cu  Cu10  1  0.798424  0.775257  0.006651  1
  Cu  Cu11  1  0.701633  0.275082  0.006634  1
  Cu  Cu12  1  0.298443  0.775346  0.493332  1
  Cu  Cu13  1  0.798469  0.724617  0.506656  1
  Cu  Cu14  1  0.201496  0.275269  0.493347  1
  Cu  Cu15  1  0.298473  0.724686  0.993379  1
  P  P16  1  0.960810  0.980659  0.396587  1
  P  P17  1  0.539079  0.019133  0.896593  1
  P  P18  1  0.539193  0.480772  0.396600  1
  P  P19  1  0.461033  0.519314  0.603410  1
  P  P20  1  0.038984  0.019230  0.603407  1
  P  P21  1  0.039074  0.480852  0.103404  1
  P  P22  1  0.961010  0.519317  0.896574  1
  P  P23  1  0.460829  0.980695  0.103422  1
  O  O24  1  0.389380  0.652439  0.401963  1
  O  O25  1  0.254875  0.032694  0.070188  1
  O  O26  1  0.889371  0.652650  0.098066  1
  O  O27  1  0.963202  0.305501  0.051708  1
  O  O28  1  0.036913  0.694409  0.948550  1
  O  O29  1  0.110566  0.152495  0.401897  1
  O  O30  1  0.610506  0.152482  0.098038  1
  O  O31  1  0.245035  0.532785  0.070026  1
  O  O32  1  0.558644  0.088867  0.816925  1
  O  O33  1  0.463651  0.305549  0.448559  1
  O  O34  1  0.754847  0.032832  0.429846  1
  O  O35  1  0.610613  0.347472  0.598022  1
  O  O36  1  0.389337  0.847394  0.901999  1
  O  O37  1  0.058683  0.088950  0.683120  1
  O  O38  1  0.941377  0.588977  0.816847  1
  O  O39  1  0.058740  0.411105  0.183087  1
  O  O40  1  0.254934  0.467486  0.570166  1
  O  O41  1  0.962993  0.194291  0.551513  1
  O  O42  1  0.941251  0.910963  0.316873  1
  O  O43  1  0.441358  0.588957  0.683141  1
  O  O44  1  0.755045  0.467554  0.929946  1
  O  O45  1  0.745155  0.967282  0.929864  1
  O  O46  1  0.889340  0.847393  0.598038  1
  O  O47  1  0.036598  0.805592  0.448545  1
  O  O48  1  0.745165  0.532837  0.429843  1
  O  O49  1  0.558741  0.411051  0.316861  1
  O  O50  1  0.441317  0.911005  0.183136  1
  O  O51  1  0.463270  0.194577  0.948293  1
  O  O52  1  0.536411  0.805464  0.051398  1
  O  O53  1  0.110479  0.347422  0.901945  1
  O  O54  1  0.536770  0.694448  0.551452  1
  O  O55  1  0.245065  0.967410  0.570131  1
