# generated using pymatgen
data_AlPO4
_symmetry_space_group_name_H-M   'P 1'
_cell_length_a   8.73578501
_cell_length_b   8.98373485
_cell_length_c   9.73446525
_cell_angle_alpha   90.00000000
_cell_angle_beta   90.00000000
_cell_angle_gamma   118.98886503
_symmetry_Int_Tables_number   1
_chemical_formula_structural   AlPO4
_chemical_formula_sum   'Al6 P6 O24'
_cell_volume   668.24696395
_cell_formula_units_Z   6
loop_
 _symmetry_equiv_pos_site_id
 _symmetry_equiv_pos_as_xyz
  1  'x, y, z'
loop_
 _atom_site_type_symbol
 _atom_site_label
 _atom_site_symmetry_multiplicity
 _atom_site_fract_x
 _atom_site_fract_y
 _atom_site_fract_z
 _atom_site_occupancy
  Al  Al0  1  0.216857  0.808384  0.348139  1
  Al  Al1  1  0.064141  0.500004  0.843425  1
  Al  Al2  1  0.408246  0.191474  0.651612  1
  Al  Al3  1  0.716857  0.808384  0.651861  1
  Al  Al4  1  0.564141  0.500004  0.156575  1
  Al  Al5  1  0.908246  0.191474  0.348388  1
  P  P6  1  0.092191  0.809119  0.655472  1
  P  P7  1  0.437084  0.499987  0.842093  1
  P  P8  1  0.282963  0.191008  0.344159  1
  P  P9  1  0.592191  0.809119  0.344528  1
  P  P10  1  0.937084  0.499987  0.157907  1
  P  P11  1  0.782963  0.191008  0.655841  1
  O  O12  1  0.002378  0.499989  0.012643  1
  O  O13  1  0.090685  0.684652  0.763403  1
  O  O14  1  0.072292  0.660272  0.232320  1
  O  O15  1  0.122391  0.753699  0.512496  1
  O  O16  1  0.108315  0.192794  0.343454  1
  O  O17  1  0.262664  0.500283  0.847230  1
  O  O18  1  0.415825  0.807469  0.343676  1
  O  O19  1  0.249871  0.011487  0.306546  1
  O  O20  1  0.238407  0.988504  0.692766  1
  O  O21  1  0.368417  0.246093  0.487137  1
  O  O22  1  0.405768  0.315596  0.236401  1
  O  O23  1  0.411505  0.339185  0.767908  1
  O  O24  1  0.502378  0.499989  0.987357  1
  O  O25  1  0.590685  0.684652  0.236597  1
  O  O26  1  0.572292  0.660272  0.767680  1
  O  O27  1  0.622391  0.753699  0.487504  1
  O  O28  1  0.608315  0.192794  0.656546  1
  O  O29  1  0.762664  0.500283  0.152770  1
  O  O30  1  0.915825  0.807469  0.656324  1
  O  O31  1  0.738407  0.988504  0.307235  1
  O  O32  1  0.749871  0.011487  0.693454  1
  O  O33  1  0.868417  0.246093  0.512863  1
  O  O34  1  0.905768  0.315596  0.763599  1
  O  O35  1  0.911505  0.339185  0.232092  1
