# generated using pymatgen
data_KCa2Be2Al(Si2O5)6
_symmetry_space_group_name_H-M   'P 1'
_cell_length_a   10.54458590
_cell_length_b   10.54496159
_cell_length_c   13.91437073
_cell_angle_alpha   90.00000000
_cell_angle_beta   90.00000000
_cell_angle_gamma   120.00117841
_symmetry_Int_Tables_number   1
_chemical_formula_structural   KCa2Be2Al(Si2O5)6
_chemical_formula_sum   'K2 Ca4 Be4 Al2 Si24 O60'
_cell_volume   1339.87281710
_cell_formula_units_Z   2
loop_
 _symmetry_equiv_pos_site_id
 _symmetry_equiv_pos_as_xyz
  1  'x, y, z'
loop_
 _atom_site_type_symbol
 _atom_site_label
 _atom_site_symmetry_multiplicity
 _atom_site_fract_x
 _atom_site_fract_y
 _atom_site_fract_z
 _atom_site_occupancy
  K  K0  1  0.000000  0.000000  0.750139  1
  K  K1  1  0.000000  0.000000  0.250139  1
  Ca  Ca2  1  0.324918  0.674575  0.249979  1
  Ca  Ca3  1  0.324918  0.650344  0.749979  1
  Ca  Ca4  1  0.675082  0.325425  0.249979  1
  Ca  Ca5  1  0.675082  0.349656  0.749979  1
  Be  Be6  1  0.500000  0.500000  0.749487  1
  Be  Be7  1  0.500000  0.000000  0.249487  1
  Be  Be8  1  0.000000  0.500000  0.250463  1
  Be  Be9  1  0.000000  0.500000  0.750463  1
  Al  Al10  1  0.500000  0.500000  0.249983  1
  Al  Al11  1  0.500000  0.000000  0.749983  1
  Si  Si12  1  0.083063  0.744324  0.614945  1
  Si  Si13  1  0.082356  0.747964  0.385833  1
  Si  Si14  1  0.249559  0.918466  0.888426  1
  Si  Si15  1  0.250554  0.918179  0.116152  1
  Si  Si16  1  0.083063  0.338738  0.114945  1
  Si  Si17  1  0.082356  0.334392  0.885833  1
  Si  Si18  1  0.249559  0.331093  0.388426  1
  Si  Si19  1  0.250554  0.332375  0.616152  1
  Si  Si20  1  0.331707  0.250295  0.111588  1
  Si  Si21  1  0.337279  0.254978  0.883202  1
  Si  Si22  1  0.668293  0.918588  0.611588  1
  Si  Si23  1  0.662721  0.917699  0.383202  1
  Si  Si24  1  0.331707  0.081412  0.611588  1
  Si  Si25  1  0.337279  0.082301  0.383202  1
  Si  Si26  1  0.668293  0.749705  0.111588  1
  Si  Si27  1  0.662721  0.745022  0.883202  1
  Si  Si28  1  0.750441  0.668907  0.388426  1
  Si  Si29  1  0.749446  0.667625  0.616152  1
  Si  Si30  1  0.916937  0.661262  0.114945  1
  Si  Si31  1  0.917644  0.665608  0.885833  1
  Si  Si32  1  0.749446  0.081821  0.116152  1
  Si  Si33  1  0.750441  0.081534  0.888426  1
  Si  Si34  1  0.916937  0.255676  0.614945  1
  Si  Si35  1  0.917644  0.252036  0.385833  1
  O  O36  1  0.077707  0.803184  0.140540  1
  O  O37  1  0.078556  0.809075  0.861292  1
  O  O38  1  0.094280  0.721547  0.500100  1
  O  O39  1  0.201657  0.916569  0.640776  1
  O  O40  1  0.196029  0.920877  0.359525  1
  O  O41  1  0.111156  0.639272  0.320425  1
  O  O42  1  0.114567  0.636792  0.680176  1
  O  O43  1  0.277924  0.908142  0.001482  1
  O  O44  1  0.114567  0.477775  0.180176  1
  O  O45  1  0.111156  0.471884  0.820425  1
  O  O46  1  0.094280  0.372733  0.000100  1
  O  O47  1  0.354523  0.877884  0.824627  1
  O  O48  1  0.360101  0.889197  0.180198  1
  O  O49  1  0.077707  0.274523  0.640540  1
  O  O50  1  0.078556  0.269481  0.361292  1
  O  O51  1  0.201657  0.285088  0.140776  1
  O  O52  1  0.196029  0.275152  0.859525  1
  O  O53  1  0.522838  0.885594  0.319182  1
  O  O54  1  0.277924  0.369782  0.501482  1
  O  O55  1  0.523120  0.877619  0.675384  1
  O  O56  1  0.354523  0.476639  0.324627  1
  O  O57  1  0.360101  0.470905  0.680198  1
  O  O58  1  0.282812  0.200538  0.357853  1
  O  O59  1  0.267932  0.189087  0.639981  1
  O  O60  1  0.628022  0.905278  0.498296  1
  O  O61  1  0.523120  0.645501  0.175384  1
  O  O62  1  0.522838  0.637243  0.819182  1
  O  O63  1  0.371978  0.277256  0.998296  1
  O  O64  1  0.267932  0.078845  0.139981  1
  O  O65  1  0.282812  0.082274  0.857853  1
  O  O66  1  0.717188  0.917726  0.857853  1
  O  O67  1  0.732068  0.921155  0.139981  1
  O  O68  1  0.628022  0.722744  0.998296  1
  O  O69  1  0.476880  0.354499  0.175384  1
  O  O70  1  0.477162  0.362757  0.819182  1
  O  O71  1  0.371978  0.094722  0.498296  1
  O  O72  1  0.717188  0.799462  0.357853  1
  O  O73  1  0.732068  0.810913  0.639981  1
  O  O74  1  0.645477  0.523361  0.324627  1
  O  O75  1  0.639899  0.529095  0.680198  1
  O  O76  1  0.477162  0.114406  0.319182  1
  O  O77  1  0.722076  0.630218  0.501482  1
  O  O78  1  0.476880  0.122381  0.675384  1
  O  O79  1  0.798343  0.714912  0.140776  1
  O  O80  1  0.803971  0.724848  0.859525  1
  O  O81  1  0.921444  0.730519  0.361292  1
  O  O82  1  0.922293  0.725477  0.640540  1
  O  O83  1  0.639899  0.110803  0.180198  1
  O  O84  1  0.645477  0.122116  0.824627  1
  O  O85  1  0.905720  0.627267  0.000100  1
  O  O86  1  0.885433  0.522225  0.180176  1
  O  O87  1  0.888844  0.528116  0.820425  1
  O  O88  1  0.722076  0.091858  0.001482  1
  O  O89  1  0.888844  0.360728  0.320425  1
  O  O90  1  0.885433  0.363208  0.680176  1
  O  O91  1  0.798343  0.083431  0.640776  1
  O  O92  1  0.803971  0.079123  0.359525  1
  O  O93  1  0.905720  0.278453  0.500100  1
  O  O94  1  0.922293  0.196816  0.140540  1
  O  O95  1  0.921444  0.190925  0.861292  1
