# generated using pymatgen
data_Yb2FeS4
_symmetry_space_group_name_H-M   'P 1'
_cell_length_a   7.67269311
_cell_length_b   7.82112482
_cell_length_c   23.36079299
_cell_angle_alpha   60.52377086
_cell_angle_beta   59.81487293
_cell_angle_gamma   59.97350066
_symmetry_Int_Tables_number   1
_chemical_formula_structural   Yb2FeS4
_chemical_formula_sum   'Yb12 Fe6 S24'
_cell_volume   993.51774023
_cell_formula_units_Z   6
loop_
 _symmetry_equiv_pos_site_id
 _symmetry_equiv_pos_as_xyz
  1  'x, y, z'
loop_
 _atom_site_type_symbol
 _atom_site_label
 _atom_site_symmetry_multiplicity
 _atom_site_fract_x
 _atom_site_fract_y
 _atom_site_fract_z
 _atom_site_occupancy
  Yb  Yb0  1  0.488564  0.499988  0.003213  1
  Yb  Yb1  1  0.504780  0.503622  0.164223  1
  Yb  Yb2  1  0.504249  0.494433  0.333981  1
  Yb  Yb3  1  0.504827  0.997167  0.497794  1
  Yb  Yb4  1  0.502145  0.987814  0.169370  1
  Yb  Yb5  1  0.497360  0.495069  0.503203  1
  Yb  Yb6  1  0.978251  0.992350  0.183155  1
  Yb  Yb7  1  0.499763  0.500810  0.666569  1
  Yb  Yb8  1  0.503392  0.998931  0.831718  1
  Yb  Yb9  1  0.999063  0.494431  0.502556  1
  Yb  Yb10  1  0.503475  0.502586  0.831689  1
  Yb  Yb11  1  0.997965  0.502901  0.832064  1
  Fe  Fe12  1  0.142319  0.132404  0.030314  1
  Fe  Fe13  1  0.137130  0.102189  0.375892  1
  Fe  Fe14  1  0.127798  0.122703  0.707964  1
  Fe  Fe15  1  0.968350  0.562143  0.329291  1
  Fe  Fe16  1  0.873227  0.876334  0.625049  1
  Fe  Fe17  1  0.873326  0.877404  0.957994  1
  S  S18  1  0.240926  0.232187  0.081852  1
  S  S19  1  0.237343  0.788562  0.079142  1
  S  S20  1  0.227691  0.257374  0.261930  1
  S  S21  1  0.764067  0.236462  0.083228  1
  S  S22  1  0.236190  0.255372  0.410436  1
  S  S23  1  0.241280  0.728387  0.257025  1
  S  S24  1  0.765614  0.763892  0.070555  1
  S  S25  1  0.746734  0.271528  0.248062  1
  S  S26  1  0.247084  0.237030  0.589516  1
  S  S27  1  0.246416  0.759268  0.416034  1
  S  S28  1  0.774574  0.255040  0.412900  1
  S  S29  1  0.773225  0.715785  0.258032  1
  S  S30  1  0.243271  0.243821  0.747642  1
  S  S31  1  0.235283  0.759000  0.584275  1
  S  S32  1  0.768925  0.728287  0.410953  1
  S  S33  1  0.242503  0.771051  0.747740  1
  S  S34  1  0.756837  0.228092  0.586287  1
  S  S35  1  0.249415  0.252154  0.915970  1
  S  S36  1  0.768735  0.244067  0.747655  1
  S  S37  1  0.754224  0.759044  0.584179  1
  S  S38  1  0.231223  0.757204  0.918117  1
  S  S39  1  0.757105  0.755672  0.743467  1
  S  S40  1  0.755670  0.227208  0.920303  1
  S  S41  1  0.754682  0.755235  0.920323  1
