# generated using pymatgen
data_Ca2ZnSi2O7
_symmetry_space_group_name_H-M   'P 1'
_cell_length_a   5.05938553
_cell_length_b   7.90614219
_cell_length_c   7.90614219
_cell_angle_alpha   90.00000000
_cell_angle_beta   90.00000000
_cell_angle_gamma   90.00000000
_symmetry_Int_Tables_number   1
_chemical_formula_structural   Ca2ZnSi2O7
_chemical_formula_sum   'Ca4 Zn2 Si4 O14'
_cell_volume   316.24743797
_cell_formula_units_Z   2
loop_
 _symmetry_equiv_pos_site_id
 _symmetry_equiv_pos_as_xyz
  1  'x, y, z'
loop_
 _atom_site_type_symbol
 _atom_site_label
 _atom_site_symmetry_multiplicity
 _atom_site_fract_x
 _atom_site_fract_y
 _atom_site_fract_z
 _atom_site_occupancy
  O  O0  1  0.778968  0.685891  0.582464  1
  O  O1  1  0.778968  0.314109  0.417536  1
  O  O2  1  0.221032  0.417536  0.685891  1
  O  O3  1  0.221032  0.582464  0.314109  1
  O  O4  1  0.778968  0.917536  0.814109  1
  O  O5  1  0.221032  0.814109  0.082464  1
  O  O6  1  0.221032  0.185891  0.917536  1
  O  O7  1  0.778968  0.082464  0.185891  1
  O  O8  1  0.252668  0.857795  0.642205  1
  O  O9  1  0.747332  0.642205  0.142205  1
  O  O10  1  0.183876  0.500000  0.000000  1
  O  O11  1  0.816124  0.000000  0.500000  1
  O  O12  1  0.252668  0.142205  0.357795  1
  O  O13  1  0.747332  0.357795  0.857795  1
  Si  Si14  1  0.933982  0.140723  0.359277  1
  Si  Si15  1  0.066018  0.359277  0.859277  1
  Si  Si16  1  0.933982  0.859277  0.640723  1
  Si  Si17  1  0.066018  0.640723  0.140723  1
  Ca  Ca18  1  0.498262  0.169769  0.669769  1
  Ca  Ca19  1  0.501738  0.330231  0.169769  1
  Ca  Ca20  1  0.501738  0.669769  0.830231  1
  Ca  Ca21  1  0.498262  0.830231  0.330231  1
  Zn  Zn22  1  0.000000  0.000000  0.000000  1
  Zn  Zn23  1  0.000000  0.500000  0.500000  1
