# generated using pymatgen
data_LiAl3Si9(N7O)2
_symmetry_space_group_name_H-M   'P 1'
_cell_length_a   7.91468097
_cell_length_b   7.86513613
_cell_length_c   5.71185110
_cell_angle_alpha   90.12584439
_cell_angle_beta   90.10774142
_cell_angle_gamma   120.11043206
_symmetry_Int_Tables_number   1
_chemical_formula_structural   LiAl3Si9(N7O)2
_chemical_formula_sum   'Li1 Al3 Si9 N14 O2'
_cell_volume   307.58077361
_cell_formula_units_Z   1
loop_
 _symmetry_equiv_pos_site_id
 _symmetry_equiv_pos_as_xyz
  1  'x, y, z'
loop_
 _atom_site_type_symbol
 _atom_site_label
 _atom_site_symmetry_multiplicity
 _atom_site_fract_x
 _atom_site_fract_y
 _atom_site_fract_z
 _atom_site_occupancy
  Li  Li0  1  0.337580  0.669590  0.723241  1
  Al  Al1  1  0.166407  0.921391  0.455737  1
  Al  Al2  1  0.498267  0.921037  0.156401  1
  Al  Al3  1  0.908738  0.485032  0.661031  1
  Si  Si4  1  0.080022  0.562522  0.149862  1
  Si  Si5  1  0.081926  0.253003  0.456271  1
  Si  Si6  1  0.427328  0.511013  0.161575  1
  Si  Si7  1  0.252905  0.084795  0.946798  1
  Si  Si8  1  0.513893  0.424823  0.659471  1
  Si  Si9  1  0.741081  0.835347  0.460368  1
  Si  Si10  1  0.831998  0.748198  0.961082  1
  Si  Si11  1  0.572235  0.084326  0.667517  1
  Si  Si12  1  0.922615  0.172202  0.947589  1
  N  N13  1  0.004217  0.000459  0.955135  1
  N  N14  1  0.001131  0.316665  0.203034  1
  N  N15  1  0.324298  0.656489  0.086691  1
  N  N16  1  0.987754  0.001728  0.453306  1
  N  N17  1  0.591979  0.937729  0.456823  1
  N  N18  1  0.342689  0.393928  0.436505  1
  N  N19  1  0.391959  0.341952  0.934185  1
  N  N20  1  0.321218  0.989411  0.717445  1
  N  N21  1  0.675577  0.690441  0.201129  1
  N  N22  1  0.684810  0.677383  0.702933  1
  N  N23  1  0.652778  0.323208  0.586176  1
  N  N24  1  0.672382  0.058108  0.925329  1
  N  N25  1  0.955099  0.618401  0.947285  1
  N  N26  1  0.019401  0.328553  0.706916  1
  O  O27  1  0.058118  0.653987  0.419297  1
  O  O28  1  0.314928  0.004942  0.192067  1
