# generated using pymatgen
data_Zn10Fe(B4Rh9)2
_symmetry_space_group_name_H-M   'P 1'
_cell_length_a   2.87724882
_cell_length_b   17.89576531
_cell_length_c   17.89576531
_cell_angle_alpha   90.00000000
_cell_angle_beta   90.00000000
_cell_angle_gamma   90.00000000
_symmetry_Int_Tables_number   1
_chemical_formula_structural   Zn10Fe(B4Rh9)2
_chemical_formula_sum   'Zn20 Fe2 B16 Rh36'
_cell_volume   921.46314962
_cell_formula_units_Z   2
loop_
 _symmetry_equiv_pos_site_id
 _symmetry_equiv_pos_as_xyz
  1  'x, y, z'
loop_
 _atom_site_type_symbol
 _atom_site_label
 _atom_site_symmetry_multiplicity
 _atom_site_fract_x
 _atom_site_fract_y
 _atom_site_fract_z
 _atom_site_occupancy
  Zn  Zn0  1  0.500000  0.790872  0.709128  1
  Zn  Zn1  1  0.500000  0.709128  0.209128  1
  Zn  Zn2  1  0.500000  0.812173  0.968124  1
  Zn  Zn3  1  0.500000  0.331019  0.168981  1
  Zn  Zn4  1  0.500000  0.949747  0.449747  1
  Zn  Zn5  1  0.500000  0.831019  0.331019  1
  Zn  Zn6  1  0.500000  0.550253  0.949747  1
  Zn  Zn7  1  0.500000  0.168981  0.668981  1
  Zn  Zn8  1  0.500000  0.449747  0.050253  1
  Zn  Zn9  1  0.500000  0.687827  0.468124  1
  Zn  Zn10  1  0.500000  0.312173  0.531876  1
  Zn  Zn11  1  0.500000  0.290872  0.790872  1
  Zn  Zn12  1  0.500000  0.668981  0.831019  1
  Zn  Zn13  1  0.500000  0.187827  0.031876  1
  Zn  Zn14  1  0.500000  0.968124  0.187827  1
  Zn  Zn15  1  0.500000  0.531876  0.687827  1
  Zn  Zn16  1  0.500000  0.209128  0.290872  1
  Zn  Zn17  1  0.500000  0.050253  0.550253  1
  Zn  Zn18  1  0.500000  0.031876  0.812173  1
  Zn  Zn19  1  0.500000  0.468124  0.312173  1
  Fe  Fe20  1  0.500000  0.500000  0.500000  1
  Fe  Fe21  1  0.500000  0.000000  0.000000  1
  B  B22  1  0.500000  0.166231  0.875638  1
  B  B23  1  0.500000  0.961374  0.666272  1
  B  B24  1  0.500000  0.666272  0.038626  1
  B  B25  1  0.500000  0.624362  0.333769  1
  B  B26  1  0.500000  0.333728  0.961374  1
  B  B27  1  0.500000  0.461374  0.833728  1
  B  B28  1  0.500000  0.833769  0.124362  1
  B  B29  1  0.500000  0.375638  0.666231  1
  B  B30  1  0.500000  0.038626  0.333728  1
  B  B31  1  0.500000  0.666231  0.624362  1
  B  B32  1  0.500000  0.833728  0.538626  1
  B  B33  1  0.500000  0.875638  0.833769  1
  B  B34  1  0.500000  0.538626  0.166272  1
  B  B35  1  0.500000  0.124362  0.166231  1
  B  B36  1  0.500000  0.166272  0.461374  1
  B  B37  1  0.500000  0.333769  0.375638  1
  Rh  Rh38  1  0.000000  0.254989  0.912603  1
  Rh  Rh39  1  0.000000  0.754989  0.587397  1
  Rh  Rh40  1  0.000000  0.452108  0.173902  1
  Rh  Rh41  1  0.000000  0.289223  0.660475  1
  Rh  Rh42  1  0.000000  0.902065  0.066850  1
  Rh  Rh43  1  0.000000  0.402065  0.433150  1
  Rh  Rh44  1  0.000000  0.082315  0.417685  1
  Rh  Rh45  1  0.000000  0.245011  0.412603  1
  Rh  Rh46  1  0.000000  0.839525  0.210777  1
  Rh  Rh47  1  0.000000  0.339525  0.289223  1
  Rh  Rh48  1  0.000000  0.587397  0.245011  1
  Rh  Rh49  1  0.000000  0.326098  0.047892  1
  Rh  Rh50  1  0.000000  0.582315  0.082315  1
  Rh  Rh51  1  0.000000  0.673902  0.952108  1
  Rh  Rh52  1  0.000000  0.173902  0.547892  1
  Rh  Rh53  1  0.000000  0.066850  0.097935  1
  Rh  Rh54  1  0.000000  0.097935  0.933150  1
  Rh  Rh55  1  0.000000  0.160475  0.789223  1
  Rh  Rh56  1  0.000000  0.952108  0.326098  1
  Rh  Rh57  1  0.000000  0.047892  0.673902  1
  Rh  Rh58  1  0.000000  0.210777  0.160475  1
  Rh  Rh59  1  0.000000  0.433150  0.597935  1
  Rh  Rh60  1  0.000000  0.912603  0.745011  1
  Rh  Rh61  1  0.000000  0.745011  0.087397  1
  Rh  Rh62  1  0.000000  0.547892  0.826098  1
  Rh  Rh63  1  0.000000  0.660475  0.710777  1
  Rh  Rh64  1  0.000000  0.789223  0.839525  1
  Rh  Rh65  1  0.000000  0.087397  0.254989  1
  Rh  Rh66  1  0.000000  0.917685  0.582315  1
  Rh  Rh67  1  0.000000  0.417685  0.917685  1
  Rh  Rh68  1  0.000000  0.412603  0.754989  1
  Rh  Rh69  1  0.000000  0.933150  0.902065  1
  Rh  Rh70  1  0.000000  0.566850  0.402065  1
  Rh  Rh71  1  0.000000  0.710777  0.339525  1
  Rh  Rh72  1  0.000000  0.826098  0.452108  1
  Rh  Rh73  1  0.000000  0.597935  0.566850  1
