# generated using pymatgen
data_Ba(H8O5)2
_symmetry_space_group_name_H-M   'P 1'
_cell_length_a   6.46244515
_cell_length_b   6.44083914
_cell_length_c   11.93314646
_cell_angle_alpha   89.39183046
_cell_angle_beta   91.61648407
_cell_angle_gamma   88.37311248
_symmetry_Int_Tables_number   1
_chemical_formula_structural   Ba(H8O5)2
_chemical_formula_sum   'Ba2 H32 O20'
_cell_volume   496.26995895
_cell_formula_units_Z   2
loop_
 _symmetry_equiv_pos_site_id
 _symmetry_equiv_pos_as_xyz
  1  'x, y, z'
loop_
 _atom_site_type_symbol
 _atom_site_label
 _atom_site_symmetry_multiplicity
 _atom_site_fract_x
 _atom_site_fract_y
 _atom_site_fract_z
 _atom_site_occupancy
  Ba  Ba0  1  0.012138  0.002025  0.492201  1
  Ba  Ba1  1  0.992499  0.987784  0.993955  1
  H  H2  1  0.277210  0.402438  0.395269  1
  H  H3  1  0.041316  0.461515  0.365874  1
  H  H4  1  0.781922  0.726702  0.294042  1
  H  H5  1  0.712461  0.600993  0.401989  1
  H  H6  1  0.607768  0.288353  0.401801  1
  H  H7  1  0.712845  0.193557  0.291850  1
  H  H8  1  0.403490  0.731657  0.397778  1
  H  H9  1  0.467082  0.962905  0.371153  1
  H  H10  1  0.806200  0.286814  0.791300  1
  H  H11  1  0.708411  0.392410  0.900484  1
  H  H12  1  0.266630  0.597200  0.894659  1
  H  H13  1  0.035171  0.534499  0.870102  1
  H  H14  1  0.266025  0.194836  0.798555  1
  H  H15  1  0.393508  0.275747  0.904505  1
  H  H16  1  0.596657  0.714488  0.894927  1
  H  H17  1  0.534316  0.949225  0.867383  1
  H  H18  1  0.729111  0.598058  0.608188  1
  H  H19  1  0.881442  0.684502  0.705028  1
  H  H20  1  0.291850  0.389945  0.605904  1
  H  H21  1  0.057361  0.434418  0.631925  1
  H  H22  1  0.386008  0.927495  0.683425  1
  H  H23  1  0.401423  0.715884  0.612574  1
  H  H24  1  0.644082  0.047958  0.663563  1
  H  H25  1  0.623191  0.286025  0.614299  1
  H  H26  1  0.077462  0.622169  0.183836  1
  H  H27  1  0.282603  0.597736  0.109911  1
  H  H28  1  0.948533  0.363555  0.166243  1
  H  H29  1  0.713381  0.377857  0.112008  1
  H  H30  1  0.567009  0.939702  0.135351  1
  H  H31  1  0.609014  0.703958  0.107154  1
  H  H32  1  0.404151  0.270320  0.108568  1
  H  H33  1  0.319562  0.127147  0.207289  1
  O  O34  1  0.510818  0.495520  0.445529  1
  O  O35  1  0.497705  0.480910  0.943898  1
  O  O36  1  0.514785  0.494214  0.570889  1
  O  O37  1  0.503320  0.483486  0.069190  1
  O  O38  1  0.144970  0.345915  0.362382  1
  O  O39  1  0.838238  0.667420  0.365367  1
  O  O40  1  0.667733  0.153727  0.367383  1
  O  O41  1  0.346370  0.871780  0.372752  1
  O  O42  1  0.844068  0.334472  0.867362  1
  O  O43  1  0.126577  0.655093  0.869604  1
  O  O44  1  0.327732  0.144444  0.871009  1
  O  O45  1  0.651550  0.847375  0.863738  1
  O  O46  1  0.871454  0.659560  0.624923  1
  O  O47  1  0.163096  0.319758  0.631425  1
  O  O48  1  0.315458  0.845931  0.627301  1
  O  O49  1  0.722738  0.171625  0.647988  1
  O  O50  1  0.153998  0.685313  0.124628  1
  O  O51  1  0.828571  0.280625  0.146398  1
  O  O52  1  0.680249  0.832136  0.135490  1
  O  O53  1  0.345399  0.128056  0.127564  1
