# generated using pymatgen
data_K3Fe2(PO4)3
_symmetry_space_group_name_H-M   'P 1'
_cell_length_a   9.56735186
_cell_length_b   9.56783950
_cell_length_c   15.68210870
_cell_angle_alpha   98.31127313
_cell_angle_beta   99.41344951
_cell_angle_gamma   119.67497071
_symmetry_Int_Tables_number   1
_chemical_formula_structural   K3Fe2(PO4)3
_chemical_formula_sum   'K12 Fe8 P12 O48'
_cell_volume   1187.10085546
_cell_formula_units_Z   4
loop_
 _symmetry_equiv_pos_site_id
 _symmetry_equiv_pos_as_xyz
  1  'x, y, z'
loop_
 _atom_site_type_symbol
 _atom_site_label
 _atom_site_symmetry_multiplicity
 _atom_site_fract_x
 _atom_site_fract_y
 _atom_site_fract_z
 _atom_site_occupancy
  K  K0  1  0.990369  0.470558  0.679590  1
  K  K1  1  0.492639  0.663365  0.419173  1
  K  K2  1  0.474856  0.724919  0.750158  1
  K  K3  1  0.709098  0.689187  0.179610  1
  K  K4  1  0.255730  0.926439  0.919183  1
  K  K5  1  0.000000  0.500000  0.000000  1
  K  K6  1  0.525144  0.275081  0.249842  1
  K  K7  1  0.507361  0.336635  0.580827  1
  K  K8  1  0.009631  0.529442  0.320410  1
  K  K9  1  0.290903  0.310813  0.820390  1
  K  K10  1  0.000000  0.000000  0.500000  1
  K  K11  1  0.744270  0.073561  0.080817  1
  Fe  Fe12  1  0.656593  0.190528  0.823830  1
  Fe  Fe13  1  0.133316  0.167255  0.323829  1
  Fe  Fe14  1  0.343407  0.809472  0.176170  1
  Fe  Fe15  1  0.754348  0.722974  0.965903  1
  Fe  Fe16  1  0.257054  0.788439  0.534083  1
  Fe  Fe17  1  0.742946  0.211561  0.465917  1
  Fe  Fe18  1  0.866684  0.832745  0.676171  1
  Fe  Fe19  1  0.245652  0.277026  0.034097  1
  P  P20  1  0.661977  0.011155  0.621962  1
  P  P21  1  0.830188  0.600514  0.481450  1
  P  P22  1  0.110807  0.960003  0.121959  1
  P  P23  1  0.773380  0.576574  0.809916  1
  P  P24  1  0.169812  0.399486  0.518550  1
  P  P25  1  0.380909  0.651264  0.981475  1
  P  P26  1  0.619091  0.348736  0.018525  1
  P  P27  1  0.889193  0.039997  0.878041  1
  P  P28  1  0.338023  0.988845  0.378038  1
  P  P29  1  0.226620  0.423426  0.190084  1
  P  P30  1  0.733348  0.036566  0.309904  1
  P  P31  1  0.266652  0.963434  0.690096  1
  O  O32  1  0.198612  0.375936  0.279505  1
  O  O33  1  0.403566  0.080834  0.779530  1
  O  O34  1  0.218218  0.308138  0.448067  1
  O  O35  1  0.920689  0.879033  0.082243  1
  O  O36  1  0.017605  0.720382  0.487109  1
  O  O37  1  0.761431  0.405087  0.797565  1
  O  O38  1  0.296732  0.838427  0.417731  1
  O  O39  1  0.766802  0.216090  0.330194  1
  O  O40  1  0.779431  0.928090  0.931756  1
  O  O41  1  0.806865  0.443619  0.511222  1
  O  O42  1  0.892478  0.036152  0.297559  1
  O  O43  1  0.278279  0.440267  0.612580  1
  O  O44  1  0.266716  0.469488  0.987137  1
  O  O45  1  0.801388  0.624064  0.720495  1
  O  O46  1  0.639951  0.229857  0.948044  1
  O  O47  1  0.689441  0.976691  0.394257  1
  O  O48  1  0.163512  0.074860  0.216031  1
  O  O49  1  0.703268  0.161573  0.582269  1
  O  O50  1  0.310559  0.023309  0.605743  1
  O  O51  1  0.567589  0.704369  0.011198  1
  O  O52  1  0.503648  0.152276  0.431768  1
  O  O53  1  0.836488  0.925140  0.783969  1
  O  O54  1  0.672461  0.334364  0.112556  1
  O  O55  1  0.358813  0.947457  0.283962  1
  O  O56  1  0.496352  0.847724  0.568232  1
  O  O57  1  0.193135  0.556381  0.488778  1
  O  O58  1  0.917596  0.704825  0.894281  1
  O  O59  1  0.193567  0.020896  0.376743  1
  O  O60  1  0.733284  0.530512  0.012863  1
  O  O61  1  0.360049  0.770143  0.051956  1
  O  O62  1  0.082404  0.295175  0.105719  1
  O  O63  1  0.233198  0.783910  0.669806  1
  O  O64  1  0.107522  0.963848  0.702441  1
  O  O65  1  0.721721  0.559733  0.387420  1
  O  O66  1  0.385872  0.436590  0.169815  1
  O  O67  1  0.238569  0.594913  0.202435  1
  O  O68  1  0.432411  0.295631  0.988802  1
  O  O69  1  0.806433  0.979104  0.623257  1
  O  O70  1  0.079311  0.120967  0.917757  1
  O  O71  1  0.144128  0.816814  0.123237  1
  O  O72  1  0.781782  0.691862  0.551933  1
  O  O73  1  0.220569  0.071910  0.068244  1
  O  O74  1  0.641187  0.052542  0.716038  1
  O  O75  1  0.614128  0.563410  0.830185  1
  O  O76  1  0.596434  0.919166  0.220470  1
  O  O77  1  0.855872  0.183186  0.876763  1
  O  O78  1  0.327539  0.665636  0.887444  1
  O  O79  1  0.982395  0.279618  0.512891  1
