# generated using pymatgen
data_CaUO4
_symmetry_space_group_name_H-M   'P 1'
_cell_length_a   16.08785734
_cell_length_b   6.20295144
_cell_length_c   8.32014396
_cell_angle_alpha   155.36236758
_cell_angle_beta   165.19509042
_cell_angle_gamma   19.91904892
_symmetry_Int_Tables_number   1
_chemical_formula_structural   CaUO4
_chemical_formula_sum   'Ca1 U1 O4'
_cell_volume   72.28181836
_cell_formula_units_Z   1
loop_
 _symmetry_equiv_pos_site_id
 _symmetry_equiv_pos_as_xyz
  1  'x, y, z'
loop_
 _atom_site_type_symbol
 _atom_site_label
 _atom_site_symmetry_multiplicity
 _atom_site_fract_x
 _atom_site_fract_y
 _atom_site_fract_z
 _atom_site_occupancy
  Ca  Ca0  1  0.000000  0.500000  0.000000  1
  U  U1  1  0.000000  0.000000  0.000000  1
  O  O2  1  0.249731  0.162485  1.000000  1
  O  O3  1  0.750269  -0.162485  0.000000  1
  O  O4  1  0.725769  0.446066  1.000000  1
  O  O5  1  0.274231  0.553934  0.000000  1
