# generated using pymatgen
data_Mn7FeCl3O10
_symmetry_space_group_name_H-M   'P 1'
_cell_length_a   9.43894207
_cell_length_b   9.43894647
_cell_length_c   9.43893885
_cell_angle_alpha   59.99970800
_cell_angle_beta   59.99976846
_cell_angle_gamma   59.99973805
_symmetry_Int_Tables_number   1
_chemical_formula_structural   Mn7FeCl3O10
_chemical_formula_sum   'Mn14 Fe2 Cl6 O20'
_cell_volume   594.63770080
_cell_formula_units_Z   2
loop_
 _symmetry_equiv_pos_site_id
 _symmetry_equiv_pos_as_xyz
  1  'x, y, z'
loop_
 _atom_site_type_symbol
 _atom_site_label
 _atom_site_symmetry_multiplicity
 _atom_site_fract_x
 _atom_site_fract_y
 _atom_site_fract_z
 _atom_site_occupancy
  Mn  Mn0  1  0.000001  0.351361  0.648635  1
  Mn  Mn1  1  0.648632  0.000003  0.351362  1
  Mn  Mn2  1  0.000002  0.351363  -0.000001  1
  Mn  Mn3  1  0.000001  0.000001  0.648634  1
  Mn  Mn4  1  0.000002  0.648634  0.351363  1
  Mn  Mn5  1  0.351362  0.648633  0.000002  1
  Mn  Mn6  1  0.351362  0.000002  0.000002  1
  Mn  Mn7  1  0.351364  0.000003  0.648635  1
  Mn  Mn8  1  0.500001  0.500001  0.500001  1
  Mn  Mn9  1  0.648635  0.000002  0.000002  1
  Mn  Mn10  1  0.000003  0.648634  0.000004  1
  Mn  Mn11  1  0.648634  0.351361  0.000003  1
  Mn  Mn12  1  0.000003  0.000002  0.351361  1
  Mn  Mn13  1  -0.000001  0.000005  0.999998  1
  Fe  Fe14  1  0.249999  0.249998  0.250001  1
  Fe  Fe15  1  0.749998  0.750002  0.749999  1
  Cl  Cl16  1  0.303491  0.303491  0.696509  1
  Cl  Cl17  1  0.696509  0.696507  0.303491  1
  Cl  Cl18  1  0.696509  0.303491  0.696509  1
  Cl  Cl19  1  0.696509  0.303491  0.303490  1
  Cl  Cl20  1  0.303489  0.696510  0.696510  1
  Cl  Cl21  1  0.303491  0.696510  0.303490  1
  O  O22  1  0.903719  0.903719  0.596281  1
  O  O23  1  0.903719  0.596280  0.596281  1
  O  O24  1  0.899986  0.899985  0.300042  1
  O  O25  1  0.596281  0.903719  0.596280  1
  O  O26  1  0.596282  0.903719  0.903719  1
  O  O27  1  0.096286  0.403713  0.096286  1
  O  O28  1  0.096285  0.096286  0.403713  1
  O  O29  1  0.596281  0.596280  0.903719  1
  O  O30  1  0.699948  0.100018  0.100018  1
  O  O31  1  0.300043  0.899985  0.899985  1
  O  O32  1  0.100017  0.100017  0.100017  1
  O  O33  1  0.403714  0.096287  0.403714  1
  O  O34  1  0.903719  0.596282  0.903719  1
  O  O35  1  0.100017  0.100017  0.699949  1
  O  O36  1  0.403714  0.403713  0.096287  1
  O  O37  1  0.899985  0.300043  0.899985  1
  O  O38  1  0.096287  0.403713  0.403714  1
  O  O39  1  0.899986  0.899986  0.899986  1
  O  O40  1  0.100018  0.699948  0.100018  1
  O  O41  1  0.403713  0.096286  0.096286  1
