# generated using pymatgen
data_SiO2
_symmetry_space_group_name_H-M   'P 1'
_cell_length_a   13.65902013
_cell_length_b   13.65902013
_cell_length_c   13.65902013
_cell_angle_alpha   90.00000000
_cell_angle_beta   90.00000000
_cell_angle_gamma   90.00000000
_symmetry_Int_Tables_number   1
_chemical_formula_structural   SiO2
_chemical_formula_sum   'Si48 O96'
_cell_volume   2548.34741705
_cell_formula_units_Z   48
loop_
 _symmetry_equiv_pos_site_id
 _symmetry_equiv_pos_as_xyz
  1  'x, y, z'
loop_
 _atom_site_type_symbol
 _atom_site_label
 _atom_site_symmetry_multiplicity
 _atom_site_fract_x
 _atom_site_fract_y
 _atom_site_fract_z
 _atom_site_occupancy
  Si  Si0  1  0.661625  0.588375  0.125000  1
  Si  Si1  1  0.911625  0.125000  0.338375  1
  Si  Si2  1  0.911625  0.875000  0.161625  1
  Si  Si3  1  0.375000  0.338375  0.088375  1
  Si  Si4  1  0.125000  0.338375  0.911625  1
  Si  Si5  1  0.661625  0.411625  0.375000  1
  Si  Si6  1  0.838375  0.588375  0.875000  1
  Si  Si7  1  0.125000  0.661625  0.588375  1
  Si  Si8  1  0.588375  0.125000  0.661625  1
  Si  Si9  1  0.411625  0.375000  0.661625  1
  Si  Si10  1  0.875000  0.838375  0.588375  1
  Si  Si11  1  0.375000  0.661625  0.411625  1
  Si  Si12  1  0.588375  0.875000  0.838375  1
  Si  Si13  1  0.338375  0.911625  0.125000  1
  Si  Si14  1  0.838375  0.411625  0.625000  1
  Si  Si15  1  0.338375  0.411625  0.875000  1
  Si  Si16  1  0.088375  0.875000  0.661625  1
  Si  Si17  1  0.088375  0.125000  0.838375  1
  Si  Si18  1  0.625000  0.661625  0.911625  1
  Si  Si19  1  0.875000  0.661625  0.088375  1
  Si  Si20  1  0.338375  0.588375  0.625000  1
  Si  Si21  1  0.161625  0.411625  0.125000  1
  Si  Si22  1  0.875000  0.338375  0.411625  1
  Si  Si23  1  0.411625  0.875000  0.338375  1
  Si  Si24  1  0.588375  0.625000  0.338375  1
  Si  Si25  1  0.125000  0.161625  0.411625  1
  Si  Si26  1  0.625000  0.338375  0.588375  1
  Si  Si27  1  0.411625  0.125000  0.161625  1
  Si  Si28  1  0.661625  0.088375  0.875000  1
  Si  Si29  1  0.161625  0.588375  0.375000  1
  Si  Si30  1  0.161625  0.088375  0.625000  1
  Si  Si31  1  0.411625  0.625000  0.838375  1
  Si  Si32  1  0.625000  0.838375  0.411625  1
  Si  Si33  1  0.161625  0.911625  0.875000  1
  Si  Si34  1  0.338375  0.088375  0.375000  1
  Si  Si35  1  0.625000  0.161625  0.088375  1
  Si  Si36  1  0.088375  0.625000  0.161625  1
  Si  Si37  1  0.875000  0.161625  0.911625  1
  Si  Si38  1  0.088375  0.375000  0.338375  1
  Si  Si39  1  0.838375  0.911625  0.375000  1
  Si  Si40  1  0.588375  0.375000  0.161625  1
  Si  Si41  1  0.375000  0.161625  0.588375  1
  Si  Si42  1  0.838375  0.088375  0.125000  1
  Si  Si43  1  0.661625  0.911625  0.625000  1
  Si  Si44  1  0.375000  0.838375  0.911625  1
  Si  Si45  1  0.911625  0.375000  0.838375  1
  Si  Si46  1  0.125000  0.838375  0.088375  1
  Si  Si47  1  0.911625  0.625000  0.661625  1
  O  O48  1  0.642492  0.471314  0.117347  1
  O  O49  1  0.892492  0.132653  0.221314  1
  O  O50  1  0.892492  0.867347  0.278686  1
  O  O51  1  0.367347  0.221314  0.107508  1
  O  O52  1  0.132653  0.221314  0.892492  1
  O  O53  1  0.778686  0.392492  0.367347  1
  O  O54  1  0.721314  0.607508  0.867347  1
  O  O55  1  0.117347  0.642492  0.471314  1
  O  O56  1  0.471314  0.117347  0.642492  1
  O  O57  1  0.528686  0.382653  0.642492  1
  O  O58  1  0.117347  0.357508  0.028686  1
  O  O59  1  0.028686  0.117347  0.357508  1
  O  O60  1  0.882653  0.857508  0.471314  1
  O  O61  1  0.382653  0.642492  0.528686  1
  O  O62  1  0.471314  0.882653  0.857508  1
  O  O63  1  0.642492  0.528686  0.382653  1
  O  O64  1  0.857508  0.471314  0.882653  1
  O  O65  1  0.357508  0.028686  0.117347  1
  O  O66  1  0.721314  0.392492  0.632653  1
  O  O67  1  0.778686  0.607508  0.132653  1
  O  O68  1  0.367347  0.778686  0.392492  1
  O  O69  1  0.132653  0.778686  0.607508  1
  O  O70  1  0.607508  0.867347  0.721314  1
  O  O71  1  0.607508  0.132653  0.778686  1
  O  O72  1  0.357508  0.528686  0.882653  1
  O  O73  1  0.107508  0.867347  0.778686  1
  O  O74  1  0.107508  0.132653  0.721314  1
  O  O75  1  0.632653  0.778686  0.892492  1
  O  O76  1  0.867347  0.778686  0.107508  1
  O  O77  1  0.221314  0.607508  0.632653  1
  O  O78  1  0.278686  0.392492  0.132653  1
  O  O79  1  0.882653  0.357508  0.528686  1
  O  O80  1  0.528686  0.882653  0.357508  1
  O  O81  1  0.471314  0.617347  0.357508  1
  O  O82  1  0.882653  0.642492  0.971314  1
  O  O83  1  0.971314  0.882653  0.642492  1
  O  O84  1  0.117347  0.142492  0.528686  1
  O  O85  1  0.617347  0.357508  0.471314  1
  O  O86  1  0.528686  0.117347  0.142492  1
  O  O87  1  0.357508  0.471314  0.617347  1
  O  O88  1  0.142492  0.528686  0.117347  1
  O  O89  1  0.642492  0.971314  0.882653  1
  O  O90  1  0.278686  0.607508  0.367347  1
  O  O91  1  0.221314  0.392492  0.867347  1
  O  O92  1  0.632653  0.221314  0.607508  1
  O  O93  1  0.867347  0.221314  0.392492  1
  O  O94  1  0.392492  0.132653  0.278686  1
  O  O95  1  0.392492  0.867347  0.221314  1
  O  O96  1  0.142492  0.971314  0.617347  1
  O  O97  1  0.392492  0.632653  0.721314  1
  O  O98  1  0.392492  0.367347  0.778686  1
  O  O99  1  0.867347  0.721314  0.607508  1
  O  O100  1  0.632653  0.721314  0.392492  1
  O  O101  1  0.278686  0.892492  0.867347  1
  O  O102  1  0.221314  0.107508  0.367347  1
  O  O103  1  0.617347  0.142492  0.971314  1
  O  O104  1  0.971314  0.617347  0.142492  1
  O  O105  1  0.028686  0.882653  0.142492  1
  O  O106  1  0.617347  0.857508  0.528686  1
  O  O107  1  0.528686  0.617347  0.857508  1
  O  O108  1  0.382653  0.357508  0.971314  1
  O  O109  1  0.882653  0.142492  0.028686  1
  O  O110  1  0.971314  0.382653  0.357508  1
  O  O111  1  0.142492  0.028686  0.882653  1
  O  O112  1  0.357508  0.971314  0.382653  1
  O  O113  1  0.857508  0.528686  0.617347  1
  O  O114  1  0.221314  0.892492  0.132653  1
  O  O115  1  0.278686  0.107508  0.632653  1
  O  O116  1  0.867347  0.278686  0.892492  1
  O  O117  1  0.632653  0.278686  0.107508  1
  O  O118  1  0.107508  0.367347  0.221314  1
  O  O119  1  0.107508  0.632653  0.278686  1
  O  O120  1  0.857508  0.028686  0.382653  1
  O  O121  1  0.607508  0.367347  0.278686  1
  O  O122  1  0.607508  0.632653  0.221314  1
  O  O123  1  0.132653  0.278686  0.392492  1
  O  O124  1  0.367347  0.278686  0.607508  1
  O  O125  1  0.721314  0.107508  0.132653  1
  O  O126  1  0.778686  0.892492  0.632653  1
  O  O127  1  0.382653  0.857508  0.028686  1
  O  O128  1  0.028686  0.382653  0.857508  1
  O  O129  1  0.971314  0.117347  0.857508  1
  O  O130  1  0.382653  0.142492  0.471314  1
  O  O131  1  0.471314  0.382653  0.142492  1
  O  O132  1  0.617347  0.642492  0.028686  1
  O  O133  1  0.117347  0.857508  0.971314  1
  O  O134  1  0.028686  0.617347  0.642492  1
  O  O135  1  0.857508  0.971314  0.117347  1
  O  O136  1  0.642492  0.028686  0.617347  1
  O  O137  1  0.142492  0.471314  0.382653  1
  O  O138  1  0.778686  0.107508  0.867347  1
  O  O139  1  0.721314  0.892492  0.367347  1
  O  O140  1  0.132653  0.721314  0.107508  1
  O  O141  1  0.367347  0.721314  0.892492  1
  O  O142  1  0.892492  0.632653  0.778686  1
  O  O143  1  0.892492  0.367347  0.721314  1
