# generated using pymatgen
data_La2Mn3PbO9
_symmetry_space_group_name_H-M   'P 1'
_cell_length_a   16.66376317
_cell_length_b   14.65346517
_cell_length_c   14.65346599
_cell_angle_alpha   22.07386120
_cell_angle_beta   19.29701702
_cell_angle_gamma   19.29701749
_symmetry_Int_Tables_number   1
_chemical_formula_structural   La2Mn3PbO9
_chemical_formula_sum   'La4 Mn6 Pb2 O18'
_cell_volume   369.02945822
_cell_formula_units_Z   2
loop_
 _symmetry_equiv_pos_site_id
 _symmetry_equiv_pos_as_xyz
  1  'x, y, z'
loop_
 _atom_site_type_symbol
 _atom_site_label
 _atom_site_symmetry_multiplicity
 _atom_site_fract_x
 _atom_site_fract_y
 _atom_site_fract_z
 _atom_site_occupancy
  La  La0  1  0.082190  0.251143  0.251143  1
  La  La1  1  0.417810  0.248857  0.248857  1
  La  La2  1  0.582190  0.751143  0.751143  1
  La  La3  1  0.917810  0.748857  0.748857  1
  Mn  Mn4  1  0.000000  0.000000  0.000000  1
  Mn  Mn5  1  0.332965  0.000368  0.000368  1
  Mn  Mn6  1  0.667035  -0.000368  -0.000368  1
  Mn  Mn7  1  0.167035  0.499632  0.499632  1
  Mn  Mn8  1  0.500000  0.500000  0.500000  1
  Mn  Mn9  1  0.832965  0.500368  0.500368  1
  Pb  Pb10  1  0.750000  0.250000  0.250000  1
  Pb  Pb11  1  0.250000  0.750000  0.750000  1
  O  O12  1  0.250000  0.294544  0.205456  1
  O  O13  1  0.030918  0.736172  0.310923  1
  O  O14  1  0.154897  0.186944  0.736172  1
  O  O15  1  0.580146  0.310923  0.186944  1
  O  O16  1  0.205456  0.794544  0.250000  1
  O  O17  1  0.294544  0.250000  0.705456  1
  O  O18  1  0.345103  0.763828  0.313056  1
  O  O19  1  0.469082  0.189077  0.763828  1
  O  O20  1  0.080146  0.686944  0.810923  1
  O  O21  1  0.919854  0.313056  0.189077  1
  O  O22  1  0.530918  0.810923  0.236172  1
  O  O23  1  0.654897  0.236172  0.686944  1
  O  O24  1  0.705456  0.750000  0.294544  1
  O  O25  1  0.794544  0.205456  0.750000  1
  O  O26  1  0.419854  0.689077  0.813056  1
  O  O27  1  0.845103  0.813056  0.263828  1
  O  O28  1  0.969082  0.263828  0.689077  1
  O  O29  1  0.750000  0.705456  0.794544  1
