# generated using pymatgen
data_Ho(BO2)3
_symmetry_space_group_name_H-M   'P 1'
_cell_length_a   7.43195580
_cell_length_b   12.29583076
_cell_length_c   16.00669759
_cell_angle_alpha   90.00000000
_cell_angle_beta   90.00000000
_cell_angle_gamma   90.00000000
_symmetry_Int_Tables_number   1
_chemical_formula_structural   Ho(BO2)3
_chemical_formula_sum   'Ho16 B48 O96'
_cell_volume   1462.72517136
_cell_formula_units_Z   16
loop_
 _symmetry_equiv_pos_site_id
 _symmetry_equiv_pos_as_xyz
  1  'x, y, z'
loop_
 _atom_site_type_symbol
 _atom_site_label
 _atom_site_symmetry_multiplicity
 _atom_site_fract_x
 _atom_site_fract_y
 _atom_site_fract_z
 _atom_site_occupancy
  Ho  Ho0  1  0.250000  0.934481  0.172165  1
  Ho  Ho1  1  0.750000  0.767313  0.627909  1
  Ho  Ho2  1  0.750000  0.008937  0.120992  1
  Ho  Ho3  1  0.250000  0.588970  0.048276  1
  Ho  Ho4  1  0.750000  0.411030  0.951724  1
  Ho  Ho5  1  0.250000  0.911030  0.548276  1
  Ho  Ho6  1  0.250000  0.508937  0.379008  1
  Ho  Ho7  1  0.750000  0.732687  0.127909  1
  Ho  Ho8  1  0.750000  0.065519  0.827835  1
  Ho  Ho9  1  0.250000  0.267313  0.872091  1
  Ho  Ho10  1  0.750000  0.088970  0.451724  1
  Ho  Ho11  1  0.750000  0.491063  0.620992  1
  Ho  Ho12  1  0.250000  0.232687  0.372091  1
  Ho  Ho13  1  0.250000  0.565519  0.672165  1
  Ho  Ho14  1  0.750000  0.434481  0.327835  1
  Ho  Ho15  1  0.250000  0.991063  0.879008  1
  B  B16  1  0.568710  0.128696  0.258005  1
  B  B17  1  0.577704  0.483064  0.152598  1
  B  B18  1  0.422296  0.983064  0.347402  1
  B  B19  1  0.422296  0.516936  0.847402  1
  B  B20  1  0.423395  0.143052  0.109681  1
  B  B21  1  0.070360  0.314611  0.217757  1
  B  B22  1  0.929640  0.814611  0.282243  1
  B  B23  1  0.570360  0.685389  0.782243  1
  B  B24  1  0.439801  0.822365  0.031942  1
  B  B25  1  0.560199  0.322365  0.468058  1
  B  B26  1  0.060199  0.822365  0.031942  1
  B  B27  1  0.922296  0.483064  0.152598  1
  B  B28  1  0.923395  0.643052  0.390319  1
  B  B29  1  0.922296  0.016936  0.652598  1
  B  B30  1  0.939801  0.322365  0.468058  1
  B  B31  1  0.423395  0.356948  0.609681  1
  B  B32  1  0.926504  0.846018  0.443078  1
  B  B33  1  0.576605  0.856948  0.890319  1
  B  B34  1  0.577704  0.016936  0.652598  1
  B  B35  1  0.429640  0.314611  0.217757  1
  B  B36  1  0.068710  0.871304  0.741995  1
  B  B37  1  0.939801  0.177635  0.968058  1
  B  B38  1  0.568710  0.371304  0.758005  1
  B  B39  1  0.931290  0.371304  0.758005  1
  B  B40  1  0.070360  0.185389  0.717757  1
  B  B41  1  0.926504  0.653982  0.943078  1
  B  B42  1  0.576605  0.643052  0.390319  1
  B  B43  1  0.426504  0.153982  0.556922  1
  B  B44  1  0.073496  0.346018  0.056922  1
  B  B45  1  0.931290  0.128696  0.258005  1
  B  B46  1  0.426504  0.346018  0.056922  1
  B  B47  1  0.923395  0.856948  0.890319  1
  B  B48  1  0.076605  0.143052  0.109681  1
  B  B49  1  0.429640  0.185389  0.717757  1
  B  B50  1  0.929640  0.685389  0.782243  1
  B  B51  1  0.076605  0.356948  0.609681  1
  B  B52  1  0.573496  0.653982  0.943078  1
  B  B53  1  0.439801  0.677635  0.531942  1
  B  B54  1  0.573496  0.846018  0.443078  1
  B  B55  1  0.068710  0.628696  0.241995  1
  B  B56  1  0.431290  0.871304  0.741995  1
  B  B57  1  0.560199  0.177635  0.968058  1
  B  B58  1  0.431290  0.628696  0.241995  1
  B  B59  1  0.077704  0.983064  0.347402  1
  B  B60  1  0.060199  0.677635  0.531942  1
  B  B61  1  0.570360  0.814611  0.282243  1
  B  B62  1  0.077704  0.516936  0.847402  1
  B  B63  1  0.073496  0.153982  0.556922  1
  O  O64  1  0.565783  0.377308  0.548564  1
  O  O65  1  0.521289  0.730353  0.223139  1
  O  O66  1  0.750000  0.643392  0.754645  1
  O  O67  1  0.434704  0.600766  0.781722  1
  O  O68  1  0.565296  0.100766  0.718278  1
  O  O69  1  0.074129  0.234546  0.629068  1
  O  O70  1  0.065772  0.564862  0.163919  1
  O  O71  1  0.465543  0.077091  0.185257  1
  O  O72  1  0.934704  0.100766  0.718278  1
  O  O73  1  0.021289  0.230353  0.276861  1
  O  O74  1  0.021289  0.269647  0.776861  1
  O  O75  1  0.940288  0.068579  0.569409  1
  O  O76  1  0.934217  0.122692  0.048564  1
  O  O77  1  0.434228  0.935138  0.663919  1
  O  O78  1  0.750000  0.856608  0.254645  1
  O  O79  1  0.976205  0.790500  0.521900  1
  O  O80  1  0.065783  0.877308  0.951436  1
  O  O81  1  0.559712  0.431421  0.069409  1
  O  O82  1  0.425871  0.234546  0.629068  1
  O  O83  1  0.250000  0.399007  0.048735  1
  O  O84  1  0.034457  0.077091  0.185257  1
  O  O85  1  0.750000  0.541568  0.158764  1
  O  O86  1  0.523795  0.790500  0.521900  1
  O  O87  1  0.925871  0.765454  0.370932  1
  O  O88  1  0.250000  0.041568  0.341236  1
  O  O89  1  0.434704  0.899234  0.281722  1
  O  O90  1  0.565772  0.064862  0.336081  1
  O  O91  1  0.040791  0.378215  0.403469  1
  O  O92  1  0.425871  0.265454  0.129068  1
  O  O93  1  0.959209  0.621785  0.596531  1
  O  O94  1  0.934704  0.399234  0.218278  1
  O  O95  1  0.750000  0.605240  0.422148  1
  O  O96  1  0.750000  0.302116  0.434420  1
  O  O97  1  0.459209  0.378215  0.403469  1
  O  O98  1  0.040791  0.121785  0.903469  1
  O  O99  1  0.434217  0.877308  0.951436  1
  O  O100  1  0.250000  0.100993  0.548735  1
  O  O101  1  0.250000  0.860571  0.775992  1
  O  O102  1  0.023795  0.290500  0.978100  1
  O  O103  1  0.750000  0.197884  0.934420  1
  O  O104  1  0.925871  0.734546  0.870932  1
  O  O105  1  0.476205  0.209500  0.478100  1
  O  O106  1  0.459209  0.121785  0.903469  1
  O  O107  1  0.440288  0.931421  0.430591  1
  O  O108  1  0.559712  0.068579  0.569409  1
  O  O109  1  0.059712  0.931421  0.430591  1
  O  O110  1  0.934217  0.377308  0.548564  1
  O  O111  1  0.523795  0.709500  0.021900  1
  O  O112  1  0.250000  0.105240  0.077852  1
  O  O113  1  0.065772  0.935138  0.663919  1
  O  O114  1  0.574129  0.734546  0.870932  1
  O  O115  1  0.750000  0.360571  0.724008  1
  O  O116  1  0.440288  0.568579  0.930591  1
  O  O117  1  0.565296  0.399234  0.218278  1
  O  O118  1  0.565783  0.122692  0.048564  1
  O  O119  1  0.750000  0.139429  0.224008  1
  O  O120  1  0.965543  0.922909  0.814743  1
  O  O121  1  0.250000  0.394760  0.577852  1
  O  O122  1  0.250000  0.639429  0.275992  1
  O  O123  1  0.750000  0.899007  0.451265  1
  O  O124  1  0.250000  0.802116  0.065580  1
  O  O125  1  0.074129  0.265454  0.129068  1
  O  O126  1  0.534457  0.577091  0.314743  1
  O  O127  1  0.940288  0.431421  0.069409  1
  O  O128  1  0.750000  0.894760  0.922148  1
  O  O129  1  0.059712  0.568579  0.930591  1
  O  O130  1  0.978711  0.730353  0.223139  1
  O  O131  1  0.034457  0.422909  0.685257  1
  O  O132  1  0.434228  0.564862  0.163919  1
  O  O133  1  0.521289  0.769647  0.723139  1
  O  O134  1  0.565772  0.435138  0.836081  1
  O  O135  1  0.250000  0.356608  0.245355  1
  O  O136  1  0.965543  0.577091  0.314743  1
  O  O137  1  0.976205  0.709500  0.021900  1
  O  O138  1  0.023795  0.209500  0.478100  1
  O  O139  1  0.065296  0.600766  0.781722  1
  O  O140  1  0.250000  0.458432  0.841236  1
  O  O141  1  0.959209  0.878215  0.096531  1
  O  O142  1  0.750000  0.958432  0.658764  1
  O  O143  1  0.978711  0.769647  0.723139  1
  O  O144  1  0.934228  0.064862  0.336081  1
  O  O145  1  0.065783  0.622692  0.451436  1
  O  O146  1  0.540791  0.878215  0.096531  1
  O  O147  1  0.465543  0.422909  0.685257  1
  O  O148  1  0.934228  0.435138  0.836081  1
  O  O149  1  0.540791  0.621785  0.596531  1
  O  O150  1  0.250000  0.143392  0.745355  1
  O  O151  1  0.534457  0.922909  0.814743  1
  O  O152  1  0.250000  0.697884  0.565580  1
  O  O153  1  0.065296  0.899234  0.281722  1
  O  O154  1  0.478711  0.230353  0.276861  1
  O  O155  1  0.434217  0.622692  0.451436  1
  O  O156  1  0.750000  0.600993  0.951265  1
  O  O157  1  0.574129  0.765454  0.370932  1
  O  O158  1  0.476205  0.290500  0.978100  1
  O  O159  1  0.478711  0.269647  0.776861  1
