# generated using pymatgen
data_Li2HN
_symmetry_space_group_name_H-M   'P 1'
_cell_length_a   7.12447174
_cell_length_b   7.12447174
_cell_length_c   7.12447174
_cell_angle_alpha   119.94977163
_cell_angle_beta   89.84727896
_cell_angle_gamma   120.22684779
_symmetry_Int_Tables_number   1
_chemical_formula_structural   Li2HN
_chemical_formula_sum   'Li16 H8 N8'
_cell_volume   255.36305533
_cell_formula_units_Z   8
loop_
 _symmetry_equiv_pos_site_id
 _symmetry_equiv_pos_as_xyz
  1  'x, y, z'
loop_
 _atom_site_type_symbol
 _atom_site_label
 _atom_site_symmetry_multiplicity
 _atom_site_fract_x
 _atom_site_fract_y
 _atom_site_fract_z
 _atom_site_occupancy
  Li  Li0  1  0.987548  0.120294  0.367254  1
  Li  Li1  1  0.753040  0.620294  0.632746  1
  Li  Li2  1  0.493912  0.120306  0.873606  1
  Li  Li3  1  0.246700  0.620306  0.126394  1
  Li  Li4  1  0.264654  0.120480  0.644174  1
  Li  Li5  1  0.476306  0.620480  0.355826  1
  Li  Li6  1  0.870776  0.870581  0.500195  1
  Li  Li7  1  0.370386  0.370581  0.499805  1
  Li  Li8  1  0.021589  0.144619  0.892009  1
  Li  Li9  1  0.252609  0.129580  0.107991  1
  Li  Li10  1  0.021589  0.629580  0.376970  1
  Li  Li11  1  0.252609  0.644619  0.623030  1
  Li  Li12  1  0.719078  0.110900  0.623035  1
  Li  Li13  1  0.487865  0.096043  0.376965  1
  Li  Li14  1  0.719078  0.596043  0.108178  1
  Li  Li15  1  0.487865  0.610900  0.891822  1
  H  H16  1  0.678955  0.979433  0.199522  1
  H  H17  1  0.779911  0.479433  0.800478  1
  H  H18  1  0.960872  0.261437  0.199435  1
  H  H19  1  0.062002  0.761437  0.800565  1
  H  H20  1  0.675498  0.951842  0.887295  1
  H  H21  1  0.064547  0.788203  0.112705  1
  H  H22  1  0.675498  0.288203  0.223656  1
  H  H23  1  0.064547  0.451842  0.776344  1
  N  N24  1  0.601554  0.360212  0.741342  1
  N  N25  1  0.618870  0.860212  0.258658  1
  N  N26  1  0.121561  0.880395  0.741166  1
  N  N27  1  0.139229  0.380395  0.258834  1
  N  N28  1  0.129464  0.339215  0.728605  1
  N  N29  1  0.610610  0.400859  0.271395  1
  N  N30  1  0.129464  0.900859  0.290249  1
  N  N31  1  0.610610  0.839215  0.709751  1
