# generated using pymatgen
data_Ca9LaTi10O30
_symmetry_space_group_name_H-M   'P 1'
_cell_length_a   27.18383132
_cell_length_b   7.74827276
_cell_length_c   9.43014627
_cell_angle_alpha   66.16373136
_cell_angle_beta   54.79435364
_cell_angle_gamma   45.46403575
_symmetry_Int_Tables_number   1
_chemical_formula_structural   Ca9LaTi10O30
_chemical_formula_sum   'Ca18 La2 Ti20 O60'
_cell_volume   1156.84944797
_cell_formula_units_Z   2
loop_
 _symmetry_equiv_pos_site_id
 _symmetry_equiv_pos_as_xyz
  1  'x, y, z'
loop_
 _atom_site_type_symbol
 _atom_site_label
 _atom_site_symmetry_multiplicity
 _atom_site_fract_x
 _atom_site_fract_y
 _atom_site_fract_z
 _atom_site_occupancy
  Ca  Ca0  1  0.139516  0.038856  0.250645  1
  Ca  Ca1  1  0.056730  0.457302  0.749096  1
  Ca  Ca2  1  0.144768  0.539589  0.249337  1
  Ca  Ca3  1  0.338049  0.043818  0.251325  1
  Ca  Ca4  1  0.060689  0.959485  0.749598  1
  Ca  Ca5  1  0.256740  0.457085  0.747889  1
  Ca  Ca6  1  0.344353  0.539602  0.251042  1
  Ca  Ca7  1  0.539811  0.040005  0.250606  1
  Ca  Ca8  1  0.261078  0.959015  0.750440  1
  Ca  Ca9  1  0.455049  0.461715  0.749937  1
  Ca  Ca10  1  0.544524  0.539841  0.250291  1
  Ca  Ca11  1  0.740209  0.039833  0.247617  1
  Ca  Ca12  1  0.654735  0.459586  0.751830  1
  Ca  Ca13  1  0.744644  0.542148  0.249563  1
  Ca  Ca14  1  0.939075  0.041367  0.249846  1
  Ca  Ca15  1  0.660581  0.958380  0.750504  1
  Ca  Ca16  1  0.854760  0.460504  0.751057  1
  Ca  Ca17  1  0.860537  0.960309  0.749392  1
  La  La18  1  0.457112  0.970745  0.749764  1
  La  La19  1  0.944979  0.531302  0.249905  1
  Ti  Ti20  1  0.100721  0.996910  0.997201  1
  Ti  Ti21  1  0.101871  0.498815  0.996549  1
  Ti  Ti22  1  0.298485  0.998971  0.005111  1
  Ti  Ti23  1  0.199686  0.999887  0.501677  1
  Ti  Ti24  1  0.298268  0.504533  0.003472  1
  Ti  Ti25  1  0.199809  0.500534  0.500081  1
  Ti  Ti26  1  0.501173  -0.000089  0.000411  1
  Ti  Ti27  1  0.399632  0.000246  0.495239  1
  Ti  Ti28  1  0.399197  0.504500  0.498125  1
  Ti  Ti29  1  0.500728  0.495342  0.002137  1
  Ti  Ti30  1  0.699976  -0.000051  0.000500  1
  Ti  Ti31  1  0.601882  0.999658  0.496969  1
  Ti  Ti32  1  0.699897  0.499532  0.001323  1
  Ti  Ti33  1  0.601338  0.496646  0.497149  1
  Ti  Ti34  1  0.899585  0.004554  0.997712  1
  Ti  Ti35  1  0.798461  0.004868  0.503425  1
  Ti  Ti36  1  0.899665  0.501744  0.995293  1
  Ti  Ti37  1  0.798455  0.499140  0.505124  1
  Ti  Ti38  1  0.000635  0.995580  0.501628  1
  Ti  Ti39  1  0.001270  0.499141  0.500427  1
  O  O40  1  0.080218  0.279699  0.040850  1
  O  O41  1  0.069348  0.481391  0.250878  1
  O  O42  1  0.090684  0.217868  0.546754  1
  O  O43  1  0.008477  0.218419  0.957699  1
  O  O44  1  0.004607  0.716953  0.545424  1
  O  O45  1  0.036288  0.988807  0.249928  1
  O  O46  1  0.163050  0.017972  0.749780  1
  O  O47  1  0.195219  0.283226  0.455588  1
  O  O48  1  0.279321  0.279998  0.042483  1
  O  O49  1  0.109165  0.781884  0.455126  1
  O  O50  1  0.191395  0.781617  0.045112  1
  O  O51  1  0.129687  0.521386  0.750094  1
  O  O52  1  0.269843  0.481780  0.250333  1
  O  O53  1  0.208533  0.218552  0.955926  1
  O  O54  1  0.290816  0.216838  0.542779  1
  O  O55  1  0.204423  0.717331  0.544460  1
  O  O56  1  0.123042  0.716472  0.954767  1
  O  O57  1  0.237361  0.980057  0.250185  1
  O  O58  1  0.360908  0.017966  0.749834  1
  O  O59  1  0.395895  0.280386  0.458085  1
  O  O60  1  0.477778  0.281829  0.047329  1
  O  O61  1  0.391577  0.784758  0.042119  1
  O  O62  1  0.309263  0.782570  0.455023  1
  O  O63  1  0.332285  0.510093  0.749570  1
  O  O64  1  0.470369  0.480415  0.249385  1
  O  O65  1  0.492142  0.220569  0.540715  1
  O  O66  1  0.408508  0.220698  0.958958  1
  O  O67  1  0.404202  0.717553  0.543815  1
  O  O68  1  0.321561  0.718168  0.956313  1
  O  O69  1  0.437530  0.978878  0.250576  1
  O  O70  1  0.561625  0.020060  0.750667  1
  O  O71  1  0.596675  0.282071  0.453373  1
  O  O72  1  0.677354  0.283557  0.044823  1
  O  O73  1  0.591242  0.782899  0.045852  1
  O  O74  1  0.508717  0.784023  0.457943  1
  O  O75  1  0.529431  0.519933  0.750060  1
  O  O76  1  0.670835  0.479166  0.249993  1
  O  O77  1  0.690544  0.216658  0.545852  1
  O  O78  1  0.608655  0.216632  0.955218  1
  O  O79  1  0.603928  0.718819  0.545061  1
  O  O80  1  0.521902  0.718805  0.954777  1
  O  O81  1  0.638120  0.979460  0.249781  1
  O  O82  1  0.762227  0.020637  0.749691  1
  O  O83  1  0.794518  0.283842  0.456866  1
  O  O84  1  0.877341  0.283845  0.042509  1
  O  O85  1  0.709017  0.784298  0.455788  1
  O  O86  1  0.791314  0.783853  0.042921  1
  O  O87  1  0.729274  0.520065  0.749840  1
  O  O88  1  0.868224  0.480971  0.249768  1
  O  O89  1  0.891298  0.219357  0.542013  1
  O  O90  1  0.808690  0.216724  0.954001  1
  O  O91  1  0.722067  0.717233  0.955447  1
  O  O92  1  0.805649  0.714703  0.541999  1
  O  O93  1  0.837624  0.979959  0.249719  1
  O  O94  1  0.962257  0.019728  0.750007  1
  O  O95  1  0.996930  0.279032  0.458420  1
  O  O96  1  0.909270  0.781625  0.455161  1
  O  O97  1  0.991267  0.781711  0.045130  1
  O  O98  1  0.929284  0.520867  0.750206  1
  O  O99  1  0.922552  0.714390  0.957988  1
