# generated using pymatgen
data_Gd3CuSiSe7
_symmetry_space_group_name_H-M   'P 1'
_cell_length_a   10.54245375
_cell_length_b   10.54245408
_cell_length_c   6.08864466
_cell_angle_alpha   90.00000000
_cell_angle_beta   90.00000000
_cell_angle_gamma   119.99999896
_symmetry_Int_Tables_number   1
_chemical_formula_structural   Gd3CuSiSe7
_chemical_formula_sum   'Gd6 Cu2 Si2 Se14'
_cell_volume   586.05002354
_cell_formula_units_Z   2
loop_
 _symmetry_equiv_pos_site_id
 _symmetry_equiv_pos_as_xyz
  1  'x, y, z'
loop_
 _atom_site_type_symbol
 _atom_site_label
 _atom_site_symmetry_multiplicity
 _atom_site_fract_x
 _atom_site_fract_y
 _atom_site_fract_z
 _atom_site_occupancy
  Gd  Gd0  1  0.641616  0.771962  0.740220  1
  Gd  Gd1  1  0.771962  0.130345  0.240220  1
  Gd  Gd2  1  0.228038  0.869655  0.740220  1
  Gd  Gd3  1  0.869655  0.641616  0.240220  1
  Gd  Gd4  1  0.130345  0.358384  0.740220  1
  Gd  Gd5  1  0.358384  0.228038  0.240220  1
  Cu  Cu6  1  0.000000  0.000000  0.720856  1
  Cu  Cu7  1  0.000000  0.000000  0.220856  1
  Si  Si8  1  0.666667  0.333333  0.825195  1
  Si  Si9  1  0.333333  0.666667  0.325195  1
  Se  Se10  1  0.101329  0.580487  0.473262  1
  Se  Se11  1  0.666667  0.333333  0.451437  1
  Se  Se12  1  0.259584  0.167799  0.706789  1
  Se  Se13  1  0.520841  0.101329  0.973262  1
  Se  Se14  1  0.167799  0.908215  0.206789  1
  Se  Se15  1  0.908215  0.740416  0.706789  1
  Se  Se16  1  0.740416  0.832201  0.206789  1
  Se  Se17  1  0.898671  0.419513  0.973262  1
  Se  Se18  1  0.091785  0.259584  0.206789  1
  Se  Se19  1  0.832201  0.091785  0.706789  1
  Se  Se20  1  0.479159  0.898671  0.473262  1
  Se  Se21  1  0.333333  0.666667  0.951437  1
  Se  Se22  1  0.419513  0.520841  0.473262  1
  Se  Se23  1  0.580487  0.479159  0.973262  1
