# generated using pymatgen
data_LiMgCr3(SO4)6
_symmetry_space_group_name_H-M   'P 1'
_cell_length_a   8.86981415
_cell_length_b   17.76171798
_cell_length_c   15.70594446
_cell_angle_alpha   28.04791663
_cell_angle_beta   50.56686807
_cell_angle_gamma   55.93033781
_symmetry_Int_Tables_number   1
_chemical_formula_structural   LiMgCr3(SO4)6
_chemical_formula_sum   'Li2 Mg2 Cr6 S12 O48'
_cell_volume   898.62474386
_cell_formula_units_Z   2
loop_
 _symmetry_equiv_pos_site_id
 _symmetry_equiv_pos_as_xyz
  1  'x, y, z'
loop_
 _atom_site_type_symbol
 _atom_site_label
 _atom_site_symmetry_multiplicity
 _atom_site_fract_x
 _atom_site_fract_y
 _atom_site_fract_z
 _atom_site_occupancy
  Li  Li0  1  0.183837  0.336534  0.758592  1
  Li  Li1  1  0.816163  0.663466  0.241408  1
  Mg  Mg2  1  0.359459  0.501137  0.353038  1
  Mg  Mg3  1  0.640541  0.498863  0.646962  1
  Cr  Cr4  1  0.148390  0.994460  0.159066  1
  Cr  Cr5  1  0.357668  0.997429  0.358582  1
  Cr  Cr6  1  0.155666  0.499526  0.149349  1
  Cr  Cr7  1  0.844334  0.500474  0.850651  1
  Cr  Cr8  1  0.642332  0.002571  0.641418  1
  Cr  Cr9  1  0.851610  0.005540  0.840934  1
  S  S10  1  0.041873  0.143324  0.461101  1
  S  S11  1  0.746568  0.209787  0.043066  1
  S  S12  1  0.539404  0.352190  0.252195  1
  S  S13  1  0.042656  0.646377  0.458035  1
  S  S14  1  0.460696  0.142682  0.753922  1
  S  S15  1  0.752539  0.709149  0.039723  1
  S  S16  1  0.247461  0.290851  0.960277  1
  S  S17  1  0.539304  0.857318  0.246078  1
  S  S18  1  0.957344  0.353623  0.541965  1
  S  S19  1  0.460596  0.647810  0.747805  1
  S  S20  1  0.253432  0.790213  0.956934  1
  S  S21  1  0.958127  0.856676  0.538899  1
  O  O22  1  0.299291  0.197868  0.110804  1
  O  O23  1  0.017810  0.312561  0.326120  1
  O  O24  1  0.026668  0.033411  0.650920  1
  O  O25  1  0.238132  0.118057  0.379082  1
  O  O26  1  0.620904  0.067030  0.241526  1
  O  O27  1  0.348998  0.345164  0.280548  1
  O  O28  1  0.718618  0.311023  0.029290  1
  O  O29  1  0.107522  0.391197  0.513147  1
  O  O30  1  0.958037  0.157656  0.013791  1
  O  O31  1  0.296823  0.704117  0.105494  1
  O  O32  1  0.675783  0.465844  0.047972  1
  O  O33  1  0.621028  0.187147  0.383571  1
  O  O34  1  0.012605  0.813910  0.329807  1
  O  O35  1  0.513145  0.403714  0.297961  1
  O  O36  1  0.026178  0.530820  0.655220  1
  O  O37  1  0.240607  0.618085  0.383349  1
  O  O38  1  0.486931  0.097281  0.699886  1
  O  O39  1  0.373868  0.304840  0.629109  1
  O  O40  1  0.327155  0.025350  0.959557  1
  O  O41  1  0.623363  0.572502  0.234784  1
  O  O42  1  0.040961  0.341231  0.990809  1
  O  O43  1  0.891109  0.105882  0.488277  1
  O  O44  1  0.273603  0.189091  0.972246  1
  O  O45  1  0.346994  0.846970  0.281268  1
  O  O46  1  0.653006  0.153030  0.718732  1
  O  O47  1  0.726397  0.810909  0.027754  1
  O  O48  1  0.108891  0.894118  0.511723  1
  O  O49  1  0.959039  0.658769  0.009191  1
  O  O50  1  0.376637  0.427498  0.765216  1
  O  O51  1  0.672845  0.974650  0.040443  1
  O  O52  1  0.626132  0.695160  0.370891  1
  O  O53  1  0.513069  0.902719  0.300114  1
  O  O54  1  0.759393  0.381915  0.616651  1
  O  O55  1  0.973822  0.469180  0.344780  1
  O  O56  1  0.486855  0.596286  0.702039  1
  O  O57  1  0.987395  0.186090  0.670193  1
  O  O58  1  0.378972  0.812852  0.616429  1
  O  O59  1  0.324217  0.534156  0.952028  1
  O  O60  1  0.703177  0.295883  0.894506  1
  O  O61  1  0.041963  0.842344  0.986209  1
  O  O62  1  0.892478  0.608803  0.486853  1
  O  O63  1  0.281382  0.688977  0.970710  1
  O  O64  1  0.651002  0.654836  0.719452  1
  O  O65  1  0.379096  0.932970  0.758474  1
  O  O66  1  0.761868  0.881943  0.620918  1
  O  O67  1  0.973332  0.966589  0.349080  1
  O  O68  1  0.982190  0.687439  0.673880  1
  O  O69  1  0.700709  0.802132  0.889196  1
