# generated using pymatgen
data_Cs3Mo5P7O24
_symmetry_space_group_name_H-M   'P 1'
_cell_length_a   12.54066214
_cell_length_b   12.54066182
_cell_length_c   9.60148312
_cell_angle_alpha   90.00000000
_cell_angle_beta   90.00000000
_cell_angle_gamma   120.00000085
_symmetry_Int_Tables_number   1
_chemical_formula_structural   Cs3Mo5P7O24
_chemical_formula_sum   'Cs6 Mo10 P14 O48'
_cell_volume   1307.70527235
_cell_formula_units_Z   2
loop_
 _symmetry_equiv_pos_site_id
 _symmetry_equiv_pos_as_xyz
  1  'x, y, z'
loop_
 _atom_site_type_symbol
 _atom_site_label
 _atom_site_symmetry_multiplicity
 _atom_site_fract_x
 _atom_site_fract_y
 _atom_site_fract_z
 _atom_site_occupancy
  Cs  Cs0  1  0.605855  0.687346  0.525855  1
  Cs  Cs1  1  0.312654  0.918509  0.525855  1
  Cs  Cs2  1  0.394145  0.081491  0.025855  1
  Cs  Cs3  1  0.687346  0.605855  0.025855  1
  Cs  Cs4  1  0.918509  0.312654  0.025855  1
  Cs  Cs5  1  0.081491  0.394145  0.525855  1
  Mo  Mo6  1  0.193847  0.677552  0.121449  1
  Mo  Mo7  1  0.677552  0.193847  0.621449  1
  Mo  Mo8  1  0.000000  0.000000  0.973267  1
  Mo  Mo9  1  0.516295  0.322448  0.621449  1
  Mo  Mo10  1  0.000000  0.000000  0.473267  1
  Mo  Mo11  1  0.483705  0.806153  0.121449  1
  Mo  Mo12  1  0.666667  0.333333  0.349070  1
  Mo  Mo13  1  0.806153  0.483705  0.621449  1
  Mo  Mo14  1  0.333333  0.666667  0.849070  1
  Mo  Mo15  1  0.322448  0.516295  0.121449  1
  P  P16  1  0.149052  0.230593  0.226975  1
  P  P17  1  0.652825  0.068284  0.296395  1
  P  P18  1  0.415459  0.347175  0.296395  1
  P  P19  1  0.584541  0.931716  0.796395  1
  P  P20  1  0.333333  0.666667  0.299621  1
  P  P21  1  0.666667  0.333333  0.799621  1
  P  P22  1  0.347175  0.415459  0.796395  1
  P  P23  1  0.769407  0.918459  0.226975  1
  P  P24  1  0.931716  0.584541  0.296395  1
  P  P25  1  0.230593  0.149052  0.726975  1
  P  P26  1  0.850948  0.081541  0.726975  1
  P  P27  1  0.918459  0.769407  0.726975  1
  P  P28  1  0.081541  0.850948  0.226975  1
  P  P29  1  0.068284  0.652825  0.796395  1
  O  O30  1  0.342675  0.408035  0.956040  1
  O  O31  1  0.044533  0.760259  0.736262  1
  O  O32  1  0.527759  0.966257  0.238599  1
  O  O33  1  0.073553  0.909038  0.092715  1
  O  O34  1  0.190220  0.825683  0.222614  1
  O  O35  1  0.835485  0.926447  0.092715  1
  O  O36  1  0.090962  0.164515  0.092715  1
  O  O37  1  0.490830  0.806685  0.733872  1
  O  O38  1  0.825683  0.190220  0.722614  1
  O  O39  1  0.458701  0.664852  0.000473  1
  O  O40  1  0.561502  0.033743  0.738599  1
  O  O41  1  0.164515  0.090962  0.592715  1
  O  O42  1  0.174317  0.364536  0.222614  1
  O  O43  1  0.193315  0.684145  0.733872  1
  O  O44  1  0.438498  0.472241  0.238599  1
  O  O45  1  0.806685  0.490830  0.233872  1
  O  O46  1  0.793849  0.335148  0.500473  1
  O  O47  1  0.509170  0.315855  0.233872  1
  O  O48  1  0.169168  0.075987  0.857765  1
  O  O49  1  0.909038  0.073553  0.592715  1
  O  O50  1  0.684145  0.193315  0.233872  1
  O  O51  1  0.591965  0.934640  0.956040  1
  O  O52  1  0.364536  0.174317  0.722614  1
  O  O53  1  0.955467  0.715726  0.236262  1
  O  O54  1  0.966257  0.527759  0.738599  1
  O  O55  1  0.335148  0.793849  0.000473  1
  O  O56  1  0.760259  0.044533  0.236262  1
  O  O57  1  0.033743  0.561502  0.238599  1
  O  O58  1  0.664852  0.458701  0.500473  1
  O  O59  1  0.926447  0.835485  0.592715  1
  O  O60  1  0.934640  0.591965  0.456040  1
  O  O61  1  0.830832  0.906819  0.357765  1
  O  O62  1  0.239741  0.284274  0.736262  1
  O  O63  1  0.657325  0.065360  0.456040  1
  O  O64  1  0.924013  0.093181  0.857765  1
  O  O65  1  0.906819  0.830832  0.857765  1
  O  O66  1  0.809780  0.635464  0.722614  1
  O  O67  1  0.635464  0.809780  0.222614  1
  O  O68  1  0.315855  0.509170  0.733872  1
  O  O69  1  0.472241  0.438498  0.738599  1
  O  O70  1  0.075987  0.169168  0.357765  1
  O  O71  1  0.093181  0.924013  0.357765  1
  O  O72  1  0.065360  0.657325  0.956040  1
  O  O73  1  0.206151  0.541299  0.000473  1
  O  O74  1  0.541299  0.206151  0.500473  1
  O  O75  1  0.284274  0.239741  0.236262  1
  O  O76  1  0.408035  0.342675  0.456040  1
  O  O77  1  0.715726  0.955467  0.736262  1
