# generated using pymatgen
data_TeHO3
_symmetry_space_group_name_H-M   'P 1'
_cell_length_a   8.36586195
_cell_length_b   11.52038885
_cell_length_c   4.98904019
_cell_angle_alpha   90.00000000
_cell_angle_beta   90.07783342
_cell_angle_gamma   90.00000000
_symmetry_Int_Tables_number   1
_chemical_formula_structural   TeHO3
_chemical_formula_sum   'Te8 H8 O24'
_cell_volume   480.83318536
_cell_formula_units_Z   8
loop_
 _symmetry_equiv_pos_site_id
 _symmetry_equiv_pos_as_xyz
  1  'x, y, z'
loop_
 _atom_site_type_symbol
 _atom_site_label
 _atom_site_symmetry_multiplicity
 _atom_site_fract_x
 _atom_site_fract_y
 _atom_site_fract_z
 _atom_site_occupancy
  Te  Te0  1  0.456108  0.614764  0.020489  1
  Te  Te1  1  0.548768  0.387643  0.521655  1
  Te  Te2  1  0.956108  0.885236  0.520489  1
  Te  Te3  1  0.048768  0.112357  0.021655  1
  Te  Te4  1  0.334034  0.901533  0.148823  1
  Te  Te5  1  0.669546  0.097464  0.652532  1
  Te  Te6  1  0.834034  0.598467  0.648823  1
  Te  Te7  1  0.169546  0.402536  0.152532  1
  H  H8  1  0.217771  0.696946  0.752835  1
  H  H9  1  0.685758  0.313513  0.102419  1
  H  H10  1  0.717771  0.803054  0.252835  1
  H  H11  1  0.185758  0.186487  0.602419  1
  H  H12  1  0.483981  0.865868  0.553644  1
  H  H13  1  0.492157  0.125099  0.027227  1
  H  H14  1  0.983981  0.634132  0.053644  1
  H  H15  1  0.992157  0.374901  0.527227  1
  O  O16  1  0.266933  0.565075  0.209925  1
  O  O17  1  0.740035  0.436936  0.709757  1
  O  O18  1  0.766933  0.934925  0.709925  1
  O  O19  1  0.240035  0.063064  0.209757  1
  O  O20  1  0.414377  0.479591  0.775147  1
  O  O21  1  0.591421  0.520606  0.270232  1
  O  O22  1  0.914377  0.020409  0.275147  1
  O  O23  1  0.091421  0.979394  0.770232  1
  O  O24  1  0.331003  0.717892  0.787049  1
  O  O25  1  0.673252  0.286596  0.288265  1
  O  O26  1  0.831003  0.782108  0.287049  1
  O  O27  1  0.173252  0.213404  0.788265  1
  O  O28  1  0.350844  0.333996  0.342510  1
  O  O29  1  0.646194  0.667295  0.816514  1
  O  O30  1  0.850844  0.166004  0.842510  1
  O  O31  1  0.146194  0.832705  0.316514  1
  O  O32  1  0.441804  0.941247  0.488809  1
  O  O33  1  0.555579  0.055342  0.983607  1
  O  O34  1  0.941804  0.558753  0.988809  1
  O  O35  1  0.055579  0.444658  0.483607  1
  O  O36  1  0.488341  0.750529  0.234565  1
  O  O37  1  0.541557  0.254804  0.752052  1
  O  O38  1  0.988341  0.749471  0.734565  1
  O  O39  1  0.041557  0.245196  0.252052  1
