# generated using pymatgen
data_Al2O3
_symmetry_space_group_name_H-M   'P 1'
_cell_length_a   5.60413732
_cell_length_b   5.66580594
_cell_length_c   15.88442721
_cell_angle_alpha   66.27034710
_cell_angle_beta   69.02675382
_cell_angle_gamma   59.30442982
_symmetry_Int_Tables_number   1
_chemical_formula_structural   Al2O3
_chemical_formula_sum   'Al16 O24'
_cell_volume   389.50726059
_cell_formula_units_Z   8
loop_
 _symmetry_equiv_pos_site_id
 _symmetry_equiv_pos_as_xyz
  1  'x, y, z'
loop_
 _atom_site_type_symbol
 _atom_site_label
 _atom_site_symmetry_multiplicity
 _atom_site_fract_x
 _atom_site_fract_y
 _atom_site_fract_z
 _atom_site_occupancy
  Al  Al0  1  0.165939  0.911322  0.134715  1
  Al  Al1  1  0.227058  0.496471  0.018805  1
  Al  Al2  1  0.595131  0.346679  0.162595  1
  Al  Al3  1  0.437660  0.047089  0.524133  1
  Al  Al4  1  0.478818  0.529204  0.329153  1
  Al  Al5  1  0.800280  0.426411  0.470507  1
  Al  Al6  1  0.058339  0.237561  0.288673  1
  Al  Al7  1  0.691769  0.900441  0.326721  1
  Al  Al8  1  0.223641  0.140404  0.841556  1
  Al  Al9  1  0.334395  0.546290  0.663650  1
  Al  Al10  1  0.379034  0.610255  0.829451  1
  Al  Al11  1  0.092749  0.768116  0.490110  1
  Al  Al12  1  0.890857  0.434928  0.648486  1
  Al  Al13  1  0.782657  0.941754  0.790563  1
  Al  Al14  1  0.770632  0.508179  0.975745  1
  Al  Al15  1  0.715395  0.995829  0.998346  1
  O  O16  1  0.357453  0.118628  0.068671  1
  O  O17  1  0.421155  0.118251  0.248800  1
  O  O18  1  0.357031  0.607109  0.077256  1
  O  O19  1  0.843335  0.126278  0.074264  1
  O  O20  1  0.371833  0.629849  0.224794  1
  O  O21  1  0.504417  0.176202  0.396499  1
  O  O22  1  0.904903  0.110611  0.234071  1
  O  O23  1  0.212760  0.368177  0.558317  1
  O  O24  1  0.469858  0.666464  0.416052  1
  O  O25  1  0.849426  0.599822  0.061095  1
  O  O26  1  0.813219  0.594301  0.271749  1
  O  O27  1  0.976920  0.142235  0.416540  1
  O  O28  1  0.238702  0.843201  0.562580  1
  O  O29  1  0.091738  0.381703  0.730851  1
  O  O30  1  0.698344  0.357660  0.593978  1
  O  O31  1  0.131121  0.402608  0.899270  1
  O  O32  1  0.143540  0.813062  0.740516  1
  O  O33  1  0.958820  0.674837  0.408200  1
  O  O34  1  0.746331  0.816706  0.576963  1
  O  O35  1  0.606109  0.351251  0.754199  1
  O  O36  1  0.106833  0.871028  0.920299  1
  O  O37  1  0.589895  0.397188  0.929513  1
  O  O38  1  0.523866  0.878274  0.778780  1
  O  O39  1  0.642239  0.894825  0.913332  1
