# generated using pymatgen
data_Al6B5(O5F)3
_symmetry_space_group_name_H-M   'P 1'
_cell_length_a   8.64915206
_cell_length_b   8.64915206
_cell_length_c   8.26594239
_cell_angle_alpha   90.00000000
_cell_angle_beta   90.00000000
_cell_angle_gamma   119.99999999
_symmetry_Int_Tables_number   1
_chemical_formula_structural   Al6B5(O5F)3
_chemical_formula_sum   'Al12 B10 O30 F6'
_cell_volume   535.51306486
_cell_formula_units_Z   2
loop_
 _symmetry_equiv_pos_site_id
 _symmetry_equiv_pos_as_xyz
  1  'x, y, z'
loop_
 _atom_site_type_symbol
 _atom_site_label
 _atom_site_symmetry_multiplicity
 _atom_site_fract_x
 _atom_site_fract_y
 _atom_site_fract_z
 _atom_site_occupancy
  B  B0  1  0.666667  0.333333  0.447723  1
  B  B1  1  0.333333  0.666667  0.552277  1
  B  B2  1  0.666667  0.333333  0.052277  1
  B  B3  1  0.333333  0.666667  0.947723  1
  B  B4  1  0.002351  0.232797  0.750000  1
  B  B5  1  0.769555  0.002351  0.250000  1
  B  B6  1  0.232797  0.230445  0.250000  1
  B  B7  1  0.767203  0.769555  0.750000  1
  B  B8  1  0.230445  0.997649  0.750000  1
  B  B9  1  0.997649  0.767203  0.250000  1
  O  O10  1  0.411319  0.849431  0.552598  1
  O  O11  1  0.849431  0.438112  0.052598  1
  O  O12  1  0.438112  0.588681  0.552598  1
  O  O13  1  0.561888  0.411319  0.052598  1
  O  O14  1  0.588681  0.150569  0.052598  1
  O  O15  1  0.150569  0.561888  0.552598  1
  O  O16  1  0.814577  0.697432  0.250000  1
  O  O17  1  0.117145  0.814577  0.750000  1
  O  O18  1  0.697432  0.882855  0.750000  1
  O  O19  1  0.185423  0.302568  0.750000  1
  O  O20  1  0.302568  0.117145  0.250000  1
  O  O21  1  0.882855  0.185423  0.250000  1
  O  O22  1  0.849431  0.438112  0.447402  1
  O  O23  1  0.411319  0.849431  0.947402  1
  O  O24  1  0.438112  0.588681  0.947402  1
  O  O25  1  0.561888  0.411319  0.447402  1
  O  O26  1  0.588681  0.150569  0.447402  1
  O  O27  1  0.150569  0.561888  0.947402  1
  O  O28  1  0.195923  0.283916  0.102142  1
  O  O29  1  0.912007  0.195923  0.602142  1
  O  O30  1  0.283916  0.087993  0.602142  1
  O  O31  1  0.716084  0.912007  0.102142  1
  O  O32  1  0.087993  0.804077  0.102142  1
  O  O33  1  0.804077  0.716084  0.602142  1
  O  O34  1  0.804077  0.716084  0.897858  1
  O  O35  1  0.087993  0.804077  0.397858  1
  O  O36  1  0.716084  0.912007  0.397858  1
  O  O37  1  0.283916  0.087993  0.897858  1
  O  O38  1  0.912007  0.195923  0.897858  1
  O  O39  1  0.195923  0.283916  0.397858  1
  F  F40  1  0.889325  0.501688  0.750000  1
  F  F41  1  0.387638  0.889325  0.250000  1
  F  F42  1  0.501688  0.612362  0.250000  1
  F  F43  1  0.498312  0.387638  0.750000  1
  F  F44  1  0.612362  0.110675  0.750000  1
  F  F45  1  0.110675  0.498312  0.250000  1
  Al  Al46  1  0.014460  0.351618  0.425199  1
  Al  Al47  1  0.662841  0.014460  0.925199  1
  Al  Al48  1  0.351618  0.337159  0.925199  1
  Al  Al49  1  0.648382  0.662841  0.425199  1
  Al  Al50  1  0.337159  0.985540  0.425199  1
  Al  Al51  1  0.985540  0.648382  0.925199  1
  Al  Al52  1  0.985540  0.648382  0.574801  1
  Al  Al53  1  0.337159  0.985540  0.074801  1
  Al  Al54  1  0.648382  0.662841  0.074801  1
  Al  Al55  1  0.351618  0.337159  0.574801  1
  Al  Al56  1  0.662841  0.014460  0.574801  1
  Al  Al57  1  0.014460  0.351618  0.074801  1
