# generated using pymatgen
data_RbLiSO4
_symmetry_space_group_name_H-M   'P 1'
_cell_length_a   5.36733148
_cell_length_b   8.89412357
_cell_length_c   9.26906084
_cell_angle_alpha   90.00000000
_cell_angle_beta   89.98929462
_cell_angle_gamma   90.00000000
_symmetry_Int_Tables_number   1
_chemical_formula_structural   RbLiSO4
_chemical_formula_sum   'Rb4 Li4 S4 O16'
_cell_volume   442.48372561
_cell_formula_units_Z   4
loop_
 _symmetry_equiv_pos_site_id
 _symmetry_equiv_pos_as_xyz
  1  'x, y, z'
loop_
 _atom_site_type_symbol
 _atom_site_label
 _atom_site_symmetry_multiplicity
 _atom_site_fract_x
 _atom_site_fract_y
 _atom_site_fract_z
 _atom_site_occupancy
  Li  Li0  1  0.256958  0.678577  0.590297  1
  Li  Li1  1  0.756958  0.821423  0.090297  1
  Li  Li2  1  0.743042  0.321423  0.409703  1
  Li  Li3  1  0.243042  0.178577  0.909703  1
  O  O4  1  0.918389  0.747593  0.547135  1
  O  O5  1  0.418389  0.752407  0.047135  1
  O  O6  1  0.081611  0.252407  0.452865  1
  O  O7  1  0.581611  0.247593  0.952865  1
  O  O8  1  0.856979  0.774542  0.288358  1
  O  O9  1  0.643021  0.274542  0.211642  1
  O  O10  1  0.143021  0.225458  0.711642  1
  O  O11  1  0.356979  0.725458  0.788358  1
  O  O12  1  0.245381  0.959585  0.906258  1
  O  O13  1  0.254619  0.459585  0.593742  1
  O  O14  1  0.754619  0.040415  0.093742  1
  O  O15  1  0.745381  0.540415  0.406258  1
  O  O16  1  0.997641  0.734656  0.950563  1
  O  O17  1  0.502359  0.234656  0.549437  1
  O  O18  1  0.002359  0.265344  0.049437  1
  O  O19  1  0.497641  0.765344  0.450563  1
  S  S20  1  0.754357  0.706426  0.422717  1
  S  S21  1  0.745643  0.206426  0.077283  1
  S  S22  1  0.245643  0.293574  0.577283  1
  S  S23  1  0.254357  0.793574  0.922717  1
  Rb  Rb24  1  0.233716  0.504388  0.224384  1
  Rb  Rb25  1  0.266284  0.004388  0.275616  1
  Rb  Rb26  1  0.766284  0.495612  0.775616  1
  Rb  Rb27  1  0.733716  0.995612  0.724384  1
