# generated using pymatgen
data_Mn2Pt(CO)12
_symmetry_space_group_name_H-M   'P 1'
_cell_length_a   6.69001623
_cell_length_b   7.55675570
_cell_length_c   10.19952703
_cell_angle_alpha   69.88523745
_cell_angle_beta   83.84616786
_cell_angle_gamma   86.10515788
_symmetry_Int_Tables_number   1
_chemical_formula_structural   Mn2Pt(CO)12
_chemical_formula_sum   'Mn2 Pt1 C12 O12'
_cell_volume   481.12789458
_cell_formula_units_Z   1
loop_
 _symmetry_equiv_pos_site_id
 _symmetry_equiv_pos_as_xyz
  1  'x, y, z'
loop_
 _atom_site_type_symbol
 _atom_site_label
 _atom_site_symmetry_multiplicity
 _atom_site_fract_x
 _atom_site_fract_y
 _atom_site_fract_z
 _atom_site_occupancy
  Mn  Mn0  1  0.207286  0.113354  0.730807  1
  Mn  Mn1  1  0.792714  0.886646  0.269193  1
  Pt  Pt2  1  0.000000  0.000000  0.000000  1
  C  C3  1  0.974687  0.252511  0.669704  1
  C  C4  1  0.344598  0.189861  0.559344  1
  C  C5  1  0.421278  0.961441  0.814219  1
  C  C6  1  0.894477  0.250393  0.966817  1
  C  C7  1  0.578722  0.038559  0.185781  1
  C  C8  1  0.655402  0.810139  0.440656  1
  C  C9  1  0.902483  0.091809  0.293021  1
  C  C10  1  0.025313  0.747489  0.330296  1
  C  C11  1  0.105523  0.749607  0.033183  1
  C  C12  1  0.704902  0.693652  0.216949  1
  C  C13  1  0.295098  0.306348  0.783051  1
  C  C14  1  0.097517  0.908191  0.706979  1
  O  O15  1  0.565154  0.762934  0.550068  1
  O  O16  1  0.434846  0.237066  0.449932  1
  O  O17  1  0.970484  0.216133  0.313140  1
  O  O18  1  0.354421  0.426254  0.813112  1
  O  O19  1  0.170160  0.597284  0.054409  1
  O  O20  1  0.559226  0.870420  0.862014  1
  O  O21  1  0.440774  0.129580  0.137986  1
  O  O22  1  0.830679  0.337818  0.627183  1
  O  O23  1  0.029516  0.783867  0.686860  1
  O  O24  1  0.169321  0.662182  0.372817  1
  O  O25  1  0.645579  0.573746  0.186888  1
  O  O26  1  0.829839  0.402716  0.945591  1
