# generated using pymatgen
data_BaCa(CO3)2
_symmetry_space_group_name_H-M   'P 1'
_cell_length_a   5.30128387
_cell_length_b   6.63415126
_cell_length_c   8.25831740
_cell_angle_alpha   105.95121623
_cell_angle_beta   90.00000000
_cell_angle_gamma   90.00000000
_symmetry_Int_Tables_number   1
_chemical_formula_structural   BaCa(CO3)2
_chemical_formula_sum   'Ba2 Ca2 C4 O12'
_cell_volume   279.25791914
_cell_formula_units_Z   2
loop_
 _symmetry_equiv_pos_site_id
 _symmetry_equiv_pos_as_xyz
  1  'x, y, z'
loop_
 _atom_site_type_symbol
 _atom_site_label
 _atom_site_symmetry_multiplicity
 _atom_site_fract_x
 _atom_site_fract_y
 _atom_site_fract_z
 _atom_site_occupancy
  C  C0  1  0.224207  0.747921  0.615160  1
  C  C1  1  0.724207  0.252079  0.384840  1
  C  C2  1  0.725185  0.249174  0.894928  1
  C  C3  1  0.225185  0.750826  0.105072  1
  O  O4  1  0.935041  0.152527  0.394234  1
  O  O5  1  0.435041  0.847473  0.605766  1
  O  O6  1  0.513582  0.152016  0.393903  1
  O  O7  1  0.013582  0.847984  0.606097  1
  O  O8  1  0.224240  0.859587  0.997165  1
  O  O9  1  0.724240  0.140413  0.002835  1
  O  O10  1  0.437631  0.690112  0.155734  1
  O  O11  1  0.937631  0.309888  0.844266  1
  O  O12  1  0.013785  0.690421  0.157294  1
  O  O13  1  0.513785  0.309579  0.842706  1
  O  O14  1  0.723892  0.434248  0.360708  1
  O  O15  1  0.223892  0.565751  0.639292  1
  Ca  Ca16  1  0.224523  0.198854  0.622076  1
  Ca  Ca17  1  0.724523  0.801146  0.377924  1
  Ba  Ba18  1  0.724915  0.713836  0.854967  1
  Ba  Ba19  1  0.224915  0.286164  0.145033  1
