# generated using pymatgen
data_SrCo2Te3(ClO4)2
_symmetry_space_group_name_H-M   'P 1'
_cell_length_a   6.70654805
_cell_length_b   9.17720519
_cell_length_c   18.78078031
_cell_angle_alpha   90.00000000
_cell_angle_beta   94.27816903
_cell_angle_gamma   90.00000000
_symmetry_Int_Tables_number   1
_chemical_formula_structural   SrCo2Te3(ClO4)2
_chemical_formula_sum   'Sr4 Co8 Te12 Cl8 O32'
_cell_volume   1152.68680213
_cell_formula_units_Z   4
loop_
 _symmetry_equiv_pos_site_id
 _symmetry_equiv_pos_as_xyz
  1  'x, y, z'
loop_
 _atom_site_type_symbol
 _atom_site_label
 _atom_site_symmetry_multiplicity
 _atom_site_fract_x
 _atom_site_fract_y
 _atom_site_fract_z
 _atom_site_occupancy
  Sr  Sr0  1  0.257613  0.619457  0.771956  1
  Sr  Sr1  1  0.757613  0.880543  0.271956  1
  Sr  Sr2  1  0.242387  0.119457  0.728044  1
  Sr  Sr3  1  0.742387  0.380543  0.228044  1
  Co  Co4  1  0.870895  0.456725  0.680608  1
  Co  Co5  1  0.613604  0.755515  0.676223  1
  Co  Co6  1  0.629105  0.956725  0.819392  1
  Co  Co7  1  0.113604  0.744485  0.176223  1
  Co  Co8  1  0.886396  0.255515  0.823777  1
  Co  Co9  1  0.370895  0.043275  0.180608  1
  Co  Co10  1  0.386396  0.244485  0.323777  1
  Co  Co11  1  0.129105  0.543275  0.319392  1
  Te  Te12  1  0.110876  0.926689  0.888147  1
  Te  Te13  1  0.610876  0.573311  0.388147  1
  Te  Te14  1  0.889124  0.073311  0.111853  1
  Te  Te15  1  0.771722  0.607739  0.862676  1
  Te  Te16  1  0.728278  0.107739  0.637324  1
  Te  Te17  1  0.228278  0.392261  0.137324  1
  Te  Te18  1  0.442874  0.290013  0.894225  1
  Te  Te19  1  0.389124  0.426689  0.611853  1
  Te  Te20  1  0.557126  0.709987  0.105775  1
  Te  Te21  1  0.942874  0.209987  0.394225  1
  Te  Te22  1  0.057126  0.790013  0.605775  1
  Te  Te23  1  0.271722  0.892261  0.362676  1
  Cl  Cl24  1  0.305854  0.104078  0.052322  1
  Cl  Cl25  1  0.694146  0.895922  0.947678  1
  Cl  Cl26  1  0.805854  0.395922  0.552322  1
  Cl  Cl27  1  0.861815  0.319254  0.952301  1
  Cl  Cl28  1  0.138185  0.680746  0.047699  1
  Cl  Cl29  1  0.194146  0.604078  0.447678  1
  Cl  Cl30  1  0.638185  0.819254  0.547699  1
  Cl  Cl31  1  0.361815  0.180746  0.452301  1
  O  O32  1  0.802991  0.738085  0.161280  1
  O  O33  1  0.182426  0.428623  0.676090  1
  O  O34  1  0.869171  0.232536  0.706237  1
  O  O35  1  0.987154  0.016431  0.359050  1
  O  O36  1  0.197009  0.261915  0.838720  1
  O  O37  1  0.040428  0.730907  0.858702  1
  O  O38  1  0.459572  0.230907  0.641298  1
  O  O39  1  0.087483  0.309748  0.324702  1
  O  O40  1  0.369171  0.267464  0.206237  1
  O  O41  1  0.610399  0.979184  0.703064  1
  O  O42  1  0.317574  0.928623  0.823910  1
  O  O43  1  0.540428  0.769093  0.358702  1
  O  O44  1  0.302991  0.761915  0.661280  1
  O  O45  1  0.959572  0.269093  0.141298  1
  O  O46  1  0.110399  0.520816  0.203064  1
  O  O47  1  0.587483  0.190252  0.824702  1
  O  O48  1  0.574380  0.522771  0.677890  1
  O  O49  1  0.412517  0.809748  0.175298  1
  O  O50  1  0.697009  0.238085  0.338720  1
  O  O51  1  0.512846  0.516431  0.140950  1
  O  O52  1  0.682426  0.071377  0.176090  1
  O  O53  1  0.487154  0.483569  0.859050  1
  O  O54  1  0.074380  0.977229  0.177890  1
  O  O55  1  0.389601  0.020816  0.296936  1
  O  O56  1  0.012846  0.983569  0.640950  1
  O  O57  1  0.630829  0.732536  0.793763  1
  O  O58  1  0.925620  0.022771  0.822110  1
  O  O59  1  0.912517  0.690252  0.675298  1
  O  O60  1  0.425620  0.477229  0.322110  1
  O  O61  1  0.130829  0.767464  0.293763  1
  O  O62  1  0.889601  0.479184  0.796936  1
  O  O63  1  0.817574  0.571377  0.323910  1
