# generated using pymatgen
data_Sb2Se3
_symmetry_space_group_name_H-M   'P 1'
_cell_length_a   3.80835542
_cell_length_b   15.05569916
_cell_length_c   12.82302905
_cell_angle_alpha   90.00000000
_cell_angle_beta   90.00000000
_cell_angle_gamma   90.00000000
_symmetry_Int_Tables_number   1
_chemical_formula_structural   Sb2Se3
_chemical_formula_sum   'Sb8 Se12'
_cell_volume   735.23983186
_cell_formula_units_Z   4
loop_
 _symmetry_equiv_pos_site_id
 _symmetry_equiv_pos_as_xyz
  1  'x, y, z'
loop_
 _atom_site_type_symbol
 _atom_site_label
 _atom_site_symmetry_multiplicity
 _atom_site_fract_x
 _atom_site_fract_y
 _atom_site_fract_z
 _atom_site_occupancy
  Sb  Sb0  1  0.750000  0.738589  0.985115  1
  Sb  Sb1  1  0.750000  0.761411  0.485115  1
  Sb  Sb2  1  0.250000  0.261411  0.014885  1
  Sb  Sb3  1  0.250000  0.238589  0.514885  1
  Sb  Sb4  1  0.750000  0.557274  0.312866  1
  Sb  Sb5  1  0.250000  0.442726  0.687134  1
  Sb  Sb6  1  0.250000  0.057274  0.187134  1
  Sb  Sb7  1  0.750000  0.942726  0.812866  1
  Se  Se8  1  0.750000  0.482634  0.821062  1
  Se  Se9  1  0.750000  0.769967  0.787847  1
  Se  Se10  1  0.250000  0.230033  0.212153  1
  Se  Se11  1  0.250000  0.517366  0.178938  1
  Se  Se12  1  0.750000  0.730033  0.287847  1
  Se  Se13  1  0.250000  0.269967  0.712153  1
  Se  Se14  1  0.750000  0.148276  0.960297  1
  Se  Se15  1  0.250000  0.982634  0.678938  1
  Se  Se16  1  0.750000  0.351724  0.460297  1
  Se  Se17  1  0.750000  0.017366  0.321062  1
  Se  Se18  1  0.250000  0.648276  0.539703  1
  Se  Se19  1  0.250000  0.851724  0.039703  1
