# generated using pymatgen
data_Nb5P3
_symmetry_space_group_name_H-M   'P 1'
_cell_length_a   3.45232352
_cell_length_b   11.56340422
_cell_length_c   25.59404869
_cell_angle_alpha   90.00000000
_cell_angle_beta   90.00000000
_cell_angle_gamma   90.00000000
_symmetry_Int_Tables_number   1
_chemical_formula_structural   Nb5P3
_chemical_formula_sum   'Nb40 P24'
_cell_volume   1021.73009648
_cell_formula_units_Z   8
loop_
 _symmetry_equiv_pos_site_id
 _symmetry_equiv_pos_as_xyz
  1  'x, y, z'
loop_
 _atom_site_type_symbol
 _atom_site_label
 _atom_site_symmetry_multiplicity
 _atom_site_fract_x
 _atom_site_fract_y
 _atom_site_fract_z
 _atom_site_occupancy
  Nb  Nb0  1  0.250000  0.931570  0.601343  1
  Nb  Nb1  1  0.250000  0.344802  0.260033  1
  Nb  Nb2  1  0.750000  0.431570  0.898657  1
  Nb  Nb3  1  0.250000  0.211169  0.624309  1
  Nb  Nb4  1  0.750000  0.068430  0.398657  1
  Nb  Nb5  1  0.250000  0.568430  0.101343  1
  Nb  Nb6  1  0.750000  0.608331  0.000750  1
  Nb  Nb7  1  0.750000  0.379540  0.774190  1
  Nb  Nb8  1  0.250000  0.155198  0.760033  1
  Nb  Nb9  1  0.250000  0.108331  0.499250  1
  Nb  Nb10  1  0.750000  0.057191  0.151756  1
  Nb  Nb11  1  0.750000  0.459161  0.177108  1
  Nb  Nb12  1  0.750000  0.194174  0.045429  1
  Nb  Nb13  1  0.250000  0.942809  0.848244  1
  Nb  Nb14  1  0.250000  0.415726  0.464175  1
  Nb  Nb15  1  0.250000  0.805826  0.954571  1
  Nb  Nb16  1  0.750000  0.343604  0.362620  1
  Nb  Nb17  1  0.750000  0.891669  0.500750  1
  Nb  Nb18  1  0.250000  0.656396  0.637380  1
  Nb  Nb19  1  0.750000  0.040839  0.677108  1
  Nb  Nb20  1  0.750000  0.442809  0.651756  1
  Nb  Nb21  1  0.250000  0.084274  0.964175  1
  Nb  Nb22  1  0.750000  0.584274  0.535825  1
  Nb  Nb23  1  0.250000  0.391669  0.999250  1
  Nb  Nb24  1  0.750000  0.156396  0.862620  1
  Nb  Nb25  1  0.250000  0.620460  0.225810  1
  Nb  Nb26  1  0.750000  0.788831  0.375691  1
  Nb  Nb27  1  0.250000  0.540839  0.822892  1
  Nb  Nb28  1  0.750000  0.844802  0.239967  1
  Nb  Nb29  1  0.750000  0.655198  0.739967  1
  Nb  Nb30  1  0.250000  0.843604  0.137380  1
  Nb  Nb31  1  0.250000  0.288831  0.124309  1
  Nb  Nb32  1  0.750000  0.711169  0.875691  1
  Nb  Nb33  1  0.750000  0.305826  0.545429  1
  Nb  Nb34  1  0.250000  0.879540  0.725810  1
  Nb  Nb35  1  0.250000  0.959161  0.322892  1
  Nb  Nb36  1  0.250000  0.694174  0.454571  1
  Nb  Nb37  1  0.750000  0.120460  0.274190  1
  Nb  Nb38  1  0.250000  0.557191  0.348244  1
  Nb  Nb39  1  0.750000  0.915726  0.035825  1
  P  P40  1  0.750000  0.250661  0.950975  1
  P  P41  1  0.750000  0.500359  0.280245  1
  P  P42  1  0.750000  0.419117  0.072805  1
  P  P43  1  0.250000  0.746409  0.302890  1
  P  P44  1  0.250000  0.052408  0.077045  1
  P  P45  1  0.250000  0.000359  0.219755  1
  P  P46  1  0.750000  0.253591  0.697110  1
  P  P47  1  0.750000  0.246409  0.197110  1
  P  P48  1  0.250000  0.750661  0.549025  1
  P  P49  1  0.750000  0.947592  0.922955  1
  P  P50  1  0.250000  0.753591  0.802890  1
  P  P51  1  0.750000  0.688425  0.158265  1
  P  P52  1  0.250000  0.580883  0.927195  1
  P  P53  1  0.750000  0.249339  0.450975  1
  P  P54  1  0.250000  0.919117  0.427195  1
  P  P55  1  0.250000  0.447592  0.577045  1
  P  P56  1  0.750000  0.811575  0.658265  1
  P  P57  1  0.250000  0.188425  0.341735  1
  P  P58  1  0.750000  0.080883  0.572805  1
  P  P59  1  0.250000  0.499641  0.719755  1
  P  P60  1  0.750000  0.999641  0.780245  1
  P  P61  1  0.250000  0.311575  0.841735  1
  P  P62  1  0.750000  0.552408  0.422955  1
  P  P63  1  0.250000  0.749339  0.049025  1
