# generated using pymatgen
data_NaPO3
_symmetry_space_group_name_H-M   'P 1'
_cell_length_a   6.33173026
_cell_length_b   9.96281467
_cell_length_c   9.96281521
_cell_angle_alpha   84.20459105
_cell_angle_beta   71.47199724
_cell_angle_gamma   71.47199784
_symmetry_Int_Tables_number   1
_chemical_formula_structural   NaPO3
_chemical_formula_sum   'Na8 P8 O24'
_cell_volume   565.01183527
_cell_formula_units_Z   8
loop_
 _symmetry_equiv_pos_site_id
 _symmetry_equiv_pos_as_xyz
  1  'x, y, z'
loop_
 _atom_site_type_symbol
 _atom_site_label
 _atom_site_symmetry_multiplicity
 _atom_site_fract_x
 _atom_site_fract_y
 _atom_site_fract_z
 _atom_site_occupancy
  Na  Na0  1  0.490831  0.254889  0.560534  1
  Na  Na1  1  0.754280  0.439466  0.754889  1
  Na  Na2  1  0.948635  0.060534  0.745111  1
  Na  Na3  1  0.051365  0.939466  0.254889  1
  Na  Na4  1  0.245720  0.560534  0.245111  1
  Na  Na5  1  0.306254  0.245111  0.939466  1
  Na  Na6  1  0.693746  0.754889  0.060534  1
  Na  Na7  1  0.509169  0.745111  0.439466  1
  P  P8  1  0.564354  0.930070  0.713417  1
  P  P9  1  0.994424  0.713417  0.569930  1
  P  P10  1  0.722229  0.213417  0.069930  1
  P  P11  1  0.277771  0.786583  0.930070  1
  P  P12  1  0.207841  0.569930  0.786583  1
  P  P13  1  0.005576  0.286583  0.430070  1
  P  P14  1  0.792159  0.430070  0.213417  1
  P  P15  1  0.435646  0.069930  0.286583  1
  O  O16  1  0.476878  0.919511  0.248210  1
  O  O17  1  0.896389  0.248210  0.580489  1
  O  O18  1  0.355401  0.419511  0.748210  1
  O  O19  1  0.934376  0.115433  0.100778  1
  O  O20  1  0.549809  0.100778  0.384567  1
  O  O21  1  0.150587  0.384567  0.399222  1
  O  O22  1  0.631494  0.362623  0.157973  1
  O  O23  1  0.103611  0.751790  0.419511  1
  O  O24  1  0.368506  0.637377  0.842027  1
  O  O25  1  0.450191  0.899222  0.615433  1
  O  O26  1  0.274911  0.748210  0.080489  1
  O  O27  1  0.152090  0.137377  0.342027  1
  O  O28  1  0.964846  0.600778  0.884567  1
  O  O29  1  0.849413  0.615433  0.600778  1
  O  O30  1  0.725089  0.251790  0.919511  1
  O  O31  1  0.505883  0.842027  0.862623  1
  O  O32  1  0.210533  0.657973  0.637377  1
  O  O33  1  0.065624  0.884567  0.899222  1
  O  O34  1  0.523122  0.080489  0.751790  1
  O  O35  1  0.644599  0.580489  0.251790  1
  O  O36  1  0.494117  0.157973  0.137377  1
  O  O37  1  0.035154  0.399222  0.115433  1
  O  O38  1  0.789467  0.342027  0.362623  1
  O  O39  1  0.847910  0.862623  0.657973  1
