# generated using pymatgen
data_Lu2Si5Ru3
_symmetry_space_group_name_H-M   'P 1'
_cell_length_a   5.56065635
_cell_length_b   10.70603213
_cell_length_c   10.70603213
_cell_angle_alpha   90.00000000
_cell_angle_beta   90.00000000
_cell_angle_gamma   90.00000000
_symmetry_Int_Tables_number   1
_chemical_formula_structural   Lu2Si5Ru3
_chemical_formula_sum   'Lu8 Si20 Ru12'
_cell_volume   637.35755953
_cell_formula_units_Z   4
loop_
 _symmetry_equiv_pos_site_id
 _symmetry_equiv_pos_as_xyz
  1  'x, y, z'
loop_
 _atom_site_type_symbol
 _atom_site_label
 _atom_site_symmetry_multiplicity
 _atom_site_fract_x
 _atom_site_fract_y
 _atom_site_fract_z
 _atom_site_occupancy
  Lu  Lu0  1  0.000000  0.236423  0.929732  1
  Lu  Lu1  1  0.500000  0.429732  0.736423  1
  Lu  Lu2  1  0.000000  0.929732  0.763577  1
  Lu  Lu3  1  0.500000  0.263577  0.429732  1
  Lu  Lu4  1  0.000000  0.070268  0.236423  1
  Lu  Lu5  1  0.500000  0.736423  0.570268  1
  Lu  Lu6  1  0.500000  0.570268  0.263577  1
  Lu  Lu7  1  0.000000  0.763577  0.070268  1
  Si  Si8  1  0.750000  0.174772  0.674772  1
  Si  Si9  1  0.250000  0.325228  0.174772  1
  Si  Si10  1  0.250000  0.825228  0.325228  1
  Si  Si11  1  0.000000  0.474066  0.819318  1
  Si  Si12  1  0.500000  0.025934  0.319318  1
  Si  Si13  1  0.740980  0.500000  0.500000  1
  Si  Si14  1  0.000000  0.819318  0.525934  1
  Si  Si15  1  0.259020  0.500000  0.500000  1
  Si  Si16  1  0.500000  0.974066  0.680682  1
  Si  Si17  1  0.750000  0.325228  0.174772  1
  Si  Si18  1  0.500000  0.319318  0.974066  1
  Si  Si19  1  0.000000  0.525934  0.180682  1
  Si  Si20  1  0.000000  0.180682  0.474066  1
  Si  Si21  1  0.240980  0.000000  0.000000  1
  Si  Si22  1  0.250000  0.674772  0.825228  1
  Si  Si23  1  0.500000  0.680682  0.025934  1
  Si  Si24  1  0.750000  0.674772  0.825228  1
  Si  Si25  1  0.759020  0.000000  0.000000  1
  Si  Si26  1  0.750000  0.825228  0.325228  1
  Si  Si27  1  0.250000  0.174772  0.674772  1
  Ru  Ru28  1  0.000000  0.356786  0.624640  1
  Ru  Ru29  1  0.500000  0.143214  0.124640  1
  Ru  Ru30  1  0.500000  0.124640  0.856786  1
  Ru  Ru31  1  0.000000  0.643214  0.375360  1
  Ru  Ru32  1  0.750000  0.000000  0.500000  1
  Ru  Ru33  1  0.000000  0.624640  0.643214  1
  Ru  Ru34  1  0.250000  0.000000  0.500000  1
  Ru  Ru35  1  0.000000  0.375360  0.356786  1
  Ru  Ru36  1  0.500000  0.856786  0.875360  1
  Ru  Ru37  1  0.750000  0.500000  0.000000  1
  Ru  Ru38  1  0.500000  0.875360  0.143214  1
  Ru  Ru39  1  0.250000  0.500000  0.000000  1
