# generated using pymatgen
data_RbCoH24(C7N4)2
_symmetry_space_group_name_H-M   'P 1'
_cell_length_a   8.84474181
_cell_length_b   8.84474181
_cell_length_c   8.84474181
_cell_angle_alpha   119.39169228
_cell_angle_beta   119.39169228
_cell_angle_gamma   91.05688918
_symmetry_Int_Tables_number   1
_chemical_formula_structural   RbCoH24(C7N4)2
_chemical_formula_sum   'Rb1 Co1 H24 C14 N8'
_cell_volume   493.66849603
_cell_formula_units_Z   1
loop_
 _symmetry_equiv_pos_site_id
 _symmetry_equiv_pos_as_xyz
  1  'x, y, z'
loop_
 _atom_site_type_symbol
 _atom_site_label
 _atom_site_symmetry_multiplicity
 _atom_site_fract_x
 _atom_site_fract_y
 _atom_site_fract_z
 _atom_site_occupancy
  Rb  Rb0  1  0.500000  0.500000  0.000000  1
  Co  Co1  1  0.000000  0.000000  0.000000  1
  H  H2  1  0.021062  0.340112  0.776744  1
  H  H3  1  0.563368  0.244318  0.223256  1
  H  H4  1  0.244318  0.021062  0.680950  1
  H  H5  1  0.340112  0.563368  0.319050  1
  H  H6  1  0.978938  0.659888  0.223256  1
  H  H7  1  0.436632  0.755682  0.776744  1
  H  H8  1  0.755682  0.978938  0.319050  1
  H  H9  1  0.659888  0.436632  0.680950  1
  H  H10  1  0.006749  0.445606  0.644528  1
  H  H11  1  0.801077  0.362221  0.355472  1
  H  H12  1  0.362221  0.006749  0.561144  1
  H  H13  1  0.445606  0.801077  0.438856  1
  H  H14  1  0.993251  0.554394  0.355472  1
  H  H15  1  0.198923  0.637779  0.644528  1
  H  H16  1  0.637779  0.993251  0.438856  1
  H  H17  1  0.554394  0.198923  0.561144  1
  H  H18  1  0.916357  0.513430  0.799758  1
  H  H19  1  0.713672  0.116599  0.200242  1
  H  H20  1  0.116599  0.916357  0.402927  1
  H  H21  1  0.513430  0.713672  0.597073  1
  H  H22  1  0.083643  0.486570  0.200242  1
  H  H23  1  0.286328  0.883401  0.799758  1
  H  H24  1  0.883401  0.083643  0.597073  1
  H  H25  1  0.486570  0.286328  0.402927  1
  C  C26  1  0.848454  0.848454  0.000000  1
  C  C27  1  0.151546  0.151546  0.000000  1
  C  C28  1  0.168513  0.872111  0.040624  1
  C  C29  1  0.831487  0.127889  0.959376  1
  C  C30  1  0.127889  0.168513  0.296402  1
  C  C31  1  0.872111  0.831487  0.703598  1
  C  C32  1  0.937107  0.397866  0.694191  1
  C  C33  1  0.703675  0.242916  0.305809  1
  C  C34  1  0.242916  0.937107  0.539241  1
  C  C35  1  0.397866  0.703675  0.460759  1
  C  C36  1  0.062893  0.602134  0.305809  1
  C  C37  1  0.296325  0.757084  0.694191  1
  C  C38  1  0.757084  0.062893  0.460759  1
  C  C39  1  0.602134  0.296325  0.539241  1
  N  N40  1  0.753658  0.753658  0.000000  1
  N  N41  1  0.246342  0.246342  0.000000  1
  N  N42  1  0.272013  0.790918  0.062932  1
  N  N43  1  0.727987  0.209082  0.937068  1
  N  N44  1  0.209082  0.272013  0.481095  1
  N  N45  1  0.790918  0.727987  0.518905  1
  N  N46  1  0.750000  0.250000  0.500000  1
  N  N47  1  0.250000  0.750000  0.500000  1
