# generated using pymatgen
data_Te2W3(CO)15
_symmetry_space_group_name_H-M   'P 1'
_cell_length_a   11.02266619
_cell_length_b   11.02266619
_cell_length_c   21.56623649
_cell_angle_alpha   90.00000000
_cell_angle_beta   90.00000000
_cell_angle_gamma   90.00000000
_symmetry_Int_Tables_number   1
_chemical_formula_structural   Te2W3(CO)15
_chemical_formula_sum   'Te8 W12 C60 O60'
_cell_volume   2620.27983218
_cell_formula_units_Z   4
loop_
 _symmetry_equiv_pos_site_id
 _symmetry_equiv_pos_as_xyz
  1  'x, y, z'
loop_
 _atom_site_type_symbol
 _atom_site_label
 _atom_site_symmetry_multiplicity
 _atom_site_fract_x
 _atom_site_fract_y
 _atom_site_fract_z
 _atom_site_occupancy
  Te  Te0  1  0.036204  0.118053  0.782283  1
  Te  Te1  1  0.536204  0.381947  0.967717  1
  Te  Te2  1  0.118053  0.036204  0.217717  1
  Te  Te3  1  0.963796  0.881947  0.282283  1
  Te  Te4  1  0.881947  0.963796  0.717717  1
  Te  Te5  1  0.381947  0.536204  0.032283  1
  Te  Te6  1  0.463796  0.618053  0.467717  1
  Te  Te7  1  0.618053  0.463796  0.532283  1
  W  W8  1  0.813423  0.779838  0.802474  1
  W  W9  1  0.720162  0.313423  0.052474  1
  W  W10  1  0.779838  0.813423  0.197526  1
  W  W11  1  0.279838  0.686577  0.552474  1
  W  W12  1  0.211506  0.788494  0.250000  1
  W  W13  1  0.686577  0.279838  0.447526  1
  W  W14  1  0.711506  0.711506  0.500000  1
  W  W15  1  0.220162  0.186577  0.697526  1
  W  W16  1  0.186577  0.220162  0.302474  1
  W  W17  1  0.788494  0.211506  0.750000  1
  W  W18  1  0.288494  0.288494  0.000000  1
  W  W19  1  0.313423  0.720162  0.947526  1
  C  C20  1  0.724709  0.149812  0.835057  1
  C  C21  1  0.843518  0.843518  0.500000  1
  C  C22  1  0.112338  0.648424  0.292293  1
  C  C23  1  0.165430  0.714087  0.477731  1
  C  C24  1  0.268721  0.860738  0.891052  1
  C  C25  1  0.275291  0.850188  0.335057  1
  C  C26  1  0.231279  0.360738  0.358948  1
  C  C27  1  0.149812  0.724709  0.164943  1
  C  C28  1  0.661642  0.133821  0.052076  1
  C  C29  1  0.860738  0.268721  0.108948  1
  C  C30  1  0.148424  0.387662  0.042293  1
  C  C31  1  0.768721  0.639262  0.858948  1
  C  C32  1  0.224709  0.350188  0.914943  1
  C  C33  1  0.133821  0.661642  0.947924  1
  C  C34  1  0.214087  0.334570  0.227731  1
  C  C35  1  0.156482  0.156482  0.000000  1
  C  C36  1  0.725357  0.994436  0.200345  1
  C  C37  1  0.351576  0.887662  0.207707  1
  C  C38  1  0.145576  0.118048  0.381581  1
  C  C39  1  0.360738  0.231279  0.641052  1
  C  C40  1  0.343518  0.656482  0.250000  1
  C  C41  1  0.354424  0.618048  0.868419  1
  C  C42  1  0.665430  0.785913  0.272269  1
  C  C43  1  0.618048  0.354424  0.131581  1
  C  C44  1  0.866179  0.338358  0.447924  1
  C  C45  1  0.612338  0.851576  0.457707  1
  C  C46  1  0.387662  0.148424  0.957707  1
  C  C47  1  0.854424  0.881952  0.881581  1
  C  C48  1  0.494436  0.774643  0.950345  1
  C  C49  1  0.656482  0.343518  0.750000  1
  C  C50  1  0.338358  0.866179  0.552076  1
  C  C51  1  0.285913  0.834570  0.022269  1
  C  C52  1  0.851576  0.612338  0.542293  1
  C  C53  1  0.881952  0.854424  0.118419  1
  C  C54  1  0.366179  0.161642  0.302076  1
  C  C55  1  0.645576  0.381952  0.368419  1
  C  C56  1  0.350188  0.224709  0.085057  1
  C  C57  1  0.648424  0.112338  0.707707  1
  C  C58  1  0.994436  0.725357  0.799655  1
  C  C59  1  0.334570  0.214087  0.772269  1
  C  C60  1  0.639262  0.768721  0.141052  1
  C  C61  1  0.850188  0.275291  0.664943  1
  C  C62  1  0.775291  0.649812  0.414943  1
  C  C63  1  0.161642  0.366179  0.697924  1
  C  C64  1  0.505564  0.225357  0.450345  1
  C  C65  1  0.785913  0.665430  0.727731  1
  C  C66  1  0.274643  0.005564  0.700345  1
  C  C67  1  0.774643  0.494436  0.049655  1
  C  C68  1  0.005564  0.274643  0.299655  1
  C  C69  1  0.714087  0.165430  0.522269  1
  C  C70  1  0.633821  0.838358  0.802076  1
  C  C71  1  0.731279  0.139262  0.391052  1
  C  C72  1  0.649812  0.775291  0.585057  1
  C  C73  1  0.225357  0.505564  0.549655  1
  C  C74  1  0.887662  0.351576  0.792293  1
  C  C75  1  0.139262  0.731279  0.608948  1
  C  C76  1  0.834570  0.285913  0.977731  1
  C  C77  1  0.118048  0.145576  0.618419  1
  C  C78  1  0.838358  0.633821  0.197924  1
  C  C79  1  0.381952  0.645576  0.631581  1
  O  O80  1  0.185079  0.381501  0.867822  1
  O  O81  1  0.618599  0.434317  0.323795  1
  O  O82  1  0.618499  0.814921  0.632178  1
  O  O83  1  0.871129  0.533495  0.197469  1
  O  O84  1  0.437322  0.066326  0.935951  1
  O  O85  1  0.057726  0.756498  0.641151  1
  O  O86  1  0.933674  0.562678  0.564049  1
  O  O87  1  0.942274  0.243502  0.141151  1
  O  O88  1  0.743502  0.557726  0.891151  1
  O  O89  1  0.305390  0.904805  0.702702  1
  O  O90  1  0.881501  0.314921  0.617822  1
  O  O91  1  0.033495  0.628871  0.947469  1
  O  O92  1  0.934317  0.881401  0.073795  1
  O  O93  1  0.565683  0.381401  0.176205  1
  O  O94  1  0.118599  0.065683  0.426205  1
  O  O95  1  0.095195  0.694610  0.797298  1
  O  O96  1  0.224015  0.405187  0.187683  1
  O  O97  1  0.594813  0.775985  0.312317  1
  O  O98  1  0.256498  0.442274  0.391151  1
  O  O99  1  0.062678  0.566326  0.314049  1
  O  O100  1  0.275985  0.905187  0.062317  1
  O  O101  1  0.562678  0.933674  0.435951  1
  O  O102  1  0.966505  0.371129  0.447469  1
  O  O103  1  0.371129  0.966505  0.552531  1
  O  O104  1  0.314921  0.881501  0.382178  1
  O  O105  1  0.628871  0.033495  0.052531  1
  O  O106  1  0.566326  0.062678  0.685951  1
  O  O107  1  0.417780  0.582220  0.250000  1
  O  O108  1  0.685079  0.118499  0.882178  1
  O  O109  1  0.814921  0.618499  0.367822  1
  O  O110  1  0.405187  0.224015  0.812317  1
  O  O111  1  0.724015  0.094813  0.562317  1
  O  O112  1  0.582220  0.417780  0.750000  1
  O  O113  1  0.118499  0.685079  0.117822  1
  O  O114  1  0.881401  0.934317  0.926205  1
  O  O115  1  0.917780  0.917780  0.500000  1
  O  O116  1  0.904805  0.305390  0.297298  1
  O  O117  1  0.065683  0.118599  0.573795  1
  O  O118  1  0.381501  0.185079  0.132178  1
  O  O119  1  0.905187  0.275985  0.937683  1
  O  O120  1  0.404805  0.194610  0.452702  1
  O  O121  1  0.066326  0.437322  0.064049  1
  O  O122  1  0.775985  0.594813  0.687683  1
  O  O123  1  0.694610  0.095195  0.202702  1
  O  O124  1  0.466505  0.128871  0.302531  1
  O  O125  1  0.595195  0.805390  0.952702  1
  O  O126  1  0.937322  0.433674  0.814049  1
  O  O127  1  0.243502  0.942274  0.858849  1
  O  O128  1  0.128871  0.466505  0.697469  1
  O  O129  1  0.194610  0.404805  0.547298  1
  O  O130  1  0.094813  0.724015  0.437683  1
  O  O131  1  0.082220  0.082220  0.000000  1
  O  O132  1  0.756498  0.057726  0.358849  1
  O  O133  1  0.533495  0.871129  0.802531  1
  O  O134  1  0.442274  0.256498  0.608849  1
  O  O135  1  0.557726  0.743502  0.108849  1
  O  O136  1  0.381401  0.565683  0.823795  1
  O  O137  1  0.805390  0.595195  0.047298  1
  O  O138  1  0.433674  0.937322  0.185951  1
  O  O139  1  0.434317  0.618599  0.676205  1
