# generated using pymatgen
data_BiTeO4
_symmetry_space_group_name_H-M   'P 1'
_cell_length_a   7.68797745
_cell_length_b   7.46432086
_cell_length_c   8.28916864
_cell_angle_alpha   67.91490967
_cell_angle_beta   75.06080482
_cell_angle_gamma   61.44323412
_symmetry_Int_Tables_number   1
_chemical_formula_structural   BiTeO4
_chemical_formula_sum   'Bi4 Te4 O16'
_cell_volume   385.36819726
_cell_formula_units_Z   4
loop_
 _symmetry_equiv_pos_site_id
 _symmetry_equiv_pos_as_xyz
  1  'x, y, z'
loop_
 _atom_site_type_symbol
 _atom_site_label
 _atom_site_symmetry_multiplicity
 _atom_site_fract_x
 _atom_site_fract_y
 _atom_site_fract_z
 _atom_site_occupancy
  Bi  Bi0  1  0.130520  0.721457  0.251946  1
  Bi  Bi1  1  0.033222  0.506279  0.904637  1
  Bi  Bi2  1  0.652492  0.271877  0.224973  1
  Bi  Bi3  1  0.019721  0.226182  0.516111  1
  Te  Te4  1  0.670211  0.075636  0.905659  1
  Te  Te5  1  0.546118  0.785290  0.328555  1
  Te  Te6  1  0.371348  0.313286  0.602153  1
  Te  Te7  1  0.473304  0.731940  0.818777  1
  O  O8  1  0.976495  0.185826  0.156608  1
  O  O9  1  0.706255  0.295449  0.947576  1
  O  O10  1  0.327185  0.026632  0.808355  1
  O  O11  1  0.077496  0.446710  0.652789  1
  O  O12  1  0.470920  0.880808  0.525415  1
  O  O13  1  0.221431  0.375836  0.330198  1
  O  O14  1  0.346552  0.609455  0.454839  1
  O  O15  1  0.415787  0.639296  0.084373  1
  O  O16  1  0.380023  0.359286  0.815606  1
  O  O17  1  0.732372  0.161060  0.660729  1
  O  O18  1  0.721533  0.729065  0.841678  1
  O  O19  1  0.728853  0.934704  0.239524  1
  O  O20  1  0.770221  0.508047  0.365642  1
  O  O21  1  0.070801  0.053979  0.320787  1
  O  O22  1  0.100041  0.798125  0.794279  1
  O  O23  1  0.977297  0.863775  0.948790  1
