# generated using pymatgen
data_Eu(DySe2)2
_symmetry_space_group_name_H-M   'P 1'
_cell_length_a   4.14135001
_cell_length_b   12.52724894
_cell_length_c   14.95765740
_cell_angle_alpha   90.00000000
_cell_angle_beta   90.00000000
_cell_angle_gamma   90.00000000
_symmetry_Int_Tables_number   1
_chemical_formula_structural   Eu(DySe2)2
_chemical_formula_sum   'Eu4 Dy8 Se16'
_cell_volume   775.99911551
_cell_formula_units_Z   4
loop_
 _symmetry_equiv_pos_site_id
 _symmetry_equiv_pos_as_xyz
  1  'x, y, z'
loop_
 _atom_site_type_symbol
 _atom_site_label
 _atom_site_symmetry_multiplicity
 _atom_site_fract_x
 _atom_site_fract_y
 _atom_site_fract_z
 _atom_site_occupancy
  Eu  Eu0  1  0.250000  0.258206  0.835852  1
  Eu  Eu1  1  0.750000  0.241794  0.335852  1
  Eu  Eu2  1  0.250000  0.758206  0.664148  1
  Eu  Eu3  1  0.750000  0.741794  0.164148  1
  Dy  Dy4  1  0.250000  0.918471  0.401271  1
  Dy  Dy5  1  0.750000  0.566692  0.389828  1
  Dy  Dy6  1  0.750000  0.081529  0.598729  1
  Dy  Dy7  1  0.750000  0.581529  0.901271  1
  Dy  Dy8  1  0.250000  0.933308  0.889828  1
  Dy  Dy9  1  0.250000  0.418471  0.098729  1
  Dy  Dy10  1  0.750000  0.066692  0.110172  1
  Dy  Dy11  1  0.250000  0.433308  0.610172  1
  Se  Se12  1  0.250000  0.707475  0.323823  1
  Se  Se13  1  0.250000  0.023777  0.715954  1
  Se  Se14  1  0.250000  0.523777  0.784046  1
  Se  Se15  1  0.250000  0.632792  0.029739  1
  Se  Se16  1  0.750000  0.476223  0.215954  1
  Se  Se17  1  0.750000  0.292525  0.676177  1
  Se  Se18  1  0.750000  0.589287  0.579187  1
  Se  Se19  1  0.750000  0.367208  0.970261  1
  Se  Se20  1  0.750000  0.089287  0.920813  1
  Se  Se21  1  0.250000  0.910713  0.079187  1
  Se  Se22  1  0.250000  0.410713  0.420813  1
  Se  Se23  1  0.750000  0.867208  0.529739  1
  Se  Se24  1  0.250000  0.132792  0.470261  1
  Se  Se25  1  0.750000  0.792525  0.823823  1
  Se  Se26  1  0.750000  0.976223  0.284046  1
  Se  Se27  1  0.250000  0.207475  0.176177  1
