# generated using pymatgen
data_NaCa3SmP3O12F
_symmetry_space_group_name_H-M   'P 1'
_cell_length_a   9.46847434
_cell_length_b   9.47234269
_cell_length_c   13.97739959
_cell_angle_alpha   90.01234790
_cell_angle_beta   90.00222885
_cell_angle_gamma   120.12238406
_symmetry_Int_Tables_number   1
_chemical_formula_structural   NaCa3SmP3O12F
_chemical_formula_sum   'Na4 Ca12 Sm4 P12 O48 F4'
_cell_volume   1084.32008053
_cell_formula_units_Z   4
loop_
 _symmetry_equiv_pos_site_id
 _symmetry_equiv_pos_as_xyz
  1  'x, y, z'
loop_
 _atom_site_type_symbol
 _atom_site_label
 _atom_site_symmetry_multiplicity
 _atom_site_fract_x
 _atom_site_fract_y
 _atom_site_fract_z
 _atom_site_occupancy
  Na  Na0  1  0.336845  0.664703  0.000817  1
  Na  Na1  1  0.336044  0.665670  0.496156  1
  Na  Na2  1  0.668569  0.332594  0.249297  1
  Na  Na3  1  0.665509  0.330561  0.747146  1
  Ca  Ca4  1  0.338875  0.663710  0.249571  1
  Ca  Ca5  1  0.244681  0.259254  0.376750  1
  Ca  Ca6  1  0.243830  0.256855  0.875032  1
  Ca  Ca7  1  0.256034  0.015869  0.623608  1
  Ca  Ca8  1  0.744795  0.991791  0.375325  1
  Ca  Ca9  1  0.746761  0.993364  0.876257  1
  Ca  Ca10  1  0.752008  0.746263  0.126177  1
  Ca  Ca11  1  0.757464  0.749340  0.623279  1
  Ca  Ca12  1  0.665367  0.329483  0.499715  1
  Ca  Ca13  1  0.669514  0.332236  0.000088  1
  Ca  Ca14  1  0.988405  0.244882  0.126317  1
  Ca  Ca15  1  0.988268  0.240391  0.623338  1
  Sm  Sm16  1  0.011291  0.757645  0.377014  1
  Sm  Sm17  1  0.010787  0.759202  0.874554  1
  Sm  Sm18  1  0.338153  0.665318  0.745915  1
  Sm  Sm19  1  0.257020  0.016852  0.126044  1
  P  P20  1  0.025615  0.633445  0.124348  1
  P  P21  1  0.025978  0.631794  0.624865  1
  P  P22  1  0.607192  0.972398  0.124072  1
  P  P23  1  0.604605  0.970798  0.624846  1
  P  P24  1  0.363912  0.391463  0.124058  1
  P  P25  1  0.365809  0.393746  0.624633  1
  P  P26  1  0.635741  0.607060  0.374506  1
  P  P27  1  0.635729  0.605798  0.873910  1
  P  P28  1  0.391772  0.026422  0.374447  1
  P  P29  1  0.392777  0.027489  0.873574  1
  P  P30  1  0.973377  0.365283  0.374238  1
  P  P31  1  0.972506  0.365429  0.873525  1
  O  O32  1  0.086536  0.755842  0.037323  1
  O  O33  1  0.084075  0.750961  0.538377  1
  O  O34  1  0.085430  0.752168  0.213033  1
  O  O35  1  0.090107  0.743537  0.716405  1
  O  O36  1  0.113799  0.534282  0.127058  1
  O  O37  1  0.115138  0.531615  0.627455  1
  O  O38  1  0.309588  0.837276  0.371507  1
  O  O39  1  0.313387  0.837130  0.870666  1
  O  O40  1  0.161122  0.477226  0.372045  1
  O  O41  1  0.161478  0.481174  0.869768  1
  O  O42  1  0.415715  0.887954  0.126603  1
  O  O43  1  0.413695  0.884355  0.627556  1
  O  O44  1  0.247030  0.328924  0.036770  1
  O  O45  1  0.251677  0.334433  0.213888  1
  O  O46  1  0.257285  0.351773  0.716753  1
  O  O47  1  0.248090  0.333671  0.538634  1
  O  O48  1  0.468849  0.579980  0.126484  1
  O  O49  1  0.471032  0.584622  0.626873  1
  O  O50  1  0.528097  0.686535  0.371965  1
  O  O51  1  0.524417  0.682919  0.869647  1
  O  O52  1  0.664847  0.914368  0.036625  1
  O  O53  1  0.659093  0.913264  0.213981  1
  O  O54  1  0.665287  0.914227  0.538526  1
  O  O55  1  0.647951  0.905048  0.716863  1
  O  O56  1  0.329921  0.080643  0.285746  1
  O  O57  1  0.332709  0.082801  0.462201  1
  O  O58  1  0.326376  0.081036  0.789236  1
  O  O59  1  0.333442  0.077549  0.965479  1
  O  O60  1  0.472616  0.310759  0.121854  1
  O  O61  1  0.474396  0.315290  0.623821  1
  O  O62  1  0.532542  0.418855  0.377167  1
  O  O63  1  0.532211  0.418227  0.877721  1
  O  O64  1  0.757796  0.668675  0.288387  1
  O  O65  1  0.752784  0.663669  0.463532  1
  O  O66  1  0.751743  0.665711  0.962783  1
  O  O67  1  0.756876  0.668509  0.787683  1
  O  O68  1  0.579950  0.111829  0.376144  1
  O  O69  1  0.580523  0.112579  0.877670  1
  O  O70  1  0.839423  0.527311  0.121274  1
  O  O71  1  0.839456  0.524232  0.623435  1
  O  O72  1  0.683058  0.160218  0.121760  1
  O  O73  1  0.682586  0.158207  0.623935  1
  O  O74  1  0.889028  0.471912  0.376619  1
  O  O75  1  0.889027  0.472550  0.877013  1
  O  O76  1  0.914918  0.249042  0.287100  1
  O  O77  1  0.915457  0.249319  0.786827  1
  O  O78  1  0.913518  0.254466  0.464427  1
  O  O79  1  0.917422  0.256743  0.964110  1
  F  F80  1  0.001215  0.998719  0.627552  1
  F  F81  1  0.003316  0.997241  0.125863  1
  F  F82  1  0.999560  0.996520  0.375616  1
  F  F83  1  0.999174  0.996993  0.876814  1
