# generated using pymatgen
data_KNa3Al4(SiO4)4
_symmetry_space_group_name_H-M   'P 1'
_cell_length_a   10.17826656
_cell_length_b   10.12572822
_cell_length_c   8.50737671
_cell_angle_alpha   90.18438170
_cell_angle_beta   89.87276240
_cell_angle_gamma   120.37014354
_symmetry_Int_Tables_number   1
_chemical_formula_structural   KNa3Al4(SiO4)4
_chemical_formula_sum   'K2 Na6 Al8 Si8 O32'
_cell_volume   756.47064615
_cell_formula_units_Z   2
loop_
 _symmetry_equiv_pos_site_id
 _symmetry_equiv_pos_as_xyz
  1  'x, y, z'
loop_
 _atom_site_type_symbol
 _atom_site_label
 _atom_site_symmetry_multiplicity
 _atom_site_fract_x
 _atom_site_fract_y
 _atom_site_fract_z
 _atom_site_occupancy
  K  K0  1  0.004941  0.009357  0.987118  1
  K  K1  1  0.001676  0.008478  0.488207  1
  Na  Na2  1  0.995735  0.545916  0.488757  1
  Na  Na3  1  0.565362  0.009046  0.491971  1
  Na  Na4  1  0.439443  0.437118  0.499641  1
  Na  Na5  1  0.552511  0.545528  0.991437  1
  Na  Na6  1  0.448390  0.004548  0.996121  1
  Na  Na7  1  0.999512  0.441288  0.993745  1
  Al  Al8  1  0.090995  0.332349  0.676863  1
  Al  Al9  1  0.335316  0.670797  0.185458  1
  Al  Al10  1  0.333581  0.244415  0.184645  1
  Al  Al11  1  0.334890  0.242068  0.801053  1
  Al  Al12  1  0.667000  0.759805  0.679468  1
  Al  Al13  1  0.669178  0.333442  0.685179  1
  Al  Al14  1  0.904821  0.664973  0.180740  1
  Al  Al15  1  0.759617  0.091604  0.177928  1
  Si  Si16  1  0.238684  0.903850  0.680149  1
  Si  Si17  1  0.236131  0.902708  0.311476  1
  Si  Si18  1  0.093917  0.335387  0.306204  1
  Si  Si19  1  0.330042  0.668177  0.793868  1
  Si  Si20  1  0.665349  0.759433  0.305608  1
  Si  Si21  1  0.666487  0.329020  0.292952  1
  Si  Si22  1  0.908762  0.665610  0.806463  1
  Si  Si23  1  0.760015  0.093489  0.807536  1
  O  O24  1  0.054515  0.780388  0.688134  1
  O  O25  1  0.057030  0.769596  0.312160  1
  O  O26  1  0.278460  0.964829  0.497685  1
  O  O27  1  0.023687  0.324359  0.482652  1
  O  O28  1  0.163042  0.509896  0.240923  1
  O  O29  1  0.169299  0.525115  0.735085  1
  O  O30  1  0.348988  0.839341  0.262574  1
  O  O31  1  0.342636  0.825248  0.714970  1
  O  O32  1  0.333838  0.689375  0.982074  1
  O  O33  1  0.224505  0.286548  0.315162  1
  O  O34  1  0.209600  0.256335  0.672046  1
  O  O35  1  0.474969  0.654456  0.735721  1
  O  O36  1  0.491376  0.653318  0.240489  1
  O  O37  1  0.315095  0.289061  0.993571  1
  O  O38  1  0.713778  0.941003  0.310308  1
  O  O39  1  0.265525  0.044776  0.200924  1
  O  O40  1  0.738067  0.958758  0.684481  1
  O  O41  1  0.284661  0.043087  0.801592  1
  O  O42  1  0.677658  0.706932  0.484483  1
  O  O43  1  0.522116  0.361833  0.740308  1
  O  O44  1  0.525587  0.354042  0.242637  1
  O  O45  1  0.779867  0.736979  0.187026  1
  O  O46  1  0.782874  0.719872  0.800849  1
  O  O47  1  0.673480  0.317061  0.481456  1
  O  O48  1  0.642616  0.169019  0.217416  1
  O  O49  1  0.649564  0.159112  0.753955  1
  O  O50  1  0.828496  0.472544  0.231133  1
  O  O51  1  0.846818  0.493809  0.738901  1
  O  O52  1  0.972324  0.683508  0.985381  1
  O  O53  1  0.711149  0.021145  0.984523  1
  O  O54  1  0.938586  0.230237  0.809320  1
  O  O55  1  0.957434  0.220012  0.185872  1
