# generated using pymatgen
data_GdP5
_symmetry_space_group_name_H-M   'P 1'
_cell_length_a   4.93033728
_cell_length_b   5.40232437
_cell_length_c   9.51641931
_cell_angle_alpha   90.00000000
_cell_angle_beta   90.00000000
_cell_angle_gamma   102.51052463
_symmetry_Int_Tables_number   1
_chemical_formula_structural   GdP5
_chemical_formula_sum   'Gd2 P10'
_cell_volume   247.45411269
_cell_formula_units_Z   2
loop_
 _symmetry_equiv_pos_site_id
 _symmetry_equiv_pos_as_xyz
  1  'x, y, z'
loop_
 _atom_site_type_symbol
 _atom_site_label
 _atom_site_symmetry_multiplicity
 _atom_site_fract_x
 _atom_site_fract_y
 _atom_site_fract_z
 _atom_site_occupancy
  Gd  Gd0  1  0.011464  0.351876  0.250000  1
  Gd  Gd1  1  0.988536  0.648124  0.750000  1
  P  P2  1  0.618164  0.956438  0.408293  1
  P  P3  1  0.284941  0.403616  0.531106  1
  P  P4  1  0.722844  0.099954  0.750000  1
  P  P5  1  0.618164  0.956438  0.091707  1
  P  P6  1  0.715059  0.596384  0.468894  1
  P  P7  1  0.277156  0.900046  0.250000  1
  P  P8  1  0.381836  0.043562  0.591707  1
  P  P9  1  0.284941  0.403616  0.968894  1
  P  P10  1  0.381836  0.043562  0.908293  1
  P  P11  1  0.715059  0.596384  0.031106  1
