# generated using pymatgen
data_SrLaMnMoO6
_symmetry_space_group_name_H-M   'P 1'
_cell_length_a   5.73235255
_cell_length_b   5.77452750
_cell_length_c   8.18486536
_cell_angle_alpha   90.00000000
_cell_angle_beta   89.46716386
_cell_angle_gamma   90.00000000
_symmetry_Int_Tables_number   1
_chemical_formula_structural   SrLaMnMoO6
_chemical_formula_sum   'Sr2 La2 Mn2 Mo2 O12'
_cell_volume   270.92064777
_cell_formula_units_Z   2
loop_
 _symmetry_equiv_pos_site_id
 _symmetry_equiv_pos_as_xyz
  1  'x, y, z'
loop_
 _atom_site_type_symbol
 _atom_site_label
 _atom_site_symmetry_multiplicity
 _atom_site_fract_x
 _atom_site_fract_y
 _atom_site_fract_z
 _atom_site_occupancy
  Sr  Sr0  1  0.993771  0.036083  0.246874  1
  Sr  Sr1  1  0.493771  0.463917  0.746874  1
  La  La2  1  0.509657  0.545663  0.247758  1
  La  La3  1  0.009657  0.954337  0.747758  1
  Mn  Mn4  1  0.000912  0.495393  0.498513  1
  Mn  Mn5  1  0.500912  0.004607  0.998513  1
  Mo  Mo6  1  0.000113  0.498813  0.999323  1
  Mo  Mo7  1  0.500113  0.001187  0.499323  1
  O  O8  1  0.103311  0.477522  0.239526  1
  O  O9  1  0.221772  0.195072  0.548401  1
  O  O10  1  0.192361  0.211306  0.945913  1
  O  O11  1  0.287067  0.731299  0.553150  1
  O  O12  1  0.270449  0.701347  0.960343  1
  O  O13  1  0.420588  0.969432  0.260201  1
  O  O14  1  0.603311  0.022478  0.739526  1
  O  O15  1  0.721772  0.304928  0.048401  1
  O  O16  1  0.692361  0.288694  0.445913  1
  O  O17  1  0.787067  0.768701  0.053150  1
  O  O18  1  0.770449  0.798653  0.460343  1
  O  O19  1  0.920588  0.530568  0.760201  1
