# generated using pymatgen
data_AgCNO
_symmetry_space_group_name_H-M   'P 1'
_cell_length_a   4.53891745
_cell_length_b   5.88415278
_cell_length_c   5.90400519
_cell_angle_alpha   90.00000000
_cell_angle_beta   90.00000000
_cell_angle_gamma   112.68658125
_symmetry_Int_Tables_number   1
_chemical_formula_structural   AgCNO
_chemical_formula_sum   'Ag2 C2 N2 O2'
_cell_volume   145.48217810
_cell_formula_units_Z   2
loop_
 _symmetry_equiv_pos_site_id
 _symmetry_equiv_pos_as_xyz
  1  'x, y, z'
loop_
 _atom_site_type_symbol
 _atom_site_label
 _atom_site_symmetry_multiplicity
 _atom_site_fract_x
 _atom_site_fract_y
 _atom_site_fract_z
 _atom_site_occupancy
  C  C0  1  0.857661  0.715323  0.250000  1
  C  C1  1  0.142339  0.284677  0.750000  1
  N  N2  1  0.251980  0.503960  0.750000  1
  N  N3  1  0.748020  0.496040  0.250000  1
  O  O4  1  0.365347  0.730695  0.750000  1
  O  O5  1  0.634653  0.269305  0.250000  1
  Ag  Ag6  1  0.000000  0.000000  0.500000  1
  Ag  Ag7  1  0.000000  0.000000  0.000000  1
