# generated using pymatgen
data_Na7Ca3Ta7Ti3O30
_symmetry_space_group_name_H-M   'P 1'
_cell_length_a   5.49754578
_cell_length_b   5.57926140
_cell_length_c   38.94192377
_cell_angle_alpha   89.93381309
_cell_angle_beta   90.06465053
_cell_angle_gamma   90.16731167
_symmetry_Int_Tables_number   1
_chemical_formula_structural   Na7Ca3Ta7Ti3O30
_chemical_formula_sum   'Na14 Ca6 Ta14 Ti6 O60'
_cell_volume   1194.42957822
_cell_formula_units_Z   2
loop_
 _symmetry_equiv_pos_site_id
 _symmetry_equiv_pos_as_xyz
  1  'x, y, z'
loop_
 _atom_site_type_symbol
 _atom_site_label
 _atom_site_symmetry_multiplicity
 _atom_site_fract_x
 _atom_site_fract_y
 _atom_site_fract_z
 _atom_site_occupancy
  Na  Na0  1  0.006089  0.966966  0.148899  1
  Na  Na1  1  0.009662  0.977173  0.351948  1
  Na  Na2  1  0.009727  0.977552  0.551910  1
  Na  Na3  1  0.009193  0.978029  0.751982  1
  Na  Na4  1  0.013850  0.974689  0.952791  1
  Na  Na5  1  0.489638  0.478665  0.352329  1
  Na  Na6  1  0.488416  0.478801  0.552336  1
  Na  Na7  1  0.487675  0.479551  0.752513  1
  Na  Na8  1  0.492816  0.476835  0.952773  1
  Na  Na9  1  0.513678  0.525989  0.048799  1
  Na  Na10  1  0.502478  0.525061  0.248322  1
  Na  Na11  1  0.509486  0.529058  0.647631  1
  Na  Na12  1  0.509765  0.528760  0.447519  1
  Na  Na13  1  0.508507  0.529281  0.847830  1
  Ca  Ca14  1  0.478480  0.460150  0.149561  1
  Ca  Ca15  1  0.984916  0.050894  0.247932  1
  Ca  Ca16  1  0.990403  0.046888  0.049067  1
  Ca  Ca17  1  0.990243  0.047747  0.647628  1
  Ca  Ca18  1  0.990293  0.047810  0.447522  1
  Ca  Ca19  1  0.989206  0.048276  0.847827  1
  Ta  Ta20  1  0.998823  0.506337  0.299765  1
  Ta  Ta21  1  0.999216  0.504555  0.500567  1
  Ta  Ta22  1  0.999027  0.504444  0.700869  1
  Ta  Ta23  1  0.999312  0.505088  0.901051  1
  Ta  Ta24  1  0.494529  0.995184  0.099847  1
  Ta  Ta25  1  0.495938  0.001441  0.300672  1
  Ta  Ta26  1  0.505877  0.003917  -0.000179  1
  Ta  Ta27  1  0.497293  0.000058  0.500273  1
  Ta  Ta28  1  0.496655  0.000903  0.900395  1
  Ta  Ta29  1  0.497172  -0.000079  0.700163  1
  Ta  Ta30  1  0.492234  0.994640  0.199603  1
  Ta  Ta31  1  0.497529  0.006168  0.599406  1
  Ta  Ta32  1  0.497021  0.006370  0.399720  1
  Ta  Ta33  1  0.497245  0.006481  0.799459  1
  Ti  Ti34  1  0.012206  0.509446  -0.000206  1
  Ti  Ti35  1  0.992685  0.505699  0.097291  1
  Ti  Ti36  1  0.983977  0.505959  0.197393  1
  Ti  Ti37  1  0.001997  0.517157  0.399366  1
  Ti  Ti38  1  0.002369  0.516784  0.599981  1
  Ti  Ti39  1  0.002004  0.516943  0.800217  1
  O  O40  1  0.073311  0.484975  0.050795  1
  O  O41  1  0.070566  0.478762  0.250275  1
  O  O42  1  0.072790  0.481776  0.450081  1
  O  O43  1  0.072569  0.481698  0.650167  1
  O  O44  1  0.072448  0.482291  0.850280  1
  O  O45  1  0.221600  0.218403  0.192502  1
  O  O46  1  0.220155  0.216670  0.394106  1
  O  O47  1  0.219993  0.216528  0.594231  1
  O  O48  1  0.227581  0.223396  0.107453  1
  O  O49  1  0.216088  0.213063  0.306626  1
  O  O50  1  0.219035  0.216900  0.794362  1
  O  O51  1  0.221811  0.220362  0.994793  1
  O  O52  1  0.216872  0.212763  0.506482  1
  O  O53  1  0.217020  0.213216  0.706665  1
  O  O54  1  0.215384  0.212898  0.906784  1
  O  O55  1  0.287019  0.714691  0.109179  1
  O  O56  1  0.288201  0.710755  0.191098  1
  O  O57  1  0.284830  0.715545  0.307665  1
  O  O58  1  0.276807  0.719224  0.392638  1
  O  O59  1  0.285861  0.714614  0.908475  1
  O  O60  1  0.275946  0.718750  0.592909  1
  O  O61  1  0.284743  0.714922  0.708225  1
  O  O62  1  0.274533  0.719177  0.793125  1
  O  O63  1  0.284511  0.715437  0.508078  1
  O  O64  1  0.275446  0.721489  0.993024  1
  O  O65  1  0.419338  0.981128  0.050416  1
  O  O66  1  0.414381  0.981967  0.249932  1
  O  O67  1  0.418294  0.979598  0.650419  1
  O  O68  1  0.418539  0.979332  0.450256  1
  O  O69  1  0.417544  0.980823  0.850555  1
  O  O70  1  0.573946  0.010848  0.349412  1
  O  O71  1  0.575646  0.017819  0.150107  1
  O  O72  1  0.573577  0.009748  0.549538  1
  O  O73  1  0.572790  0.009221  0.749706  1
  O  O74  1  0.574087  0.013956  0.949748  1
  O  O75  1  0.728993  0.268554  0.009161  1
  O  O76  1  0.729118  0.275646  0.092296  1
  O  O77  1  0.722186  0.274298  0.207514  1
  O  O78  1  0.727913  0.265329  0.608555  1
  O  O79  1  0.721697  0.272317  0.290874  1
  O  O80  1  0.728330  0.265329  0.408359  1
  O  O81  1  0.723923  0.271264  0.490919  1
  O  O82  1  0.726936  0.265848  0.808701  1
  O  O83  1  0.724359  0.271106  0.691109  1
  O  O84  1  0.723381  0.273147  0.891215  1
  O  O85  1  0.790546  0.784801  0.091614  1
  O  O86  1  0.782860  0.778428  0.008549  1
  O  O87  1  0.786923  0.784413  0.208373  1
  O  O88  1  0.782344  0.776025  0.408143  1
  O  O89  1  0.782013  0.775757  0.608411  1
  O  O90  1  0.785320  0.785228  0.290616  1
  O  O91  1  0.786375  0.783227  0.490783  1
  O  O92  1  0.786878  0.783316  0.690927  1
  O  O93  1  0.787214  0.784416  0.891177  1
  O  O94  1  0.780575  0.775723  0.808653  1
  O  O95  1  0.915469  0.513068  0.150813  1
  O  O96  1  0.927020  0.508963  0.349916  1
  O  O97  1  0.926225  0.508044  0.549964  1
  O  O98  1  0.925089  0.508775  0.750123  1
  O  O99  1  0.927424  0.508564  0.950358  1
