# generated using pymatgen
data_ZrAsPd
_symmetry_space_group_name_H-M   'P 1'
_cell_length_a   3.96142076
_cell_length_b   6.77649277
_cell_length_c   19.68646732
_cell_angle_alpha   89.99070572
_cell_angle_beta   89.99996779
_cell_angle_gamma   89.99990198
_symmetry_Int_Tables_number   1
_chemical_formula_structural   ZrAsPd
_chemical_formula_sum   'Zr10 As10 Pd10'
_cell_volume   528.47413557
_cell_formula_units_Z   10
loop_
 _symmetry_equiv_pos_site_id
 _symmetry_equiv_pos_as_xyz
  1  'x, y, z'
loop_
 _atom_site_type_symbol
 _atom_site_label
 _atom_site_symmetry_multiplicity
 _atom_site_fract_x
 _atom_site_fract_y
 _atom_site_fract_z
 _atom_site_occupancy
  Zr  Zr0  1  0.750000  0.031347  0.930684  1
  Zr  Zr1  1  0.250000  0.844961  0.250033  1
  Zr  Zr2  1  0.249999  0.455495  0.127828  1
  Zr  Zr3  1  0.749999  0.544700  0.627884  1
  Zr  Zr4  1  0.750001  0.544596  0.872102  1
  Zr  Zr5  1  0.250000  0.455348  0.372188  1
  Zr  Zr6  1  0.249998  0.968749  0.430828  1
  Zr  Zr7  1  0.750000  0.155005  0.749969  1
  Zr  Zr8  1  0.250001  0.968652  0.069251  1
  Zr  Zr9  1  0.750000  0.031256  0.569238  1
  As  As10  1  0.250000  0.246298  0.651015  1
  As  As11  1  0.750000  0.747134  0.749980  1
  As  As12  1  0.749999  0.753676  0.349023  1
  As  As13  1  0.250000  0.744336  0.552282  1
  As  As14  1  0.749999  0.255617  0.447777  1
  As  As15  1  0.750000  0.255558  0.052210  1
  As  As16  1  0.750000  0.753668  0.151021  1
  As  As17  1  0.250001  0.252897  0.250025  1
  As  As18  1  0.250000  0.744382  0.947724  1
  As  As19  1  0.249999  0.246330  0.848940  1
  Pd  Pd20  1  0.250000  0.880879  0.674083  1
  Pd  Pd21  1  0.750001  0.646127  0.472768  1
  Pd  Pd22  1  0.750001  0.511275  0.250053  1
  Pd  Pd23  1  0.750002  0.646101  0.027224  1
  Pd  Pd24  1  0.249999  0.353879  0.527301  1
  Pd  Pd25  1  0.249999  0.353910  0.972696  1
  Pd  Pd26  1  0.750003  0.119133  0.325956  1
  Pd  Pd27  1  0.750000  0.119167  0.174100  1
  Pd  Pd28  1  0.249999  0.880835  0.825865  1
  Pd  Pd29  1  0.250000  0.488690  0.749954  1
