# generated using pymatgen
data_In3AsSe3
_symmetry_space_group_name_H-M   'P 1'
_cell_length_a   4.24630257
_cell_length_b   34.37823888
_cell_length_c   7.45712155
_cell_angle_alpha   29.81260572
_cell_angle_beta   55.28956761
_cell_angle_gamma   60.39164038
_symmetry_Int_Tables_number   1
_chemical_formula_structural   In3AsSe3
_chemical_formula_sum   'In6 As2 Se6'
_cell_volume   444.89688290
_cell_formula_units_Z   2
loop_
 _symmetry_equiv_pos_site_id
 _symmetry_equiv_pos_as_xyz
  1  'x, y, z'
loop_
 _atom_site_type_symbol
 _atom_site_label
 _atom_site_symmetry_multiplicity
 _atom_site_fract_x
 _atom_site_fract_y
 _atom_site_fract_z
 _atom_site_occupancy
  In  In0  1  0.007770  0.121419  0.006554  1
  In  In1  1  0.007770  0.253581  0.977907  1
  In  In2  1  0.002453  0.493304  0.024333  1
  In  In3  1  0.009536  0.624267  0.993397  1
  In  In4  1  0.009536  0.750733  0.987531  1
  In  In5  1  0.002453  0.881696  0.970761  1
  As  As6  1  0.251371  0.621848  0.261237  1
  As  As7  1  0.251371  0.753152  0.236021  1
  Se  Se8  1  0.255936  0.000865  0.240605  1
  Se  Se9  1  0.238834  0.121449  0.275370  1
  Se  Se10  1  0.238834  0.253551  0.246961  1
  Se  Se11  1  0.255936  0.374135  0.247524  1
  Se  Se12  1  0.234100  0.492000  0.297900  1
  Se  Se13  1  0.234100  0.883000  0.233900  1
