# generated using pymatgen
data_Ca6Al6Si3(HO12)2
_symmetry_space_group_name_H-M   'P 1'
_cell_length_a   7.87667970
_cell_length_b   7.68000680
_cell_length_c   23.02162551
_cell_angle_alpha   108.88217405
_cell_angle_beta   110.03641736
_cell_angle_gamma   109.77020282
_symmetry_Int_Tables_number   1
_chemical_formula_structural   Ca6Al6Si3(HO12)2
_chemical_formula_sum   'Ca12 Al12 Si6 H4 O48'
_cell_volume   1068.31494157
_cell_formula_units_Z   2
loop_
 _symmetry_equiv_pos_site_id
 _symmetry_equiv_pos_as_xyz
  1  'x, y, z'
loop_
 _atom_site_type_symbol
 _atom_site_label
 _atom_site_symmetry_multiplicity
 _atom_site_fract_x
 _atom_site_fract_y
 _atom_site_fract_z
 _atom_site_occupancy
  Ca  Ca0  1  -0.000027  0.005786  0.900769  1
  Ca  Ca1  1  0.013005  0.709521  0.667903  1
  Ca  Ca2  1  0.295797  0.282435  0.761652  1
  Ca  Ca3  1  0.013265  0.708674  0.335845  1
  Ca  Ca4  1  0.003762  0.991496  0.234444  1
  Ca  Ca5  1  0.998810  0.991003  0.566700  1
  Ca  Ca6  1  0.302327  0.294232  0.429662  1
  Ca  Ca7  1  0.689451  0.999710  0.668458  1
  Ca  Ca8  1  0.300324  0.297037  0.097011  1
  Ca  Ca9  1  0.693718  0.003057  0.335897  1
  Ca  Ca10  1  0.712923  0.006835  0.999810  1
  Ca  Ca11  1  0.991250  0.699535  0.997338  1
  Al  Al12  1  0.244291  0.499110  0.917459  1
  Al  Al13  1  0.492986  0.247934  0.913335  1
  Al  Al14  1  0.500535  0.746412  0.753314  1
  Al  Al15  1  0.242333  0.754687  0.499511  1
  Al  Al16  1  0.749158  0.250274  0.833723  1
  Al  Al17  1  0.749355  0.498364  0.749930  1
  Al  Al18  1  0.493875  0.742337  0.417179  1
  Al  Al19  1  0.248488  0.756129  0.166608  1
  Al  Al20  1  0.743500  0.498450  0.416778  1
  Al  Al21  1  0.754035  0.242725  0.500646  1
  Al  Al22  1  0.751250  0.244183  0.166415  1
  Al  Al23  1  0.749071  0.501205  0.081466  1
  Si  Si24  1  0.247405  0.746748  0.832808  1
  Si  Si25  1  0.254331  0.502979  0.583728  1
  Si  Si26  1  0.506147  0.261794  0.583744  1
  Si  Si27  1  0.254230  0.499830  0.249242  1
  Si  Si28  1  0.501047  0.749007  0.084186  1
  Si  Si29  1  0.506987  0.260728  0.250946  1
  H  H30  1  0.654897  0.655054  0.885390  1
  H  H31  1  0.362371  0.009272  0.669691  1
  H  H32  1  0.361499  0.007705  0.335998  1
  H  H33  1  0.349751  0.013638  0.004015  1
  O  O34  1  0.425533  0.985258  0.902054  1
  O  O35  1  0.280018  0.570245  0.853601  1
  O  O36  1  0.976343  0.179518  0.664216  1
  O  O37  1  0.987885  0.002969  0.396236  1
  O  O38  1  0.019102  0.428624  0.573124  1
  O  O39  1  0.275552  0.277432  0.905086  1
  O  O40  1  0.277802  0.716897  0.763089  1
  O  O41  1  0.994383  0.721343  0.478643  1
  O  O42  1  0.431731  0.021573  0.573277  1
  O  O43  1  0.423268  0.705442  0.664235  1
  O  O44  1  0.227809  0.989302  0.663035  1
  O  O45  1  0.720096  0.996787  0.814036  1
  O  O46  1  0.280537  0.567001  0.524834  1
  O  O47  1  0.780863  0.782465  0.926024  1
  O  O48  1  0.980322  0.184563  0.332163  1
  O  O49  1  0.008087  0.010152  0.076357  1
  O  O50  1  0.551639  0.277406  0.848944  1
  O  O51  1  0.018371  0.420408  0.238729  1
  O  O52  1  0.299595  0.298293  0.572736  1
  O  O53  1  0.274078  0.714902  0.425570  1
  O  O54  1  0.557947  0.550904  0.760443  1
  O  O55  1  0.717605  0.272335  0.756893  1
  O  O56  1  0.426742  0.705964  0.329034  1
  O  O57  1  0.436361  0.021526  0.241393  1
  O  O58  1  0.231491  0.994269  0.332467  1
  O  O59  1  0.708786  0.443659  0.662619  1
  O  O60  1  0.719000  0.990626  0.480867  1
  O  O61  1  0.280823  0.564840  0.190654  1
  O  O62  1  0.795311  0.812406  0.605222  1
  O  O63  1  0.006467  0.225707  0.002595  1
  O  O64  1  0.979744  0.992913  0.726757  1
  O  O65  1  0.000278  0.449252  0.907909  1
  O  O66  1  0.012215  0.716702  0.810233  1
  O  O67  1  0.569707  0.286366  0.524683  1
  O  O68  1  0.299499  0.722439  0.095593  1
  O  O69  1  0.547859  0.545530  0.424439  1
  O  O70  1  0.300669  0.296497  0.240113  1
  O  O71  1  0.444563  0.725760  0.005431  1
  O  O72  1  0.712338  0.272848  0.425706  1
  O  O73  1  0.217170  0.997185  0.999146  1
  O  O74  1  0.708862  0.441758  0.330148  1
  O  O75  1  0.708396  0.985561  0.147043  1
  O  O76  1  0.796529  0.813280  0.272308  1
  O  O77  1  0.571828  0.287459  0.192635  1
  O  O78  1  0.562385  0.571540  0.093786  1
  O  O79  1  0.704108  0.274521  0.091978  1
  O  O80  1  0.720089  0.434426  0.997448  1
  O  O81  1  0.001933  0.723328  0.147558  1
