# generated using pymatgen
data_Ce9(Ni13P6)2
_symmetry_space_group_name_H-M   'P 1'
_cell_length_a   14.36983567
_cell_length_b   14.36983533
_cell_length_c   3.84758823
_cell_angle_alpha   90.00000000
_cell_angle_beta   90.00000000
_cell_angle_gamma   120.00000076
_symmetry_Int_Tables_number   1
_chemical_formula_structural   Ce9(Ni13P6)2
_chemical_formula_sum   'Ce9 Ni26 P12'
_cell_volume   688.05445162
_cell_formula_units_Z   1
loop_
 _symmetry_equiv_pos_site_id
 _symmetry_equiv_pos_as_xyz
  1  'x, y, z'
loop_
 _atom_site_type_symbol
 _atom_site_label
 _atom_site_symmetry_multiplicity
 _atom_site_fract_x
 _atom_site_fract_y
 _atom_site_fract_z
 _atom_site_occupancy
  Ce  Ce0  1  0.483460  0.241730  0.500000  1
  Ce  Ce1  1  0.425763  0.574237  0.000000  1
  Ce  Ce2  1  0.148474  0.574237  0.000000  1
  Ce  Ce3  1  0.142180  0.284360  0.000000  1
  Ce  Ce4  1  0.715640  0.857820  0.000000  1
  Ce  Ce5  1  0.142180  0.857820  0.000000  1
  Ce  Ce6  1  0.758270  0.516540  0.500000  1
  Ce  Ce7  1  0.425763  0.851526  0.000000  1
  Ce  Ce8  1  0.758270  0.241730  0.500000  1
  Ni  Ni9  1  0.953805  0.338593  0.000000  1
  Ni  Ni10  1  0.256714  0.043950  0.500000  1
  Ni  Ni11  1  0.056673  0.113346  0.500000  1
  Ni  Ni12  1  0.935663  0.064337  0.000000  1
  Ni  Ni13  1  0.384788  0.338593  0.000000  1
  Ni  Ni14  1  0.661407  0.615212  0.000000  1
  Ni  Ni15  1  0.522754  0.045508  0.500000  1
  Ni  Ni16  1  0.956050  0.743286  0.500000  1
  Ni  Ni17  1  0.128675  0.064337  0.000000  1
  Ni  Ni18  1  0.956050  0.212764  0.500000  1
  Ni  Ni19  1  0.954492  0.477246  0.500000  1
  Ni  Ni20  1  0.056673  0.943327  0.500000  1
  Ni  Ni21  1  0.256714  0.212764  0.500000  1
  Ni  Ni22  1  0.526104  0.763052  0.500000  1
  Ni  Ni23  1  0.522754  0.477246  0.500000  1
  Ni  Ni24  1  0.661407  0.046195  0.000000  1
  Ni  Ni25  1  0.236948  0.763052  0.500000  1
  Ni  Ni26  1  0.787236  0.743286  0.500000  1
  Ni  Ni27  1  0.384788  0.046195  0.000000  1
  Ni  Ni28  1  0.953805  0.615212  0.000000  1
  Ni  Ni29  1  0.935663  0.871325  0.000000  1
  Ni  Ni30  1  0.666667  0.333333  0.000000  1
  Ni  Ni31  1  0.886654  0.943327  0.500000  1
  Ni  Ni32  1  0.787236  0.043950  0.500000  1
  Ni  Ni33  1  0.333333  0.666667  0.500000  1
  Ni  Ni34  1  0.236948  0.473896  0.500000  1
  P  P35  1  0.573949  0.426051  0.000000  1
  P  P36  1  0.848305  0.151695  0.000000  1
  P  P37  1  0.303389  0.151695  0.000000  1
  P  P38  1  0.335885  0.943844  0.500000  1
  P  P39  1  0.573949  0.147897  0.000000  1
  P  P40  1  0.848305  0.696611  0.000000  1
  P  P41  1  0.335885  0.392041  0.500000  1
  P  P42  1  0.607959  0.664115  0.500000  1
  P  P43  1  0.852103  0.426051  0.000000  1
  P  P44  1  0.056156  0.392041  0.500000  1
  P  P45  1  0.056156  0.664115  0.500000  1
  P  P46  1  0.607959  0.943844  0.500000  1
