# generated using pymatgen
data_Ag2H21N7(ClO4)2
_symmetry_space_group_name_H-M   'P 1'
_cell_length_a   8.71417550
_cell_length_b   9.08744311
_cell_length_c   8.18513231
_cell_angle_alpha   86.97894914
_cell_angle_beta   87.57590751
_cell_angle_gamma   116.98043647
_symmetry_Int_Tables_number   1
_chemical_formula_structural   Ag2H21N7(ClO4)2
_chemical_formula_sum   'Ag2 H21 N7 Cl2 O8'
_cell_volume   575.22923683
_cell_formula_units_Z   1
loop_
 _symmetry_equiv_pos_site_id
 _symmetry_equiv_pos_as_xyz
  1  'x, y, z'
loop_
 _atom_site_type_symbol
 _atom_site_label
 _atom_site_symmetry_multiplicity
 _atom_site_fract_x
 _atom_site_fract_y
 _atom_site_fract_z
 _atom_site_occupancy
  Ag  Ag0  1  0.946601  0.961034  0.256464  1
  Ag  Ag1  1  0.948115  0.956853  0.726572  1
  H  H2  1  0.156736  0.770103  0.140570  1
  H  H3  1  0.185351  0.811600  0.334353  1
  H  H4  1  0.163985  0.281479  0.179117  1
  H  H5  1  0.616882  0.877117  0.325828  1
  H  H6  1  0.457151  0.362867  0.597993  1
  H  H7  1  0.255522  0.208565  0.809829  1
  H  H8  1  0.622259  0.784046  0.159804  1
  H  H9  1  0.614955  0.694393  0.344604  1
  H  H10  1  0.268853  0.085855  0.669867  1
  H  H11  1  0.378071  0.114994  0.834109  1
  H  H12  1  0.779781  0.646551  0.814010  1
  H  H13  1  0.783722  0.659656  0.614275  1
  H  H14  1  0.705895  0.370320  0.711996  1
  H  H15  1  0.612536  0.212929  0.588788  1
  H  H16  1  0.030868  0.485072  0.841292  1
  H  H17  1  0.815065  0.490359  0.108714  1
  H  H18  1  0.944547  0.645334  0.704886  1
  H  H19  1  0.694821  0.012902  0.726924  1
  H  H20  1  0.813757  0.157675  0.844645  1
  H  H21  1  0.852235  0.201842  0.644395  1
  H  H22  1  0.123938  0.550055  0.823995  1
  N  N23  1  0.092403  0.753282  0.254269  1
  N  N24  1  0.160829  0.185291  0.255766  1
  N  N25  1  0.335953  0.172308  0.748815  1
  N  N26  1  0.666079  0.805375  0.274727  1
  N  N27  1  0.707947  0.332810  0.595403  1
  N  N28  1  0.861089  0.695773  0.710193  1
  N  N29  1  0.820044  0.109964  0.735992  1
  Cl  Cl30  1  0.464126  0.792258  0.801390  1
  Cl  Cl31  1  0.448063  0.160701  0.275146  1
  O  O32  1  0.521888  0.456400  0.511142  1
  O  O33  1  0.392986  0.065658  0.125926  1
  O  O34  1  0.447972  0.050708  0.424041  1
  O  O35  1  0.713618  0.496314  0.045732  1
  O  O36  1  0.662315  0.374322  0.944341  1
  O  O37  1  0.693736  0.436108  0.481478  1
  O  O38  1  0.026855  0.578969  0.308922  1
  O  O39  1  0.959317  0.480290  0.188088  1
