# generated using pymatgen
data_Tl8Cu4F11
_symmetry_space_group_name_H-M   'P 1'
_cell_length_a   5.16661293
_cell_length_b   19.08278040
_cell_length_c   15.09138181
_cell_angle_alpha   40.89016733
_cell_angle_beta   93.58153989
_cell_angle_gamma   84.91041055
_symmetry_Int_Tables_number   1
_chemical_formula_structural   Tl8Cu4F11
_chemical_formula_sum   'Tl16 Cu8 F22'
_cell_volume   950.82483765
_cell_formula_units_Z   2
loop_
 _symmetry_equiv_pos_site_id
 _symmetry_equiv_pos_as_xyz
  1  'x, y, z'
loop_
 _atom_site_type_symbol
 _atom_site_label
 _atom_site_symmetry_multiplicity
 _atom_site_fract_x
 _atom_site_fract_y
 _atom_site_fract_z
 _atom_site_occupancy
  Tl  Tl0  1  0.129610  0.175859  0.823609  1
  Tl  Tl1  1  0.367518  0.430606  0.865895  1
  Tl  Tl2  1  0.298786  0.726562  0.808177  1
  Tl  Tl3  1  0.145743  0.996212  0.791560  1
  Tl  Tl4  1  0.244945  0.040704  0.360759  1
  Tl  Tl5  1  0.293202  0.354592  0.302825  1
  Tl  Tl6  1  0.365745  0.551129  0.321372  1
  Tl  Tl7  1  0.259618  0.893998  0.166841  1
  Tl  Tl8  1  0.617046  0.182127  0.632227  1
  Tl  Tl9  1  0.771767  0.401939  0.692151  1
  Tl  Tl10  1  0.782317  0.658785  0.674597  1
  Tl  Tl11  1  0.677583  0.935106  0.664009  1
  Tl  Tl12  1  0.634479  0.073409  0.136489  1
  Tl  Tl13  1  0.697293  0.261981  0.211337  1
  Tl  Tl14  1  0.745758  0.610600  0.095404  1
  Tl  Tl15  1  0.841591  0.693401  0.363647  1
  Cu  Cu16  1  0.105033  0.100498  0.540386  1
  Cu  Cu17  1  0.976050  0.391707  0.488777  1
  Cu  Cu18  1  0.320324  0.689693  0.504350  1
  Cu  Cu19  1  0.930439  0.866321  0.443351  1
  Cu  Cu20  1  0.859998  0.001171  0.932801  1
  Cu  Cu21  1  0.989829  0.793181  0.033624  1
  Cu  Cu22  1  0.016810  0.236536  -0.001384  1
  Cu  Cu23  1  0.977227  0.503601  0.002181  1
  F  F24  1  0.262772  0.826158  0.426999  1
  F  F25  1  0.339942  0.695413  0.290478  1
  F  F26  1  0.111820  0.105599  0.063773  1
  F  F27  1  0.144585  0.360274  0.124067  1
  F  F28  1  0.206865  0.735786  0.998098  1
  F  F29  1  0.782197  0.828247  0.098036  1
  F  F30  1  0.118794  0.976408  0.561205  1
  F  F31  1  0.077424  0.257484  0.564545  1
  F  F32  1  0.364766  0.549526  0.596525  1
  F  F33  1  0.333830  0.643987  0.738980  1
  F  F34  1  0.431765  0.133430  0.419200  1
  F  F35  1  0.573926  0.354780  0.586794  1
  F  F36  1  0.542987  0.501829  0.088718  1
  F  F37  1  0.473583  0.284948  0.885407  1
  F  F38  1  0.880384  0.253116  0.373653  1
  F  F39  1  0.895759  0.531874  0.399674  1
  F  F40  1  0.745244  0.863385  0.309372  1
  F  F41  1  0.684846  0.895833  0.502073  1
  F  F42  1  0.903125  0.364987  0.935665  1
  F  F43  1  0.850468  0.652643  0.875002  1
  F  F44  1  0.642324  0.947681  0.821086  1
  F  F45  1  0.583885  0.041892  0.985665  1
