# generated using pymatgen
data_RbEuAsS3
_symmetry_space_group_name_H-M   'P 1'
_cell_length_a   8.40346533
_cell_length_b   8.78349486
_cell_length_c   9.24547729
_cell_angle_alpha   105.44564444
_cell_angle_beta   90.00000000
_cell_angle_gamma   90.00000000
_symmetry_Int_Tables_number   1
_chemical_formula_structural   RbEuAsS3
_chemical_formula_sum   'Rb4 Eu4 As4 S12'
_cell_volume   657.77848824
_cell_formula_units_Z   4
loop_
 _symmetry_equiv_pos_site_id
 _symmetry_equiv_pos_as_xyz
  1  'x, y, z'
loop_
 _atom_site_type_symbol
 _atom_site_label
 _atom_site_symmetry_multiplicity
 _atom_site_fract_x
 _atom_site_fract_y
 _atom_site_fract_z
 _atom_site_occupancy
  Eu  Eu0  1  0.714622  0.969582  0.430739  1
  Eu  Eu1  1  0.785378  0.469582  0.430739  1
  Eu  Eu2  1  0.214622  0.530418  0.569261  1
  Eu  Eu3  1  0.285378  0.030418  0.569261  1
  Rb  Rb4  1  0.926293  0.276911  0.906675  1
  Rb  Rb5  1  0.426293  0.223089  0.093325  1
  Rb  Rb6  1  0.573707  0.776911  0.906675  1
  Rb  Rb7  1  0.073707  0.723089  0.093325  1
  As  As8  1  0.048159  0.146326  0.271773  1
  As  As9  1  0.951841  0.853674  0.728227  1
  As  As10  1  0.451841  0.646326  0.271773  1
  As  As11  1  0.548159  0.353674  0.728227  1
  S  S12  1  0.485377  0.282924  0.474888  1
  S  S13  1  0.410321  0.895549  0.253889  1
  S  S14  1  0.514623  0.717076  0.525112  1
  S  S15  1  0.193712  0.920202  0.832177  1
  S  S16  1  0.306288  0.420202  0.832177  1
  S  S17  1  0.985377  0.217076  0.525112  1
  S  S18  1  0.693712  0.579798  0.167823  1
  S  S19  1  0.014623  0.782924  0.474888  1
  S  S20  1  0.910321  0.604451  0.746111  1
  S  S21  1  0.806288  0.079798  0.167823  1
  S  S22  1  0.589679  0.104451  0.746111  1
  S  S23  1  0.089679  0.395549  0.253889  1
