# generated using pymatgen
data_Yb14Ti10O41
_symmetry_space_group_name_H-M   'P 1'
_cell_length_a   7.16618686
_cell_length_b   7.16618727
_cell_length_c   21.67395756
_cell_angle_alpha   61.48109298
_cell_angle_beta   61.48109101
_cell_angle_gamma   62.80498997
_symmetry_Int_Tables_number   1
_chemical_formula_structural   Yb14Ti10O41
_chemical_formula_sum   'Yb14 Ti10 O41'
_cell_volume   820.62780850
_cell_formula_units_Z   1
loop_
 _symmetry_equiv_pos_site_id
 _symmetry_equiv_pos_as_xyz
  1  'x, y, z'
loop_
 _atom_site_type_symbol
 _atom_site_label
 _atom_site_symmetry_multiplicity
 _atom_site_fract_x
 _atom_site_fract_y
 _atom_site_fract_z
 _atom_site_occupancy
  Yb  Yb0  1  0.982233  0.982233  0.981601  1
  Yb  Yb1  1  0.475473  0.960042  0.184214  1
  Yb  Yb2  1  0.501933  0.501933  0.984380  1
  Yb  Yb3  1  0.503721  0.503721  0.163777  1
  Yb  Yb4  1  0.993777  0.993777  0.660723  1
  Yb  Yb5  1  0.964789  0.524990  0.501647  1
  Yb  Yb6  1  0.983668  0.983668  0.175514  1
  Yb  Yb7  1  0.524990  0.964789  0.501647  1
  Yb  Yb8  1  0.507287  0.507287  0.339212  1
  Yb  Yb9  1  0.491989  0.491989  0.510681  1
  Yb  Yb10  1  0.960042  0.475473  0.184214  1
  Yb  Yb11  1  0.019146  0.514984  0.830580  1
  Yb  Yb12  1  0.514984  0.019146  0.830580  1
  Yb  Yb13  1  0.499352  0.499352  0.671236  1
  Ti  Ti14  1  0.476130  0.980659  0.000947  1
  Ti  Ti15  1  0.017448  0.017448  0.333405  1
  Ti  Ti16  1  0.484491  0.021231  0.325466  1
  Ti  Ti17  1  0.980659  0.476130  0.000947  1
  Ti  Ti18  1  0.014472  0.504875  0.656144  1
  Ti  Ti19  1  0.504875  0.014472  0.656144  1
  Ti  Ti20  1  0.027308  0.027308  0.482367  1
  Ti  Ti21  1  0.021231  0.484491  0.325466  1
  Ti  Ti22  1  0.570665  0.570665  0.792604  1
  Ti  Ti23  1  0.007790  0.007790  0.831138  1
  O  O24  1  0.095653  0.095653  0.230469  1
  O  O25  1  0.111231  0.601257  0.054794  1
  O  O26  1  0.117041  0.600739  0.223457  1
  O  O27  1  0.154423  0.154423  0.367219  1
  O  O28  1  0.601257  0.111231  0.054794  1
  O  O29  1  0.144445  0.144445  0.523440  1
  O  O30  1  0.361161  0.361161  0.311623  1
  O  O31  1  0.359712  0.906833  0.107896  1
  O  O32  1  0.037723  0.690795  0.357919  1
  O  O33  1  0.654547  0.654547  0.030509  1
  O  O34  1  0.600739  0.117041  0.223457  1
  O  O35  1  0.906833  0.359712  0.107896  1
  O  O36  1  0.598137  0.598137  0.222004  1
  O  O37  1  0.078510  0.709805  0.559034  1
  O  O38  1  0.337984  0.860248  0.317496  1
  O  O39  1  0.690795  0.037723  0.357919  1
  O  O40  1  0.303114  0.303114  0.632953  1
  O  O41  1  0.352985  0.869330  0.453250  1
  O  O42  1  0.140383  0.140383  0.850755  1
  O  O43  1  0.106322  0.604389  0.703571  1
  O  O44  1  0.710762  0.710762  0.342931  1
  O  O45  1  0.709805  0.078510  0.559034  1
  O  O46  1  0.876787  0.876787  0.112425  1
  O  O47  1  0.860248  0.337984  0.317496  1
  O  O48  1  0.869330  0.352985  0.453250  1
  O  O49  1  0.612852  0.612852  0.548861  1
  O  O50  1  0.049373  0.731373  0.917517  1
  O  O51  1  0.367216  0.900496  0.630476  1
  O  O52  1  0.411733  0.411733  0.804080  1
  O  O53  1  0.604389  0.106322  0.703571  1
  O  O54  1  0.295023  0.295023  0.985374  1
  O  O55  1  0.326008  0.872939  0.771657  1
  O  O56  1  0.697176  0.697176  0.688250  1
  O  O57  1  0.900496  0.367216  0.630476  1
  O  O58  1  0.911137  0.911137  0.448595  1
  O  O59  1  0.731373  0.049373  0.917517  1
  O  O60  1  0.872939  0.326008  0.771657  1
  O  O61  1  0.619457  0.619457  0.858989  1
  O  O62  1  0.355801  0.900738  0.963451  1
  O  O63  1  0.910911  0.910911  0.787517  1
  O  O64  1  0.900738  0.355801  0.963451  1
