# generated using pymatgen
data_KH18OsN6(ClO2)4
_symmetry_space_group_name_H-M   'P 1'
_cell_length_a   10.21770311
_cell_length_b   10.32760931
_cell_length_c   10.52467984
_cell_angle_alpha   41.27591041
_cell_angle_beta   43.49166346
_cell_angle_gamma   41.57553042
_symmetry_Int_Tables_number   1
_chemical_formula_structural   KH18OsN6(ClO2)4
_chemical_formula_sum   'K1 H18 Os1 N6 Cl4 O8'
_cell_volume   451.11919894
_cell_formula_units_Z   1
loop_
 _symmetry_equiv_pos_site_id
 _symmetry_equiv_pos_as_xyz
  1  'x, y, z'
loop_
 _atom_site_type_symbol
 _atom_site_label
 _atom_site_symmetry_multiplicity
 _atom_site_fract_x
 _atom_site_fract_y
 _atom_site_fract_z
 _atom_site_occupancy
  K  K0  1  0.488001  0.483459  0.477128  1
  H  H1  1  0.093647  0.979045  0.696030  1
  H  H2  1  0.642502  0.154134  0.989200  1
  H  H3  1  0.172410  0.646019  0.989578  1
  H  H4  1  0.574806  0.139302  0.200545  1
  H  H5  1  0.142037  0.172733  0.593726  1
  H  H6  1  0.141488  0.566299  0.218723  1
  H  H7  1  0.638632  0.780245  0.687526  1
  H  H8  1  0.367026  0.001443  0.783940  1
  H  H9  1  0.379220  0.768653  0.003529  1
  H  H10  1  0.256469  0.996252  0.002693  1
  H  H11  1  0.582253  0.795532  0.653640  1
  H  H12  1  0.689866  0.410568  0.731410  1
  H  H13  1  0.754323  0.964791  0.395614  1
  H  H14  1  0.763924  0.412052  0.944804  1
  H  H15  1  0.981183  0.737296  0.399073  1
  H  H16  1  0.994653  0.394813  0.743393  1
  H  H17  1  0.974435  0.301234  0.966870  1
  H  H18  1  0.970044  0.962292  0.302586  1
  Os  Os19  1  0.987456  0.992037  0.006746  1
  N  N20  1  0.109560  0.696696  0.085287  1
  N  N21  1  0.077575  0.064261  0.727141  1
  N  N22  1  0.695951  0.117886  0.069780  1
  N  N23  1  0.282450  0.933342  0.939757  1
  N  N24  1  0.914182  0.905412  0.309564  1
  N  N25  1  0.923775  0.312588  0.901154  1
  Cl  Cl26  1  0.192613  0.184006  0.185804  1
  Cl  Cl27  1  0.326087  0.371735  0.416046  1
  Cl  Cl28  1  0.655948  0.576837  0.560000  1
  Cl  Cl29  1  0.806850  0.808432  0.811584  1
  O  O30  1  0.125721  0.137547  0.140857  1
  O  O31  1  0.000368  0.683520  0.692943  1
  O  O32  1  0.675801  0.012918  0.684750  1
  O  O33  1  0.686658  0.678436  0.001819  1
  O  O34  1  0.320854  0.976486  0.312171  1
  O  O35  1  0.317529  0.305675  0.989633  1
  O  O36  1  0.003543  0.313709  0.297236  1
  O  O37  1  0.860960  0.856117  0.863523  1
