# generated using pymatgen
data_EuIn4
_symmetry_space_group_name_H-M   'P 1'
_cell_length_a   5.15180265
_cell_length_b   6.57248347
_cell_length_c   9.67152077
_cell_angle_alpha   73.49621146
_cell_angle_beta   74.55348059
_cell_angle_gamma   66.92584771
_symmetry_Int_Tables_number   1
_chemical_formula_structural   EuIn4
_chemical_formula_sum   'Eu2 In8'
_cell_volume   284.37297948
_cell_formula_units_Z   2
loop_
 _symmetry_equiv_pos_site_id
 _symmetry_equiv_pos_as_xyz
  1  'x, y, z'
loop_
 _atom_site_type_symbol
 _atom_site_label
 _atom_site_symmetry_multiplicity
 _atom_site_fract_x
 _atom_site_fract_y
 _atom_site_fract_z
 _atom_site_occupancy
  Eu  Eu0  1  0.165081  0.376499  0.293338  1
  Eu  Eu1  1  0.834919  0.623501  0.706662  1
  In  In2  1  0.438264  0.227342  0.896129  1
  In  In3  1  0.153553  0.039392  0.653503  1
  In  In4  1  0.577135  0.270136  0.575594  1
  In  In5  1  0.561736  0.772658  0.103871  1
  In  In6  1  0.846447  0.960608  0.346497  1
  In  In7  1  0.154946  0.741856  0.948252  1
  In  In8  1  0.845054  0.258144  0.051748  1
  In  In9  1  0.422865  0.729864  0.424406  1
