# generated using pymatgen
data_Si4Ag10O13
_symmetry_space_group_name_H-M   'P 1'
_cell_length_a   8.11205484
_cell_length_b   9.38491756
_cell_length_c   11.60167664
_cell_angle_alpha   113.40783524
_cell_angle_beta   98.37314220
_cell_angle_gamma   100.57526474
_symmetry_Int_Tables_number   1
_chemical_formula_structural   Si4Ag10O13
_chemical_formula_sum   'Si8 Ag20 O26'
_cell_volume   773.05667833
_cell_formula_units_Z   2
loop_
 _symmetry_equiv_pos_site_id
 _symmetry_equiv_pos_as_xyz
  1  'x, y, z'
loop_
 _atom_site_type_symbol
 _atom_site_label
 _atom_site_symmetry_multiplicity
 _atom_site_fract_x
 _atom_site_fract_y
 _atom_site_fract_z
 _atom_site_occupancy
  Si  Si0  1  0.778862  0.420733  0.755427  1
  Si  Si1  1  0.221138  0.579267  0.244573  1
  Si  Si2  1  0.267957  0.919416  0.245023  1
  Si  Si3  1  0.557300  0.484444  0.250324  1
  Si  Si4  1  0.916658  0.023614  0.251322  1
  Si  Si5  1  0.732043  0.080584  0.754977  1
  Si  Si6  1  0.442700  0.515556  0.749676  1
  Si  Si7  1  0.083342  0.976386  0.748678  1
  Ag  Ag8  1  0.110754  0.593764  0.641639  1
  Ag  Ag9  1  0.159128  0.409234  0.916636  1
  Ag  Ag10  1  0.576630  0.124070  0.161011  1
  Ag  Ag11  1  0.334066  0.371519  0.432728  1
  Ag  Ag12  1  0.213822  0.171272  0.070146  1
  Ag  Ag13  1  0.150827  0.731451  0.928603  1
  Ag  Ag14  1  0.320200  0.078984  0.569513  1
  Ag  Ag15  1  0.849173  0.268549  0.071397  1
  Ag  Ag16  1  0.840872  0.590766  0.083364  1
  Ag  Ag17  1  0.679800  0.921016  0.430487  1
  Ag  Ag18  1  0.786178  0.828728  0.929854  1
  Ag  Ag19  1  0.985994  0.818361  0.429050  1
  Ag  Ag20  1  0.560932  0.731776  0.083988  1
  Ag  Ag21  1  0.439068  0.268224  0.916012  1
  Ag  Ag22  1  0.632934  0.237195  0.447991  1
  Ag  Ag23  1  0.423370  0.875930  0.838989  1
  Ag  Ag24  1  0.665934  0.628481  0.567272  1
  Ag  Ag25  1  0.889246  0.406236  0.358361  1
  Ag  Ag26  1  0.014006  0.181639  0.570950  1
  Ag  Ag27  1  0.367066  0.762805  0.552009  1
  O  O28  1  0.594735  0.976520  0.613225  1
  O  O29  1  0.620050  0.432176  0.114449  1
  O  O30  1  0.724550  0.581957  0.377074  1
  O  O31  1  0.356353  0.893574  0.123414  1
  O  O32  1  0.830669  0.259355  0.763454  1
  O  O33  1  0.883858  0.579236  0.890203  1
  O  O34  1  0.185833  0.968675  0.879321  1
  O  O35  1  0.275450  0.418043  0.622926  1
  O  O36  1  0.643647  0.106426  0.876586  1
  O  O37  1  0.405265  0.023480  0.386775  1
  O  O38  1  0.433326  0.611086  0.254897  1
  O  O39  1  0.169331  0.740645  0.236546  1
  O  O40  1  0.116142  0.420764  0.109797  1
  O  O41  1  0.814167  0.031325  0.120679  1
  O  O42  1  0.174641  0.566637  0.373137  1
  O  O43  1  0.825359  0.433363  0.626863  1
  O  O44  1  0.183421  0.138340  0.734652  1
  O  O45  1  0.561738  0.676381  0.743884  1
  O  O46  1  0.933561  0.190014  0.380387  1
  O  O47  1  0.112868  0.008678  0.231758  1
  O  O48  1  0.887132  0.991322  0.768242  1
  O  O49  1  0.379950  0.567824  0.885551  1
  O  O50  1  0.066439  0.809986  0.619613  1
  O  O51  1  0.816579  0.861660  0.265348  1
  O  O52  1  0.438262  0.323619  0.256116  1
  O  O53  1  0.566674  0.388914  0.745103  1
