# generated using pymatgen
data_Cs4MgZr3(PO4)6
_symmetry_space_group_name_H-M   'P 1'
_cell_length_a   10.44633043
_cell_length_b   10.45660813
_cell_length_c   10.45038131
_cell_angle_alpha   90.00000000
_cell_angle_beta   90.00000000
_cell_angle_gamma   90.11667442
_symmetry_Int_Tables_number   1
_chemical_formula_structural   Cs4MgZr3(PO4)6
_chemical_formula_sum   'Cs8 Mg2 Zr6 P12 O48'
_cell_volume   1141.52605403
_cell_formula_units_Z   2
loop_
 _symmetry_equiv_pos_site_id
 _symmetry_equiv_pos_as_xyz
  1  'x, y, z'
loop_
 _atom_site_type_symbol
 _atom_site_label
 _atom_site_symmetry_multiplicity
 _atom_site_fract_x
 _atom_site_fract_y
 _atom_site_fract_z
 _atom_site_occupancy
  Cs  Cs0  1  0.063806  0.065129  0.065979  1
  Cs  Cs1  1  0.206113  0.715500  0.789724  1
  Cs  Cs2  1  0.293887  0.284500  0.289724  1
  Cs  Cs3  1  0.436194  0.934871  0.565979  1
  Cs  Cs4  1  0.571573  0.429320  0.930223  1
  Cs  Cs5  1  0.713649  0.796586  0.209935  1
  Cs  Cs6  1  0.786351  0.203414  0.709935  1
  Cs  Cs7  1  0.928427  0.570680  0.430223  1
  Mg  Mg8  1  0.644741  0.141134  0.355934  1
  Mg  Mg9  1  0.855259  0.858866  0.855934  1
  Zr  Zr10  1  0.083196  0.914056  0.413897  1
  Zr  Zr11  1  0.139667  0.356258  0.640791  1
  Zr  Zr12  1  0.360333  0.643742  0.140791  1
  Zr  Zr13  1  0.416804  0.085944  0.913897  1
  Zr  Zr14  1  0.590329  0.588268  0.587202  1
  Zr  Zr15  1  0.909671  0.411732  0.087202  1
  P  P16  1  0.040257  0.728278  0.122689  1
  P  P17  1  0.123787  0.039785  0.729745  1
  P  P18  1  0.227443  0.374462  0.957606  1
  P  P19  1  0.272557  0.625538  0.457606  1
  P  P20  1  0.376213  0.960215  0.229745  1
  P  P21  1  0.459743  0.271722  0.622689  1
  P  P22  1  0.547065  0.771744  0.875236  1
  P  P23  1  0.623139  0.453335  0.272679  1
  P  P24  1  0.730205  0.120649  0.044991  1
  P  P25  1  0.769795  0.879351  0.544991  1
  P  P26  1  0.876861  0.546665  0.772679  1
  P  P27  1  0.952935  0.228256  0.375236  1
  O  O28  1  0.007144  0.090347  0.357644  1
  O  O29  1  0.026798  0.799053  0.254462  1
  O  O30  1  0.022611  0.961245  0.797376  1
  O  O31  1  0.041032  0.295931  0.477410  1
  O  O32  1  0.088601  0.357716  0.005624  1
  O  O33  1  0.086914  0.184867  0.728819  1
  O  O34  1  0.143052  0.994933  0.588299  1
  O  O35  1  0.185734  0.727078  0.086968  1
  O  O36  1  0.203820  0.521368  0.538414  1
  O  O37  1  0.198725  0.752719  0.475751  1
  O  O38  1  0.229729  0.415313  0.815409  1
  O  O39  1  0.255285  0.026866  0.800312  1
  O  O40  1  0.244715  0.973134  0.300312  1
  O  O41  1  0.270271  0.584687  0.315409  1
  O  O42  1  0.301275  0.247281  0.975751  1
  O  O43  1  0.296180  0.478632  0.038414  1
  O  O44  1  0.314266  0.272922  0.586968  1
  O  O45  1  0.356948  0.005067  0.088299  1
  O  O46  1  0.413086  0.815133  0.228819  1
  O  O47  1  0.411399  0.642284  0.505624  1
  O  O48  1  0.458968  0.704069  0.977410  1
  O  O49  1  0.477389  0.038755  0.297376  1
  O  O50  1  0.473202  0.200947  0.754462  1
  O  O51  1  0.492856  0.909653  0.857644  1
  O  O52  1  0.505624  0.412649  0.642520  1
  O  O53  1  0.524095  0.697870  0.746787  1
  O  O54  1  0.521188  0.540675  0.204488  1
  O  O55  1  0.537367  0.203276  0.521563  1
  O  O56  1  0.588761  0.142709  0.992969  1
  O  O57  1  0.581481  0.314973  0.268983  1
  O  O58  1  0.641655  0.507398  0.410672  1
  O  O59  1  0.685170  0.767664  0.917744  1
  O  O60  1  0.702864  0.976223  0.459024  1
  O  O61  1  0.700169  0.744496  0.527016  1
  O  O62  1  0.729926  0.084496  0.185797  1
  O  O63  1  0.752397  0.476036  0.199316  1
  O  O64  1  0.747603  0.523964  0.699316  1
  O  O65  1  0.770074  0.915504  0.685797  1
  O  O66  1  0.799831  0.255504  0.027016  1
  O  O67  1  0.797136  0.023777  0.959024  1
  O  O68  1  0.814830  0.232336  0.417744  1
  O  O69  1  0.858345  0.492602  0.910672  1
  O  O70  1  0.918519  0.685027  0.768983  1
  O  O71  1  0.911239  0.857291  0.492969  1
  O  O72  1  0.962633  0.796724  0.021563  1
  O  O73  1  0.978812  0.459325  0.704488  1
  O  O74  1  0.975905  0.302130  0.246787  1
  O  O75  1  0.994376  0.587351  0.142520  1
