# generated using pymatgen
data_Ti5(B6O13)2
_symmetry_space_group_name_H-M   'P 1'
_cell_length_a   11.29920024
_cell_length_b   11.29919996
_cell_length_c   13.69260060
_cell_angle_alpha   114.36841961
_cell_angle_beta   114.36841898
_cell_angle_gamma   89.99999976
_symmetry_Int_Tables_number   1
_chemical_formula_structural   Ti5(B6O13)2
_chemical_formula_sum   'Ti20 B48 O104'
_cell_volume   1419.69427959
_cell_formula_units_Z   4
loop_
 _symmetry_equiv_pos_site_id
 _symmetry_equiv_pos_as_xyz
  1  'x, y, z'
loop_
 _atom_site_type_symbol
 _atom_site_label
 _atom_site_symmetry_multiplicity
 _atom_site_fract_x
 _atom_site_fract_y
 _atom_site_fract_z
 _atom_site_occupancy
  Ti  Ti0  1  0.471963  0.383999  0.584757  1
  Ti  Ti1  1  0.700758  0.471963  0.084757  1
  Ti  Ti2  1  0.028037  0.799242  0.415243  1
  Ti  Ti3  1  0.299242  0.528037  0.915243  1
  Ti  Ti4  1  0.799242  0.387206  0.915243  1
  Ti  Ti5  1  0.383999  0.112794  0.084757  1
  Ti  Ti6  1  0.612794  0.883999  0.584757  1
  Ti  Ti7  1  0.387206  0.116001  0.415243  1
  Ti  Ti8  1  0.625000  0.875000  0.250000  1
  Ti  Ti9  1  0.616001  0.887206  0.915243  1
  Ti  Ti10  1  0.112794  0.700758  0.584757  1
  Ti  Ti11  1  0.200758  0.612794  0.084757  1
  Ti  Ti12  1  0.116001  0.028037  0.915243  1
  Ti  Ti13  1  0.375000  0.125000  0.750000  1
  Ti  Ti14  1  0.883999  0.971963  0.084757  1
  Ti  Ti15  1  0.875000  0.625000  0.750000  1
  Ti  Ti16  1  0.528037  0.616001  0.415243  1
  Ti  Ti17  1  0.971963  0.200758  0.584757  1
  Ti  Ti18  1  0.887206  0.299242  0.415243  1
  Ti  Ti19  1  0.125000  0.375000  0.250000  1
  B  B20  1  0.321243  0.910979  0.497568  1
  B  B21  1  0.898279  0.836959  0.665143  1
  B  B22  1  0.066091  0.989342  0.665397  1
  B  B23  1  0.410979  0.821243  0.997568  1
  B  B24  1  0.010658  0.400694  0.834603  1
  B  B25  1  0.089021  0.823675  0.002432  1
  B  B26  1  0.900694  0.510658  0.334603  1
  B  B27  1  0.086588  0.321243  0.997568  1
  B  B28  1  0.566091  0.676055  0.665397  1
  B  B29  1  0.828185  0.266865  0.165143  1
  B  B30  1  0.176325  0.086588  0.497568  1
  B  B31  1  0.233135  0.671815  0.334857  1
  B  B32  1  0.913412  0.678757  0.002432  1
  B  B33  1  0.178757  0.413412  0.502432  1
  B  B34  1  0.171815  0.733135  0.834857  1
  B  B35  1  0.823675  0.913412  0.502432  1
  B  B36  1  0.163041  0.233135  0.834857  1
  B  B37  1  0.733135  0.663041  0.334857  1
  B  B38  1  0.101721  0.163041  0.334857  1
  B  B39  1  0.676325  0.410979  0.497568  1
  B  B40  1  0.836959  0.766865  0.165143  1
  B  B41  1  0.400694  0.823945  0.334603  1
  B  B42  1  0.266865  0.336959  0.665143  1
  B  B43  1  0.336959  0.398279  0.165143  1
  B  B44  1  0.821243  0.586588  0.497568  1
  B  B45  1  0.766865  0.328185  0.665143  1
  B  B46  1  0.510658  0.433909  0.834603  1
  B  B47  1  0.933909  0.010658  0.334603  1
  B  B48  1  0.413412  0.323675  0.002432  1
  B  B49  1  0.433909  0.323945  0.334603  1
  B  B50  1  0.328185  0.898279  0.165143  1
  B  B51  1  0.671815  0.101721  0.834857  1
  B  B52  1  0.989342  0.599306  0.165397  1
  B  B53  1  0.663041  0.601721  0.834857  1
  B  B54  1  0.323675  0.589021  0.502432  1
  B  B55  1  0.586588  0.676325  0.997568  1
  B  B56  1  0.676055  0.099306  0.165397  1
  B  B57  1  0.398279  0.828185  0.665143  1
  B  B58  1  0.599306  0.176055  0.665397  1
  B  B59  1  0.823945  0.933909  0.834603  1
  B  B60  1  0.099306  0.489342  0.665397  1
  B  B61  1  0.589021  0.178757  0.002432  1
  B  B62  1  0.601721  0.171815  0.334857  1
  B  B63  1  0.176055  0.066091  0.165397  1
  B  B64  1  0.323945  0.900694  0.834603  1
  B  B65  1  0.910979  0.176325  0.997568  1
  B  B66  1  0.489342  0.566091  0.165397  1
  B  B67  1  0.678757  0.089021  0.502432  1
  O  O68  1  0.485448  0.212715  0.590773  1
  O  O69  1  0.710480  0.981279  0.766838  1
  O  O70  1  0.289520  0.018721  0.233162  1
  O  O71  1  0.638900  0.070267  0.247776  1
  O  O72  1  0.377856  0.291200  0.083585  1
  O  O73  1  0.130535  0.516707  0.579878  1
  O  O74  1  0.117345  0.836130  0.908918  1
  O  O75  1  0.927212  0.708427  0.591082  1
  O  O76  1  0.378058  0.605325  0.090773  1
  O  O77  1  0.894675  0.121942  0.409227  1
  O  O78  1  0.787285  0.894675  0.909227  1
  O  O79  1  0.605325  0.712715  0.590773  1
  O  O80  1  0.943643  0.714442  0.233162  1
  O  O81  1  0.891123  0.429733  0.752224  1
  O  O82  1  0.836130  0.791573  0.408918  1
  O  O83  1  0.287285  0.014552  0.909227  1
  O  O84  1  0.882655  0.163870  0.091082  1
  O  O85  1  0.291573  0.336130  0.908918  1
  O  O86  1  0.608877  0.677509  0.247776  1
  O  O87  1  0.516707  0.449344  0.079878  1
  O  O88  1  0.483293  0.550656  0.920122  1
  O  O89  1  0.214442  0.443643  0.733162  1
  O  O90  1  0.177509  0.108877  0.747776  1
  O  O91  1  0.708427  0.663870  0.091082  1
  O  O92  1  0.072788  0.291573  0.408918  1
  O  O93  1  0.789520  0.214442  0.233162  1
  O  O94  1  0.436828  0.869465  0.920122  1
  O  O95  1  0.208800  0.122144  0.416415  1
  O  O96  1  0.677509  0.638900  0.747776  1
  O  O97  1  0.663870  0.382655  0.591082  1
  O  O98  1  0.929733  0.391123  0.252224  1
  O  O99  1  0.712715  0.985448  0.090773  1
  O  O100  1  0.869465  0.483293  0.420122  1
  O  O101  1  0.205730  0.791200  0.083585  1
  O  O102  1  0.291200  0.705730  0.583585  1
  O  O103  1  0.705730  0.292385  0.083585  1
  O  O104  1  0.936828  0.050656  0.920122  1
  O  O105  1  0.617345  0.072788  0.908918  1
  O  O106  1  0.285558  0.710480  0.266838  1
  O  O107  1  0.212715  0.105325  0.090773  1
  O  O108  1  0.556357  0.481279  0.766838  1
  O  O109  1  0.791200  0.877856  0.583585  1
  O  O110  1  0.050656  0.983293  0.420122  1
  O  O111  1  0.877856  0.792385  0.083585  1
  O  O112  1  0.280847  0.030847  0.561694  1
  O  O113  1  0.469153  0.219153  0.938306  1
  O  O114  1  0.394675  0.287285  0.409227  1
  O  O115  1  0.563172  0.130535  0.079878  1
  O  O116  1  0.791573  0.572788  0.908918  1
  O  O117  1  0.108877  0.570267  0.247776  1
  O  O118  1  0.121942  0.514552  0.909227  1
  O  O119  1  0.138900  0.177509  0.247776  1
  O  O120  1  0.621942  0.394675  0.909227  1
  O  O121  1  0.707615  0.622144  0.416415  1
  O  O122  1  0.518721  0.789520  0.733162  1
  O  O123  1  0.630535  0.063172  0.579878  1
  O  O124  1  0.336130  0.617345  0.408918  1
  O  O125  1  0.481279  0.210480  0.266838  1
  O  O126  1  0.014552  0.621942  0.409227  1
  O  O127  1  0.983293  0.369465  0.920122  1
  O  O128  1  0.122144  0.207615  0.916415  1
  O  O129  1  0.163870  0.208427  0.591082  1
  O  O130  1  0.449344  0.563172  0.579878  1
  O  O131  1  0.294270  0.707615  0.916415  1
  O  O132  1  0.292385  0.377856  0.583585  1
  O  O133  1  0.622144  0.708800  0.916415  1
  O  O134  1  0.572788  0.117345  0.408918  1
  O  O135  1  0.208427  0.427212  0.091082  1
  O  O136  1  0.570267  0.138900  0.747776  1
  O  O137  1  0.427212  0.882655  0.591082  1
  O  O138  1  0.822491  0.891123  0.252224  1
  O  O139  1  0.016707  0.630535  0.079878  1
  O  O140  1  0.070267  0.608877  0.747776  1
  O  O141  1  0.361100  0.929733  0.752224  1
  O  O142  1  0.719153  0.969153  0.438306  1
  O  O143  1  0.443643  0.518721  0.233162  1
  O  O144  1  0.949344  0.016707  0.579878  1
  O  O145  1  0.792385  0.205730  0.583585  1
  O  O146  1  0.382655  0.927212  0.091082  1
  O  O147  1  0.878058  0.485448  0.090773  1
  O  O148  1  0.429733  0.861100  0.252224  1
  O  O149  1  0.030847  0.280847  0.061694  1
  O  O150  1  0.105325  0.878058  0.590773  1
  O  O151  1  0.708800  0.294270  0.416415  1
  O  O152  1  0.391123  0.322491  0.752224  1
  O  O153  1  0.322491  0.361100  0.252224  1
  O  O154  1  0.985448  0.378058  0.590773  1
  O  O155  1  0.219153  0.469153  0.438306  1
  O  O156  1  0.207615  0.794270  0.416415  1
  O  O157  1  0.794270  0.208800  0.916415  1
  O  O158  1  0.514552  0.787285  0.409227  1
  O  O159  1  0.550656  0.436828  0.420122  1
  O  O160  1  0.714442  0.289520  0.733162  1
  O  O161  1  0.981279  0.056357  0.266838  1
  O  O162  1  0.785558  0.556357  0.266838  1
  O  O163  1  0.780847  0.530847  0.561694  1
  O  O164  1  0.369465  0.936828  0.420122  1
  O  O165  1  0.969153  0.719153  0.938306  1
  O  O166  1  0.056357  0.285558  0.766838  1
  O  O167  1  0.210480  0.785558  0.766838  1
  O  O168  1  0.861100  0.822491  0.752224  1
  O  O169  1  0.018721  0.943643  0.733162  1
  O  O170  1  0.530847  0.780847  0.061694  1
  O  O171  1  0.063172  0.949344  0.079878  1
