# generated using pymatgen
data_U(HO2)2
_symmetry_space_group_name_H-M   'P 1'
_cell_length_a   5.49119146
_cell_length_b   5.31809228
_cell_length_c   6.10781207
_cell_angle_alpha   90.00000000
_cell_angle_beta   109.18797074
_cell_angle_gamma   90.00000000
_symmetry_Int_Tables_number   1
_chemical_formula_structural   U(HO2)2
_chemical_formula_sum   'U2 H4 O8'
_cell_volume   168.45541459
_cell_formula_units_Z   2
loop_
 _symmetry_equiv_pos_site_id
 _symmetry_equiv_pos_as_xyz
  1  'x, y, z'
loop_
 _atom_site_type_symbol
 _atom_site_label
 _atom_site_symmetry_multiplicity
 _atom_site_fract_x
 _atom_site_fract_y
 _atom_site_fract_z
 _atom_site_occupancy
  U  U0  1  0.000000  0.500000  0.500000  1
  U  U1  1  0.000000  0.000000  0.000000  1
  H  H2  1  0.528114  0.307165  0.640810  1
  H  H3  1  0.471886  0.807165  0.859190  1
  H  H4  1  0.471886  0.692835  0.359190  1
  H  H5  1  0.528114  0.192835  0.140810  1
  O  O6  1  0.341146  0.316870  0.626921  1
  O  O7  1  0.658854  0.816870  0.873079  1
  O  O8  1  0.658854  0.683130  0.373079  1
  O  O9  1  0.341146  0.183130  0.126921  1
  O  O10  1  0.144673  0.782683  0.805234  1
  O  O11  1  0.855327  0.282683  0.694766  1
  O  O12  1  0.855327  0.217317  0.194766  1
  O  O13  1  0.144673  0.717317  0.305234  1
