# generated using pymatgen
data_LaSiBO5
_symmetry_space_group_name_H-M   'P 1'
_cell_length_a   6.88315454
_cell_length_b   6.88315454
_cell_length_c   6.84979095
_cell_angle_alpha   90.00000000
_cell_angle_beta   90.00000000
_cell_angle_gamma   120.00000000
_symmetry_Int_Tables_number   1
_chemical_formula_structural   LaSiBO5
_chemical_formula_sum   'La3 Si3 B3 O15'
_cell_volume   281.04961189
_cell_formula_units_Z   3
loop_
 _symmetry_equiv_pos_site_id
 _symmetry_equiv_pos_as_xyz
  1  'x, y, z'
loop_
 _atom_site_type_symbol
 _atom_site_label
 _atom_site_symmetry_multiplicity
 _atom_site_fract_x
 _atom_site_fract_y
 _atom_site_fract_z
 _atom_site_occupancy
  B  B0  1  0.891848  0.891812  0.666423  1
  B  B1  1  0.999965  0.108152  0.333090  1
  B  B2  1  0.108188  0.000035  0.999756  1
  O  O3  1  0.137936  0.532089  0.668777  1
  O  O4  1  0.394154  0.862064  0.335443  1
  O  O5  1  0.467911  0.605846  0.002110  1
  O  O6  1  0.000199  0.038933  0.832994  1
  O  O7  1  0.961067  0.961265  0.166327  1
  O  O8  1  0.038735  0.999801  0.499660  1
  O  O9  1  0.343929  0.191237  0.027596  1
  O  O10  1  0.808763  0.152693  0.360929  1
  O  O11  1  0.847307  0.656071  0.694262  1
  O  O12  1  0.191334  0.343859  0.305446  1
  O  O13  1  0.656141  0.847475  0.638780  1
  O  O14  1  0.152525  0.808666  0.972113  1
  O  O15  1  0.606063  0.468289  0.330605  1
  O  O16  1  0.531711  0.137773  0.663939  1
  O  O17  1  0.862227  0.393937  0.997272  1
  Si  Si18  1  0.417352  0.417367  0.166430  1
  Si  Si19  1  0.000015  0.582648  0.833097  1
  Si  Si20  1  0.582633  0.999985  0.499764  1
  La  La21  1  0.399019  0.399057  0.666395  1
  La  La22  1  0.000038  0.600981  0.333062  1
  La  La23  1  0.600943  0.999962  0.999729  1
