# generated using pymatgen
data_AlHO2
_symmetry_space_group_name_H-M   'P 1'
_cell_length_a   3.90831647
_cell_length_b   3.89895807
_cell_length_c   3.82148717
_cell_angle_alpha   90.00000000
_cell_angle_beta   90.54512414
_cell_angle_gamma   90.00000000
_symmetry_Int_Tables_number   1
_chemical_formula_structural   AlHO2
_chemical_formula_sum   'Al2 H2 O4'
_cell_volume   58.23056932
_cell_formula_units_Z   2
loop_
 _symmetry_equiv_pos_site_id
 _symmetry_equiv_pos_as_xyz
  1  'x, y, z'
loop_
 _atom_site_type_symbol
 _atom_site_label
 _atom_site_symmetry_multiplicity
 _atom_site_fract_x
 _atom_site_fract_y
 _atom_site_fract_z
 _atom_site_occupancy
  Al  Al0  1  0.238651  0.223821  0.996959  1
  Al  Al1  1  0.761349  0.723821  0.003041  1
  H  H2  1  0.450416  0.443341  0.499549  1
  H  H3  1  0.549584  0.943341  0.500451  1
  O  O4  1  0.753962  0.230804  0.001015  1
  O  O5  1  0.717681  0.744034  0.502136  1
  O  O6  1  0.282319  0.244034  0.497864  1
  O  O7  1  0.246038  0.730804  -0.001015  1
