# generated using pymatgen
data_Na2H20CO13
_symmetry_space_group_name_H-M   'P 1'
_cell_length_a   7.79079537
_cell_length_b   7.79079537
_cell_length_c   12.60564592
_cell_angle_alpha   69.02768334
_cell_angle_beta   110.97231666
_cell_angle_gamma   110.27128737
_symmetry_Int_Tables_number   1
_chemical_formula_structural   Na2H20CO13
_chemical_formula_sum   'Na4 H40 C2 O26'
_cell_volume   645.84351502
_cell_formula_units_Z   2
loop_
 _symmetry_equiv_pos_site_id
 _symmetry_equiv_pos_as_xyz
  1  'x, y, z'
loop_
 _atom_site_type_symbol
 _atom_site_label
 _atom_site_symmetry_multiplicity
 _atom_site_fract_x
 _atom_site_fract_y
 _atom_site_fract_z
 _atom_site_occupancy
  Na  Na0  1  0.165936  0.897921  0.627855  1
  Na  Na1  1  0.102079  0.834064  0.127855  1
  Na  Na2  1  0.833399  0.096949  0.374067  1
  Na  Na3  1  0.903051  0.166601  0.874066  1
  H  H4  1  0.570428  0.937790  0.180347  1
  H  H5  1  0.062210  0.429572  0.680347  1
  H  H6  1  0.620319  0.162770  0.128520  1
  H  H7  1  0.837230  0.379681  0.628520  1
  H  H8  1  0.380562  0.846432  0.879120  1
  H  H9  1  0.153568  0.619438  0.379120  1
  H  H10  1  0.431786  0.067527  0.812352  1
  H  H11  1  0.932473  0.568214  0.312352  1
  H  H12  1  0.150105  0.303383  0.520477  1
  H  H13  1  0.696617  0.849895  0.020477  1
  H  H14  1  0.007419  0.213612  0.597686  1
  H  H15  1  0.786388  0.992581  0.097686  1
  H  H16  1  0.976817  0.769163  0.401898  1
  H  H17  1  0.230837  0.023183  0.901898  1
  H  H18  1  0.831953  0.701166  0.478629  1
  H  H19  1  0.298834  0.168047  0.978629  1
  H  H20  1  0.636006  0.405159  0.349103  1
  H  H21  1  0.594841  0.363994  0.849103  1
  H  H22  1  0.633274  0.388295  0.227213  1
  H  H23  1  0.611705  0.366726  0.727213  1
  H  H24  1  0.318374  0.596511  0.617200  1
  H  H25  1  0.403489  0.681626  0.117200  1
  H  H26  1  0.365901  0.587866  0.752637  1
  H  H27  1  0.412134  0.634099  0.252637  1
  H  H28  1  0.795458  0.664334  0.659542  1
  H  H29  1  0.335666  0.204542  0.159542  1
  H  H30  1  0.850537  0.808236  0.736351  1
  H  H31  1  0.191764  0.149463  0.236351  1
  H  H32  1  0.224199  0.342131  0.328241  1
  H  H33  1  0.657869  0.775801  0.828241  1
  H  H34  1  0.043333  0.363409  0.217302  1
  H  H35  1  0.636591  0.956667  0.717302  1
  H  H36  1  0.457454  0.811651  0.439709  1
  H  H37  1  0.188349  0.542546  0.939709  1
  H  H38  1  0.429813  0.003917  0.340949  1
  H  H39  1  0.996083  0.570187  0.840949  1
  H  H40  1  0.516160  0.193406  0.563445  1
  H  H41  1  0.806594  0.483840  0.063445  1
  H  H42  1  0.488169  0.015313  0.522210  1
  H  H43  1  0.984687  0.511830  0.022210  1
  C  C44  1  0.485379  0.502695  0.485584  1
  C  C45  1  0.497305  0.514621  0.985584  1
  O  O46  1  0.677840  0.054837  0.176278  1
  O  O47  1  0.945163  0.322160  0.676278  1
  O  O48  1  0.324556  0.952829  0.822522  1
  O  O49  1  0.047171  0.675444  0.322522  1
  O  O50  1  0.060208  0.183796  0.547031  1
  O  O51  1  0.816204  0.939792  0.047031  1
  O  O52  1  0.931269  0.809737  0.451794  1
  O  O53  1  0.190263  0.068731  0.951794  1
  O  O54  1  0.714022  0.386699  0.308507  1
  O  O55  1  0.613301  0.285978  0.808508  1
  O  O56  1  0.269062  0.609678  0.675868  1
  O  O57  1  0.390322  0.730938  0.175868  1
  O  O58  1  0.903669  0.731892  0.712383  1
  O  O59  1  0.268108  0.096331  0.212383  1
  O  O60  1  0.100744  0.269499  0.287088  1
  O  O61  1  0.730501  0.899256  0.787088  1
  O  O62  1  0.515995  0.949677  0.417733  1
  O  O63  1  0.050323  0.484005  0.917733  1
  O  O64  1  0.474971  0.054367  0.586213  1
  O  O65  1  0.945633  0.525029  0.086213  1
  O  O66  1  0.351384  0.557583  0.494107  1
  O  O67  1  0.442417  0.648616  0.994107  1
  O  O68  1  0.464260  0.456495  0.391768  1
  O  O69  1  0.543505  0.535740  0.891768  1
  O  O70  1  0.639986  0.493039  0.571998  1
  O  O71  1  0.506961  0.360014  0.071998  1
