# generated using pymatgen
data_Ba2NbCrO6
_symmetry_space_group_name_H-M   'P 1'
_cell_length_a   5.83300656
_cell_length_b   5.83300656
_cell_length_c   19.19067285
_cell_angle_alpha   90.00000000
_cell_angle_beta   90.00000000
_cell_angle_gamma   120.00000001
_symmetry_Int_Tables_number   1
_chemical_formula_structural   Ba2NbCrO6
_chemical_formula_sum   'Ba8 Nb4 Cr4 O24'
_cell_volume   565.46504452
_cell_formula_units_Z   4
loop_
 _symmetry_equiv_pos_site_id
 _symmetry_equiv_pos_as_xyz
  1  'x, y, z'
loop_
 _atom_site_type_symbol
 _atom_site_label
 _atom_site_symmetry_multiplicity
 _atom_site_fract_x
 _atom_site_fract_y
 _atom_site_fract_z
 _atom_site_occupancy
  O  O0  1  0.169662  0.830338  0.879275  1
  O  O1  1  0.169662  0.339324  0.879275  1
  O  O2  1  0.660676  0.830338  0.879275  1
  O  O3  1  0.339324  0.169662  0.379275  1
  O  O4  1  0.830338  0.660676  0.120725  1
  O  O5  1  0.830338  0.169662  0.379275  1
  O  O6  1  0.830338  0.660676  0.379275  1
  O  O7  1  0.169662  0.830338  0.620725  1
  O  O8  1  0.660676  0.830338  0.620725  1
  O  O9  1  0.339324  0.169662  0.120725  1
  O  O10  1  0.830338  0.169662  0.120725  1
  O  O11  1  0.169662  0.339324  0.620725  1
  O  O12  1  0.849732  0.699464  0.750000  1
  O  O13  1  0.150268  0.849732  0.250000  1
  O  O14  1  0.699464  0.849732  0.250000  1
  O  O15  1  0.300536  0.150268  0.750000  1
  O  O16  1  0.500000  0.000000  0.000000  1
  O  O17  1  0.500000  0.500000  0.500000  1
  O  O18  1  0.000000  0.500000  0.500000  1
  O  O19  1  0.000000  0.500000  0.000000  1
  O  O20  1  0.500000  0.500000  0.000000  1
  O  O21  1  0.500000  0.000000  0.500000  1
  O  O22  1  0.150268  0.300536  0.250000  1
  O  O23  1  0.849732  0.150268  0.750000  1
  Cr  Cr24  1  0.000000  0.000000  0.181685  1
  Cr  Cr25  1  0.000000  0.000000  0.681685  1
  Cr  Cr26  1  0.000000  0.000000  0.818315  1
  Cr  Cr27  1  0.000000  0.000000  0.318315  1
  Nb  Nb28  1  0.333333  0.666667  0.563996  1
  Nb  Nb29  1  0.666667  0.333333  0.063996  1
  Nb  Nb30  1  0.666667  0.333333  0.436004  1
  Nb  Nb31  1  0.333333  0.666667  0.936004  1
  Ba  Ba32  1  0.333333  0.666667  0.358184  1
  Ba  Ba33  1  0.666667  0.333333  0.858184  1
  Ba  Ba34  1  0.666667  0.333333  0.641816  1
  Ba  Ba35  1  0.333333  0.666667  0.141816  1
  Ba  Ba36  1  0.666667  0.333333  0.250000  1
  Ba  Ba37  1  0.333333  0.666667  0.750000  1
  Ba  Ba38  1  0.000000  0.000000  0.500000  1
  Ba  Ba39  1  0.000000  0.000000  0.000000  1
