# generated using pymatgen
data_KS2N(O2F)2
_symmetry_space_group_name_H-M   'P 1'
_cell_length_a   12.17771103
_cell_length_b   14.26765760
_cell_length_c   14.61930159
_cell_angle_alpha   90.00000000
_cell_angle_beta   90.00000000
_cell_angle_gamma   90.00000000
_symmetry_Int_Tables_number   1
_chemical_formula_structural   KS2N(O2F)2
_chemical_formula_sum   'K16 S32 N16 O64 F32'
_cell_volume   2540.06580668
_cell_formula_units_Z   16
loop_
 _symmetry_equiv_pos_site_id
 _symmetry_equiv_pos_as_xyz
  1  'x, y, z'
loop_
 _atom_site_type_symbol
 _atom_site_label
 _atom_site_symmetry_multiplicity
 _atom_site_fract_x
 _atom_site_fract_y
 _atom_site_fract_z
 _atom_site_occupancy
  K  K0  1  0.004256  0.340242  0.447066  1
  K  K1  1  0.128111  0.891302  0.779597  1
  K  K2  1  0.628111  0.108698  0.720403  1
  K  K3  1  0.871889  0.608698  0.279597  1
  K  K4  1  0.495744  0.340242  0.947066  1
  K  K5  1  0.004256  0.840242  0.052934  1
  K  K6  1  0.628111  0.608698  0.779597  1
  K  K7  1  0.128111  0.391302  0.720403  1
  K  K8  1  0.504256  0.159758  0.447066  1
  K  K9  1  0.495744  0.840242  0.552934  1
  K  K10  1  0.504256  0.659758  0.052934  1
  K  K11  1  0.371889  0.891302  0.279597  1
  K  K12  1  0.995744  0.659758  0.552934  1
  K  K13  1  0.371889  0.391302  0.220403  1
  K  K14  1  0.995744  0.159758  0.947066  1
  K  K15  1  0.871889  0.108698  0.220403  1
  S  S16  1  0.298825  0.638360  0.673158  1
  S  S17  1  0.798825  0.361640  0.826842  1
  S  S18  1  0.350532  0.051674  0.659456  1
  S  S19  1  0.850532  0.448326  0.659456  1
  S  S20  1  0.681583  0.625230  0.470129  1
  S  S21  1  0.318417  0.374770  0.529871  1
  S  S22  1  0.318417  0.874770  0.970129  1
  S  S23  1  0.025224  0.333470  0.164776  1
  S  S24  1  0.798825  0.861640  0.673158  1
  S  S25  1  0.181583  0.874770  0.470129  1
  S  S26  1  0.649468  0.448326  0.159456  1
  S  S27  1  0.201175  0.138360  0.326842  1
  S  S28  1  0.974776  0.166530  0.664776  1
  S  S29  1  0.181583  0.374770  0.029871  1
  S  S30  1  0.149468  0.551674  0.340544  1
  S  S31  1  0.850532  0.948326  0.840544  1
  S  S32  1  0.474776  0.833470  0.835224  1
  S  S33  1  0.149468  0.051674  0.159456  1
  S  S34  1  0.649468  0.948326  0.340544  1
  S  S35  1  0.701175  0.861640  0.173158  1
  S  S36  1  0.201175  0.638360  0.173158  1
  S  S37  1  0.818417  0.625230  0.970129  1
  S  S38  1  0.298825  0.138360  0.826842  1
  S  S39  1  0.525224  0.666530  0.335224  1
  S  S40  1  0.681583  0.125230  0.029871  1
  S  S41  1  0.025224  0.833470  0.335224  1
  S  S42  1  0.474776  0.333470  0.664776  1
  S  S43  1  0.350532  0.551674  0.840544  1
  S  S44  1  0.974776  0.666530  0.835224  1
  S  S45  1  0.525224  0.166530  0.164776  1
  S  S46  1  0.701175  0.361640  0.326842  1
  S  S47  1  0.818417  0.125230  0.529871  1
  N  N48  1  0.616027  0.894275  0.249920  1
  N  N49  1  0.645527  0.639229  0.366531  1
  N  N50  1  0.854473  0.139229  0.633469  1
  N  N51  1  0.616027  0.394275  0.250080  1
  N  N52  1  0.116027  0.105725  0.250080  1
  N  N53  1  0.383973  0.605725  0.749920  1
  N  N54  1  0.883973  0.894275  0.749920  1
  N  N55  1  0.883973  0.394275  0.750080  1
  N  N56  1  0.383973  0.105725  0.750080  1
  N  N57  1  0.645527  0.139229  0.133469  1
  N  N58  1  0.145527  0.860771  0.366531  1
  N  N59  1  0.145527  0.360771  0.133469  1
  N  N60  1  0.354473  0.860771  0.866531  1
  N  N61  1  0.854473  0.639229  0.866531  1
  N  N62  1  0.116027  0.605725  0.249920  1
  N  N63  1  0.354473  0.360771  0.633469  1
  O  O64  1  0.727623  0.022997  0.332061  1
  O  O65  1  0.549490  0.966704  0.390896  1
  O  O66  1  0.299078  0.886407  0.470188  1
  O  O67  1  0.022755  0.327091  0.262531  1
  O  O68  1  0.867351  0.185952  0.462886  1
  O  O69  1  0.791611  0.424222  0.344526  1
  O  O70  1  0.272377  0.977003  0.667939  1
  O  O71  1  0.299078  0.386407  0.029812  1
  O  O72  1  0.632649  0.685952  0.537114  1
  O  O73  1  0.291611  0.575778  0.155474  1
  O  O74  1  0.799078  0.613593  0.470188  1
  O  O75  1  0.200922  0.886407  0.970188  1
  O  O76  1  0.450510  0.533296  0.890896  1
  O  O77  1  0.522755  0.672909  0.237469  1
  O  O78  1  0.791611  0.924222  0.155474  1
  O  O79  1  0.527926  0.260198  0.613374  1
  O  O80  1  0.799078  0.113593  0.029812  1
  O  O81  1  0.141571  0.678195  0.098721  1
  O  O82  1  0.358429  0.178195  0.901279  1
  O  O83  1  0.132649  0.814048  0.537114  1
  O  O84  1  0.641571  0.321805  0.401279  1
  O  O85  1  0.022755  0.827091  0.237469  1
  O  O86  1  0.227623  0.977003  0.167939  1
  O  O87  1  0.549490  0.466704  0.109104  1
  O  O88  1  0.049490  0.033296  0.109104  1
  O  O89  1  0.772377  0.022997  0.832061  1
  O  O90  1  0.272377  0.477003  0.832061  1
  O  O91  1  0.708389  0.924222  0.655474  1
  O  O92  1  0.358429  0.678195  0.598721  1
  O  O93  1  0.477245  0.827091  0.737469  1
  O  O94  1  0.708389  0.424222  0.844526  1
  O  O95  1  0.950510  0.966704  0.890896  1
  O  O96  1  0.141571  0.178195  0.401279  1
  O  O97  1  0.367351  0.814048  0.037114  1
  O  O98  1  0.972074  0.760198  0.386626  1
  O  O99  1  0.977245  0.672909  0.737469  1
  O  O100  1  0.641571  0.821805  0.098721  1
  O  O101  1  0.977245  0.172909  0.762531  1
  O  O102  1  0.772377  0.522997  0.667939  1
  O  O103  1  0.027926  0.239802  0.613374  1
  O  O104  1  0.858429  0.321805  0.901279  1
  O  O105  1  0.027926  0.739802  0.886626  1
  O  O106  1  0.522755  0.172909  0.262531  1
  O  O107  1  0.858429  0.821805  0.598721  1
  O  O108  1  0.477245  0.327091  0.762531  1
  O  O109  1  0.867351  0.685952  0.037114  1
  O  O110  1  0.450510  0.033296  0.609104  1
  O  O111  1  0.367351  0.314048  0.462886  1
  O  O112  1  0.972074  0.260198  0.113374  1
  O  O113  1  0.200922  0.386407  0.529812  1
  O  O114  1  0.632649  0.185952  0.962886  1
  O  O115  1  0.472074  0.239802  0.113374  1
  O  O116  1  0.727623  0.522997  0.167939  1
  O  O117  1  0.472074  0.739802  0.386626  1
  O  O118  1  0.700922  0.113593  0.529812  1
  O  O119  1  0.700922  0.613593  0.970188  1
  O  O120  1  0.208389  0.575778  0.655474  1
  O  O121  1  0.227623  0.477003  0.332061  1
  O  O122  1  0.049490  0.533296  0.390896  1
  O  O123  1  0.950510  0.466704  0.609104  1
  O  O124  1  0.132649  0.314048  0.962886  1
  O  O125  1  0.208389  0.075778  0.844526  1
  O  O126  1  0.527926  0.760198  0.886626  1
  O  O127  1  0.291611  0.075778  0.344526  1
  F  F128  1  0.738954  0.272031  0.777513  1
  F  F129  1  0.761046  0.272031  0.277513  1
  F  F130  1  0.366345  0.476643  0.506271  1
  F  F131  1  0.454361  0.073466  0.142006  1
  F  F132  1  0.866345  0.523357  0.993729  1
  F  F133  1  0.045639  0.573466  0.857994  1
  F  F134  1  0.954361  0.426534  0.142006  1
  F  F135  1  0.954361  0.926534  0.357994  1
  F  F136  1  0.366345  0.976643  0.993729  1
  F  F137  1  0.633655  0.523357  0.493729  1
  F  F138  1  0.238954  0.227969  0.777513  1
  F  F139  1  0.289156  0.130368  0.598628  1
  F  F140  1  0.261046  0.227969  0.277513  1
  F  F141  1  0.761046  0.772031  0.222487  1
  F  F142  1  0.545639  0.926534  0.857994  1
  F  F143  1  0.454361  0.573466  0.357994  1
  F  F144  1  0.738954  0.772031  0.722487  1
  F  F145  1  0.789156  0.369632  0.598628  1
  F  F146  1  0.710844  0.869632  0.401372  1
  F  F147  1  0.210844  0.630368  0.401372  1
  F  F148  1  0.866345  0.023357  0.506271  1
  F  F149  1  0.238954  0.727969  0.722487  1
  F  F150  1  0.710844  0.369632  0.098628  1
  F  F151  1  0.045639  0.073466  0.642006  1
  F  F152  1  0.289156  0.630368  0.901372  1
  F  F153  1  0.261046  0.727969  0.222487  1
  F  F154  1  0.133655  0.476643  0.006271  1
  F  F155  1  0.210844  0.130368  0.098628  1
  F  F156  1  0.789156  0.869632  0.901372  1
  F  F157  1  0.545639  0.426534  0.642006  1
  F  F158  1  0.133655  0.976643  0.493729  1
  F  F159  1  0.633655  0.023357  0.006271  1
