# generated using pymatgen
data_Y2Al9Si27(N15O)3
_symmetry_space_group_name_H-M   'P 1'
_cell_length_a   7.96333787
_cell_length_b   7.93175508
_cell_length_c   17.24726126
_cell_angle_alpha   90.04390430
_cell_angle_beta   90.13101840
_cell_angle_gamma   120.32522970
_symmetry_Int_Tables_number   1
_chemical_formula_structural   Y2Al9Si27(N15O)3
_chemical_formula_sum   'Y2 Al9 Si27 N45 O3'
_cell_volume   940.33016604
_cell_formula_units_Z   1
loop_
 _symmetry_equiv_pos_site_id
 _symmetry_equiv_pos_as_xyz
  1  'x, y, z'
loop_
 _atom_site_type_symbol
 _atom_site_label
 _atom_site_symmetry_multiplicity
 _atom_site_fract_x
 _atom_site_fract_y
 _atom_site_fract_z
 _atom_site_occupancy
  Y  Y0  1  0.677359  0.330894  0.389946  1
  Y  Y1  1  0.658239  0.330839  0.734148  1
  Al  Al2  1  0.096435  0.579809  0.382698  1
  Al  Al3  1  0.414133  0.510770  0.719976  1
  Al  Al4  1  0.571243  0.074431  0.890938  1
  Al  Al5  1  0.917009  0.482866  0.216821  1
  Al  Al6  1  0.927457  0.489529  0.555124  1
  Al  Al7  1  0.918995  0.490461  0.893147  1
  Al  Al8  1  0.922153  0.167431  0.652455  1
  Al  Al9  1  0.922189  0.166960  0.316124  1
  Al  Al10  1  0.912950  0.165477  0.988371  1
  Si  Si11  1  0.167796  0.927063  0.147145  1
  Si  Si12  1  0.170188  0.926769  0.482647  1
  Si  Si13  1  0.175367  0.937545  0.818115  1
  Si  Si14  1  0.087431  0.570797  0.052592  1
  Si  Si15  1  0.091591  0.577249  0.719942  1
  Si  Si16  1  0.088668  0.260632  0.152242  1
  Si  Si17  1  0.079753  0.255524  0.484746  1
  Si  Si18  1  0.083720  0.257326  0.822698  1
  Si  Si19  1  0.488913  0.920283  0.055803  1
  Si  Si20  1  0.486370  0.907401  0.386260  1
  Si  Si21  1  0.484036  0.909438  0.719434  1
  Si  Si22  1  0.429410  0.512161  0.055360  1
  Si  Si23  1  0.427196  0.512199  0.386618  1
  Si  Si24  1  0.246616  0.074991  0.314241  1
  Si  Si25  1  0.250244  0.076158  0.647740  1
  Si  Si26  1  0.250187  0.081533  0.983990  1
  Si  Si27  1  0.513945  0.430735  0.217646  1
  Si  Si28  1  0.509909  0.427732  0.552169  1
  Si  Si29  1  0.507828  0.431775  0.890262  1
  Si  Si30  1  0.744419  0.835879  0.150487  1
  Si  Si31  1  0.749098  0.830499  0.484963  1
  Si  Si32  1  0.747598  0.829844  0.817613  1
  Si  Si33  1  0.831826  0.745559  0.315268  1
  Si  Si34  1  0.836570  0.749959  0.987286  1
  Si  Si35  1  0.833511  0.745537  0.653050  1
  Si  Si36  1  0.560932  0.078379  0.219416  1
  Si  Si37  1  0.565542  0.076631  0.553529  1
  N  N38  1  0.003438  0.987196  0.320336  1
  N  N39  1  0.005979  0.987484  0.649809  1
  N  N40  1  0.315586  0.996790  0.067119  1
  N  N41  1  0.324599  0.000927  0.399986  1
  N  N42  1  0.331016  0.013485  0.733653  1
  N  N43  1  0.010258  0.332240  0.073173  1
  N  N44  1  0.983975  0.318406  0.407009  1
  N  N45  1  0.997072  0.332628  0.739807  1
  N  N46  1  0.334689  0.667963  0.041026  1
  N  N47  1  0.348474  0.668670  0.364705  1
  N  N48  1  0.326104  0.675041  0.693378  1
  N  N49  1  0.604795  0.950445  0.148828  1
  N  N50  1  0.610920  0.952196  0.477462  1
  N  N51  1  0.614051  0.949581  0.804027  1
  N  N52  1  0.346313  0.386852  0.145148  1
  N  N53  1  0.343941  0.384496  0.475207  1
  N  N54  1  0.340036  0.379056  0.813655  1
  N  N55  1  0.401116  0.339725  0.314114  1
  N  N56  1  0.402713  0.332358  0.642240  1
  N  N57  1  0.392996  0.344471  0.980190  1
  N  N58  1  0.308374  0.992602  0.232103  1
  N  N59  1  0.315105  0.993383  0.564094  1
  N  N60  1  0.307437  0.999350  0.899654  1
  N  N61  1  0.679013  0.686908  0.067903  1
  N  N62  1  0.681530  0.672155  0.401838  1
  N  N63  1  0.686354  0.671274  0.734740  1
  N  N64  1  0.683601  0.682239  0.232814  1
  N  N65  1  0.687637  0.678007  0.566255  1
  N  N66  1  0.688911  0.683698  0.900609  1
  N  N67  1  0.652344  0.323679  0.203459  1
  N  N68  1  0.658794  0.339875  0.861484  1
  N  N69  1  0.658419  0.326283  0.526452  1
  N  N70  1  0.997334  0.001680  0.151487  1
  N  N71  1  0.999201  0.000057  0.482987  1
  N  N72  1  0.997761  0.001985  0.813532  1
  N  N73  1  0.005425  0.993402  0.986831  1
  N  N74  1  0.645292  0.059198  0.645830  1
  N  N75  1  0.643106  0.057069  0.314643  1
  N  N76  1  0.647763  0.038803  0.984743  1
  N  N77  1  0.925464  0.592533  0.316244  1
  N  N78  1  0.934018  0.592582  0.653344  1
  N  N79  1  0.953897  0.614766  0.985938  1
  N  N80  1  0.015662  0.323987  0.233476  1
  N  N81  1  0.999120  0.315241  0.899808  1
  N  N82  1  0.013842  0.320025  0.566672  1
  O  O83  1  0.051850  0.672162  0.142049  1
  O  O84  1  0.051930  0.676643  0.477874  1
  O  O85  1  0.059251  0.678006  0.805722  1
