# generated using pymatgen
data_Na3(TiS2)10
_symmetry_space_group_name_H-M   'P 1'
_cell_length_a   13.12769012
_cell_length_b   65.62770542
_cell_length_c   26.02701722
_cell_angle_alpha   7.49136195
_cell_angle_beta   13.03353698
_cell_angle_gamma   15.00070434
_symmetry_Int_Tables_number   1
_chemical_formula_structural   Na3(TiS2)10
_chemical_formula_sum   'Na3 Ti10 S20'
_cell_volume   659.30691825
_cell_formula_units_Z   1
loop_
 _symmetry_equiv_pos_site_id
 _symmetry_equiv_pos_as_xyz
  1  'x, y, z'
loop_
 _atom_site_type_symbol
 _atom_site_label
 _atom_site_symmetry_multiplicity
 _atom_site_fract_x
 _atom_site_fract_y
 _atom_site_fract_z
 _atom_site_occupancy
  Na  Na0  1  0.340930  0.200000  0.327328  1
  Na  Na1  1  0.661838  0.592802  0.689170  1
  Na  Na2  1  0.661838  0.807198  0.653181  1
  Ti  Ti3  1  0.423501  0.002924  0.419316  1
  Ti  Ti4  1  0.432717  0.200000  0.422365  1
  Ti  Ti5  1  0.569984  0.200000  0.576648  1
  Ti  Ti6  1  0.423501  0.397076  0.433937  1
  Ti  Ti7  1  0.577038  0.398464  0.577007  1
  Ti  Ti8  1  0.423922  0.600061  0.426924  1
  Ti  Ti9  1  0.574436  0.601042  0.571361  1
  Ti  Ti10  1  0.423922  0.799939  0.427228  1
  Ti  Ti11  1  0.574436  0.798958  0.576571  1
  Ti  Ti12  1  0.577038  0.001536  0.569326  1
  S  S13  1  0.057747  0.001065  0.050285  1
  S  S14  1  0.205482  0.999719  0.205763  1
  S  S15  1  0.057917  0.200000  0.052888  1
  S  S16  1  0.203561  0.200000  0.206225  1
  S  S17  1  0.057747  0.398935  0.055608  1
  S  S18  1  0.205482  0.400281  0.204360  1
  S  S19  1  0.051222  0.599083  0.058523  1
  S  S20  1  0.795126  0.200000  0.794778  1
  S  S21  1  0.206221  0.599869  0.205128  1
  S  S22  1  0.950300  0.200000  0.942701  1
  S  S23  1  0.051222  0.800917  0.053939  1
  S  S24  1  0.794985  0.399986  0.795035  1
  S  S25  1  0.206221  0.800131  0.204472  1
  S  S26  1  0.944405  0.401034  0.943494  1
  S  S27  1  0.794625  0.599494  0.796026  1
  S  S28  1  0.944311  0.599996  0.946655  1
  S  S29  1  0.794625  0.800506  0.793496  1
  S  S30  1  0.944311  0.800004  0.946634  1
  S  S31  1  0.794985  0.000014  0.794964  1
  S  S32  1  0.944405  0.998966  0.948665  1
