# generated using pymatgen
data_Nb3Te4ClO15
_symmetry_space_group_name_H-M   'P 1'
_cell_length_a   7.97047861
_cell_length_b   10.43363160
_cell_length_c   19.65395509
_cell_angle_alpha   85.58129319
_cell_angle_beta   78.28821230
_cell_angle_gamma   67.58055512
_symmetry_Int_Tables_number   1
_chemical_formula_structural   Nb3Te4ClO15
_chemical_formula_sum   'Nb12 Te16 Cl4 O60'
_cell_volume   1479.45101795
_cell_formula_units_Z   4
loop_
 _symmetry_equiv_pos_site_id
 _symmetry_equiv_pos_as_xyz
  1  'x, y, z'
loop_
 _atom_site_type_symbol
 _atom_site_label
 _atom_site_symmetry_multiplicity
 _atom_site_fract_x
 _atom_site_fract_y
 _atom_site_fract_z
 _atom_site_occupancy
  Nb  Nb0  1  0.996157  0.744366  0.490668  1
  Nb  Nb1  1  0.512202  0.247017  0.505733  1
  Nb  Nb2  1  0.769489  0.246524  0.990344  1
  Nb  Nb3  1  0.268150  0.251946  0.994223  1
  Nb  Nb4  1  0.871443  0.260204  0.252022  1
  Nb  Nb5  1  0.232720  0.752983  0.010266  1
  Nb  Nb6  1  0.382935  0.241748  0.247283  1
  Nb  Nb7  1  0.734082  0.748737  0.004960  1
  Nb  Nb8  1  0.615366  0.760760  0.753371  1
  Nb  Nb9  1  0.487695  0.751501  0.493664  1
  Nb  Nb10  1  0.127377  0.741384  0.747463  1
  Nb  Nb11  1  0.004676  0.252066  0.508898  1
  Te  Te12  1  0.141409  0.466062  0.626384  1
  Te  Te13  1  0.638797  0.964173  0.370726  1
  Te  Te14  1  0.025738  0.463716  0.870952  1
  Te  Te15  1  0.375324  0.502470  0.356091  1
  Te  Te16  1  0.765616  0.967763  0.125327  1
  Te  Te17  1  0.230237  0.997076  0.143879  1
  Te  Te18  1  0.973874  0.536507  0.128901  1
  Te  Te19  1  0.513081  0.498081  0.862752  1
  Te  Te20  1  0.122600  0.997662  0.362174  1
  Te  Te21  1  0.363453  0.033966  0.628697  1
  Te  Te22  1  0.489326  0.502683  0.137695  1
  Te  Te23  1  0.857648  0.533253  0.375382  1
  Te  Te24  1  0.231467  0.034099  0.876174  1
  Te  Te25  1  0.872643  0.000460  0.637212  1
  Te  Te26  1  0.629583  0.496536  0.643462  1
  Te  Te27  1  0.769374  0.005116  0.855295  1
  Cl  Cl28  1  0.209365  0.745545  0.249316  1
  Cl  Cl29  1  0.301264  0.252760  0.750091  1
  Cl  Cl30  1  0.704769  0.745162  0.249794  1
  Cl  Cl31  1  0.794514  0.247349  0.751817  1
  O  O32  1  0.738630  0.254718  0.501928  1
  O  O33  1  0.025941  0.900054  0.818078  1
  O  O34  1  0.326001  0.590876  0.076131  1
  O  O35  1  0.544249  0.111084  0.589855  1
  O  O36  1  0.568012  0.624584  0.569929  1
  O  O37  1  0.435170  0.373219  0.429216  1
  O  O38  1  0.334329  0.631000  0.928769  1
  O  O39  1  0.832957  0.118598  0.907371  1
  O  O40  1  0.530819  0.902615  0.681425  1
  O  O41  1  0.577887  0.084493  0.446808  1
  O  O42  1  0.005137  0.089512  0.573900  1
  O  O43  1  0.658532  0.608354  0.827148  1
  O  O44  1  0.106364  0.600028  0.818568  1
  O  O45  1  0.955040  0.416078  0.448823  1
  O  O46  1  0.820275  0.083606  0.051139  1
  O  O47  1  0.475146  0.100580  0.318319  1
  O  O48  1  0.179588  0.917149  0.950275  1
  O  O49  1  0.148664  0.618831  0.408065  1
  O  O50  1  0.742349  0.600207  0.682789  1
  O  O51  1  0.224772  0.245412  0.534101  1
  O  O52  1  0.829932  0.391870  0.327133  1
  O  O53  1  0.106680  0.132124  0.426422  1
  O  O54  1  0.759119  0.875417  0.928392  1
  O  O55  1  0.887855  0.402712  0.181173  1
  O  O56  1  0.238888  0.122427  0.069354  1
  O  O57  1  0.756208  0.611532  0.089239  1
  O  O58  1  0.258005  0.749980  0.497944  1
  O  O59  1  0.857459  0.379727  0.592275  1
  O  O60  1  0.973035  0.100580  0.181376  1
  O  O61  1  0.778451  0.749242  0.463060  1
  O  O62  1  0.902550  0.109517  0.327117  1
  O  O63  1  0.604947  0.590586  0.422110  1
  O  O64  1  0.393646  0.403641  0.579783  1
  O  O65  1  0.546351  0.108753  0.171968  1
  O  O66  1  0.668603  0.369722  0.071213  1
  O  O67  1  0.046775  0.582385  0.551690  1
  O  O68  1  0.379838  0.093174  0.921785  1
  O  O69  1  0.450438  0.893067  0.827862  1
  O  O70  1  0.342871  0.393189  0.173568  1
  O  O71  1  0.258914  0.399428  0.318287  1
  O  O72  1  0.372986  0.709557  0.747380  1
  O  O73  1  0.674830  0.408629  0.924666  1
  O  O74  1  0.172535  0.608135  0.672343  1
  O  O75  1  0.245072  0.388452  0.910158  1
  O  O76  1  0.625172  0.295545  0.251649  1
  O  O77  1  0.890847  0.867060  0.571658  1
  O  O78  1  0.169910  0.878571  0.093864  1
  O  O79  1  0.504901  0.751645  0.002373  1
  O  O80  1  0.621331  0.904818  0.079333  1
  O  O81  1  0.498741  0.245920  0.997201  1
  O  O82  1  0.427623  0.910834  0.553449  1
  O  O83  1  0.093891  0.892018  0.672456  1
  O  O84  1  0.009967  0.250806  0.963764  1
  O  O85  1  0.886547  0.586503  0.945973  1
  O  O86  1  0.457483  0.886108  0.408608  1
  O  O87  1  0.172640  0.205576  0.245851  1
  O  O88  1  0.113722  0.411947  0.054360  1
  O  O89  1  0.827483  0.796324  0.751984  1
  O  O90  1  0.993434  0.746874  0.034815  1
  O  O91  1  0.989314  0.909921  0.425404  1
