# generated using pymatgen
data_HXeF7
_symmetry_space_group_name_H-M   'P 1'
_cell_length_a   10.51910442
_cell_length_b   10.51910429
_cell_length_c   10.51910447
_cell_angle_alpha   107.67504866
_cell_angle_beta   107.67504836
_cell_angle_gamma   107.67504915
_symmetry_Int_Tables_number   1
_chemical_formula_structural   HXeF7
_chemical_formula_sum   'H6 Xe6 F42'
_cell_volume   950.93833029
_cell_formula_units_Z   6
loop_
 _symmetry_equiv_pos_site_id
 _symmetry_equiv_pos_as_xyz
  1  'x, y, z'
loop_
 _atom_site_type_symbol
 _atom_site_label
 _atom_site_symmetry_multiplicity
 _atom_site_fract_x
 _atom_site_fract_y
 _atom_site_fract_z
 _atom_site_occupancy
  H  H0  1  0.064067  0.680701  0.141617  1
  H  H1  1  0.935933  0.319299  0.858383  1
  H  H2  1  0.319299  0.858383  0.935933  1
  H  H3  1  0.858383  0.935933  0.319299  1
  H  H4  1  0.141617  0.064067  0.680701  1
  H  H5  1  0.680701  0.141617  0.064067  1
  Xe  Xe6  1  0.230077  0.505467  0.140779  1
  Xe  Xe7  1  0.505467  0.140779  0.230077  1
  Xe  Xe8  1  0.769923  0.494533  0.859221  1
  Xe  Xe9  1  0.140779  0.230077  0.505467  1
  Xe  Xe10  1  0.859221  0.769923  0.494533  1
  Xe  Xe11  1  0.494533  0.859221  0.769923  1
  F  F12  1  0.320983  0.190858  0.577362  1
  F  F13  1  0.698855  0.598467  0.994171  1
  F  F14  1  0.401533  0.005829  0.301145  1
  F  F15  1  0.598467  0.994171  0.698855  1
  F  F16  1  0.832430  0.263581  0.836135  1
  F  F17  1  0.530969  0.718612  0.626641  1
  F  F18  1  0.310662  0.800444  0.591210  1
  F  F19  1  0.922070  0.079075  0.463646  1
  F  F20  1  0.994171  0.698855  0.598467  1
  F  F21  1  0.199556  0.408790  0.689338  1
  F  F22  1  0.005829  0.301145  0.401533  1
  F  F23  1  0.163865  0.167570  0.736419  1
  F  F24  1  0.304088  0.091794  0.081327  1
  F  F25  1  0.809142  0.422638  0.679017  1
  F  F26  1  0.167570  0.736419  0.163865  1
  F  F27  1  0.079075  0.463646  0.922070  1
  F  F28  1  0.695912  0.908206  0.918673  1
  F  F29  1  0.077930  0.920925  0.536354  1
  F  F30  1  0.736419  0.163865  0.167570  1
  F  F31  1  0.577362  0.320983  0.190858  1
  F  F32  1  0.408790  0.689338  0.199556  1
  F  F33  1  0.718612  0.626641  0.530969  1
  F  F34  1  0.800444  0.591210  0.310662  1
  F  F35  1  0.463646  0.922070  0.079075  1
  F  F36  1  0.469031  0.281388  0.373359  1
  F  F37  1  0.920925  0.536354  0.077930  1
  F  F38  1  0.918673  0.695912  0.908206  1
  F  F39  1  0.536354  0.077930  0.920925  1
  F  F40  1  0.081327  0.304088  0.091794  1
  F  F41  1  0.626641  0.530969  0.718612  1
  F  F42  1  0.908206  0.918673  0.695912  1
  F  F43  1  0.836135  0.832430  0.263581  1
  F  F44  1  0.263581  0.836135  0.832430  1
  F  F45  1  0.689338  0.199556  0.408790  1
  F  F46  1  0.422638  0.679017  0.809142  1
  F  F47  1  0.091794  0.081327  0.304088  1
  F  F48  1  0.591210  0.310662  0.800444  1
  F  F49  1  0.301145  0.401533  0.005829  1
  F  F50  1  0.190858  0.577362  0.320983  1
  F  F51  1  0.679017  0.809142  0.422638  1
  F  F52  1  0.373359  0.469031  0.281388  1
  F  F53  1  0.281388  0.373359  0.469031  1
