# generated using pymatgen
data_Na6Ga5Si7H15O32
_symmetry_space_group_name_H-M   'P 1'
_cell_length_a   8.77372139
_cell_length_b   9.31162461
_cell_length_c   9.27820404
_cell_angle_alpha   89.37001373
_cell_angle_beta   89.82213254
_cell_angle_gamma   90.25447840
_symmetry_Int_Tables_number   1
_chemical_formula_structural   Na6Ga5Si7H15O32
_chemical_formula_sum   'Na6 Ga5 Si7 H15 O32'
_cell_volume   757.94993791
_cell_formula_units_Z   1
loop_
 _symmetry_equiv_pos_site_id
 _symmetry_equiv_pos_as_xyz
  1  'x, y, z'
loop_
 _atom_site_type_symbol
 _atom_site_label
 _atom_site_symmetry_multiplicity
 _atom_site_fract_x
 _atom_site_fract_y
 _atom_site_fract_z
 _atom_site_occupancy
  Na  Na0  1  0.352162  0.378264  0.618300  1
  Na  Na1  1  0.349455  0.621689  0.363046  1
  Na  Na2  1  0.625261  0.340795  0.349066  1
  Na  Na3  1  0.622499  0.658159  0.668813  1
  Na  Na4  1  0.884716  0.132332  0.865824  1
  Na  Na5  1  0.974137  0.873021  0.105063  1
  Ga  Ga6  1  0.028774  0.504822  0.741082  1
  Ga  Ga7  1  0.367736  0.793511  0.031714  1
  Ga  Ga8  1  0.460916  0.230383  0.993919  1
  Ga  Ga9  1  0.754146  0.004457  0.500658  1
  Ga  Ga10  1  0.752103  0.503865  0.005947  1
  Si  Si11  1  0.004724  0.745875  0.498935  1
  Si  Si12  1  0.250245  0.996320  0.503537  1
  Si  Si13  1  0.248383  0.499506  0.011187  1
  Si  Si14  1  0.486618  0.996873  0.751862  1
  Si  Si15  1  0.491955  0.001348  0.259191  1
  Si  Si16  1  0.019693  0.252582  0.499144  1
  Si  Si17  1  0.007387  0.494948  0.263876  1
  H  H18  1  0.178892  0.216942  0.874065  1
  H  H19  1  0.324178  0.316532  0.317977  1
  H  H20  1  0.335882  0.686305  0.674484  1
  H  H21  1  0.597535  0.270760  0.716221  1
  H  H22  1  0.588782  0.775268  0.234013  1
  H  H23  1  0.768729  0.401432  0.766015  1
  H  H24  1  0.724410  0.615426  0.277988  1
  H  H25  1  0.729721  0.278896  0.603564  1
  H  H26  1  0.725072  0.735224  0.390233  1
  H  H27  1  0.780089  0.097157  0.220799  1
  H  H28  1  0.771963  0.896741  0.779219  1
  H  H29  1  0.723279  0.259047  0.086638  1
  H  H30  1  0.721720  0.741769  0.925134  1
  H  H31  1  0.941234  0.167203  0.178999  1
  H  H32  1  0.930691  0.823568  0.804352  1
  O  O33  1  0.084594  0.369884  0.610102  1
  O  O34  1  0.052244  0.626017  0.375918  1
  O  O35  1  0.121272  0.135187  0.838937  1
  O  O36  1  0.207632  0.833764  0.135132  1
  O  O37  1  0.142506  0.130238  0.449081  1
  O  O38  1  0.144220  0.855221  0.539023  1
  O  O39  1  0.137773  0.450892  0.149714  1
  O  O40  1  0.137166  0.573889  0.890002  1
  O  O41  1  0.320808  0.355973  0.935981  1
  O  O42  1  0.389545  0.595207  0.068341  1
  O  O43  1  0.358406  0.047618  0.634648  1
  O  O44  1  0.370930  0.946845  0.379415  1
  O  O45  1  0.384969  0.376469  0.380215  1
  O  O46  1  0.382612  0.618065  0.609719  1
  O  O47  1  0.427045  0.114661  0.145571  1
  O  O48  1  0.438620  0.868619  0.858190  1
  O  O49  1  0.546758  0.145805  0.832261  1
  O  O50  1  0.553586  0.858337  0.168715  1
  O  O51  1  0.648624  0.342617  0.647279  1
  O  O52  1  0.652384  0.664372  0.347322  1
  O  O53  1  0.644894  0.070771  0.341329  1
  O  O54  1  0.641769  0.941398  0.658719  1
  O  O55  1  0.644227  0.334791  0.067048  1
  O  O56  1  0.653712  0.657411  0.935951  1
  O  O57  1  0.853522  0.545976  0.176180  1
  O  O58  1  0.850205  0.424056  0.839231  1
  O  O59  1  0.861465  0.168877  0.552613  1
  O  O60  1  0.863355  0.846182  0.435193  1
  O  O61  1  0.852108  0.117373  0.137700  1
  O  O62  1  0.851103  0.877007  0.855530  1
  O  O63  1  0.961355  0.345269  0.353596  1
  O  O64  1  0.942704  0.662189  0.643477  1
