# generated using pymatgen
data_Li3Sc2(PO4)3
_symmetry_space_group_name_H-M   'P 1'
_cell_length_a   8.91245368
_cell_length_b   8.95835552
_cell_length_c   12.41786979
_cell_angle_alpha   89.97637864
_cell_angle_beta   90.00000000
_cell_angle_gamma   90.00000000
_symmetry_Int_Tables_number   1
_chemical_formula_structural   Li3Sc2(PO4)3
_chemical_formula_sum   'Li12 Sc8 P12 O48'
_cell_volume   991.45417177
_cell_formula_units_Z   4
loop_
 _symmetry_equiv_pos_site_id
 _symmetry_equiv_pos_as_xyz
  1  'x, y, z'
loop_
 _atom_site_type_symbol
 _atom_site_label
 _atom_site_symmetry_multiplicity
 _atom_site_fract_x
 _atom_site_fract_y
 _atom_site_fract_z
 _atom_site_occupancy
  Li  Li0  1  0.206290  0.425420  0.744455  1
  Li  Li1  1  0.706290  0.074580  0.755545  1
  Li  Li2  1  0.793710  0.574580  0.255545  1
  Li  Li3  1  0.293710  0.925420  0.244455  1
  Li  Li4  1  0.084821  0.078694  0.700013  1
  Li  Li5  1  0.584821  0.421306  0.799987  1
  Li  Li6  1  0.915179  0.921306  0.299987  1
  Li  Li7  1  0.415179  0.578694  0.200013  1
  Li  Li8  1  0.232351  0.789213  0.820392  1
  Li  Li9  1  0.732351  0.710787  0.679608  1
  Li  Li10  1  0.767649  0.210787  0.179608  1
  Li  Li11  1  0.267649  0.289213  0.320392  1
  O  O12  1  0.226288  0.144862  0.809980  1
  O  O13  1  0.726288  0.355138  0.690020  1
  O  O14  1  0.773712  0.855138  0.190020  1
  O  O15  1  0.273712  0.644862  0.309980  1
  O  O16  1  0.245524  0.654637  0.688728  1
  O  O17  1  0.745524  0.845363  0.811272  1
  O  O18  1  0.754476  0.345363  0.311272  1
  O  O19  1  0.254476  0.154637  0.188728  1
  O  O20  1  0.370923  0.110521  0.556923  1
  O  O21  1  0.870923  0.389479  0.943077  1
  O  O22  1  0.629077  0.889479  0.443077  1
  O  O23  1  0.129077  0.610521  0.056923  1
  O  O24  1  0.338578  0.662437  0.928035  1
  O  O25  1  0.838578  0.837563  0.571965  1
  O  O26  1  0.661422  0.337563  0.071965  1
  O  O27  1  0.161422  0.162437  0.428035  1
  O  O28  1  0.192460  0.427169  0.905521  1
  O  O29  1  0.692460  0.072831  0.594479  1
  O  O30  1  0.807540  0.572831  0.094479  1
  O  O31  1  0.307540  0.927169  0.405521  1
  O  O32  1  0.139237  0.957616  0.570975  1
  O  O33  1  0.639237  0.542384  0.929025  1
  O  O34  1  0.860763  0.042384  0.429025  1
  O  O35  1  0.360763  0.457616  0.070975  1
  O  O36  1  0.409728  0.152154  0.964643  1
  O  O37  1  0.909728  0.347846  0.535357  1
  O  O38  1  0.590272  0.847846  0.035357  1
  O  O39  1  0.090272  0.652154  0.464643  1
  O  O40  1  0.438467  0.652956  0.537903  1
  O  O41  1  0.938467  0.847044  0.962097  1
  O  O42  1  0.561533  0.347044  0.462097  1
  O  O43  1  0.061533  0.152956  0.037903  1
  O  O44  1  0.009793  0.320213  0.723337  1
  O  O45  1  0.509793  0.179787  0.776663  1
  O  O46  1  0.990207  0.679787  0.276664  1
  O  O47  1  0.490207  0.820213  0.223336  1
  O  O48  1  0.028476  0.840743  0.769240  1
  O  O49  1  0.528476  0.659257  0.730760  1
  O  O50  1  0.971524  0.159257  0.230760  1
  O  O51  1  0.471524  0.340743  0.269240  1
  O  O52  1  0.402572  0.428768  0.665369  1
  O  O53  1  0.902572  0.071232  0.834631  1
  O  O54  1  0.597428  0.571232  0.334631  1
  O  O55  1  0.097428  0.928768  0.165369  1
  O  O56  1  0.406095  0.930213  0.836850  1
  O  O57  1  0.906095  0.569787  0.663150  1
  O  O58  1  0.593905  0.069787  0.163150  1
  O  O59  1  0.093905  0.430213  0.336850  1
  P  P60  1  0.254453  0.537919  0.990389  1
  P  P61  1  0.754453  0.962081  0.509611  1
  P  P62  1  0.745547  0.462081  0.009611  1
  P  P63  1  0.245547  0.037919  0.490389  1
  P  P64  1  0.386840  0.101823  0.847129  1
  P  P65  1  0.886840  0.398177  0.652871  1
  P  P66  1  0.613160  0.898177  0.152871  1
  P  P67  1  0.113160  0.601823  0.347129  1
  P  P68  1  0.405005  0.602339  0.652466  1
  P  P69  1  0.905005  0.897661  0.847534  1
  P  P70  1  0.594995  0.397661  0.347534  1
  P  P71  1  0.094995  0.102339  0.152466  1
  Sc  Sc72  1  0.034092  0.253881  0.894324  1
  Sc  Sc73  1  0.534092  0.246119  0.605676  1
  Sc  Sc74  1  0.965908  0.746119  0.105676  1
  Sc  Sc75  1  0.465908  0.753881  0.394324  1
  Sc  Sc76  1  0.047614  0.744560  0.606585  1
  Sc  Sc77  1  0.547614  0.755440  0.893415  1
  Sc  Sc78  1  0.952386  0.255440  0.393415  1
  Sc  Sc79  1  0.452386  0.244560  0.106585  1
