# generated using pymatgen
data_CaAl2(SiO4)2
_symmetry_space_group_name_H-M   'P 1'
_cell_length_a   8.26623707
_cell_length_b   13.03462897
_cell_length_c   13.06026450
_cell_angle_alpha   85.58390350
_cell_angle_beta   81.28143004
_cell_angle_gamma   89.14906592
_symmetry_Int_Tables_number   1
_chemical_formula_structural   CaAl2(SiO4)2
_chemical_formula_sum   'Ca8 Al16 Si16 O64'
_cell_volume   1386.81138761
_cell_formula_units_Z   8
loop_
 _symmetry_equiv_pos_site_id
 _symmetry_equiv_pos_as_xyz
  1  'x, y, z'
loop_
 _atom_site_type_symbol
 _atom_site_label
 _atom_site_symmetry_multiplicity
 _atom_site_fract_x
 _atom_site_fract_y
 _atom_site_fract_z
 _atom_site_occupancy
  O  O0  1  0.507544  0.625937  0.195779  1
  O  O1  1  0.492456  0.374063  0.804221  1
  O  O2  1  0.453469  0.143476  0.719622  1
  O  O3  1  0.546531  0.856524  0.280378  1
  O  O4  1  0.954996  0.636848  0.732981  1
  O  O5  1  0.045004  0.363152  0.267019  1
  O  O6  1  0.992736  0.125052  0.210047  1
  O  O7  1  0.007264  0.874948  0.789953  1
  O  O8  1  0.488860  0.394612  0.201783  1
  O  O9  1  0.511140  0.605388  0.798217  1
  O  O10  1  0.535554  0.897622  0.682895  1
  O  O11  1  0.464446  0.102378  0.317105  1
  O  O12  1  0.023627  0.393577  0.677990  1
  O  O13  1  0.976373  0.606423  0.322010  1
  O  O14  1  0.995587  0.895571  0.191234  1
  O  O15  1  0.004413  0.104429  0.808766  1
  O  O16  1  0.416096  0.802175  0.096801  1
  O  O17  1  0.583904  0.197825  0.903199  1
  O  O18  1  0.406841  0.312298  0.602602  1
  O  O19  1  0.593159  0.687702  0.397398  1
  O  O20  1  0.909605  0.820870  0.609224  1
  O  O21  1  0.090395  0.179130  0.390776  1
  O  O22  1  0.897403  0.318434  0.104209  1
  O  O23  1  0.102597  0.681566  0.895791  1
  O  O24  1  0.358838  0.202664  0.148008  1
  O  O25  1  0.207810  0.396921  0.078210  1
  O  O26  1  0.641162  0.797336  0.851992  1
  O  O27  1  0.626003  0.290085  0.353806  1
  O  O28  1  0.873272  0.223426  0.636132  1
  O  O29  1  0.126728  0.776574  0.363868  1
  O  O30  1  0.882087  0.720100  0.136152  1
  O  O31  1  0.117913  0.279900  0.863848  1
  O  O32  1  0.209383  0.641400  0.136952  1
  O  O33  1  0.790617  0.358600  0.863048  1
  O  O34  1  0.205309  0.149336  0.604580  1
  O  O35  1  0.794691  0.850664  0.395420  1
  O  O36  1  0.689015  0.644655  0.609263  1
  O  O37  1  0.310985  0.355345  0.390737  1
  O  O38  1  0.673520  0.145155  0.146625  1
  O  O39  1  0.326480  0.854845  0.853375  1
  O  O40  1  0.968645  0.123839  0.005475  1
  O  O41  1  0.031355  0.876161  0.994525  1
  O  O42  1  0.998292  0.624700  0.513643  1
  O  O43  1  0.001708  0.375300  0.486357  1
  O  O44  1  0.498258  0.127230  0.516431  1
  O  O45  1  0.501742  0.872770  0.483569  1
  O  O46  1  0.477037  0.622734  0.002459  1
  O  O47  1  0.522963  0.377266  0.997541  1
  O  O48  1  0.569262  0.991723  0.856329  1
  O  O49  1  0.430738  0.008277  0.143671  1
  O  O50  1  0.561456  0.486683  0.365745  1
  O  O51  1  0.438544  0.513317  0.634255  1
  O  O52  1  0.063385  0.989580  0.364214  1
  O  O53  1  0.936615  0.010420  0.635786  1
  O  O54  1  0.065898  0.492203  0.861707  1
  O  O55  1  0.934102  0.507797  0.138293  1
  O  O56  1  0.263284  0.101348  0.919379  1
  O  O57  1  0.736716  0.898652  0.080621  1
  O  O58  1  0.272364  0.594922  0.394993  1
  O  O59  1  0.727636  0.405078  0.605007  1
  O  O60  1  0.789448  0.095491  0.394190  1
  O  O61  1  0.210552  0.904509  0.605810  1
  O  O62  1  0.792190  0.603079  0.921790  1
  O  O63  1  0.373997  0.709915  0.646194  1
  Al  Al64  1  0.004553  0.621819  0.182915  1
  Al  Al65  1  0.995447  0.378181  0.817085  1
  Al  Al66  1  0.006747  0.128428  0.673219  1
  Al  Al67  1  0.993253  0.871572  0.326781  1
  Al  Al68  1  0.601948  0.160486  0.389016  1
  Al  Al69  1  0.398052  0.839514  0.610984  1
  Al  Al70  1  0.613419  0.666297  0.887579  1
  Al  Al71  1  0.386581  0.333703  0.112421  1
  Al  Al72  1  0.126526  0.815355  0.882009  1
  Al  Al73  1  0.873474  0.184645  0.117991  1
  Al  Al74  1  0.111395  0.314499  0.378959  1
  Al  Al75  1  0.465466  0.112968  0.848893  1
  Al  Al76  1  0.523969  0.390617  0.668463  1
  Al  Al77  1  0.476031  0.609383  0.331537  1
  Al  Al78  1  0.534534  0.887032  0.151107  1
  Al  Al79  1  0.888605  0.685501  0.621041  1
  Si  Si80  1  0.396391  0.678036  0.110135  1
  Si  Si81  1  0.603609  0.321964  0.889865  1
  Si  Si82  1  0.391898  0.185719  0.614128  1
  Si  Si83  1  0.608102  0.814281  0.385873  1
  Si  Si84  1  0.979728  0.102833  0.335692  1
  Si  Si85  1  0.020272  0.897167  0.664308  1
  Si  Si86  1  0.977127  0.606615  0.851654  1
  Si  Si87  1  0.022873  0.393385  0.148346  1
  Si  Si88  1  0.514480  0.883627  0.811854  1
  Si  Si89  1  0.485520  0.116373  0.188146  1
  Si  Si90  1  0.496168  0.378207  0.327301  1
  Si  Si91  1  0.503832  0.621793  0.672699  1
  Si  Si92  1  0.092166  0.159087  0.895929  1
  Si  Si93  1  0.097248  0.655603  0.395599  1
  Si  Si94  1  0.907834  0.840913  0.104071  1
  Si  Si95  1  0.902752  0.344397  0.604401  1
  Ca  Ca96  1  0.683559  0.500123  0.079099  1
  Ca  Ca97  1  0.316441  0.499877  0.920901  1
  Ca  Ca98  1  0.235416  0.460471  0.539549  1
  Ca  Ca99  1  0.764584  0.539529  0.460451  1
  Ca  Ca100  1  0.731573  0.962385  0.540727  1
  Ca  Ca101  1  0.268427  0.037615  0.459273  1
  Ca  Ca102  1  0.175736  0.019912  0.088643  1
  Ca  Ca103  1  0.824264  0.980088  0.911357  1
