# generated using pymatgen
data_Na3Zr2Si2PO12
_symmetry_space_group_name_H-M   'P 1'
_cell_length_a   9.36501479
_cell_length_b   9.40210615
_cell_length_c   18.81389888
_cell_angle_alpha   58.79739264
_cell_angle_beta   58.95137758
_cell_angle_gamma   59.02955786
_symmetry_Int_Tables_number   1
_chemical_formula_structural   Na3Zr2Si2PO12
_chemical_formula_sum   'Na12 Zr8 Si8 P4 O48'
_cell_volume   1142.66256001
_cell_formula_units_Z   4
loop_
 _symmetry_equiv_pos_site_id
 _symmetry_equiv_pos_as_xyz
  1  'x, y, z'
loop_
 _atom_site_type_symbol
 _atom_site_label
 _atom_site_symmetry_multiplicity
 _atom_site_fract_x
 _atom_site_fract_y
 _atom_site_fract_z
 _atom_site_occupancy
  Na  Na0  1  0.193717  0.827024  0.022596  1
  Na  Na1  1  0.305266  0.463269  0.334375  1
  Na  Na2  1  0.751167  0.126780  0.186358  1
  Na  Na3  1  0.250571  0.895663  0.315600  1
  Na  Na4  1  0.642053  0.247800  0.441434  1
  Na  Na5  1  0.860421  0.611421  0.125323  1
  Na  Na6  1  0.358794  0.748721  0.553466  1
  Na  Na7  1  0.756096  0.105557  0.682003  1
  Na  Na8  1  0.472023  0.488054  0.763079  1
  Na  Na9  1  0.243183  0.886748  0.808629  1
  Na  Na10  1  0.631253  0.245802  0.948106  1
  Na  Na11  1  0.894096  0.645960  0.623591  1
  Zr  Zr12  1  0.148886  0.149268  0.065935  1
  Zr  Zr13  1  0.353589  0.365255  0.173822  1
  Zr  Zr14  1  0.143399  0.150298  0.566689  1
  Zr  Zr15  1  0.346047  0.356886  0.681172  1
  Zr  Zr16  1  0.648225  0.646329  0.326447  1
  Zr  Zr17  1  0.855400  0.846276  0.424915  1
  Zr  Zr18  1  0.650467  0.647939  0.827172  1
  Zr  Zr19  1  0.852872  0.845089  0.927425  1
  Si  Si20  1  0.040542  0.749938  0.231364  1
  Si  Si21  1  0.464028  0.039162  0.372783  1
  Si  Si22  1  0.751364  0.456911  0.021524  1
  Si  Si23  1  0.252541  0.541417  0.480480  1
  Si  Si24  1  0.046156  0.746932  0.732538  1
  Si  Si25  1  0.463217  0.040145  0.873961  1
  Si  Si26  1  0.742033  0.461284  0.522956  1
  Si  Si27  1  0.255773  0.541050  0.975203  1
  P  P28  1  0.535879  0.963320  0.127062  1
  P  P29  1  0.963078  0.247040  0.266073  1
  P  P30  1  0.534892  0.959311  0.626886  1
  P  P31  1  0.953212  0.252870  0.767132  1
  O  O32  1  0.138432  0.259998  0.246747  1
  O  O33  1  0.287626  0.516888  0.059345  1
  O  O34  1  0.064721  0.924102  0.143124  1
  O  O35  1  0.520480  0.125433  0.136620  1
  O  O36  1  0.210472  0.572632  0.218053  1
  O  O37  1  0.024782  0.766587  0.318295  1
  O  O38  1  0.300261  0.055174  0.465187  1
  O  O39  1  0.429881  0.216916  0.287894  1
  O  O40  1  0.580707  0.422804  0.109937  1
  O  O41  1  0.231968  0.363321  0.495743  1
  O  O42  1  0.073767  0.715151  0.469957  1
  O  O43  1  0.362992  0.997451  0.120434  1
  O  O44  1  0.646076  0.009997  0.379112  1
  O  O45  1  0.119742  0.281194  0.749433  1
  O  O46  1  0.921000  0.279219  0.037895  1
  O  O47  1  0.782063  0.627817  0.007741  1
  O  O48  1  0.419369  0.568776  0.386470  1
  O  O49  1  0.284155  0.513100  0.565394  1
  O  O50  1  0.568945  0.792801  0.207579  1
  O  O51  1  0.069802  0.922708  0.644602  1
  O  O52  1  0.700716  0.935184  0.043135  1
  O  O53  1  0.508165  0.116676  0.645014  1
  O  O54  1  0.227573  0.578716  0.715955  1
  O  O55  1  0.017773  0.775966  0.818056  1
  O  O56  1  0.974647  0.226838  0.186653  1
  O  O57  1  0.801089  0.415604  0.281015  1
  O  O58  1  0.484717  0.864595  0.363096  1
  O  O59  1  0.289672  0.058792  0.961939  1
  O  O60  1  0.932792  0.086321  0.352519  1
  O  O61  1  0.446388  0.214411  0.784993  1
  O  O62  1  0.705967  0.484556  0.440206  1
  O  O63  1  0.569985  0.433884  0.613523  1
  O  O64  1  0.229789  0.363538  0.996616  1
  O  O65  1  0.084432  0.726097  0.964168  1
  O  O66  1  0.861546  0.728130  0.248498  1
  O  O67  1  0.363871  0.988098  0.620293  1
  O  O68  1  0.639591  0.006178  0.886468  1
  O  O69  1  0.912684  0.284840  0.540593  1
  O  O70  1  0.763821  0.640129  0.505486  1
  O  O71  1  0.427315  0.565433  0.882455  1
  O  O72  1  0.572757  0.782020  0.705041  1
  O  O73  1  0.697678  0.944612  0.541373  1
  O  O74  1  0.980809  0.223496  0.686950  1
  O  O75  1  0.785847  0.420715  0.777848  1
  O  O76  1  0.486957  0.870423  0.858021  1
  O  O77  1  0.927484  0.092918  0.853593  1
  O  O78  1  0.719410  0.488151  0.935263  1
  O  O79  1  0.873245  0.719687  0.744668  1
