# generated using pymatgen
data_Ag15Bi7I40
_symmetry_space_group_name_H-M   'P 1'
_cell_length_a   7.61663820
_cell_length_b   7.61663825
_cell_length_c   150.60922132
_cell_angle_alpha   33.66379640
_cell_angle_beta   33.66379583
_cell_angle_gamma   34.77118797
_symmetry_Int_Tables_number   1
_chemical_formula_structural   Ag15Bi7I40
_chemical_formula_sum   'Ag15 Bi7 I40'
_cell_volume   2437.84188347
_cell_formula_units_Z   1
loop_
 _symmetry_equiv_pos_site_id
 _symmetry_equiv_pos_as_xyz
  1  'x, y, z'
loop_
 _atom_site_type_symbol
 _atom_site_label
 _atom_site_symmetry_multiplicity
 _atom_site_fract_x
 _atom_site_fract_y
 _atom_site_fract_z
 _atom_site_occupancy
  Ag  Ag0  1  0.024502  0.024502  0.997789  1
  Ag  Ag1  1  0.028466  0.028466  0.097707  1
  Ag  Ag2  1  0.964122  0.964122  0.352905  1
  Ag  Ag3  1  0.972414  0.972414  0.452212  1
  Ag  Ag4  1  0.959635  0.959635  0.553794  1
  Ag  Ag5  1  0.003060  0.003060  0.599899  1
  Ag  Ag6  1  0.999707  0.999707  0.650055  1
  Ag  Ag7  1  0.000357  0.000357  0.749984  1
  Ag  Ag8  1  0.999127  0.999127  0.700071  1
  Ag  Ag9  1  0.997641  0.997641  0.800094  1
  Ag  Ag10  1  0.027500  0.027500  0.897397  1
  Ag  Ag11  1  0.001714  0.001714  0.849422  1
  Ag  Ag12  1  0.010075  0.010075  0.949288  1
  Ag  Ag13  1  0.522829  0.522829  0.922838  1
  Ag  Ag14  1  0.512021  0.512021  0.973392  1
  Bi  Bi15  1  0.006291  0.006291  0.049256  1
  Bi  Bi16  1  0.034801  0.034801  0.146550  1
  Bi  Bi17  1  0.012816  0.012816  0.199135  1
  Bi  Bi18  1  0.963931  0.963931  0.303647  1
  Bi  Bi19  1  0.985796  0.985796  0.250958  1
  Bi  Bi20  1  0.992010  0.992010  0.401019  1
  Bi  Bi21  1  0.992170  0.992170  0.501063  1
  I  I22  1  0.253068  0.253068  0.012469  1
  I  I23  1  0.251534  0.251534  0.062132  1
  I  I24  1  0.747356  0.747356  0.037669  1
  I  I25  1  0.257033  0.257033  0.111850  1
  I  I26  1  0.730568  0.730568  0.089124  1
  I  I27  1  0.254339  0.254339  0.161887  1
  I  I28  1  0.753142  0.753142  0.137352  1
  I  I29  1  0.239068  0.239068  0.213487  1
  I  I30  1  0.764136  0.764136  0.186963  1
  I  I31  1  0.238370  0.238370  0.262769  1
  I  I32  1  0.759396  0.759396  0.236588  1
  I  I33  1  0.248663  0.248663  0.312503  1
  I  I34  1  0.746064  0.746064  0.288124  1
  I  I35  1  0.272534  0.272534  0.360569  1
  I  I36  1  0.745081  0.745081  0.337998  1
  I  I37  1  0.259947  0.259947  0.411456  1
  I  I38  1  0.749716  0.749716  0.387855  1
  I  I39  1  0.271322  0.271322  0.460820  1
  I  I40  1  0.750281  0.750281  0.437152  1
  I  I41  1  0.253486  0.253486  0.512276  1
  I  I42  1  0.748948  0.748948  0.487912  1
  I  I43  1  0.246900  0.246900  0.564043  1
  I  I44  1  0.747914  0.747914  0.537421  1
  I  I45  1  0.245157  0.245157  0.614291  1
  I  I46  1  0.729276  0.729276  0.589031  1
  I  I47  1  0.250685  0.250685  0.663691  1
  I  I48  1  0.745333  0.745333  0.636617  1
  I  I49  1  0.249527  0.249527  0.713843  1
  I  I50  1  0.750936  0.750936  0.686075  1
  I  I51  1  0.249918  0.249918  0.763831  1
  I  I52  1  0.749463  0.749463  0.736341  1
  I  I53  1  0.265557  0.265557  0.811799  1
  I  I54  1  0.749772  0.749772  0.786237  1
  I  I55  1  0.270878  0.270878  0.861577  1
  I  I56  1  0.749193  0.749193  0.836114  1
  I  I57  1  0.227921  0.227921  0.914960  1
  I  I58  1  0.731858  0.731858  0.888678  1
  I  I59  1  0.229577  0.229577  0.963891  1
  I  I60  1  0.750971  0.750971  0.937507  1
  I  I61  1  0.754130  0.754130  0.986622  1
