# generated using pymatgen
data_Gd2S3
_symmetry_space_group_name_H-M   'P 1'
_cell_length_a   3.93229584
_cell_length_b   7.43110814
_cell_length_c   15.24843060
_cell_angle_alpha   90.00000000
_cell_angle_beta   90.00000000
_cell_angle_gamma   90.00000000
_symmetry_Int_Tables_number   1
_chemical_formula_structural   Gd2S3
_chemical_formula_sum   'Gd8 S12'
_cell_volume   445.57920336
_cell_formula_units_Z   4
loop_
 _symmetry_equiv_pos_site_id
 _symmetry_equiv_pos_as_xyz
  1  'x, y, z'
loop_
 _atom_site_type_symbol
 _atom_site_label
 _atom_site_symmetry_multiplicity
 _atom_site_fract_x
 _atom_site_fract_y
 _atom_site_fract_z
 _atom_site_occupancy
  Gd  Gd0  1  0.250000  0.627413  0.707974  1
  Gd  Gd1  1  0.750000  0.372587  0.292026  1
  Gd  Gd2  1  0.750000  0.872587  0.207974  1
  Gd  Gd3  1  0.250000  0.127413  0.792026  1
  Gd  Gd4  1  0.250000  0.766949  0.459358  1
  Gd  Gd5  1  0.250000  0.266949  0.040642  1
  Gd  Gd6  1  0.750000  0.233051  0.540642  1
  Gd  Gd7  1  0.750000  0.733051  0.959358  1
  S  S8  1  0.750000  0.620726  0.569607  1
  S  S9  1  0.250000  0.160018  0.218859  1
  S  S10  1  0.250000  0.660018  0.281141  1
  S  S11  1  0.250000  0.510429  0.893268  1
  S  S12  1  0.250000  0.379274  0.430393  1
  S  S13  1  0.750000  0.120726  0.930393  1
  S  S14  1  0.750000  0.989571  0.393268  1
  S  S15  1  0.750000  0.839982  0.781142  1
  S  S16  1  0.750000  0.339982  0.718858  1
  S  S17  1  0.750000  0.489571  0.106732  1
  S  S18  1  0.250000  0.010429  0.606732  1
  S  S19  1  0.250000  0.879274  0.069607  1
