# generated using pymatgen
data_SiO2
_symmetry_space_group_name_H-M   'P 1'
_cell_length_a   4.68462410
_cell_length_b   4.68462410
_cell_length_c   15.77119939
_cell_angle_alpha   90.00000000
_cell_angle_beta   90.00000000
_cell_angle_gamma   90.00000000
_symmetry_Int_Tables_number   1
_chemical_formula_structural   SiO2
_chemical_formula_sum   'Si8 O16'
_cell_volume   346.11005711
_cell_formula_units_Z   8
loop_
 _symmetry_equiv_pos_site_id
 _symmetry_equiv_pos_as_xyz
  1  'x, y, z'
loop_
 _atom_site_type_symbol
 _atom_site_label
 _atom_site_symmetry_multiplicity
 _atom_site_fract_x
 _atom_site_fract_y
 _atom_site_fract_z
 _atom_site_occupancy
  Si  Si0  1  0.576282  0.023481  0.096742  1
  Si  Si1  1  0.976519  0.576282  0.846742  1
  Si  Si2  1  0.023481  0.423718  0.346742  1
  Si  Si3  1  0.423718  0.023481  0.903258  1
  Si  Si4  1  0.976519  0.423718  0.653258  1
  Si  Si5  1  0.023481  0.576282  0.153258  1
  Si  Si6  1  0.423718  0.976519  0.596742  1
  Si  Si7  1  0.576282  0.976519  0.403258  1
  O  O8  1  0.885584  0.500000  0.750000  1
  O  O9  1  0.797990  0.299466  0.126754  1
  O  O10  1  0.700534  0.797990  0.876754  1
  O  O11  1  0.202010  0.299466  0.873246  1
  O  O12  1  0.500000  0.114416  0.000000  1
  O  O13  1  0.200204  0.200204  0.625000  1
  O  O14  1  0.200204  0.799796  0.875000  1
  O  O15  1  0.799796  0.799796  0.125000  1
  O  O16  1  0.299466  0.202010  0.376754  1
  O  O17  1  0.799796  0.200204  0.375000  1
  O  O18  1  0.797990  0.700534  0.373246  1
  O  O19  1  0.202010  0.700534  0.626754  1
  O  O20  1  0.500000  0.885584  0.500000  1
  O  O21  1  0.114416  0.500000  0.250000  1
  O  O22  1  0.700534  0.202010  0.623246  1
  O  O23  1  0.299466  0.797990  0.123246  1
