# generated using pymatgen
data_Na5Mg5In3(SO4)12
_symmetry_space_group_name_H-M   'P 1'
_cell_length_a   9.03909225
_cell_length_b   9.03521160
_cell_length_c   36.19348196
_cell_angle_alpha   58.09073770
_cell_angle_beta   58.05876747
_cell_angle_gamma   58.03069177
_symmetry_Int_Tables_number   1
_chemical_formula_structural   Na5Mg5In3(SO4)12
_chemical_formula_sum   'Na10 Mg10 In6 S24 O96'
_cell_volume   1997.17246798
_cell_formula_units_Z   2
loop_
 _symmetry_equiv_pos_site_id
 _symmetry_equiv_pos_as_xyz
  1  'x, y, z'
loop_
 _atom_site_type_symbol
 _atom_site_label
 _atom_site_symmetry_multiplicity
 _atom_site_fract_x
 _atom_site_fract_y
 _atom_site_fract_z
 _atom_site_occupancy
  Na  Na0  1  0.999405  0.998590  0.000473  1
  Na  Na1  1  0.999723  0.999449  0.250282  1
  Na  Na2  1  0.499309  0.499375  0.125437  1
  Na  Na3  1  0.000291  0.997886  0.500710  1
  Na  Na4  1  0.499280  0.499204  0.375463  1
  Na  Na5  1  0.007679  0.006235  0.747931  1
  Na  Na6  1  0.499242  0.514136  0.619840  1
  Na  Na7  1  0.571758  0.230792  0.721533  1
  Na  Na8  1  0.479557  0.500705  0.877984  1
  Na  Na9  1  0.883679  0.570551  0.807761  1
  Mg  Mg10  1  0.352253  0.352090  0.088412  1
  Mg  Mg11  1  0.352387  0.352557  0.338352  1
  Mg  Mg12  1  0.646925  0.647193  0.161970  1
  Mg  Mg13  1  0.349815  0.351681  0.589588  1
  Mg  Mg14  1  0.646638  0.647175  0.411988  1
  Mg  Mg15  1  0.146966  0.139063  0.787881  1
  Mg  Mg16  1  0.356678  0.352393  0.837649  1
  Mg  Mg17  1  0.649303  0.653282  0.661887  1
  Mg  Mg18  1  0.855541  0.848047  0.709786  1
  Mg  Mg19  1  0.647069  0.646702  0.912377  1
  In  In20  1  0.148455  0.148352  0.037381  1
  In  In21  1  0.148347  0.148349  0.287412  1
  In  In22  1  0.147634  0.148113  0.537688  1
  In  In23  1  0.851114  0.851054  0.212982  1
  In  In24  1  0.851237  0.851046  0.462981  1
  In  In25  1  0.851405  0.849161  0.962875  1
  S  S26  1  0.045674  0.745301  0.112540  1
  S  S27  1  0.449883  0.046052  0.186310  1
  S  S28  1  0.745121  0.448505  0.011701  1
  S  S29  1  0.254826  0.549768  0.238541  1
  S  S30  1  0.550544  0.953851  0.063591  1
  S  S31  1  0.045632  0.745351  0.362500  1
  S  S32  1  0.953810  0.254766  0.137588  1
  S  S33  1  0.449934  0.046030  0.436327  1
  S  S34  1  0.745280  0.449647  0.261454  1
  S  S35  1  0.254732  0.548955  0.488809  1
  S  S36  1  0.550211  0.954156  0.313698  1
  S  S37  1  0.045691  0.746102  0.612990  1
  S  S38  1  0.953822  0.254730  0.387632  1
  S  S39  1  0.451455  0.046549  0.687719  1
  S  S40  1  0.745040  0.449690  0.511395  1
  S  S41  1  0.249242  0.549117  0.739317  1
  S  S42  1  0.550035  0.954403  0.563894  1
  S  S43  1  0.045492  0.746501  0.861662  1
  S  S44  1  0.949502  0.251201  0.639008  1
  S  S45  1  0.449695  0.045833  0.936485  1
  S  S46  1  0.750788  0.450653  0.761612  1
  S  S47  1  0.255268  0.549507  0.988593  1
  S  S48  1  0.547306  0.952756  0.813212  1
  S  S49  1  0.961321  0.248710  0.886568  1
  O  O50  1  0.981887  0.208864  0.099759  1
  O  O51  1  0.209177  0.398453  0.995494  1
  O  O52  1  0.399227  0.982130  0.052068  1
  O  O53  1  0.110779  0.293027  0.128218  1
  O  O54  1  0.293622  0.512198  0.027725  1
  O  O55  1  0.062660  0.911026  0.068416  1
  O  O56  1  0.513418  0.110975  0.073052  1
  O  O57  1  0.222564  0.588205  0.106783  1
  O  O58  1  0.273627  0.063101  0.227754  1
  O  O59  1  0.426843  0.222702  0.147095  1
  O  O60  1  0.981881  0.208646  0.349833  1
  O  O61  1  0.588092  0.425107  0.055758  1
  O  O62  1  0.208508  0.398571  0.245607  1
  O  O63  1  0.088949  0.726550  0.234265  1
  O  O64  1  0.399414  0.982372  0.301995  1
  O  O65  1  0.110792  0.293034  0.378240  1
  O  O66  1  0.911175  0.272097  0.015901  1
  O  O67  1  0.411785  0.572655  0.194382  1
  O  O68  1  0.293315  0.512663  0.277651  1
  O  O69  1  0.573643  0.777340  0.102820  1
  O  O70  1  0.062707  0.911066  0.318333  1
  O  O71  1  0.727114  0.936619  0.022103  1
  O  O72  1  0.512557  0.111134  0.323285  1
  O  O73  1  0.222564  0.588306  0.356739  1
  O  O74  1  0.777114  0.411928  0.143352  1
  O  O75  1  0.487023  0.889306  0.176670  1
  O  O76  1  0.273849  0.063187  0.477743  1
  O  O77  1  0.937091  0.088955  0.181604  1
  O  O78  1  0.427219  0.222705  0.397071  1
  O  O79  1  0.978611  0.214668  0.599521  1
  O  O80  1  0.707132  0.486790  0.222277  1
  O  O81  1  0.588233  0.426798  0.305544  1
  O  O82  1  0.208465  0.397792  0.495796  1
  O  O83  1  0.088795  0.725820  0.484450  1
  O  O84  1  0.889066  0.706820  0.121796  1
  O  O85  1  0.601575  0.017668  0.197702  1
  O  O86  1  0.399519  0.981837  0.552188  1
  O  O87  1  0.105485  0.288896  0.630677  1
  O  O88  1  0.911343  0.273101  0.265684  1
  O  O89  1  0.791436  0.600986  0.254394  1
  O  O90  1  0.411631  0.571839  0.444595  1
  O  O91  1  0.293051  0.511391  0.528004  1
  O  O92  1  0.017034  0.792214  0.150223  1
  O  O93  1  0.573230  0.777585  0.352896  1
  O  O94  1  0.065094  0.911441  0.568325  1
  O  O95  1  0.726925  0.937210  0.272254  1
  O  O96  1  0.511574  0.111607  0.573507  1
  O  O97  1  0.223960  0.588820  0.607161  1
  O  O98  1  0.777142  0.411924  0.393355  1
  O  O99  1  0.487130  0.889321  0.426655  1
  O  O100  1  0.277334  0.068034  0.728465  1
  O  O101  1  0.936957  0.088941  0.431690  1
  O  O102  1  0.431309  0.222168  0.647414  1
  O  O103  1  0.997920  0.208078  0.847312  1
  O  O104  1  0.706835  0.487247  0.472204  1
  O  O105  1  0.587783  0.426971  0.555429  1
  O  O106  1  0.210879  0.386417  0.750382  1
  O  O107  1  0.083433  0.720985  0.733710  1
  O  O108  1  0.889026  0.706870  0.371772  1
  O  O109  1  0.601721  0.017427  0.447755  1
  O  O110  1  0.390228  0.996791  0.802096  1
  O  O111  1  0.113536  0.289475  0.879264  1
  O  O112  1  0.911107  0.273374  0.515606  1
  O  O113  1  0.790909  0.601124  0.504492  1
  O  O114  1  0.413112  0.563386  0.695556  1
  O  O115  1  0.286461  0.522375  0.777933  1
  O  O116  1  0.017068  0.792292  0.400172  1
  O  O117  1  0.572763  0.777885  0.603275  1
  O  O118  1  0.064648  0.910652  0.818896  1
  O  O119  1  0.726750  0.936924  0.522500  1
  O  O120  1  0.521804  0.105631  0.822869  1
  O  O121  1  0.221181  0.586033  0.857207  1
  O  O122  1  0.769953  0.409189  0.645677  1
  O  O123  1  0.488680  0.888758  0.678033  1
  O  O124  1  0.273255  0.062768  0.977916  1
  O  O125  1  0.924163  0.087047  0.682419  1
  O  O126  1  0.427012  0.222690  0.897348  1
  O  O127  1  0.709470  0.483510  0.722930  1
  O  O128  1  0.589930  0.432377  0.805759  1
  O  O129  1  0.089668  0.726351  0.984199  1
  O  O130  1  0.893478  0.705051  0.620291  1
  O  O131  1  0.607910  0.014886  0.698141  1
  O  O132  1  0.914037  0.277068  0.767151  1
  O  O133  1  0.792740  0.609148  0.752391  1
  O  O134  1  0.412944  0.571737  0.944472  1
  O  O135  1  0.009716  0.793070  0.650915  1
  O  O136  1  0.572915  0.771615  0.852194  1
  O  O137  1  0.722966  0.929718  0.771621  1
  O  O138  1  0.784107  0.412267  0.890393  1
  O  O139  1  0.486781  0.889433  0.926693  1
  O  O140  1  0.936287  0.087772  0.931115  1
  O  O141  1  0.707264  0.485805  0.972444  1
  O  O142  1  0.889572  0.705461  0.870386  1
  O  O143  1  0.600656  0.016656  0.948244  1
  O  O144  1  0.790405  0.599809  0.004955  1
  O  O145  1  0.012307  0.785967  0.901328  1
