# generated using pymatgen
data_Rb3Bi7Pb3(IO)10
_symmetry_space_group_name_H-M   'P 1'
_cell_length_a   28.94581191
_cell_length_b   8.43710407
_cell_length_c   6.41449730
_cell_angle_alpha   102.63050512
_cell_angle_beta   100.87604287
_cell_angle_gamma   45.47010797
_symmetry_Int_Tables_number   1
_chemical_formula_structural   Rb3Bi7Pb3(IO)10
_chemical_formula_sum   'Rb3 Bi7 Pb3 I10 O10'
_cell_volume   1088.33073131
_cell_formula_units_Z   1
loop_
 _symmetry_equiv_pos_site_id
 _symmetry_equiv_pos_as_xyz
  1  'x, y, z'
loop_
 _atom_site_type_symbol
 _atom_site_label
 _atom_site_symmetry_multiplicity
 _atom_site_fract_x
 _atom_site_fract_y
 _atom_site_fract_z
 _atom_site_occupancy
  Rb  Rb0  1  0.410209  0.730217  0.751309  1
  Rb  Rb1  1  0.729079  0.931328  0.002386  1
  Rb  Rb2  1  0.695434  0.355653  0.612320  1
  Bi  Bi3  1  -0.007122  0.916428  0.192268  1
  Bi  Bi4  1  0.001364  0.149860  0.663863  1
  Bi  Bi5  1  0.167022  0.678572  0.492332  1
  Bi  Bi6  1  0.141834  0.152077  0.604996  1
  Bi  Bi7  1  0.371485  0.044320  0.335271  1
  Bi  Bi8  1  0.488024  0.004110  0.780490  1
  Bi  Bi9  1  0.907861  0.709070  0.230545  1
  Pb  Pb10  1  0.277490  0.393903  0.870248  1
  Pb  Pb11  1  0.579509  0.106245  0.495180  1
  Pb  Pb12  1  0.815046  0.273736  0.283044  1
  I  I13  1  0.084553  0.332404  0.174094  1
  I  I14  1  0.957676  0.640824  0.735005  1
  I  I15  1  0.257899  0.082234  -0.013166  1
  I  I16  1  0.117155  0.751974  -0.015485  1
  I  I17  1  0.453729  0.437631  0.214865  1
  I  I18  1  0.358213  0.449484  0.646544  1
  I  I19  1  0.573672  0.460155  0.902129  1
  I  I20  1  0.659547  0.695436  0.131992  1
  I  I21  1  0.819469  0.676841  0.480331  1
  I  I22  1  0.843504  0.306982  0.850489  1
  O  O23  1  0.089548  0.052859  0.593305  1
  O  O24  1  0.053584  0.819384  0.484113  1
  O  O25  1  0.307472  0.162819  0.558756  1
  O  O26  1  0.208568  0.818230  0.484502  1
  O  O27  1  0.548116  -0.032945  0.602296  1
  O  O28  1  0.455792  0.874001  0.547721  1
  O  O29  1  0.812198  0.004160  0.178490  1
  O  O30  1  0.729978  0.955136  0.539162  1
  O  O31  1  0.948635  0.246606  0.359185  1
  O  O32  1  0.924811  0.926223  0.312750  1
