# generated using pymatgen
data_LiH5S(NO2)2
_symmetry_space_group_name_H-M   'P 1'
_cell_length_a   10.03324204
_cell_length_b   9.19703636
_cell_length_c   5.18116425
_cell_angle_alpha   90.00000000
_cell_angle_beta   90.00000000
_cell_angle_gamma   90.00000000
_symmetry_Int_Tables_number   1
_chemical_formula_structural   LiH5S(NO2)2
_chemical_formula_sum   'Li4 H20 S4 N8 O16'
_cell_volume   478.09758823
_cell_formula_units_Z   4
loop_
 _symmetry_equiv_pos_site_id
 _symmetry_equiv_pos_as_xyz
  1  'x, y, z'
loop_
 _atom_site_type_symbol
 _atom_site_label
 _atom_site_symmetry_multiplicity
 _atom_site_fract_x
 _atom_site_fract_y
 _atom_site_fract_z
 _atom_site_occupancy
  Li  Li0  1  0.665365  0.571236  0.749185  1
  Li  Li1  1  0.334635  0.428764  0.249185  1
  Li  Li2  1  0.834635  0.071236  0.249185  1
  Li  Li3  1  0.165365  0.928764  0.749185  1
  H  H4  1  0.880089  0.616041  0.228192  1
  H  H5  1  0.119911  0.383959  0.728192  1
  H  H6  1  0.619911  0.116041  0.728192  1
  H  H7  1  0.380089  0.883959  0.228192  1
  H  H8  1  0.508539  0.044569  0.528284  1
  H  H9  1  0.491461  0.955431  0.028284  1
  H  H10  1  0.991461  0.544569  0.028284  1
  H  H11  1  0.008539  0.455431  0.528284  1
  H  H12  1  0.339348  0.172220  0.712022  1
  H  H13  1  0.660652  0.827780  0.212022  1
  H  H14  1  0.160652  0.672220  0.212022  1
  H  H15  1  0.839348  0.327780  0.712022  1
  H  H16  1  0.446252  0.241942  0.938682  1
  H  H17  1  0.553748  0.758058  0.438682  1
  H  H18  1  0.053748  0.741942  0.438682  1
  H  H19  1  0.946252  0.258058  0.938682  1
  H  H20  1  0.458408  0.290773  0.624932  1
  H  H21  1  0.541592  0.709227  0.124932  1
  H  H22  1  0.041592  0.790773  0.124932  1
  H  H23  1  0.958408  0.209227  0.624932  1
  S  S24  1  0.659894  0.373959  0.252409  1
  S  S25  1  0.340106  0.626041  0.752409  1
  S  S26  1  0.840106  0.873959  0.752409  1
  S  S27  1  0.159894  0.126041  0.252409  1
  N  N28  1  0.522953  0.081123  0.715494  1
  N  N29  1  0.477047  0.918877  0.215494  1
  N  N30  1  0.977047  0.581123  0.215494  1
  N  N31  1  0.022953  0.418877  0.715494  1
  N  N32  1  0.437070  0.205337  0.749550  1
  N  N33  1  0.562930  0.794663  0.249550  1
  N  N34  1  0.062930  0.705337  0.249550  1
  N  N35  1  0.937070  0.294663  0.749550  1
  O  O36  1  0.690845  0.400570  0.531551  1
  O  O37  1  0.309155  0.599430  0.031551  1
  O  O38  1  0.809155  0.900570  0.031551  1
  O  O39  1  0.190845  0.099430  0.531551  1
  O  O40  1  0.513636  0.341245  0.228586  1
  O  O41  1  0.486364  0.658755  0.728586  1
  O  O42  1  0.986364  0.841245  0.728586  1
  O  O43  1  0.013636  0.158755  0.228586  1
  O  O44  1  0.736857  0.247710  0.156850  1
  O  O45  1  0.263143  0.752290  0.656850  1
  O  O46  1  0.763143  0.747710  0.656850  1
  O  O47  1  0.236857  0.252290  0.156850  1
  O  O48  1  0.692543  0.506783  0.100864  1
  O  O49  1  0.307457  0.493217  0.600864  1
  O  O50  1  0.807457  0.006783  0.600864  1
  O  O51  1  0.192543  0.993217  0.100864  1
