# generated using pymatgen
data_Cs6ZnGe8
_symmetry_space_group_name_H-M   'P 1'
_cell_length_a   12.68281795
_cell_length_b   12.89120654
_cell_length_c   13.47222133
_cell_angle_alpha   76.61184764
_cell_angle_beta   61.92008878
_cell_angle_gamma   60.53331556
_symmetry_Int_Tables_number   1
_chemical_formula_structural   Cs6ZnGe8
_chemical_formula_sum   'Cs18 Zn3 Ge24'
_cell_volume   1692.00018436
_cell_formula_units_Z   3
loop_
 _symmetry_equiv_pos_site_id
 _symmetry_equiv_pos_as_xyz
  1  'x, y, z'
loop_
 _atom_site_type_symbol
 _atom_site_label
 _atom_site_symmetry_multiplicity
 _atom_site_fract_x
 _atom_site_fract_y
 _atom_site_fract_z
 _atom_site_occupancy
  Cs  Cs0  1  0.394067  0.000000  0.662134  1
  Cs  Cs1  1  0.442369  0.709253  0.361955  1
  Cs  Cs2  1  0.774942  0.381489  0.658237  1
  Cs  Cs3  1  0.728238  0.000000  0.366485  1
  Cs  Cs4  1  0.151622  0.290747  0.361955  1
  Cs  Cs5  1  0.321961  0.294307  1.000000  1
  Cs  Cs6  1  0.094723  0.000000  0.633515  1
  Cs  Cs7  1  0.911089  1.000000  0.000000  1
  Cs  Cs8  1  0.242428  0.000000  0.000000  1
  Cs  Cs9  1  0.989475  0.627128  0.000000  1
  Cs  Cs10  1  0.156431  0.618511  0.658237  1
  Cs  Cs11  1  0.616603  0.372872  0.000000  1
  Cs  Cs12  1  0.814668  0.618511  0.341763  1
  Cs  Cs13  1  0.513578  0.290747  0.638045  1
  Cs  Cs14  1  0.056200  0.000000  0.337866  1
  Cs  Cs15  1  0.804324  0.709253  0.638045  1
  Cs  Cs16  1  0.616268  0.705693  0.000000  1
  Cs  Cs17  1  0.433178  0.381489  0.341763  1
  Zn  Zn18  1  0.950894  0.333594  0.000000  1
  Zn  Zn19  1  0.613813  0.000000  0.000000  1
  Zn  Zn20  1  0.284487  0.666406  0.000000  1
  Ge  Ge21  1  0.743154  0.459129  0.185986  1
  Ge  Ge22  1  0.170809  0.315717  0.812575  1
  Ge  Ge23  1  0.058792  0.776200  0.187395  1
  Ge  Ge24  1  0.127295  0.334760  0.639299  1
  Ge  Ge25  1  0.796029  0.000000  0.641071  1
  Ge  Ge26  1  0.829757  0.880753  0.814010  1
  Ge  Ge27  1  0.586879  0.000000  0.812579  1
  Ge  Ge28  1  0.101354  0.665240  0.360701  1
  Ge  Ge29  1  0.246187  0.776200  0.812605  1
  Ge  Ge30  1  0.766594  0.334760  0.360701  1
  Ge  Ge31  1  0.834992  0.223800  0.187395  1
  Ge  Ge32  1  0.462055  0.665240  0.639299  1
  Ge  Ge33  1  0.299101  0.684283  0.187425  1
  Ge  Ge34  1  0.524521  0.119247  0.185990  1
  Ge  Ge35  1  0.202283  0.540871  0.185986  1
  Ge  Ge36  1  0.643768  0.880753  0.185990  1
  Ge  Ge37  1  0.710510  0.119247  0.814010  1
  Ge  Ge38  1  0.388269  0.540871  0.814014  1
  Ge  Ge39  1  0.399458  0.000000  0.187421  1
  Ge  Ge40  1  0.022387  0.223800  0.812605  1
  Ge  Ge41  1  0.437100  1.000000  0.358929  1
  Ge  Ge42  1  0.983384  0.315717  0.187425  1
  Ge  Ge43  1  0.929140  0.459129  0.814014  1
  Ge  Ge44  1  0.486526  0.684283  0.812575  1
