# generated using pymatgen
data_Cr(GaS2)2
_symmetry_space_group_name_H-M   'P 1'
_cell_length_a   7.15413632
_cell_length_b   7.15487535
_cell_length_c   7.15458074
_cell_angle_alpha   59.99494080
_cell_angle_beta   60.00565733
_cell_angle_gamma   59.99871947
_symmetry_Int_Tables_number   1
_chemical_formula_structural   Cr(GaS2)2
_chemical_formula_sum   'Cr2 Ga4 S8'
_cell_volume   258.95614864
_cell_formula_units_Z   2
loop_
 _symmetry_equiv_pos_site_id
 _symmetry_equiv_pos_as_xyz
  1  'x, y, z'
loop_
 _atom_site_type_symbol
 _atom_site_label
 _atom_site_symmetry_multiplicity
 _atom_site_fract_x
 _atom_site_fract_y
 _atom_site_fract_z
 _atom_site_occupancy
  Cr  Cr0  1  0.125003  0.125006  0.124986  1
  Cr  Cr1  1  0.874983  0.875002  0.875036  1
  Ga  Ga2  1  0.500002  0.499983  0.000024  1
  Ga  Ga3  1  0.499990  0.000036  0.499984  1
  Ga  Ga4  1  0.499983  0.499991  0.499988  1
  Ga  Ga5  1  0.000036  0.499992  0.499985  1
  S  S6  1  0.749991  0.749948  0.250097  1
  S  S7  1  0.250105  0.249975  0.250028  1
  S  S8  1  0.249970  0.250103  0.749886  1
  S  S9  1  0.250079  0.749962  0.750011  1
  S  S10  1  0.749971  0.250075  0.749944  1
  S  S11  1  0.250042  0.749890  0.250090  1
  S  S12  1  0.749957  0.750005  0.749962  1
  S  S13  1  0.749889  0.250032  0.249980  1
