# generated using pymatgen
data_K2HfF6
_symmetry_space_group_name_H-M   'P 1'
_cell_length_a   6.47701625
_cell_length_b   26.09249281
_cell_length_c   14.79345877
_cell_angle_alpha   29.15896035
_cell_angle_beta   115.96548468
_cell_angle_gamma   119.76645192
_symmetry_Int_Tables_number   1
_chemical_formula_structural   K2HfF6
_chemical_formula_sum   'K12 Hf6 F36'
_cell_volume   1057.36217518
_cell_formula_units_Z   6
loop_
 _symmetry_equiv_pos_site_id
 _symmetry_equiv_pos_as_xyz
  1  'x, y, z'
loop_
 _atom_site_type_symbol
 _atom_site_label
 _atom_site_symmetry_multiplicity
 _atom_site_fract_x
 _atom_site_fract_y
 _atom_site_fract_z
 _atom_site_occupancy
  K  K0  1  0.989382  0.784869  0.419644  1
  K  K1  1  0.289246  0.716470  0.856306  1
  K  K2  1  0.324977  0.497002  0.830973  1
  K  K3  1  0.568605  0.886316  0.295971  1
  K  K4  1  0.007407  0.467592  0.572223  1
  K  K5  1  0.752364  0.792410  0.167542  1
  K  K6  1  0.327885  0.259539  0.808809  1
  K  K7  1  0.016431  0.233019  0.550393  1
  K  K8  1  0.380385  0.976702  0.926983  1
  K  K9  1  0.619241  0.480125  0.158989  1
  K  K10  1  0.039467  0.105226  0.329015  1
  K  K11  1  0.668434  0.257622  0.153189  1
  Hf  Hf12  1  0.646704  0.989422  0.667859  1
  Hf  Hf13  1  0.000784  0.756160  -0.011535  1
  Hf  Hf14  1  0.663678  0.502709  0.658260  1
  Hf  Hf15  1  0.990497  0.490929  0.008639  1
  Hf  Hf16  1  0.680216  0.257233  0.665750  1
  Hf  Hf17  1  0.331190  -0.002423  0.336038  1
  F  F18  1  0.066501  0.883591  0.513216  1
  F  F19  1  0.356672  0.867053  0.845405  1
  F  F20  1  0.802348  0.867053  0.845405  1
  F  F21  1  0.494295  0.883591  0.513216  1
  F  F22  1  0.958511  0.612103  0.510601  1
  F  F23  1  0.161466  0.877478  0.165960  1
  F  F24  1  0.292459  0.605256  0.869396  1
  F  F25  1  0.158240  0.775490  0.107259  1
  F  F26  1  0.474271  0.692261  0.589750  1
  F  F27  1  0.904256  0.820090  0.764076  1
  F  F28  1  0.680364  0.877478  0.165960  1
  F  F29  1  0.867358  0.605256  0.869396  1
  F  F30  1  0.970685  0.373170  0.504038  1
  F  F31  1  0.511103  0.612103  0.510601  1
  F  F32  1  0.382526  0.383949  0.825895  1
  F  F33  1  0.131868  0.647212  0.123972  1
  F  F34  1  0.518436  0.505076  0.508285  1
  F  F35  1  0.829327  0.497631  0.834065  1
  F  F36  1  0.122475  0.466542  0.189391  1
  F  F37  1  0.704923  0.647212  0.123972  1
  F  F38  1  0.805062  0.383949  0.825895  1
  F  F39  1  0.530069  0.373170  0.504038  1
  F  F40  1  0.914659  0.097000  0.502087  1
  F  F41  1  0.379387  0.148425  0.812137  1
  F  F42  1  0.134907  0.379767  0.155721  1
  F  F43  1  0.534655  0.266216  0.502223  1
  F  F44  1  0.831821  0.261030  0.809761  1
  F  F45  1  0.192462  0.291739  0.108985  1
  F  F46  1  0.838588  0.148425  0.812137  1
  F  F47  1  0.695603  0.379767  0.155721  1
  F  F48  1  0.477514  0.097000  0.502087  1
  F  F49  1  0.214860  0.118755  0.180727  1
  F  F50  1  0.492463  0.987200  0.518064  1
  F  F51  1  0.798620  -0.000170  0.798960  1
  F  F52  1  0.186075  -0.001573  0.189221  1
  F  F53  1  0.621613  0.118755  0.180727  1
