# generated using pymatgen
data_K4CO4
_symmetry_space_group_name_H-M   'P 1'
_cell_length_a   5.56574416
_cell_length_b   5.56574409
_cell_length_c   6.35478623
_cell_angle_alpha   115.27017660
_cell_angle_beta   115.27017685
_cell_angle_gamma   93.80962117
_symmetry_Int_Tables_number   1
_chemical_formula_structural   K4CO4
_chemical_formula_sum   'K4 C1 O4'
_cell_volume   153.35841399
_cell_formula_units_Z   1
loop_
 _symmetry_equiv_pos_site_id
 _symmetry_equiv_pos_as_xyz
  1  'x, y, z'
loop_
 _atom_site_type_symbol
 _atom_site_label
 _atom_site_symmetry_multiplicity
 _atom_site_fract_x
 _atom_site_fract_y
 _atom_site_fract_z
 _atom_site_occupancy
  K  K0  1  0.340090  0.934680  0.325050  1
  K  K1  1  0.182437  0.182437  0.882832  1
  K  K2  1  0.607145  0.607145  0.913401  1
  K  K3  1  0.934680  0.340090  0.325050  1
  C  C4  1  0.727483  0.727483  0.598444  1
  O  O5  1  0.676155  0.963658  0.771743  1
  O  O6  1  0.963658  0.676155  0.771743  1
  O  O7  1  0.789811  0.789811  0.424597  1
  O  O8  1  0.486111  0.486111  0.430169  1
