# generated using pymatgen
data_Hf6PbO18
_symmetry_space_group_name_H-M   'P 1'
_cell_length_a   8.28478589
_cell_length_b   12.42258428
_cell_length_c   7.19173316
_cell_angle_alpha   54.52735012
_cell_angle_beta   54.83074890
_cell_angle_gamma   90.00000142
_symmetry_Int_Tables_number   1
_chemical_formula_structural   Hf6PbO18
_chemical_formula_sum   'Hf6 Pb1 O18'
_cell_volume   426.13449052
_cell_formula_units_Z   1
loop_
 _symmetry_equiv_pos_site_id
 _symmetry_equiv_pos_as_xyz
  1  'x, y, z'
loop_
 _atom_site_type_symbol
 _atom_site_label
 _atom_site_symmetry_multiplicity
 _atom_site_fract_x
 _atom_site_fract_y
 _atom_site_fract_z
 _atom_site_occupancy
  Hf  Hf0  1  0.500596  0.328706  0.506968  1
  Hf  Hf1  1  0.500000  0.666667  0.500000  1
  Hf  Hf2  1  0.499404  0.004627  0.493032  1
  Hf  Hf3  1  0.992436  0.328706  0.506968  1
  Hf  Hf4  1  0.000000  0.666667  0.500000  1
  Hf  Hf5  1  0.007564  0.004627  0.493032  1
  Pb  Pb6  1  0.500000  0.666667  0.000000  1
  O  O7  1  0.248663  0.166667  0.000000  1
  O  O8  1  0.261438  0.826070  0.999709  1
  O  O9  1  0.261146  0.507263  0.000291  1
  O  O10  1  0.262120  0.349195  0.475760  1
  O  O11  1  0.259405  0.666539  0.481191  1
  O  O12  1  0.249588  0.999270  0.500824  1
  O  O13  1  0.751337  0.166667  1.000000  1
  O  O14  1  0.500000  0.166667  0.500000  1
  O  O15  1  0.738562  0.507263  0.000291  1
  O  O16  1  0.500166  0.507302  0.477928  1
  O  O17  1  0.738854  0.826070  0.999709  1
  O  O18  1  0.499834  0.826031  0.522072  1
  O  O19  1  0.750412  0.334063  0.499176  1
  O  O20  1  0.740595  0.666795  0.518809  1
  O  O21  1  0.737880  0.984138  0.524240  1
  O  O22  1  0.000000  0.166667  0.500000  1
  O  O23  1  0.021907  0.507302  0.477928  1
  O  O24  1  0.978093  0.826031  0.522072  1
