# generated using pymatgen
data_Tl2Br3
_symmetry_space_group_name_H-M   'P 1'
_cell_length_a   15.73346010
_cell_length_b   15.83663455
_cell_length_c   27.78991154
_cell_angle_alpha   106.42166513
_cell_angle_beta   90.00000000
_cell_angle_gamma   119.78472109
_symmetry_Int_Tables_number   1
_chemical_formula_structural   Tl2Br3
_chemical_formula_sum   'Tl64 Br96'
_cell_volume   5681.81037731
_cell_formula_units_Z   32
loop_
 _symmetry_equiv_pos_site_id
 _symmetry_equiv_pos_as_xyz
  1  'x, y, z'
loop_
 _atom_site_type_symbol
 _atom_site_label
 _atom_site_symmetry_multiplicity
 _atom_site_fract_x
 _atom_site_fract_y
 _atom_site_fract_z
 _atom_site_occupancy
  Tl  Tl0  1  0.361462  0.249737  0.590878  1
  Tl  Tl1  1  0.786005  0.593221  0.914895  1
  Tl  Tl2  1  0.206724  0.858181  0.091977  1
  Tl  Tl3  1  0.048339  0.595803  0.697561  1
  Tl  Tl4  1  0.638538  0.750263  0.409122  1
  Tl  Tl5  1  0.189545  0.949592  0.592080  1
  Tl  Tl6  1  0.613878  0.149725  0.220000  1
  Tl  Tl7  1  0.360218  0.649390  0.909838  1
  Tl  Tl8  1  0.581060  0.241277  0.916365  1
  Tl  Tl9  1  0.848846  0.693779  0.092281  1
  Tl  Tl10  1  0.086886  0.163675  0.225378  1
  Tl  Tl11  1  0.913114  0.836325  0.774622  1
  Tl  Tl12  1  0.660217  0.241277  0.416365  1
  Tl  Tl13  1  0.213995  0.406779  0.085105  1
  Tl  Tl14  1  0.807216  0.593221  0.414895  1
  Tl  Tl15  1  0.547464  0.595803  0.197561  1
  Tl  Tl16  1  0.418940  0.758723  0.083635  1
  Tl  Tl17  1  0.700519  0.813211  0.911856  1
  Tl  Tl18  1  0.299481  0.186789  0.088144  1
  Tl  Tl19  1  0.500000  0.000000  0.500000  1
  Tl  Tl20  1  0.760046  0.949592  0.092080  1
  Tl  Tl21  1  0.192784  0.406779  0.585105  1
  Tl  Tl22  1  0.260632  0.519671  0.748520  1
  Tl  Tl23  1  0.934082  0.368269  0.809924  1
  Tl  Tl24  1  0.810455  0.050408  0.407920  1
  Tl  Tl25  1  0.151154  0.306221  0.907719  1
  Tl  Tl26  1  0.000000  0.000000  0.000000  1
  Tl  Tl27  1  0.259039  0.519671  0.248520  1
  Tl  Tl28  1  0.111725  0.750263  0.909122  1
  Tl  Tl29  1  0.500000  0.500000  0.000000  1
  Tl  Tl30  1  0.775990  0.000000  0.250000  1
  Tl  Tl31  1  0.386122  0.850275  0.780000  1
  Tl  Tl32  1  0.065918  0.631731  0.190076  1
  Tl  Tl33  1  0.710827  0.350610  0.590162  1
  Tl  Tl34  1  0.076789  0.163675  0.725378  1
  Tl  Tl35  1  0.951661  0.404197  0.302439  1
  Tl  Tl36  1  0.923211  0.836325  0.274622  1
  Tl  Tl37  1  0.740961  0.480329  0.751480  1
  Tl  Tl38  1  0.844933  0.693779  0.592281  1
  Tl  Tl39  1  0.339783  0.758723  0.583635  1
  Tl  Tl40  1  0.239953  0.050408  0.907920  1
  Tl  Tl41  1  0.000000  0.500000  0.000000  1
  Tl  Tl42  1  0.452536  0.404197  0.802439  1
  Tl  Tl43  1  0.888275  0.249737  0.090878  1
  Tl  Tl44  1  0.735460  0.000000  0.750000  1
  Tl  Tl45  1  0.224010  0.000000  0.750000  1
  Tl  Tl46  1  0.000000  0.000000  0.500000  1
  Tl  Tl47  1  0.000000  0.500000  0.500000  1
  Tl  Tl48  1  0.434187  0.368269  0.309924  1
  Tl  Tl49  1  0.264539  0.000000  0.250000  1
  Tl  Tl50  1  0.793276  0.141819  0.908023  1
  Tl  Tl51  1  0.500000  0.000000  0.000000  1
  Tl  Tl52  1  0.348542  0.141819  0.408023  1
  Tl  Tl53  1  0.887308  0.186789  0.588144  1
  Tl  Tl54  1  0.155067  0.306221  0.407719  1
  Tl  Tl55  1  0.639782  0.350610  0.090162  1
  Tl  Tl56  1  0.112692  0.813211  0.411856  1
  Tl  Tl57  1  0.739368  0.480329  0.251480  1
  Tl  Tl58  1  0.500000  0.500000  0.500000  1
  Tl  Tl59  1  0.651458  0.858181  0.591977  1
  Tl  Tl60  1  0.535847  0.149725  0.720000  1
  Tl  Tl61  1  0.565813  0.631731  0.690076  1
  Tl  Tl62  1  0.464153  0.850275  0.280000  1
  Tl  Tl63  1  0.289173  0.649390  0.409838  1
  Br  Br64  1  0.330690  0.522265  0.999199  1
  Br  Br65  1  0.286573  0.104590  0.185120  1
  Br  Br66  1  0.291731  0.859846  0.500379  1
  Br  Br67  1  0.441164  0.637637  0.313221  1
  Br  Br68  1  0.646351  0.370527  0.820771  1
  Br  Br69  1  0.968232  0.412152  0.579241  1
  Br  Br70  1  0.691980  0.179373  0.015139  1
  Br  Br71  1  0.456874  0.130389  0.305010  1
  Br  Br72  1  0.833376  0.381555  0.922236  1
  Br  Br73  1  0.708269  0.140154  0.499621  1
  Br  Br74  1  0.317392  0.323910  0.498303  1
  Br  Br75  1  0.512607  0.820627  0.484861  1
  Br  Br76  1  0.333863  0.410857  0.683654  1
  Br  Br77  1  0.692723  0.626310  0.799460  1
  Br  Br78  1  0.977615  0.818604  0.514105  1
  Br  Br79  1  0.764493  0.596533  0.184572  1
  Br  Br80  1  0.919547  0.881751  0.399758  1
  Br  Br81  1  0.167960  0.403467  0.315428  1
  Br  Br82  1  0.235507  0.403467  0.815428  1
  Br  Br83  1  0.144186  0.096351  0.818739  1
  Br  Br84  1  0.031768  0.587848  0.420759  1
  Br  Br85  1  0.307277  0.373690  0.200540  1
  Br  Br86  1  0.832040  0.596533  0.684572  1
  Br  Br87  1  0.326485  0.869611  0.194990  1
  Br  Br88  1  0.918088  0.314668  0.422819  1
  Br  Br89  1  0.888844  0.477468  0.078452  1
  Br  Br90  1  0.790186  0.336835  0.702443  1
  Br  Br91  1  0.111156  0.522532  0.921548  1
  Br  Br92  1  0.778299  0.840669  0.681675  1
  Br  Br93  1  0.666137  0.589143  0.316346  1
  Br  Br94  1  0.923006  0.589143  0.816346  1
  Br  Br95  1  0.818018  0.104590  0.685120  1
  Br  Br96  1  0.952165  0.096351  0.318739  1
  Br  Br97  1  0.196474  0.637637  0.813221  1
  Br  Br98  1  0.856103  0.161763  0.209247  1
  Br  Br99  1  0.548178  0.381555  0.422236  1
  Br  Br100  1  0.603419  0.685332  0.077181  1
  Br  Br101  1  0.006517  0.323910  0.998303  1
  Br  Br102  1  0.962204  0.881751  0.899758  1
  Br  Br103  1  0.159011  0.181396  0.985895  1
  Br  Br104  1  0.546170  0.040967  0.600404  1
  Br  Br105  1  0.306857  0.905140  0.682117  1
  Br  Br106  1  0.066412  0.373690  0.700540  1
  Br  Br107  1  0.209814  0.663165  0.297557  1
  Br  Br108  1  0.840989  0.818604  0.014105  1
  Br  Br109  1  0.193140  0.045546  0.485788  1
  Br  Br110  1  0.191574  0.522265  0.499199  1
  Br  Br111  1  0.308020  0.820627  0.984861  1
  Br  Br112  1  0.401717  0.094860  0.817883  1
  Br  Br113  1  0.543126  0.869611  0.694990  1
  Br  Br114  1  0.852406  0.045546  0.985788  1
  Br  Br115  1  0.022385  0.181396  0.485895  1
  Br  Br116  1  0.143897  0.838237  0.790753  1
  Br  Br117  1  0.221701  0.159331  0.318325  1
  Br  Br118  1  0.305660  0.161763  0.709247  1
  Br  Br119  1  0.598283  0.905140  0.182117  1
  Br  Br120  1  0.353649  0.629473  0.179229  1
  Br  Br121  1  0.694340  0.838237  0.290753  1
  Br  Br122  1  0.080453  0.118249  0.600242  1
  Br  Br123  1  0.803526  0.362363  0.186779  1
  Br  Br124  1  0.443919  0.412152  0.079241  1
  Br  Br125  1  0.451822  0.618445  0.577764  1
  Br  Br126  1  0.396581  0.314668  0.922819  1
  Br  Br127  1  0.713427  0.895410  0.814880  1
  Br  Br128  1  0.076994  0.410857  0.183654  1
  Br  Br129  1  0.588624  0.477468  0.578452  1
  Br  Br130  1  0.275824  0.629473  0.679229  1
  Br  Br131  1  0.081912  0.685332  0.577181  1
  Br  Br132  1  0.568115  0.859846  0.000379  1
  Br  Br133  1  0.993483  0.676090  0.001697  1
  Br  Br134  1  0.556081  0.587848  0.920759  1
  Br  Br135  1  0.558836  0.362363  0.686779  1
  Br  Br136  1  0.693143  0.094860  0.317883  1
  Br  Br137  1  0.166624  0.618445  0.077764  1
  Br  Br138  1  0.724176  0.370527  0.320771  1
  Br  Br139  1  0.494798  0.040967  0.100404  1
  Br  Br140  1  0.808426  0.477735  0.500801  1
  Br  Br141  1  0.546649  0.336835  0.202443  1
  Br  Br142  1  0.933588  0.626310  0.299460  1
  Br  Br143  1  0.806860  0.954454  0.514212  1
  Br  Br144  1  0.669310  0.477735  0.000801  1
  Br  Br145  1  0.682608  0.676090  0.501697  1
  Br  Br146  1  0.453351  0.663165  0.797557  1
  Br  Br147  1  0.062370  0.840669  0.181675  1
  Br  Br148  1  0.937630  0.159331  0.818325  1
  Br  Br149  1  0.037796  0.118249  0.100242  1
  Br  Br150  1  0.147594  0.954454  0.014212  1
  Br  Br151  1  0.411376  0.522532  0.421548  1
  Br  Br152  1  0.047835  0.903649  0.681261  1
  Br  Br153  1  0.673515  0.130389  0.805010  1
  Br  Br154  1  0.431885  0.140154  0.999621  1
  Br  Br155  1  0.505202  0.959033  0.899596  1
  Br  Br156  1  0.487393  0.179373  0.515139  1
  Br  Br157  1  0.855814  0.903649  0.181261  1
  Br  Br158  1  0.453830  0.959033  0.399596  1
  Br  Br159  1  0.181982  0.895410  0.314880  1
