# generated using pymatgen
data_Ag8GeTe6
_symmetry_space_group_name_H-M   'P 1'
_cell_length_a   8.30180410
_cell_length_b   8.16653789
_cell_length_c   8.15433346
_cell_angle_alpha   63.61809843
_cell_angle_beta   62.09390678
_cell_angle_gamma   61.76634545
_symmetry_Int_Tables_number   1
_chemical_formula_structural   Ag8GeTe6
_chemical_formula_sum   'Ag8 Ge1 Te6'
_cell_volume   412.40360148
_cell_formula_units_Z   1
loop_
 _symmetry_equiv_pos_site_id
 _symmetry_equiv_pos_as_xyz
  1  'x, y, z'
loop_
 _atom_site_type_symbol
 _atom_site_label
 _atom_site_symmetry_multiplicity
 _atom_site_fract_x
 _atom_site_fract_y
 _atom_site_fract_z
 _atom_site_occupancy
  Ag  Ag0  1  0.220547  0.203199  0.879674  1
  Ag  Ag1  1  0.235516  0.835896  0.169705  1
  Ag  Ag2  1  0.584152  0.207573  0.215406  1
  Ag  Ag3  1  0.940413  0.662656  0.309920  1
  Ag  Ag4  1  0.975895  0.334215  0.650986  1
  Ag  Ag5  1  0.551397  0.004948  0.017667  1
  Ag  Ag6  1  0.026354  0.000616  0.568800  1
  Ag  Ag7  1  0.027709  0.587219  0.966744  1
  Ge  Ge8  1  0.540062  0.485999  0.491141  1
  Te  Te9  1  0.951874  0.004810  0.986047  1
  Te  Te10  1  0.213376  0.257235  0.240530  1
  Te  Te11  1  0.159536  0.604668  0.578230  1
  Te  Te12  1  0.633020  0.594502  0.110274  1
  Te  Te13  1  0.628414  0.108210  0.598459  1
  Te  Te14  1  0.620832  0.643354  0.644518  1
