# generated using pymatgen
data_TlP(HO2)2
_symmetry_space_group_name_H-M   'P 1'
_cell_length_a   4.50963742
_cell_length_b   14.43627339
_cell_length_c   6.58999302
_cell_angle_alpha   90.00000000
_cell_angle_beta   90.00000000
_cell_angle_gamma   90.00000000
_symmetry_Int_Tables_number   1
_chemical_formula_structural   TlP(HO2)2
_chemical_formula_sum   'Tl4 P4 H8 O16'
_cell_volume   429.02408932
_cell_formula_units_Z   4
loop_
 _symmetry_equiv_pos_site_id
 _symmetry_equiv_pos_as_xyz
  1  'x, y, z'
loop_
 _atom_site_type_symbol
 _atom_site_label
 _atom_site_symmetry_multiplicity
 _atom_site_fract_x
 _atom_site_fract_y
 _atom_site_fract_z
 _atom_site_occupancy
  Tl  Tl0  1  0.000000  0.871421  0.750000  1
  Tl  Tl1  1  0.500000  0.628579  0.250000  1
  Tl  Tl2  1  0.000000  0.128579  0.250000  1
  Tl  Tl3  1  0.500000  0.371421  0.750000  1
  P  P4  1  0.000000  0.624732  0.750000  1
  P  P5  1  0.500000  0.875268  0.250000  1
  P  P6  1  0.000000  0.375268  0.250000  1
  P  P7  1  0.500000  0.124732  0.750000  1
  H  H8  1  0.000000  0.500000  0.500000  1
  H  H9  1  0.500000  0.000000  0.000000  1
  H  H10  1  0.500000  0.000000  0.500000  1
  H  H11  1  0.000000  0.500000  0.000000  1
  H  H12  1  0.000000  0.184544  0.750000  1
  H  H13  1  0.500000  0.315456  0.250000  1
  H  H14  1  0.000000  0.815456  0.250000  1
  H  H15  1  0.500000  0.684544  0.750000  1
  O  O16  1  0.129608  0.563835  0.576610  1
  O  O17  1  0.370392  0.936165  0.076610  1
  O  O18  1  0.629608  0.936165  0.423390  1
  O  O19  1  0.870392  0.563835  0.923390  1
  O  O20  1  0.870392  0.436165  0.423390  1
  O  O21  1  0.629608  0.063835  0.923390  1
  O  O22  1  0.370392  0.063835  0.576610  1
  O  O23  1  0.129608  0.436165  0.076610  1
  O  O24  1  0.742974  0.687662  0.671704  1
  O  O25  1  0.757026  0.812338  0.171704  1
  O  O26  1  0.242974  0.812338  0.328296  1
  O  O27  1  0.257026  0.687662  0.828296  1
  O  O28  1  0.257026  0.312338  0.328296  1
  O  O29  1  0.242974  0.187662  0.828296  1
  O  O30  1  0.757026  0.187662  0.671704  1
  O  O31  1  0.742974  0.312338  0.171704  1
