# generated using pymatgen
data_MnH9C4NO6
_symmetry_space_group_name_H-M   'P 1'
_cell_length_a   8.37085742
_cell_length_b   8.69675190
_cell_length_c   12.10755111
_cell_angle_alpha   90.00000000
_cell_angle_beta   90.00000000
_cell_angle_gamma   90.00000000
_symmetry_Int_Tables_number   1
_chemical_formula_structural   MnH9C4NO6
_chemical_formula_sum   'Mn4 H36 C16 N4 O24'
_cell_volume   881.42088438
_cell_formula_units_Z   4
loop_
 _symmetry_equiv_pos_site_id
 _symmetry_equiv_pos_as_xyz
  1  'x, y, z'
loop_
 _atom_site_type_symbol
 _atom_site_label
 _atom_site_symmetry_multiplicity
 _atom_site_fract_x
 _atom_site_fract_y
 _atom_site_fract_z
 _atom_site_occupancy
  Mn  Mn0  1  0.500000  0.500000  0.500000  1
  Mn  Mn1  1  0.000000  0.000000  -0.000000  1
  Mn  Mn2  1  0.500000  0.500000  -0.000000  1
  Mn  Mn3  1  0.000000  -0.000000  0.500000  1
  H  H4  1  0.846718  0.585702  0.750000  1
  H  H5  1  0.653282  0.085702  0.750000  1
  H  H6  1  0.153282  0.414298  0.250000  1
  H  H7  1  0.346718  0.914298  0.250000  1
  H  H8  1  0.012587  0.642554  0.680397  1
  H  H9  1  0.487413  0.142554  0.819603  1
  H  H10  1  0.987413  0.357446  0.180397  1
  H  H11  1  0.512587  0.857446  0.319603  1
  H  H12  1  0.987413  0.357446  0.319603  1
  H  H13  1  0.512587  0.857446  0.180397  1
  H  H14  1  0.012587  0.642554  0.819603  1
  H  H15  1  0.487413  0.142554  0.680397  1
  H  H16  1  0.277409  0.776466  0.466610  1
  H  H17  1  0.222591  0.276466  0.033390  1
  H  H18  1  0.722591  0.223534  0.966610  1
  H  H19  1  0.777409  0.723534  0.533390  1
  H  H20  1  0.722591  0.223534  0.533390  1
  H  H21  1  0.777409  0.723534  0.966610  1
  H  H22  1  0.277409  0.776466  0.033390  1
  H  H23  1  0.222591  0.276466  0.466610  1
  H  H24  1  0.568820  0.498098  0.250000  1
  H  H25  1  0.931180  0.998098  0.250000  1
  H  H26  1  0.431180  0.501902  0.750000  1
  H  H27  1  0.068820  0.001902  0.750000  1
  H  H28  1  0.154039  0.414297  0.750000  1
  H  H29  1  0.345961  0.914297  0.750000  1
  H  H30  1  0.845961  0.585703  0.250000  1
  H  H31  1  0.654039  0.085703  0.250000  1
  H  H32  1  0.976830  0.363185  0.676128  1
  H  H33  1  0.523170  0.863185  0.823872  1
  H  H34  1  0.023170  0.636815  0.176128  1
  H  H35  1  0.476830  0.136815  0.323872  1
  H  H36  1  0.023170  0.636815  0.323872  1
  H  H37  1  0.476830  0.136815  0.176128  1
  H  H38  1  0.976830  0.363185  0.823872  1
  H  H39  1  0.523170  0.863185  0.676128  1
  C  C40  1  0.214477  0.714604  0.533789  1
  C  C41  1  0.285523  0.214604  0.966211  1
  C  C42  1  0.785523  0.285396  0.033789  1
  C  C43  1  0.714477  0.785396  0.466211  1
  C  C44  1  0.785523  0.285396  0.466211  1
  C  C45  1  0.714477  0.785396  0.033789  1
  C  C46  1  0.214477  0.714604  0.966211  1
  C  C47  1  0.285523  0.214604  0.533789  1
  C  C48  1  0.438000  0.478892  0.250000  1
  C  C49  1  0.062000  0.978892  0.250000  1
  C  C50  1  0.562000  0.521108  0.750000  1
  C  C51  1  0.938000  0.021108  0.750000  1
  C  C52  1  0.023738  0.419860  0.750000  1
  C  C53  1  0.476262  0.919860  0.750000  1
  C  C54  1  0.976262  0.580140  0.250000  1
  C  C55  1  0.523738  0.080140  0.250000  1
  N  N56  1  0.970733  0.582930  0.750000  1
  N  N57  1  0.529267  0.082930  0.750000  1
  N  N58  1  0.029267  0.417070  0.250000  1
  N  N59  1  0.470733  0.917070  0.250000  1
  O  O60  1  0.279030  0.596061  0.574281  1
  O  O61  1  0.220970  0.096061  0.925719  1
  O  O62  1  0.720970  0.403939  0.074281  1
  O  O63  1  0.779030  0.903939  0.425719  1
  O  O64  1  0.720970  0.403939  0.425719  1
  O  O65  1  0.779030  0.903939  0.074281  1
  O  O66  1  0.279030  0.596061  0.925719  1
  O  O67  1  0.220970  0.096061  0.574281  1
  O  O68  1  0.080245  0.769675  0.565369  1
  O  O69  1  0.419755  0.269675  0.934631  1
  O  O70  1  0.919755  0.230325  0.065369  1
  O  O71  1  0.580245  0.730325  0.434631  1
  O  O72  1  0.919755  0.230325  0.434631  1
  O  O73  1  0.580245  0.730325  0.065369  1
  O  O74  1  0.080245  0.769675  0.934631  1
  O  O75  1  0.419755  0.269675  0.565369  1
  O  O76  1  0.367161  0.468131  0.342556  1
  O  O77  1  0.132839  0.968131  0.157444  1
  O  O78  1  0.632839  0.531869  0.842556  1
  O  O79  1  0.867161  0.031869  0.657444  1
  O  O80  1  0.632839  0.531869  0.657444  1
  O  O81  1  0.867161  0.031869  0.842556  1
  O  O82  1  0.367161  0.468131  0.157444  1
  O  O83  1  0.132839  0.968131  0.342556  1
