# generated using pymatgen
data_CaLa9Ti5Cr5O30
_symmetry_space_group_name_H-M   'P 1'
_cell_length_a   5.56970694
_cell_length_b   27.81621923
_cell_length_c   14.66386253
_cell_angle_alpha   19.30822090
_cell_angle_beta   56.14412217
_cell_angle_gamma   60.66417966
_symmetry_Int_Tables_number   1
_chemical_formula_structural   CaLa9Ti5Cr5O30
_chemical_formula_sum   'Ca1 La9 Ti5 Cr5 O30'
_cell_volume   618.47796577
_cell_formula_units_Z   1
loop_
 _symmetry_equiv_pos_site_id
 _symmetry_equiv_pos_as_xyz
  1  'x, y, z'
loop_
 _atom_site_type_symbol
 _atom_site_label
 _atom_site_symmetry_multiplicity
 _atom_site_fract_x
 _atom_site_fract_y
 _atom_site_fract_z
 _atom_site_occupancy
  Ca  Ca0  1  0.251257  0.152705  0.243537  1
  La  La1  1  0.246248  0.350433  0.253379  1
  La  La2  1  0.252137  0.546614  0.254178  1
  La  La3  1  0.749515  0.048833  0.755249  1
  La  La4  1  0.248626  0.749830  0.253121  1
  La  La5  1  0.747747  0.251131  0.746921  1
  La  La6  1  0.252724  0.950991  0.244141  1
  La  La7  1  0.750511  0.450331  0.747570  1
  La  La8  1  0.749029  0.650381  0.750321  1
  La  La9  1  0.750736  0.849904  0.749770  1
  Ti  Ti10  1  0.992029  0.197595  0.007309  1
  Ti  Ti11  1  0.000962  0.396251  0.005170  1
  Ti  Ti12  1  0.505442  0.100187  0.497790  1
  Ti  Ti13  1  0.004090  0.804260  0.990657  1
  Ti  Ti14  1  0.496916  0.902790  0.496890  1
  Cr  Cr15  1  0.002277  -0.000128  -0.000369  1
  Cr  Cr16  1  0.999235  0.601363  0.998085  1
  Cr  Cr17  1  0.500473  0.300389  0.499185  1
  Cr  Cr18  1  0.498329  0.499168  0.501854  1
  Cr  Cr19  1  0.499029  0.698297  0.503306  1
  O  O20  1  0.188982  0.025215  0.310540  1
  O  O21  1  0.187183  0.226080  0.312717  1
  O  O22  1  0.683780  0.062587  0.251507  1
  O  O23  1  0.252223  0.008380  0.818539  1
  O  O24  1  0.750007  0.185470  0.190538  1
  O  O25  1  0.173699  0.422139  0.320792  1
  O  O26  1  0.686762  0.263480  0.249038  1
  O  O27  1  0.325445  0.134136  0.752757  1
  O  O28  1  0.248170  0.209555  0.818226  1
  O  O29  1  0.753472  0.391312  0.179145  1
  O  O30  1  0.180825  0.623229  0.317388  1
  O  O31  1  0.679458  0.467397  0.244548  1
  O  O32  1  0.314486  0.339165  0.743979  1
  O  O33  1  0.822958  0.180099  0.676165  1
  O  O34  1  0.247027  0.407478  0.822502  1
  O  O35  1  0.748310  0.595281  0.175577  1
  O  O36  1  0.176855  0.816971  0.329407  1
  O  O37  1  0.681704  0.662863  0.252335  1
  O  O38  1  0.319040  0.533968  0.752561  1
  O  O39  1  0.818006  0.377608  0.681061  1
  O  O40  1  0.251355  0.605731  0.823841  1
  O  O41  1  0.750131  0.790037  0.182599  1
  O  O42  1  0.674810  0.864003  0.249103  1
  O  O43  1  0.320135  0.737928  0.748015  1
  O  O44  1  0.821118  0.575104  0.685497  1
  O  O45  1  0.249986  0.812226  0.812690  1
  O  O46  1  0.748858  0.990958  0.182629  1
  O  O47  1  0.312321  0.934699  0.756473  1
  O  O48  1  0.818894  0.780023  0.676551  1
  O  O49  1  0.816687  0.975551  0.685216  1
