# generated using pymatgen
data_BaNd2Ti3O10
_symmetry_space_group_name_H-M   'P 1'
_cell_length_a   7.67602109
_cell_length_b   7.78485435
_cell_length_c   14.54373858
_cell_angle_alpha   97.55193804
_cell_angle_beta   90.00000000
_cell_angle_gamma   90.00000000
_symmetry_Int_Tables_number   1
_chemical_formula_structural   BaNd2Ti3O10
_chemical_formula_sum   'Ba4 Nd8 Ti12 O40'
_cell_volume   861.54757749
_cell_formula_units_Z   4
loop_
 _symmetry_equiv_pos_site_id
 _symmetry_equiv_pos_as_xyz
  1  'x, y, z'
loop_
 _atom_site_type_symbol
 _atom_site_label
 _atom_site_symmetry_multiplicity
 _atom_site_fract_x
 _atom_site_fract_y
 _atom_site_fract_z
 _atom_site_occupancy
  O  O0  1  0.250000  0.936436  0.978192  1
  O  O1  1  0.750000  0.063564  0.021808  1
  O  O2  1  0.750000  0.906613  0.706078  1
  O  O3  1  0.250000  0.093387  0.293922  1
  O  O4  1  0.250000  0.950490  0.756669  1
  O  O5  1  0.750000  0.049510  0.243331  1
  O  O6  1  0.484601  0.812588  0.251422  1
  O  O7  1  0.984601  0.187412  0.748578  1
  O  O8  1  0.515399  0.187412  0.748578  1
  O  O9  1  0.015399  0.812588  0.251422  1
  O  O10  1  0.548720  0.084930  0.410344  1
  O  O11  1  0.048720  0.915070  0.589656  1
  O  O12  1  0.451280  0.915070  0.589656  1
  O  O13  1  0.951280  0.084930  0.410344  1
  O  O14  1  0.451996  0.052569  0.131567  1
  O  O15  1  0.750000  0.444924  0.713984  1
  O  O16  1  0.951996  0.947431  0.868433  1
  O  O17  1  0.048004  0.052569  0.131567  1
  O  O18  1  0.545858  0.755264  0.020001  1
  O  O19  1  0.045858  0.244736  0.979999  1
  O  O20  1  0.454142  0.244736  0.979999  1
  O  O21  1  0.954142  0.755264  0.020001  1
  O  O22  1  0.250000  0.555247  0.984589  1
  O  O23  1  0.750000  0.444753  0.015411  1
  O  O24  1  0.033697  0.508739  0.131866  1
  O  O25  1  0.533697  0.491261  0.868134  1
  O  O26  1  0.966303  0.491261  0.868134  1
  O  O27  1  0.466303  0.508739  0.131866  1
  O  O28  1  0.966946  0.618033  0.416207  1
  O  O29  1  0.466946  0.381967  0.583793  1
  O  O30  1  0.033054  0.381967  0.583793  1
  O  O31  1  0.533054  0.618033  0.416207  1
  O  O32  1  0.978811  0.318907  0.272645  1
  O  O33  1  0.478811  0.681093  0.727355  1
  O  O34  1  0.021189  0.681093  0.727355  1
  O  O35  1  0.521189  0.318907  0.272645  1
  O  O36  1  0.750000  0.578409  0.252445  1
  O  O37  1  0.250000  0.421591  0.747555  1
  O  O38  1  0.250000  0.555076  0.286016  1
  O  O39  1  0.548004  0.947431  0.868433  1
  Ti  Ti40  1  0.501940  0.067170  0.290435  1
  Ti  Ti41  1  0.001940  0.932830  0.709565  1
  Ti  Ti42  1  0.498060  0.932830  0.709565  1
  Ti  Ti43  1  0.998060  0.067170  0.290435  1
  Ti  Ti44  1  0.499607  0.578746  0.294548  1
  Ti  Ti45  1  0.999607  0.421254  0.705452  1
  Ti  Ti46  1  0.500393  0.421254  0.705452  1
  Ti  Ti47  1  0.000393  0.578746  0.294548  1
  Ti  Ti48  1  0.500000  0.500000  0.000000  1
  Ti  Ti49  1  0.000000  0.500000  0.000000  1
  Ti  Ti50  1  0.500000  0.000000  0.000000  1
  Ti  Ti51  1  0.000000  0.000000  0.000000  1
  Ba  Ba52  1  0.750000  0.871269  0.494212  1
  Ba  Ba53  1  0.250000  0.128731  0.505788  1
  Ba  Ba54  1  0.750000  0.365166  0.466375  1
  Ba  Ba55  1  0.250000  0.634834  0.533624  1
  Nd  Nd56  1  0.250000  0.784711  0.135088  1
  Nd  Nd57  1  0.750000  0.215289  0.864912  1
  Nd  Nd58  1  0.250000  0.705129  0.844013  1
  Nd  Nd59  1  0.750000  0.294871  0.155987  1
  Nd  Nd60  1  0.250000  0.293081  0.167450  1
  Nd  Nd61  1  0.750000  0.706919  0.832550  1
  Nd  Nd62  1  0.250000  0.215027  0.851840  1
  Nd  Nd63  1  0.750000  0.784973  0.148160  1
