# generated using pymatgen
data_RbNa2P3(HO2)6
_symmetry_space_group_name_H-M   'P 1'
_cell_length_a   7.63659802
_cell_length_b   9.86827827
_cell_length_c   8.80598554
_cell_angle_alpha   114.00314912
_cell_angle_beta   102.24358910
_cell_angle_gamma   84.58259016
_symmetry_Int_Tables_number   1
_chemical_formula_structural   RbNa2P3(HO2)6
_chemical_formula_sum   'Rb2 Na4 P6 H12 O24'
_cell_volume   592.41845360
_cell_formula_units_Z   2
loop_
 _symmetry_equiv_pos_site_id
 _symmetry_equiv_pos_as_xyz
  1  'x, y, z'
loop_
 _atom_site_type_symbol
 _atom_site_label
 _atom_site_symmetry_multiplicity
 _atom_site_fract_x
 _atom_site_fract_y
 _atom_site_fract_z
 _atom_site_occupancy
  Rb  Rb0  1  0.754271  0.619818  0.147472  1
  Rb  Rb1  1  0.245729  0.380182  0.852528  1
  Na  Na2  1  0.470322  0.713544  0.778182  1
  Na  Na3  1  0.529678  0.286456  0.221818  1
  Na  Na4  1  0.851661  0.140842  0.472800  1
  Na  Na5  1  0.148339  0.859158  0.527200  1
  P  P6  1  0.926636  0.757415  0.861734  1
  P  P7  1  0.073364  0.242585  0.138266  1
  P  P8  1  0.258102  0.118312  0.381387  1
  P  P9  1  0.741898  0.881688  0.618613  1
  P  P10  1  0.754687  0.200414  0.872322  1
  P  P11  1  0.245313  0.799586  0.127678  1
  H  H12  1  0.714809  0.970290  0.098014  1
  H  H13  1  0.285191  0.029710  0.901986  1
  H  H14  1  0.569016  0.992836  0.205812  1
  H  H15  1  0.430984  0.007164  0.794188  1
  H  H16  1  0.486805  0.386912  0.603215  1
  H  H17  1  0.513195  0.613088  0.396785  1
  H  H18  1  0.656403  0.404211  0.740784  1
  H  H19  1  0.343597  0.595789  0.259216  1
  H  H20  1  0.817144  0.461193  0.556975  1
  H  H21  1  0.182856  0.538807  0.443025  1
  H  H22  1  0.880140  0.401447  0.382058  1
  H  H23  1  0.119860  0.598553  0.617942  1
  O  O24  1  0.238389  0.211045  0.061604  1
  O  O25  1  0.761611  0.788955  0.938396  1
  O  O26  1  0.017096  0.401060  0.230720  1
  O  O27  1  0.982904  0.598939  0.769280  1
  O  O28  1  0.915849  0.844126  0.737737  1
  O  O29  1  0.084151  0.155874  0.262263  1
  O  O30  1  0.908932  0.148414  0.995946  1
  O  O31  1  0.091068  0.851586  0.004054  1
  O  O32  1  0.666472  0.037915  0.747815  1
  O  O33  1  0.333528  0.962085  0.252185  1
  O  O34  1  0.181023  0.094092  0.512111  1
  O  O35  1  0.818977  0.905908  0.487889  1
  O  O36  1  0.402967  0.228860  0.431107  1
  O  O37  1  0.597033  0.771140  0.568893  1
  O  O38  1  0.838996  0.262592  0.774173  1
  O  O39  1  0.161004  0.737408  0.225827  1
  O  O40  1  0.384788  0.710117  0.030400  1
  O  O41  1  0.615212  0.289882  0.969600  1
  O  O42  1  0.665386  0.044835  0.194436  1
  O  O43  1  0.334614  0.955165  0.805564  1
  O  O44  1  0.449005  0.539379  0.288528  1
  O  O45  1  0.550995  0.460621  0.711472  1
  O  O46  1  0.796270  0.382234  0.442586  1
  O  O47  1  0.203730  0.617766  0.557414  1
