# generated using pymatgen
data_CaB2(H2O3)2
_symmetry_space_group_name_H-M   'P 1'
_cell_length_a   7.03804882
_cell_length_b   4.42758975
_cell_length_c   7.03804882
_cell_angle_alpha   89.23664122
_cell_angle_beta   92.10708700
_cell_angle_gamma   90.76335878
_symmetry_Int_Tables_number   1
_chemical_formula_structural   CaB2(H2O3)2
_chemical_formula_sum   'Ca2 B4 H8 O12'
_cell_volume   219.13099628
_cell_formula_units_Z   2
loop_
 _symmetry_equiv_pos_site_id
 _symmetry_equiv_pos_as_xyz
  1  'x, y, z'
loop_
 _atom_site_type_symbol
 _atom_site_label
 _atom_site_symmetry_multiplicity
 _atom_site_fract_x
 _atom_site_fract_y
 _atom_site_fract_z
 _atom_site_occupancy
  Ca  Ca0  1  0.792163  0.750000  0.792163  1
  Ca  Ca1  1  0.207837  0.250000  0.207837  1
  B  B2  1  0.141305  0.311074  0.723456  1
  B  B3  1  0.723456  0.188926  0.141305  1
  B  B4  1  0.858695  0.688926  0.276544  1
  B  B5  1  0.276544  0.811074  0.858695  1
  H  H6  1  0.639704  0.870424  0.409328  1
  H  H7  1  0.409328  0.629576  0.639704  1
  H  H8  1  0.360296  0.129576  0.590672  1
  H  H9  1  0.590672  0.370424  0.360296  1
  H  H10  1  0.477802  0.716175  0.071512  1
  H  H11  1  0.071512  0.783825  0.477802  1
  H  H12  1  0.522198  0.283825  0.928488  1
  H  H13  1  0.928488  0.216175  0.522198  1
  O  O14  1  0.118580  0.624150  0.783827  1
  O  O15  1  0.783827  0.875850  0.118580  1
  O  O16  1  0.881420  0.375850  0.216173  1
  O  O17  1  0.216173  0.124150  0.881420  1
  O  O18  1  0.275032  0.301623  0.559001  1
  O  O19  1  0.559001  0.198377  0.275032  1
  O  O20  1  0.724968  0.698377  0.440999  1
  O  O21  1  0.440999  0.801623  0.724968  1
  O  O22  1  0.946599  0.201674  0.660491  1
  O  O23  1  0.660491  0.298326  0.946599  1
  O  O24  1  0.053401  0.798327  0.339509  1
  O  O25  1  0.339509  0.701673  0.053401  1
