# generated using pymatgen
data_Zn4B2O7
_symmetry_space_group_name_H-M   'P 1'
_cell_length_a   10.11324934
_cell_length_b   10.11324885
_cell_length_c   9.99078641
_cell_angle_alpha   48.69051222
_cell_angle_beta   48.69051455
_cell_angle_gamma   48.50310432
_symmetry_Int_Tables_number   1
_chemical_formula_structural   Zn4B2O7
_chemical_formula_sum   'Zn12 B6 O21'
_cell_volume   527.91972526
_cell_formula_units_Z   3
loop_
 _symmetry_equiv_pos_site_id
 _symmetry_equiv_pos_as_xyz
  1  'x, y, z'
loop_
 _atom_site_type_symbol
 _atom_site_label
 _atom_site_symmetry_multiplicity
 _atom_site_fract_x
 _atom_site_fract_y
 _atom_site_fract_z
 _atom_site_occupancy
  Zn  Zn0  1  0.140358  0.570821  0.200784  1
  Zn  Zn1  1  0.189423  0.150340  0.551293  1
  Zn  Zn2  1  0.572091  0.188292  0.154230  1
  Zn  Zn3  1  0.062971  0.697949  0.685489  1
  Zn  Zn4  1  0.643652  0.692394  0.076504  1
  Zn  Zn5  1  0.311708  0.927909  0.345770  1
  Zn  Zn6  1  0.718011  0.070042  0.633352  1
  Zn  Zn7  1  0.349660  0.310577  0.948707  1
  Zn  Zn8  1  0.929179  0.359642  0.299216  1
  Zn  Zn9  1  0.429958  0.781989  0.866648  1
  Zn  Zn10  1  0.807606  0.856348  0.423496  1
  Zn  Zn11  1  0.802051  0.437029  0.814511  1
  B  B12  1  0.230065  0.747491  0.271771  1
  B  B13  1  0.333245  0.166755  0.750000  1
  B  B14  1  0.752509  0.269935  0.228229  1
  B  B15  1  0.249896  0.729186  0.771688  1
  B  B16  1  0.729901  0.770099  0.250000  1
  B  B17  1  0.770814  0.250104  0.728312  1
  O  O18  1  0.189370  0.189541  0.194842  1
  O  O19  1  0.310459  0.310630  0.305158  1
  O  O20  1  0.091500  0.724534  0.301088  1
  O  O21  1  0.272641  0.097131  0.741130  1
  O  O22  1  0.393764  0.757556  0.099749  1
  O  O23  1  0.738696  0.287059  0.087796  1
  O  O24  1  0.212941  0.761304  0.412204  1
  O  O25  1  0.402869  0.227359  0.758870  1
  O  O26  1  0.742444  0.106236  0.400251  1
  O  O27  1  0.228770  0.588279  0.800671  1
  O  O28  1  0.775466  0.408500  0.198912  1
  O  O29  1  0.244200  0.895525  0.604843  1
  O  O30  1  0.591954  0.797118  0.226517  1
  O  O31  1  0.800192  0.227882  0.587373  1
  O  O32  1  0.272118  0.699808  0.912627  1
  O  O33  1  0.604475  0.255800  0.895157  1
  O  O34  1  0.896857  0.603143  0.250000  1
  O  O35  1  0.702882  0.908046  0.273483  1
  O  O36  1  0.911721  0.271230  0.699329  1
  O  O37  1  0.691015  0.701433  0.690621  1
  O  O38  1  0.798567  0.808985  0.809379  1
