# generated using pymatgen
data_Zr2Cl5
_symmetry_space_group_name_H-M   'P 1'
_cell_length_a   18.87140296
_cell_length_b   18.87140272
_cell_length_c   18.87140312
_cell_angle_alpha   109.47122108
_cell_angle_beta   109.47122081
_cell_angle_gamma   109.47122072
_symmetry_Int_Tables_number   1
_chemical_formula_structural   Zr2Cl5
_chemical_formula_sum   'Zr48 Cl120'
_cell_volume   5173.57403386
_cell_formula_units_Z   24
loop_
 _symmetry_equiv_pos_site_id
 _symmetry_equiv_pos_as_xyz
  1  'x, y, z'
loop_
 _atom_site_type_symbol
 _atom_site_label
 _atom_site_symmetry_multiplicity
 _atom_site_fract_x
 _atom_site_fract_y
 _atom_site_fract_z
 _atom_site_occupancy
  Zr  Zr0  1  0.972677  0.953140  0.855472  1
  Zr  Zr1  1  0.882794  0.027323  0.480463  1
  Zr  Zr2  1  0.097669  0.453140  0.480463  1
  Zr  Zr3  1  0.402331  0.019537  0.046860  1
  Zr  Zr4  1  0.355472  0.453140  0.472677  1
  Zr  Zr5  1  0.472677  0.355472  0.453140  1
  Zr  Zr6  1  0.855472  0.382794  0.902331  1
  Zr  Zr7  1  0.617206  0.019537  0.472677  1
  Zr  Zr8  1  0.046860  0.402331  0.019537  1
  Zr  Zr9  1  0.027323  0.046860  0.144528  1
  Zr  Zr10  1  0.644528  0.597669  0.117206  1
  Zr  Zr11  1  0.953140  0.855472  0.972677  1
  Zr  Zr12  1  0.144528  0.617206  0.097669  1
  Zr  Zr13  1  0.546860  0.527323  0.644528  1
  Zr  Zr14  1  0.644528  0.546860  0.527323  1
  Zr  Zr15  1  0.355472  0.402331  0.882794  1
  Zr  Zr16  1  0.480463  0.882794  0.027323  1
  Zr  Zr17  1  0.019537  0.046860  0.402331  1
  Zr  Zr18  1  0.882794  0.355472  0.402331  1
  Zr  Zr19  1  0.617206  0.097669  0.144528  1
  Zr  Zr20  1  0.519537  0.117206  0.972677  1
  Zr  Zr21  1  0.453140  0.480463  0.097669  1
  Zr  Zr22  1  0.453140  0.472677  0.355472  1
  Zr  Zr23  1  0.980463  0.527323  0.382794  1
  Zr  Zr24  1  0.972677  0.519537  0.117206  1
  Zr  Zr25  1  0.980463  0.953140  0.597669  1
  Zr  Zr26  1  0.019537  0.472677  0.617206  1
  Zr  Zr27  1  0.902331  0.546860  0.519537  1
  Zr  Zr28  1  0.402331  0.882794  0.355472  1
  Zr  Zr29  1  0.597669  0.117206  0.644528  1
  Zr  Zr30  1  0.117206  0.644528  0.597669  1
  Zr  Zr31  1  0.046860  0.144528  0.027323  1
  Zr  Zr32  1  0.472677  0.617206  0.019537  1
  Zr  Zr33  1  0.597669  0.980463  0.953140  1
  Zr  Zr34  1  0.855472  0.972677  0.953140  1
  Zr  Zr35  1  0.902331  0.855472  0.382794  1
  Zr  Zr36  1  0.953140  0.597669  0.980463  1
  Zr  Zr37  1  0.527323  0.382794  0.980463  1
  Zr  Zr38  1  0.527323  0.644528  0.546860  1
  Zr  Zr39  1  0.097669  0.144528  0.617206  1
  Zr  Zr40  1  0.382794  0.980463  0.527323  1
  Zr  Zr41  1  0.117206  0.972677  0.519537  1
  Zr  Zr42  1  0.519537  0.902331  0.546860  1
  Zr  Zr43  1  0.382794  0.902331  0.855472  1
  Zr  Zr44  1  0.546860  0.519537  0.902331  1
  Zr  Zr45  1  0.144528  0.027323  0.046860  1
  Zr  Zr46  1  0.480463  0.097669  0.453140  1
  Zr  Zr47  1  0.027323  0.480463  0.882794  1
  Cl  Cl48  1  0.316285  0.521422  0.895203  1
  Cl  Cl49  1  0.641409  0.230616  0.127460  1
  Cl  Cl50  1  0.269384  0.858591  0.372540  1
  Cl  Cl51  1  0.478578  0.873781  0.794863  1
  Cl  Cl52  1  0.896844  0.127460  0.986051  1
  Cl  Cl53  1  0.641409  0.910793  0.513949  1
  Cl  Cl54  1  0.141409  0.627460  0.730616  1
  Cl  Cl55  1  0.513949  0.372540  0.603156  1
  Cl  Cl56  1  0.107061  0.303530  0.053530  1
  Cl  Cl57  1  0.626219  0.104797  0.921082  1
  Cl  Cl58  1  0.858591  0.372540  0.269384  1
  Cl  Cl59  1  0.316285  0.294863  0.421082  1
  Cl  Cl60  1  0.946470  0.892939  0.696470  1
  Cl  Cl61  1  0.794863  0.478578  0.873781  1
  Cl  Cl62  1  0.750000  0.196470  0.303530  1
  Cl  Cl63  1  0.627460  0.396844  0.486051  1
  Cl  Cl64  1  0.392939  0.446470  0.196470  1
  Cl  Cl65  1  0.705137  0.578918  0.683715  1
  Cl  Cl66  1  0.730616  0.089207  0.103156  1
  Cl  Cl67  1  0.986051  0.896844  0.127460  1
  Cl  Cl68  1  0.872540  0.358591  0.769384  1
  Cl  Cl69  1  0.896844  0.269384  0.910793  1
  Cl  Cl70  1  0.372540  0.269384  0.858591  1
  Cl  Cl71  1  0.873781  0.794863  0.478578  1
  Cl  Cl72  1  0.410793  0.141409  0.013949  1
  Cl  Cl73  1  0.794863  0.816285  0.921082  1
  Cl  Cl74  1  0.078918  0.373781  0.895203  1
  Cl  Cl75  1  0.230616  0.127460  0.641409  1
  Cl  Cl76  1  0.683715  0.705137  0.578918  1
  Cl  Cl77  1  0.421082  0.316285  0.294863  1
  Cl  Cl78  1  0.053530  0.446470  0.750000  1
  Cl  Cl79  1  0.750000  0.053530  0.446470  1
  Cl  Cl80  1  0.604797  0.978578  0.183715  1
  Cl  Cl81  1  0.513949  0.641409  0.910793  1
  Cl  Cl82  1  0.446470  0.196470  0.392939  1
  Cl  Cl83  1  0.126219  0.205137  0.521422  1
  Cl  Cl84  1  0.196470  0.303530  0.750000  1
  Cl  Cl85  1  0.196470  0.392939  0.446470  1
  Cl  Cl86  1  0.696470  0.946470  0.892939  1
  Cl  Cl87  1  0.126219  0.421082  0.604797  1
  Cl  Cl88  1  0.910793  0.896844  0.269384  1
  Cl  Cl89  1  0.013949  0.103156  0.872540  1
  Cl  Cl90  1  0.892939  0.696470  0.946470  1
  Cl  Cl91  1  0.478578  0.104797  0.683715  1
  Cl  Cl92  1  0.078918  0.205137  0.183715  1
  Cl  Cl93  1  0.895203  0.078918  0.373781  1
  Cl  Cl94  1  0.396844  0.486051  0.627460  1
  Cl  Cl95  1  0.578918  0.683715  0.705137  1
  Cl  Cl96  1  0.230616  0.603156  0.589207  1
  Cl  Cl97  1  0.021422  0.816285  0.395203  1
  Cl  Cl98  1  0.553530  0.250000  0.946470  1
  Cl  Cl99  1  0.816285  0.395203  0.021422  1
  Cl  Cl100  1  0.358591  0.769384  0.872540  1
  Cl  Cl101  1  0.921082  0.626219  0.104797  1
  Cl  Cl102  1  0.604797  0.126219  0.421082  1
  Cl  Cl103  1  0.103156  0.872540  0.013949  1
  Cl  Cl104  1  0.486051  0.627460  0.396844  1
  Cl  Cl105  1  0.603156  0.513949  0.372540  1
  Cl  Cl106  1  0.803530  0.696470  0.250000  1
  Cl  Cl107  1  0.294863  0.421082  0.316285  1
  Cl  Cl108  1  0.603156  0.589207  0.230616  1
  Cl  Cl109  1  0.373781  0.895203  0.078918  1
  Cl  Cl110  1  0.358591  0.089207  0.486051  1
  Cl  Cl111  1  0.705137  0.626219  0.021422  1
  Cl  Cl112  1  0.521422  0.895203  0.316285  1
  Cl  Cl113  1  0.021422  0.705137  0.626219  1
  Cl  Cl114  1  0.294863  0.373781  0.978578  1
  Cl  Cl115  1  0.373781  0.978578  0.294863  1
  Cl  Cl116  1  0.858591  0.986051  0.589207  1
  Cl  Cl117  1  0.013949  0.410793  0.141409  1
  Cl  Cl118  1  0.589207  0.230616  0.603156  1
  Cl  Cl119  1  0.816285  0.921082  0.794863  1
  Cl  Cl120  1  0.205137  0.521422  0.126219  1
  Cl  Cl121  1  0.104797  0.683715  0.478578  1
  Cl  Cl122  1  0.303530  0.750000  0.196470  1
  Cl  Cl123  1  0.589207  0.858591  0.986051  1
  Cl  Cl124  1  0.769384  0.396844  0.410793  1
  Cl  Cl125  1  0.089207  0.103156  0.730616  1
  Cl  Cl126  1  0.910793  0.513949  0.641409  1
  Cl  Cl127  1  0.627460  0.730616  0.141409  1
  Cl  Cl128  1  0.921082  0.794863  0.816285  1
  Cl  Cl129  1  0.696470  0.250000  0.803530  1
  Cl  Cl130  1  0.183715  0.078918  0.205137  1
  Cl  Cl131  1  0.978578  0.183715  0.604797  1
  Cl  Cl132  1  0.250000  0.803530  0.696470  1
  Cl  Cl133  1  0.127460  0.986051  0.896844  1
  Cl  Cl134  1  0.873781  0.578918  0.395203  1
  Cl  Cl135  1  0.183715  0.604797  0.978578  1
  Cl  Cl136  1  0.089207  0.486051  0.358591  1
  Cl  Cl137  1  0.803530  0.607061  0.553530  1
  Cl  Cl138  1  0.978578  0.294863  0.373781  1
  Cl  Cl139  1  0.986051  0.589207  0.858591  1
  Cl  Cl140  1  0.521422  0.126219  0.205137  1
  Cl  Cl141  1  0.127460  0.641409  0.230616  1
  Cl  Cl142  1  0.578918  0.395203  0.873781  1
  Cl  Cl143  1  0.553530  0.803530  0.607061  1
  Cl  Cl144  1  0.104797  0.921082  0.626219  1
  Cl  Cl145  1  0.895203  0.316285  0.521422  1
  Cl  Cl146  1  0.446470  0.750000  0.053530  1
  Cl  Cl147  1  0.205137  0.183715  0.078918  1
  Cl  Cl148  1  0.626219  0.021422  0.705137  1
  Cl  Cl149  1  0.269384  0.910793  0.896844  1
  Cl  Cl150  1  0.141409  0.013949  0.410793  1
  Cl  Cl151  1  0.872540  0.013949  0.103156  1
  Cl  Cl152  1  0.395203  0.873781  0.578918  1
  Cl  Cl153  1  0.421082  0.604797  0.126219  1
  Cl  Cl154  1  0.053530  0.107061  0.303530  1
  Cl  Cl155  1  0.486051  0.358591  0.089207  1
  Cl  Cl156  1  0.769384  0.872540  0.358591  1
  Cl  Cl157  1  0.103156  0.730616  0.089207  1
  Cl  Cl158  1  0.730616  0.141409  0.627460  1
  Cl  Cl159  1  0.395203  0.021422  0.816285  1
  Cl  Cl160  1  0.372540  0.603156  0.513949  1
  Cl  Cl161  1  0.683715  0.478578  0.104797  1
  Cl  Cl162  1  0.607061  0.553530  0.803530  1
  Cl  Cl163  1  0.410793  0.769384  0.396844  1
  Cl  Cl164  1  0.946470  0.553530  0.250000  1
  Cl  Cl165  1  0.303530  0.053530  0.107061  1
  Cl  Cl166  1  0.250000  0.946470  0.553530  1
  Cl  Cl167  1  0.396844  0.410793  0.769384  1
