# generated using pymatgen
data_Na2Cu(CO3)2
_symmetry_space_group_name_H-M   'P 1'
_cell_length_a   5.76299643
_cell_length_b   6.30704236
_cell_length_c   8.14997782
_cell_angle_alpha   90.00000000
_cell_angle_beta   90.00000000
_cell_angle_gamma   115.50775316
_symmetry_Int_Tables_number   1
_chemical_formula_structural   Na2Cu(CO3)2
_chemical_formula_sum   'Na4 Cu2 C4 O12'
_cell_volume   267.35649458
_cell_formula_units_Z   2
loop_
 _symmetry_equiv_pos_site_id
 _symmetry_equiv_pos_as_xyz
  1  'x, y, z'
loop_
 _atom_site_type_symbol
 _atom_site_label
 _atom_site_symmetry_multiplicity
 _atom_site_fract_x
 _atom_site_fract_y
 _atom_site_fract_z
 _atom_site_occupancy
  C  C0  1  0.194467  0.870056  0.731848  1
  C  C1  1  0.805533  0.629944  0.231848  1
  C  C2  1  0.805533  0.129944  0.268152  1
  C  C3  1  0.194467  0.370056  0.768152  1
  O  O4  1  0.378060  0.906049  0.831228  1
  O  O5  1  0.621940  0.593951  0.331228  1
  O  O6  1  0.214182  0.325106  0.924696  1
  O  O7  1  0.785818  0.174894  0.424696  1
  O  O8  1  0.785818  0.674894  0.075304  1
  O  O9  1  0.214182  0.825106  0.575304  1
  O  O10  1  0.982128  0.380992  0.723301  1
  O  O11  1  0.017872  0.119008  0.223301  1
  O  O12  1  0.017872  0.619008  0.276699  1
  O  O13  1  0.982128  0.880992  0.776699  1
  O  O14  1  0.378060  0.406049  0.668772  1
  O  O15  1  0.621940  0.093951  0.168772  1
  Na  Na16  1  0.363217  0.184803  0.407331  1
  Na  Na17  1  0.636783  0.315197  0.907331  1
  Na  Na18  1  0.636783  0.815197  0.592669  1
  Na  Na19  1  0.363217  0.684803  0.092669  1
  Cu  Cu20  1  0.000000  0.500000  0.500000  1
  Cu  Cu21  1  0.000000  0.000000  0.000000  1
