# generated using pymatgen
data_EuPaO4
_symmetry_space_group_name_H-M   'P 1'
_cell_length_a   7.74409792
_cell_length_b   10.22637786
_cell_length_c   6.67131369
_cell_angle_alpha   29.18643681
_cell_angle_beta   54.46076730
_cell_angle_gamma   40.72346715
_symmetry_Int_Tables_number   1
_chemical_formula_structural   EuPaO4
_chemical_formula_sum   'Eu2 Pa2 O8'
_cell_volume   162.63332047
_cell_formula_units_Z   2
loop_
 _symmetry_equiv_pos_site_id
 _symmetry_equiv_pos_as_xyz
  1  'x, y, z'
loop_
 _atom_site_type_symbol
 _atom_site_label
 _atom_site_symmetry_multiplicity
 _atom_site_fract_x
 _atom_site_fract_y
 _atom_site_fract_z
 _atom_site_occupancy
  Eu  Eu0  1  0.499900  0.000176  0.999423  1
  Eu  Eu1  1  0.250063  0.499944  0.000038  1
  Pa  Pa2  1  -0.000032  0.000140  -0.000064  1
  Pa  Pa3  1  0.750092  0.499779  -0.000160  1
  O  O4  1  0.107806  0.017749  0.232389  1
  O  O5  1  0.641204  0.984005  0.266140  1
  O  O6  1  0.375814  0.981934  0.768140  1
  O  O7  1  0.374969  0.517112  0.232462  1
  O  O8  1  0.107710  0.517598  0.732557  1
  O  O9  1  0.875198  0.016097  0.733919  1
  O  O10  1  0.875238  0.482401  0.267869  1
  O  O11  1  0.642040  0.483065  0.767286  1
