# generated using pymatgen
data_Re6Pb5O19
_symmetry_space_group_name_H-M   'P 1'
_cell_length_a   9.40070552
_cell_length_b   9.41004396
_cell_length_c   9.39546720
_cell_angle_alpha   89.94918214
_cell_angle_beta   90.00000000
_cell_angle_gamma   90.00000000
_symmetry_Int_Tables_number   1
_chemical_formula_structural   Re6Pb5O19
_chemical_formula_sum   'Re12 Pb10 O38'
_cell_volume   831.13258743
_cell_formula_units_Z   2
loop_
 _symmetry_equiv_pos_site_id
 _symmetry_equiv_pos_as_xyz
  1  'x, y, z'
loop_
 _atom_site_type_symbol
 _atom_site_label
 _atom_site_symmetry_multiplicity
 _atom_site_fract_x
 _atom_site_fract_y
 _atom_site_fract_z
 _atom_site_occupancy
  Re  Re0  1  0.115441  0.750000  0.250000  1
  Re  Re1  1  0.247488  0.755584  0.616601  1
  Re  Re2  1  0.246378  0.116794  0.748954  1
  Re  Re3  1  0.246378  0.383206  0.751046  1
  Re  Re4  1  0.247488  0.744416  0.883399  1
  Re  Re5  1  0.381588  0.750000  0.250000  1
  Re  Re6  1  0.618412  0.250000  0.750000  1
  Re  Re7  1  0.752512  0.255584  0.116601  1
  Re  Re8  1  0.753622  0.616794  0.248954  1
  Re  Re9  1  0.753622  0.883206  0.251046  1
  Re  Re10  1  0.752512  0.244416  0.383399  1
  Re  Re11  1  0.884559  0.250000  0.750000  1
  Pb  Pb12  1  0.101847  0.392526  0.393606  1
  Pb  Pb13  1  0.101847  0.107474  0.106394  1
  Pb  Pb14  1  0.390697  0.103472  0.395359  1
  Pb  Pb15  1  0.390697  0.396528  0.104641  1
  Pb  Pb16  1  0.500000  0.500000  0.500000  1
  Pb  Pb17  1  0.500000  0.000000  0.000000  1
  Pb  Pb18  1  0.609303  0.603472  0.895359  1
  Pb  Pb19  1  0.609303  0.896528  0.604641  1
  Pb  Pb20  1  0.898153  0.892526  0.893606  1
  Pb  Pb21  1  0.898153  0.607474  0.606394  1
  O  O22  1  0.040166  0.108011  0.753137  1
  O  O23  1  0.040166  0.391989  0.746863  1
  O  O24  1  0.078901  0.750000  0.750000  1
  O  O25  1  0.108068  0.746596  0.459806  1
  O  O26  1  0.108068  0.753404  0.040194  1
  O  O27  1  0.249892  0.960703  0.895253  1
  O  O28  1  0.249892  0.539297  0.604747  1
  O  O29  1  0.251342  0.250000  0.250000  1
  O  O30  1  0.250114  0.247887  0.919636  1
  O  O31  1  0.250856  0.919592  0.249791  1
  O  O32  1  0.250856  0.580408  0.250209  1
  O  O33  1  0.250114  0.252113  0.580364  1
  O  O34  1  0.252568  0.538718  0.892300  1
  O  O35  1  0.252568  0.961282  0.607700  1
  O  O36  1  0.394998  0.749978  0.038727  1
  O  O37  1  0.394998  0.750022  0.461273  1
  O  O38  1  0.417620  0.750000  0.750000  1
  O  O39  1  0.461367  0.104698  0.750093  1
  O  O40  1  0.461367  0.395302  0.749907  1
  O  O41  1  0.538633  0.604698  0.250093  1
  O  O42  1  0.538633  0.895302  0.249907  1
  O  O43  1  0.582380  0.250000  0.250000  1
  O  O44  1  0.605002  0.249978  0.538727  1
  O  O45  1  0.605002  0.250022  0.961273  1
  O  O46  1  0.747432  0.038718  0.392300  1
  O  O47  1  0.747432  0.461282  0.107700  1
  O  O48  1  0.749144  0.419592  0.749791  1
  O  O49  1  0.749886  0.747887  0.419636  1
  O  O50  1  0.749144  0.080408  0.750209  1
  O  O51  1  0.749886  0.752113  0.080364  1
  O  O52  1  0.748658  0.750000  0.750000  1
  O  O53  1  0.750108  0.460703  0.395253  1
  O  O54  1  0.750108  0.039297  0.104747  1
  O  O55  1  0.891932  0.246596  0.959806  1
  O  O56  1  0.891932  0.253404  0.540194  1
  O  O57  1  0.921099  0.250000  0.250000  1
  O  O58  1  0.959834  0.608011  0.253137  1
  O  O59  1  0.959834  0.891989  0.246863  1
