# generated using pymatgen
data_Sb2Pb2O7
_symmetry_space_group_name_H-M   'P 1'
_cell_length_a   7.64705101
_cell_length_b   7.64705101
_cell_length_c   7.64705101
_cell_angle_alpha   92.21230307
_cell_angle_beta   117.00408814
_cell_angle_gamma   120.48704623
_symmetry_Int_Tables_number   1
_chemical_formula_structural   Sb2Pb2O7
_chemical_formula_sum   'Sb4 Pb4 O14'
_cell_volume   321.58470349
_cell_formula_units_Z   2
loop_
 _symmetry_equiv_pos_site_id
 _symmetry_equiv_pos_as_xyz
  1  'x, y, z'
loop_
 _atom_site_type_symbol
 _atom_site_label
 _atom_site_symmetry_multiplicity
 _atom_site_fract_x
 _atom_site_fract_y
 _atom_site_fract_z
 _atom_site_occupancy
  Sb  Sb0  1  0.242440  0.739518  0.002923  1
  Sb  Sb1  1  0.736595  0.239518  -0.002923  1
  Sb  Sb2  1  0.240461  0.740461  0.500000  1
  Sb  Sb3  1  0.240461  0.240461  0.000000  1
  Pb  Pb4  1  0.210021  0.253072  0.456948  1
  Pb  Pb5  1  0.796124  0.753072  0.543052  1
  Pb  Pb6  1  0.727423  0.227423  0.500000  1
  Pb  Pb7  1  0.727423  0.727423  0.000000  1
  O  O8  1  0.110309  0.661857  0.691852  1
  O  O9  1  0.970005  0.418457  0.308148  1
  O  O10  1  0.110309  0.918457  0.948452  1
  O  O11  1  0.970005  0.161857  0.051548  1
  O  O12  1  0.449266  0.645448  0.624375  1
  O  O13  1  0.021072  0.824891  0.375625  1
  O  O14  1  0.449266  0.324891  0.303819  1
  O  O15  1  0.021072  0.145448  0.696181  1
  O  O16  1  0.517888  0.058444  0.691036  1
  O  O17  1  0.367408  0.826852  0.308964  1
  O  O18  1  0.517888  0.326852  0.959445  1
  O  O19  1  0.367408  0.558444  0.040555  1
  O  O20  1  0.896611  0.490278  0.906334  1
  O  O21  1  0.583944  0.990278  0.093666  1
