# generated using pymatgen
data_K(WO3)6
_symmetry_space_group_name_H-M   'P 1'
_cell_length_a   7.51537159
_cell_length_b   7.51537198
_cell_length_c   7.72223055
_cell_angle_alpha   90.00000000
_cell_angle_beta   90.00000000
_cell_angle_gamma   119.99999824
_symmetry_Int_Tables_number   1
_chemical_formula_structural   K(WO3)6
_chemical_formula_sum   'K1 W6 O18'
_cell_volume   377.72379371
_cell_formula_units_Z   1
loop_
 _symmetry_equiv_pos_site_id
 _symmetry_equiv_pos_as_xyz
  1  'x, y, z'
loop_
 _atom_site_type_symbol
 _atom_site_label
 _atom_site_symmetry_multiplicity
 _atom_site_fract_x
 _atom_site_fract_y
 _atom_site_fract_z
 _atom_site_occupancy
  K  K0  1  0.000000  0.000000  0.499821  1
  W  W1  1  0.000000  0.489480  0.249288  1
  W  W2  1  0.489480  0.000000  0.249288  1
  W  W3  1  0.511219  0.000000  0.750984  1
  W  W4  1  0.488781  0.488781  0.750984  1
  W  W5  1  0.510520  0.510520  0.249288  1
  W  W6  1  1.000000  0.511219  0.750984  1
  O  O7  1  1.000000  0.500704  0.500030  1
  O  O8  1  0.000000  0.500158  0.000030  1
  O  O9  1  0.208986  0.785861  0.251891  1
  O  O10  1  0.214489  0.791399  0.747973  1
  O  O11  1  0.214139  0.423125  0.251891  1
  O  O12  1  0.208601  0.423090  0.747973  1
  O  O13  1  0.500704  0.000000  0.500030  1
  O  O14  1  0.576875  0.791014  0.251891  1
  O  O15  1  0.576910  0.785511  0.747973  1
  O  O16  1  0.499296  0.499296  0.500030  1
  O  O17  1  0.499842  0.499842  0.000030  1
  O  O18  1  0.423125  0.214139  0.251891  1
  O  O19  1  0.423090  0.208601  0.747973  1
  O  O20  1  0.500158  0.000000  0.000030  1
  O  O21  1  0.785511  0.576910  0.747973  1
  O  O22  1  0.791014  0.576875  0.251891  1
  O  O23  1  0.785861  0.208986  0.251891  1
  O  O24  1  0.791399  0.214489  0.747973  1
