# generated using pymatgen
data_Al4CO
_symmetry_space_group_name_H-M   'P 1'
_cell_length_a   2.92965226
_cell_length_b   7.97469240
_cell_length_c   5.90088598
_cell_angle_alpha   40.48998228
_cell_angle_beta   119.74871776
_cell_angle_gamma   112.56068764
_symmetry_Int_Tables_number   1
_chemical_formula_structural   Al4CO
_chemical_formula_sum   'Al4 C1 O1'
_cell_volume   77.71420402
_cell_formula_units_Z   1
loop_
 _symmetry_equiv_pos_site_id
 _symmetry_equiv_pos_as_xyz
  1  'x, y, z'
loop_
 _atom_site_type_symbol
 _atom_site_label
 _atom_site_symmetry_multiplicity
 _atom_site_fract_x
 _atom_site_fract_y
 _atom_site_fract_z
 _atom_site_occupancy
  Al  Al0  1  0.246136  0.602442  0.614974  1
  Al  Al1  1  0.633528  0.085968  0.995350  1
  Al  Al2  1  0.315583  0.575511  0.198955  1
  Al  Al3  1  0.591695  0.028101  0.519356  1
  C  C4  1  0.965809  0.776855  0.654686  1
  O  O5  1  0.260103  0.219450  0.493614  1
