# generated using pymatgen
data_Sr2CeIrO6
_symmetry_space_group_name_H-M   'P 1'
_cell_length_a   5.87005586
_cell_length_b   5.92729114
_cell_length_c   8.32099226
_cell_angle_alpha   90.00000000
_cell_angle_beta   90.51799318
_cell_angle_gamma   90.00000000
_symmetry_Int_Tables_number   1
_chemical_formula_structural   Sr2CeIrO6
_chemical_formula_sum   'Sr4 Ce2 Ir2 O12'
_cell_volume   289.50486278
_cell_formula_units_Z   2
loop_
 _symmetry_equiv_pos_site_id
 _symmetry_equiv_pos_as_xyz
  1  'x, y, z'
loop_
 _atom_site_type_symbol
 _atom_site_label
 _atom_site_symmetry_multiplicity
 _atom_site_fract_x
 _atom_site_fract_y
 _atom_site_fract_z
 _atom_site_occupancy
  O  O0  1  0.074821  0.518249  0.763621  1
  O  O1  1  0.425179  0.018249  0.736379  1
  O  O2  1  0.925179  0.481751  0.236379  1
  O  O3  1  0.574821  0.981751  0.263621  1
  O  O4  1  0.699032  0.726123  0.539979  1
  O  O5  1  0.800968  0.226123  0.960021  1
  O  O6  1  0.300968  0.273877  0.460021  1
  O  O7  1  0.199032  0.773877  0.039979  1
  O  O8  1  0.272809  0.297548  0.039753  1
  O  O9  1  0.227191  0.797548  0.460247  1
  O  O10  1  0.727191  0.702452  0.960247  1
  O  O11  1  0.772809  0.202452  0.539753  1
  Sr  Sr12  1  0.490292  0.537332  0.251448  1
  Sr  Sr13  1  0.009708  0.037332  0.248552  1
  Sr  Sr14  1  0.990292  0.962668  0.751448  1
  Sr  Sr15  1  0.509708  0.462668  0.748552  1
  Ce  Ce16  1  0.000000  0.500000  0.500000  1
  Ce  Ce17  1  0.500000  0.000000  0.000000  1
  Ir  Ir18  1  0.500000  0.000000  0.500000  1
  Ir  Ir19  1  0.000000  0.500000  0.000000  1
