# generated using pymatgen
data_CaZn3
_symmetry_space_group_name_H-M   'P 1'
_cell_length_a   9.12091626
_cell_length_b   9.12091634
_cell_length_c   9.76236187
_cell_angle_alpha   90.00000000
_cell_angle_beta   90.00000000
_cell_angle_gamma   119.99999971
_symmetry_Int_Tables_number   1
_chemical_formula_structural   CaZn3
_chemical_formula_sum   'Ca8 Zn24'
_cell_volume   703.33539837
_cell_formula_units_Z   8
loop_
 _symmetry_equiv_pos_site_id
 _symmetry_equiv_pos_as_xyz
  1  'x, y, z'
loop_
 _atom_site_type_symbol
 _atom_site_label
 _atom_site_symmetry_multiplicity
 _atom_site_fract_x
 _atom_site_fract_y
 _atom_site_fract_z
 _atom_site_occupancy
  Ca  Ca0  1  0.000000  0.000000  0.750000  1
  Ca  Ca1  1  0.543196  0.086392  0.250000  1
  Ca  Ca2  1  0.913608  0.456804  0.250000  1
  Ca  Ca3  1  0.086392  0.543196  0.750000  1
  Ca  Ca4  1  0.456804  0.543196  0.750000  1
  Ca  Ca5  1  0.000000  0.000000  0.250000  1
  Ca  Ca6  1  0.543196  0.456804  0.250000  1
  Ca  Ca7  1  0.456804  0.913608  0.750000  1
  Zn  Zn8  1  0.831514  0.663028  0.507734  1
  Zn  Zn9  1  0.168486  0.336972  0.007734  1
  Zn  Zn10  1  0.336972  0.168486  -0.007734  1
  Zn  Zn11  1  0.831514  0.168486  -0.007734  1
  Zn  Zn12  1  0.333333  0.666667  0.490959  1
  Zn  Zn13  1  0.234348  0.468696  0.250000  1
  Zn  Zn14  1  0.831514  0.168486  0.507734  1
  Zn  Zn15  1  0.831514  0.663028  -0.007734  1
  Zn  Zn16  1  0.666667  0.333333  0.990959  1
  Zn  Zn17  1  0.168486  0.831514  0.007734  1
  Zn  Zn18  1  0.663028  0.831514  0.492266  1
  Zn  Zn19  1  0.468696  0.234348  0.750000  1
  Zn  Zn20  1  0.336972  0.168486  0.507734  1
  Zn  Zn21  1  0.531304  0.765652  0.250000  1
  Zn  Zn22  1  0.663028  0.831514  0.007734  1
  Zn  Zn23  1  0.168486  0.831514  0.492266  1
  Zn  Zn24  1  0.666667  0.333333  0.509041  1
  Zn  Zn25  1  0.000000  0.000000  0.500000  1
  Zn  Zn26  1  0.765652  0.234348  0.750000  1
  Zn  Zn27  1  0.333333  0.666667  0.009041  1
  Zn  Zn28  1  0.234348  0.765652  0.250000  1
  Zn  Zn29  1  0.168486  0.336972  0.492266  1
  Zn  Zn30  1  0.765652  0.531304  0.750000  1
  Zn  Zn31  1  0.000000  0.000000  0.000000  1
