# generated using pymatgen
data_Cs4CO4
_symmetry_space_group_name_H-M   'P 1'
_cell_length_a   6.11329598
_cell_length_b   6.60616200
_cell_length_c   6.95311379
_cell_angle_alpha   111.06320273
_cell_angle_beta   116.09622563
_cell_angle_gamma   89.99630709
_symmetry_Int_Tables_number   1
_chemical_formula_structural   Cs4CO4
_chemical_formula_sum   'Cs4 C1 O4'
_cell_volume   231.10723561
_cell_formula_units_Z   1
loop_
 _symmetry_equiv_pos_site_id
 _symmetry_equiv_pos_as_xyz
  1  'x, y, z'
loop_
 _atom_site_type_symbol
 _atom_site_label
 _atom_site_symmetry_multiplicity
 _atom_site_fract_x
 _atom_site_fract_y
 _atom_site_fract_z
 _atom_site_occupancy
  Cs  Cs0  1  0.160906  0.101854  0.718964  1
  Cs  Cs1  1  0.842244  0.431792  0.273320  1
  Cs  Cs2  1  0.442035  0.898151  0.281083  1
  Cs  Cs3  1  0.568824  0.568186  0.726711  1
  C  C4  1  0.924979  -0.000022  -0.000061  1
  O  O5  1  0.134559  0.184117  0.140404  1
  O  O6  1  0.994035  0.815905  0.859504  1
  O  O7  1  0.866481  0.937127  0.151835  1
  O  O8  1  0.714447  0.062890  0.848240  1
