# generated using pymatgen
data_RhC2ClO2
_symmetry_space_group_name_H-M   'P 1'
_cell_length_a   9.43772116
_cell_length_b   11.21322018
_cell_length_c   11.21322019
_cell_angle_alpha   79.79922905
_cell_angle_beta   65.11299220
_cell_angle_gamma   65.11299368
_symmetry_Int_Tables_number   1
_chemical_formula_structural   RhC2ClO2
_chemical_formula_sum   'Rh8 C16 Cl8 O16'
_cell_volume   976.50836607
_cell_formula_units_Z   8
loop_
 _symmetry_equiv_pos_site_id
 _symmetry_equiv_pos_as_xyz
  1  'x, y, z'
loop_
 _atom_site_type_symbol
 _atom_site_label
 _atom_site_symmetry_multiplicity
 _atom_site_fract_x
 _atom_site_fract_y
 _atom_site_fract_z
 _atom_site_occupancy
  Rh  Rh0  1  0.608301  0.080350  0.623618  1
  Rh  Rh1  1  0.938650  0.419650  0.123618  1
  Rh  Rh2  1  0.481918  0.580350  0.876382  1
  Rh  Rh3  1  0.312268  0.919650  0.376382  1
  Rh  Rh4  1  0.768082  0.623618  0.919650  1
  Rh  Rh5  1  0.641699  0.876382  0.419650  1
  Rh  Rh6  1  0.937732  0.123618  0.580350  1
  Rh  Rh7  1  0.311350  0.376382  0.080350  1
  C  C8  1  0.834927  0.894232  0.291207  1
  C  C9  1  0.476689  0.013496  0.770015  1
  C  C10  1  0.260200  0.986504  0.229985  1
  C  C11  1  0.873865  0.291207  0.105768  1
  C  C12  1  0.270841  0.708793  0.894232  1
  C  C13  1  0.989800  0.270015  0.513496  1
  C  C14  1  0.376135  0.394232  0.208793  1
  C  C15  1  0.229633  0.791207  0.394232  1
  C  C16  1  0.509815  0.229985  0.013496  1
  C  C17  1  0.415073  0.208793  0.605768  1
  C  C18  1  0.979159  0.605768  0.791207  1
  C  C19  1  0.753296  0.770015  0.986504  1
  C  C20  1  0.020367  0.105768  0.708793  1
  C  C21  1  0.773311  0.729985  0.486504  1
  C  C22  1  0.740185  0.486504  0.270015  1
  C  C23  1  0.496704  0.513496  0.729985  1
  Cl  Cl24  1  0.047107  0.564440  0.157938  1
  Cl  Cl25  1  0.794955  0.157938  0.435560  1
  Cl  Cl26  1  0.861547  0.935560  0.657938  1
  Cl  Cl27  1  0.769485  0.435560  0.842062  1
  Cl  Cl28  1  0.388453  0.842062  0.564440  1
  Cl  Cl29  1  0.202893  0.342062  0.935560  1
  Cl  Cl30  1  0.455045  0.064440  0.342062  1
  Cl  Cl31  1  0.480515  0.657938  0.064440  1
  O  O32  1  0.957183  0.901076  0.209173  1
  O  O33  1  0.226329  0.032650  0.139844  1
  O  O34  1  0.023671  0.360156  0.467350  1
  O  O35  1  0.616172  0.532650  0.360156  1
  O  O36  1  0.141741  0.790827  0.901076  1
  O  O37  1  0.182568  0.709173  0.401076  1
  O  O38  1  0.833644  0.209173  0.098924  1
  O  O39  1  0.416356  0.401076  0.290827  1
  O  O40  1  0.633828  0.139844  0.967350  1
  O  O41  1  0.398823  0.967350  0.860156  1
  O  O42  1  0.851177  0.639844  0.532650  1
  O  O43  1  0.741021  0.860156  0.032650  1
  O  O44  1  0.508979  0.467350  0.639844  1
  O  O45  1  0.292817  0.290827  0.598924  1
  O  O46  1  0.067432  0.098924  0.790827  1
  O  O47  1  0.108259  0.598924  0.709173  1
