# generated using pymatgen
data_CaCO3
_symmetry_space_group_name_H-M   'P 1'
_cell_length_a   10.45464403
_cell_length_b   5.47371319
_cell_length_c   6.10387370
_cell_angle_alpha   130.09147220
_cell_angle_beta   148.91411674
_cell_angle_gamma   41.23596767
_symmetry_Int_Tables_number   1
_chemical_formula_structural   CaCO3
_chemical_formula_sum   'Ca2 C2 O6'
_cell_volume   118.88024338
_cell_formula_units_Z   2
loop_
 _symmetry_equiv_pos_site_id
 _symmetry_equiv_pos_as_xyz
  1  'x, y, z'
loop_
 _atom_site_type_symbol
 _atom_site_label
 _atom_site_symmetry_multiplicity
 _atom_site_fract_x
 _atom_site_fract_y
 _atom_site_fract_z
 _atom_site_occupancy
  Ca  Ca0  1  0.000000  0.000000  0.000000  1
  Ca  Ca1  1  0.000000  0.500000  0.000000  1
  C  C2  1  0.670259  0.250000  0.340519  1
  C  C3  1  0.329741  0.750000  0.659481  1
  O  O4  1  0.423227  0.907492  0.371902  1
  O  O5  1  0.489776  0.250000  0.979551  1
  O  O6  1  0.948675  0.592508  0.371902  1
  O  O7  1  0.576773  0.092508  0.628098  1
  O  O8  1  0.510224  0.750000  0.020449  1
  O  O9  1  0.051325  0.407492  0.628098  1
