# generated using pymatgen
data_Cs2Na2IrO4
_symmetry_space_group_name_H-M   'P 1'
_cell_length_a   6.02787985
_cell_length_b   6.76492564
_cell_length_c   9.76487317
_cell_angle_alpha   102.65090861
_cell_angle_beta   90.06440389
_cell_angle_gamma   116.26601669
_symmetry_Int_Tables_number   1
_chemical_formula_structural   Cs2Na2IrO4
_chemical_formula_sum   'Cs4 Na4 Ir2 O8'
_cell_volume   346.21646547
_cell_formula_units_Z   2
loop_
 _symmetry_equiv_pos_site_id
 _symmetry_equiv_pos_as_xyz
  1  'x, y, z'
loop_
 _atom_site_type_symbol
 _atom_site_label
 _atom_site_symmetry_multiplicity
 _atom_site_fract_x
 _atom_site_fract_y
 _atom_site_fract_z
 _atom_site_occupancy
  Cs  Cs0  1  0.333330  0.673198  0.138578  1
  Cs  Cs1  1  0.666793  0.330919  0.861700  1
  Cs  Cs2  1  0.326584  0.658606  0.760223  1
  Cs  Cs3  1  0.676719  0.347098  0.241740  1
  Na  Na4  1  0.026555  0.052062  0.655752  1
  Na  Na5  1  0.213489  0.431501  0.426920  1
  Na  Na6  1  0.974178  0.948345  0.343682  1
  Na  Na7  1  0.782222  0.571475  0.573543  1
  Ir  Ir8  1  0.000569  0.998060  0.999421  1
  Ir  Ir9  1  0.498067  0.002480  0.500526  1
  O  O10  1  0.154723  0.768832  0.467874  1
  O  O11  1  0.386500  0.236571  0.531551  1
  O  O12  1  0.130675  0.247048  0.907885  1
  O  O13  1  0.099252  0.206414  0.185638  1
  O  O14  1  0.842442  0.237314  0.531403  1
  O  O15  1  0.875909  0.748789  0.090584  1
  O  O16  1  0.898586  0.789650  0.812621  1
  O  O17  1  0.610411  0.770073  0.469728  1
