# generated using pymatgen
data_In4Au9
_symmetry_space_group_name_H-M   'P 1'
_cell_length_a   10.07753525
_cell_length_b   10.07754047
_cell_length_c   10.07753613
_cell_angle_alpha   89.99983387
_cell_angle_beta   89.99947659
_cell_angle_gamma   90.00072069
_symmetry_Int_Tables_number   1
_chemical_formula_structural   In4Au9
_chemical_formula_sum   'In16 Au36'
_cell_volume   1023.44201200
_cell_formula_units_Z   4
loop_
 _symmetry_equiv_pos_site_id
 _symmetry_equiv_pos_as_xyz
  1  'x, y, z'
loop_
 _atom_site_type_symbol
 _atom_site_label
 _atom_site_symmetry_multiplicity
 _atom_site_fract_x
 _atom_site_fract_y
 _atom_site_fract_z
 _atom_site_occupancy
  In  In0  1  0.876566  0.876568  0.123433  1
  In  In1  1  0.462014  0.808685  0.191298  1
  In  In2  1  0.808701  0.462013  0.191299  1
  In  In3  1  0.808702  0.808685  0.537986  1
  In  In4  1  0.876566  0.123434  0.876567  1
  In  In5  1  0.191299  0.191315  0.537986  1
  In  In6  1  0.191312  0.537999  0.191312  1
  In  In7  1  0.123433  0.123434  0.123434  1
  In  In8  1  0.537987  0.808685  0.808702  1
  In  In9  1  0.462013  0.191315  0.808702  1
  In  In10  1  0.808699  0.191300  0.462025  1
  In  In11  1  0.537974  0.191300  0.191301  1
  In  In12  1  0.808703  0.537987  0.808685  1
  In  In13  1  0.191312  0.462002  0.808688  1
  In  In14  1  0.123433  0.876567  0.876567  1
  In  In15  1  0.191298  0.808686  0.462013  1
  Au  Au16  1  0.033730  0.685326  0.685326  1
  Au  Au17  1  0.033726  0.314675  0.314674  1
  Au  Au18  1  0.000001  0.361073  -0.000000  1
  Au  Au19  1  0.500000  0.860837  0.499999  1
  Au  Au20  1  0.314672  0.685326  0.966270  1
  Au  Au21  1  0.685324  0.033725  0.685328  1
  Au  Au22  1  0.314673  0.314677  0.033727  1
  Au  Au23  1  0.685328  0.685326  0.033727  1
  Au  Au24  1  0.685328  0.314675  0.966274  1
  Au  Au25  1  0.832883  0.832885  0.832882  1
  Au  Au26  1  0.314675  0.966276  0.685325  1
  Au  Au27  1  0.832881  0.167117  0.167119  1
  Au  Au28  1  0.608481  0.608482  0.608481  1
  Au  Au29  1  0.675497  0.324504  0.675500  1
  Au  Au30  1  0.500001  0.500001  0.860836  1
  Au  Au31  1  0.966275  0.314676  0.685326  1
  Au  Au32  1  0.685325  0.966276  0.314674  1
  Au  Au33  1  0.324500  0.324506  0.324502  1
  Au  Au34  1  0.391518  0.391520  0.608480  1
  Au  Au35  1  0.499999  0.139164  0.500000  1
  Au  Au36  1  0.860836  0.499998  0.499998  1
  Au  Au37  1  0.324502  0.675498  0.675498  1
  Au  Au38  1  0.000000  0.000001  0.638928  1
  Au  Au39  1  0.966271  0.685327  0.314673  1
  Au  Au40  1  -0.000000  0.000002  0.361071  1
  Au  Au41  1  0.167110  0.167108  0.832891  1
  Au  Au42  1  0.361073  0.000001  0.999999  1
  Au  Au43  1  -0.000001  0.638929  0.000001  1
  Au  Au44  1  0.500001  0.500000  0.139163  1
  Au  Au45  1  0.675500  0.675499  0.324501  1
  Au  Au46  1  0.167117  0.832887  0.167117  1
  Au  Au47  1  0.391518  0.608481  0.391522  1
  Au  Au48  1  0.608482  0.391520  0.391517  1
  Au  Au49  1  0.638928  0.000003  1.000000  1
  Au  Au50  1  0.314673  0.033725  0.314675  1
  Au  Au51  1  0.139163  0.500000  0.500001  1
