# generated using pymatgen
data_NaHgCl3
_symmetry_space_group_name_H-M   'P 1'
_cell_length_a   4.22020942
_cell_length_b   7.46100186
_cell_length_c   18.32272022
_cell_angle_alpha   90.00000000
_cell_angle_beta   90.00000000
_cell_angle_gamma   90.00000000
_symmetry_Int_Tables_number   1
_chemical_formula_structural   NaHgCl3
_chemical_formula_sum   'Na4 Hg4 Cl12'
_cell_volume   576.92731443
_cell_formula_units_Z   4
loop_
 _symmetry_equiv_pos_site_id
 _symmetry_equiv_pos_as_xyz
  1  'x, y, z'
loop_
 _atom_site_type_symbol
 _atom_site_label
 _atom_site_symmetry_multiplicity
 _atom_site_fract_x
 _atom_site_fract_y
 _atom_site_fract_z
 _atom_site_occupancy
  Na  Na0  1  0.250000  0.592215  0.125073  1
  Na  Na1  1  0.750000  0.907785  0.625073  1
  Na  Na2  1  0.750000  0.407785  0.874927  1
  Na  Na3  1  0.250000  0.092215  0.374927  1
  Hg  Hg4  1  0.250000  0.607692  0.404777  1
  Hg  Hg5  1  0.750000  0.892308  0.904777  1
  Hg  Hg6  1  0.750000  0.392308  0.595223  1
  Hg  Hg7  1  0.250000  0.107692  0.095223  1
  Cl  Cl8  1  0.750000  0.085390  0.801586  1
  Cl  Cl9  1  0.750000  0.585390  0.698414  1
  Cl  Cl10  1  0.250000  0.652049  0.867674  1
  Cl  Cl11  1  0.250000  0.414610  0.301586  1
  Cl  Cl12  1  0.250000  0.210513  0.969119  1
  Cl  Cl13  1  0.250000  0.710513  0.530881  1
  Cl  Cl14  1  0.750000  0.847951  0.367674  1
  Cl  Cl15  1  0.250000  0.152049  0.632326  1
  Cl  Cl16  1  0.750000  0.289487  0.469119  1
  Cl  Cl17  1  0.750000  0.347951  0.132326  1
  Cl  Cl18  1  0.750000  0.789487  0.030881  1
  Cl  Cl19  1  0.250000  0.914610  0.198414  1
