# generated using pymatgen
data_Cd(HN2)4
_symmetry_space_group_name_H-M   'P 1'
_cell_length_a   7.96841097
_cell_length_b   11.92724442
_cell_length_c   12.76897435
_cell_angle_alpha   90.00000000
_cell_angle_beta   94.60262067
_cell_angle_gamma   90.00000000
_symmetry_Int_Tables_number   1
_chemical_formula_structural   Cd(HN2)4
_chemical_formula_sum   'Cd8 H32 N64'
_cell_volume   1209.66492020
_cell_formula_units_Z   8
loop_
 _symmetry_equiv_pos_site_id
 _symmetry_equiv_pos_as_xyz
  1  'x, y, z'
loop_
 _atom_site_type_symbol
 _atom_site_label
 _atom_site_symmetry_multiplicity
 _atom_site_fract_x
 _atom_site_fract_y
 _atom_site_fract_z
 _atom_site_occupancy
  Cd  Cd0  1  0.777108  0.032636  0.889180  1
  Cd  Cd1  1  0.722892  0.532636  0.110820  1
  Cd  Cd2  1  0.843180  0.435551  0.404048  1
  Cd  Cd3  1  0.343180  0.064449  0.404048  1
  Cd  Cd4  1  0.277108  0.467364  0.889180  1
  Cd  Cd5  1  0.656820  0.935551  0.595952  1
  Cd  Cd6  1  0.156820  0.564449  0.595952  1
  Cd  Cd7  1  0.222892  0.967364  0.110820  1
  H  H8  1  0.647879  0.725062  0.240590  1
  H  H9  1  0.757564  0.171682  0.587717  1
  H  H10  1  0.826216  0.194425  0.053287  1
  H  H11  1  0.040635  0.883111  0.283329  1
  H  H12  1  0.673784  0.694425  0.946713  1
  H  H13  1  0.147879  0.774938  0.240590  1
  H  H14  1  0.173784  0.805575  0.946713  1
  H  H15  1  0.389801  0.837780  0.328418  1
  H  H16  1  0.623211  0.518717  0.858429  1
  H  H17  1  0.742436  0.671682  0.412283  1
  H  H18  1  0.123211  0.981283  0.858429  1
  H  H19  1  0.493524  0.373446  0.186590  1
  H  H20  1  0.486680  0.677459  0.994816  1
  H  H21  1  0.959365  0.116889  0.716671  1
  H  H22  1  0.986680  0.822541  0.994816  1
  H  H23  1  0.013320  0.177459  0.005184  1
  H  H24  1  0.242436  0.828318  0.412283  1
  H  H25  1  0.513320  0.322541  0.005184  1
  H  H26  1  0.326216  0.305575  0.053287  1
  H  H27  1  0.459365  0.383111  0.716671  1
  H  H28  1  0.257564  0.328318  0.587717  1
  H  H29  1  0.993524  0.126554  0.186590  1
  H  H30  1  0.376789  0.481283  0.141571  1
  H  H31  1  0.110199  0.337780  0.671582  1
  H  H32  1  0.506476  0.626554  0.813410  1
  H  H33  1  0.852121  0.225062  0.759410  1
  H  H34  1  0.889801  0.662220  0.328418  1
  H  H35  1  0.610199  0.162220  0.671582  1
  H  H36  1  0.352121  0.274938  0.759410  1
  H  H37  1  0.006476  0.873446  0.813410  1
  H  H38  1  0.540635  0.616889  0.283329  1
  H  H39  1  0.876789  0.018717  0.141571  1
  N  N40  1  0.220320  0.373031  0.651188  1
  N  N41  1  0.156300  0.858868  0.260166  1
  N  N42  1  0.289793  0.047384  0.642721  1
  N  N43  1  0.417337  0.244637  0.474066  1
  N  N44  1  0.621383  0.178418  0.171990  1
  N  N45  1  0.916040  0.378492  0.931912  1
  N  N46  1  0.052610  0.109937  0.385981  1
  N  N47  1  0.779680  0.626969  0.348812  1
  N  N48  1  0.582663  0.755363  0.525934  1
  N  N49  1  0.792939  0.403881  0.972454  1
  N  N50  1  0.447390  0.609937  0.614019  1
  N  N51  1  0.223963  0.098296  0.706632  1
  N  N52  1  0.535453  0.152096  0.889463  1
  N  N53  1  0.276037  0.598296  0.293368  1
  N  N54  1  0.207061  0.596119  0.027546  1
  N  N55  1  0.121383  0.321582  0.171990  1
  N  N56  1  0.986962  0.183858  0.429357  1
  N  N57  1  0.998831  0.634722  0.800794  1
  N  N58  1  0.357313  0.994753  0.577697  1
  N  N59  1  0.707061  0.903881  0.027546  1
  N  N60  1  0.911995  0.136107  0.031914  1
  N  N61  1  0.964547  0.652096  0.110537  1
  N  N62  1  0.411995  0.363893  0.031914  1
  N  N63  1  0.710207  0.952616  0.357279  1
  N  N64  1  0.624565  0.909243  0.773180  1
  N  N65  1  0.464547  0.847904  0.110537  1
  N  N66  1  0.720320  0.126969  0.651188  1
  N  N67  1  0.656300  0.641132  0.260166  1
  N  N68  1  0.947390  0.890063  0.614019  1
  N  N69  1  0.375435  0.090757  0.226820  1
  N  N70  1  0.035453  0.347904  0.889463  1
  N  N71  1  0.279680  0.873031  0.348812  1
  N  N72  1  0.875435  0.409243  0.226820  1
  N  N73  1  0.878617  0.678418  0.828010  1
  N  N74  1  0.416040  0.121508  0.931912  1
  N  N75  1  0.343700  0.358868  0.739834  1
  N  N76  1  0.486962  0.316142  0.429357  1
  N  N77  1  0.142687  0.494753  0.422303  1
  N  N78  1  0.857313  0.505247  0.577697  1
  N  N79  1  0.082663  0.744637  0.525934  1
  N  N80  1  0.013038  0.816142  0.570643  1
  N  N81  1  0.723963  0.401704  0.706632  1
  N  N82  1  0.292939  0.096119  0.972454  1
  N  N83  1  0.498831  0.865278  0.800794  1
  N  N84  1  0.642687  0.005247  0.422303  1
  N  N85  1  0.124565  0.590757  0.773180  1
  N  N86  1  0.088005  0.863893  0.968086  1
  N  N87  1  0.583960  0.878492  0.068088  1
  N  N88  1  0.588005  0.636107  0.968086  1
  N  N89  1  0.028913  0.927269  0.876058  1
  N  N90  1  0.776037  0.901704  0.293368  1
  N  N91  1  0.971087  0.072731  0.123942  1
  N  N92  1  0.552610  0.390063  0.385981  1
  N  N93  1  0.210207  0.547384  0.357279  1
  N  N94  1  0.471087  0.427269  0.123942  1
  N  N95  1  0.528913  0.572731  0.876058  1
  N  N96  1  0.843700  0.141132  0.739834  1
  N  N97  1  0.789793  0.452616  0.642721  1
  N  N98  1  0.513038  0.683858  0.570643  1
  N  N99  1  0.501169  0.134722  0.199206  1
  N  N100  1  0.378617  0.821582  0.828010  1
  N  N101  1  0.001169  0.365278  0.199206  1
  N  N102  1  0.083960  0.621508  0.068088  1
  N  N103  1  0.917337  0.255363  0.474066  1
