# generated using pymatgen
data_Sr6Nb2O11
_symmetry_space_group_name_H-M   'P 1'
_cell_length_a   5.99198413
_cell_length_b   6.02049218
_cell_length_c   24.16770047
_cell_angle_alpha   59.25946459
_cell_angle_beta   60.24328431
_cell_angle_gamma   60.61450114
_symmetry_Int_Tables_number   1
_chemical_formula_structural   Sr6Nb2O11
_chemical_formula_sum   'Sr12 Nb4 O22'
_cell_volume   616.84873351
_cell_formula_units_Z   2
loop_
 _symmetry_equiv_pos_site_id
 _symmetry_equiv_pos_as_xyz
  1  'x, y, z'
loop_
 _atom_site_type_symbol
 _atom_site_label
 _atom_site_symmetry_multiplicity
 _atom_site_fract_x
 _atom_site_fract_y
 _atom_site_fract_z
 _atom_site_occupancy
  Sr  Sr0  1  0.168310  0.329155  0.067692  1
  Sr  Sr1  1  0.469569  0.557470  0.120394  1
  Sr  Sr2  1  0.226130  0.254353  0.298438  1
  Sr  Sr3  1  0.412164  0.497033  0.374259  1
  Sr  Sr4  1  0.651108  0.800961  0.197092  1
  Sr  Sr5  1  0.209483  0.228057  0.573478  1
  Sr  Sr6  1  0.478383  0.519780  0.617720  1
  Sr  Sr7  1  0.226987  0.277297  0.799206  1
  Sr  Sr8  1  0.650759  0.774282  0.426804  1
  Sr  Sr9  1  0.442063  0.506206  0.881085  1
  Sr  Sr10  1  0.649106  0.768659  0.701682  1
  Sr  Sr11  1  0.693951  0.768772  0.924418  1
  Nb  Nb12  1  0.983107  0.053805  0.996638  1
  Nb  Nb13  1  0.941004  0.024560  0.248673  1
  Nb  Nb14  1  0.925440  0.008297  0.500229  1
  Nb  Nb15  1  0.947049  0.041341  0.748685  1
  O  O16  1  0.222099  0.232298  0.188150  1
  O  O17  1  0.231083  0.716690  0.215155  1
  O  O18  1  0.757236  0.368806  0.029269  1
  O  O19  1  0.803440  0.802183  0.078745  1
  O  O20  1  0.809522  0.180089  0.169763  1
  O  O21  1  0.667385  0.337626  0.281088  1
  O  O22  1  0.199904  0.146407  0.414894  1
  O  O23  1  0.056976  0.870091  0.331290  1
  O  O24  1  0.660562  0.824983  0.306091  1
  O  O25  1  0.635261  0.306744  0.456990  1
  O  O26  1  0.668115  0.116352  0.579253  1
  O  O27  1  0.211121  0.788537  0.694680  1
  O  O28  1  0.215433  0.851557  0.540461  1
  O  O29  1  0.307656  0.072996  0.993544  1
  O  O30  1  0.903399  0.689327  0.506026  1
  O  O31  1  0.816097  0.323873  0.668758  1
  O  O32  1  0.233619  0.220888  0.707008  1
  O  O33  1  0.641676  0.302462  0.799200  1
  O  O34  1  0.235250  0.738183  0.962887  1
  O  O35  1  0.096237  0.823366  0.826902  1
  O  O36  1  0.677524  0.835870  0.796029  1
  O  O37  1  0.871292  0.272139  0.917550  1
