# generated using pymatgen
data_HgH2C6(NCl2)2
_symmetry_space_group_name_H-M   'P 1'
_cell_length_a   20.76959759
_cell_length_b   6.60903898
_cell_length_c   10.97837473
_cell_angle_alpha   90.00000000
_cell_angle_beta   90.00000000
_cell_angle_gamma   97.40246004
_symmetry_Int_Tables_number   1
_chemical_formula_structural   HgH2C6(NCl2)2
_chemical_formula_sum   'Hg4 H8 C24 N8 Cl16'
_cell_volume   1494.40980347
_cell_formula_units_Z   4
loop_
 _symmetry_equiv_pos_site_id
 _symmetry_equiv_pos_as_xyz
  1  'x, y, z'
loop_
 _atom_site_type_symbol
 _atom_site_label
 _atom_site_symmetry_multiplicity
 _atom_site_fract_x
 _atom_site_fract_y
 _atom_site_fract_z
 _atom_site_occupancy
  Hg  Hg0  1  0.831358  0.708476  0.265541  1
  Hg  Hg1  1  0.668642  0.791524  0.765541  1
  Hg  Hg2  1  0.168642  0.291524  0.734459  1
  Hg  Hg3  1  0.331358  0.208476  0.234459  1
  H  H4  1  0.050212  0.609613  0.734653  1
  H  H5  1  0.449788  0.890387  0.234653  1
  H  H6  1  0.949788  0.390387  0.265347  1
  H  H7  1  0.550212  0.109613  0.765347  1
  H  H8  1  0.334090  0.722648  0.349297  1
  H  H9  1  0.165910  0.777352  0.849297  1
  H  H10  1  0.665910  0.277352  0.650703  1
  H  H11  1  0.834090  0.222648  0.150703  1
  C  C12  1  0.957335  0.749083  0.751832  1
  C  C13  1  0.542665  0.750917  0.251832  1
  C  C14  1  0.042665  0.250917  0.248168  1
  C  C15  1  0.457335  0.249083  0.748168  1
  C  C16  1  0.949095  0.943283  0.740829  1
  C  C17  1  0.550905  0.556717  0.240829  1
  C  C18  1  0.050905  0.056717  0.259171  1
  C  C19  1  0.449095  0.443283  0.759171  1
  C  C20  1  0.943743  0.508401  0.763469  1
  C  C21  1  0.556257  0.991599  0.263469  1
  C  C22  1  0.056257  0.491599  0.236531  1
  C  C23  1  0.443743  0.008401  0.736531  1
  C  C24  1  0.232583  0.787131  0.475873  1
  C  C25  1  0.267417  0.712869  0.975873  1
  C  C26  1  0.767417  0.212869  0.524127  1
  C  C27  1  0.732583  0.287131  0.024127  1
  C  C28  1  0.172320  0.753587  0.448193  1
  C  C29  1  0.327680  0.746413  0.948193  1
  C  C30  1  0.827680  0.246413  0.551807  1
  C  C31  1  0.672320  0.253587  0.051807  1
  C  C32  1  0.346237  0.807443  0.554525  1
  C  C33  1  0.153763  0.692557  0.054525  1
  C  C34  1  0.653763  0.192557  0.445475  1
  C  C35  1  0.846237  0.307443  0.945475  1
  N  N36  1  0.000979  0.606597  0.748434  1
  N  N37  1  0.499021  0.893403  0.248434  1
  N  N38  1  0.999021  0.393403  0.251566  1
  N  N39  1  0.500979  0.106597  0.751566  1
  N  N40  1  0.290134  0.790328  0.521350  1
  N  N41  1  0.209866  0.709672  0.021350  1
  N  N42  1  0.709866  0.209672  0.478650  1
  N  N43  1  0.790134  0.290328  0.978650  1
  Cl  Cl44  1  0.841694  0.208706  0.267693  1
  Cl  Cl45  1  0.658306  0.291294  0.767693  1
  Cl  Cl46  1  0.158306  0.791294  0.732307  1
  Cl  Cl47  1  0.341694  0.708706  0.232307  1
  Cl  Cl48  1  0.920435  0.727235  0.402625  1
  Cl  Cl49  1  0.579565  0.772765  0.902625  1
  Cl  Cl50  1  0.079565  0.272765  0.597375  1
  Cl  Cl51  1  0.420435  0.227235  0.097375  1
  Cl  Cl52  1  0.911915  0.702641  0.076495  1
  Cl  Cl53  1  0.588085  0.797359  0.576495  1
  Cl  Cl54  1  0.088085  0.297359  0.923505  1
  Cl  Cl55  1  0.411915  0.202641  0.423505  1
  Cl  Cl56  1  0.721414  0.668405  0.202557  1
  Cl  Cl57  1  0.778586  0.831595  0.702557  1
  Cl  Cl58  1  0.278586  0.331595  0.797443  1
  Cl  Cl59  1  0.221414  0.168405  0.297443  1
