# generated using pymatgen
data_H(WO3)2
_symmetry_space_group_name_H-M   'P 1'
_cell_length_a   7.74262392
_cell_length_b   5.48201294
_cell_length_c   5.46964285
_cell_angle_alpha   60.06134718
_cell_angle_beta   44.92166831
_cell_angle_gamma   45.15123973
_symmetry_Int_Tables_number   1
_chemical_formula_structural   H(WO3)2
_chemical_formula_sum   'H1 W2 O6'
_cell_volume   116.22670433
_cell_formula_units_Z   1
loop_
 _symmetry_equiv_pos_site_id
 _symmetry_equiv_pos_as_xyz
  1  'x, y, z'
loop_
 _atom_site_type_symbol
 _atom_site_label
 _atom_site_symmetry_multiplicity
 _atom_site_fract_x
 _atom_site_fract_y
 _atom_site_fract_z
 _atom_site_occupancy
  H  H0  1  0.507749  0.988553  0.998221  1
  W  W1  1  0.263191  0.480574  0.502807  1
  W  W2  1  0.763689  0.480039  0.502234  1
  O  O3  1  0.000930  0.000298  0.494922  1
  O  O4  1  0.991443  0.508212  0.998726  1
  O  O5  1  0.999067  0.503472  0.494737  1
  O  O6  1  0.496365  0.000030  0.502656  1
  O  O7  1  0.498322  0.500374  0.998685  1
  O  O8  1  0.496913  0.501919  0.500505  1
