# generated using pymatgen
data_Ta6Pb4O19
_symmetry_space_group_name_H-M   'P 1'
_cell_length_a   7.53468358
_cell_length_b   7.53468334
_cell_length_c   22.69137279
_cell_angle_alpha   59.68206118
_cell_angle_beta   59.68206225
_cell_angle_gamma   59.80492712
_symmetry_Int_Tables_number   1
_chemical_formula_structural   Ta6Pb4O19
_chemical_formula_sum   'Ta12 Pb8 O38'
_cell_volume   905.17757194
_cell_formula_units_Z   2
loop_
 _symmetry_equiv_pos_site_id
 _symmetry_equiv_pos_as_xyz
  1  'x, y, z'
loop_
 _atom_site_type_symbol
 _atom_site_label
 _atom_site_symmetry_multiplicity
 _atom_site_fract_x
 _atom_site_fract_y
 _atom_site_fract_z
 _atom_site_occupancy
  Ta  Ta0  1  0.995562  0.995562  0.004887  1
  Ta  Ta1  1  0.997506  0.498008  0.002023  1
  Ta  Ta2  1  0.498008  0.997506  0.002023  1
  Ta  Ta3  1  0.000000  0.500000  0.333333  1
  Ta  Ta4  1  -0.000475  -0.000475  0.168955  1
  Ta  Ta5  1  0.000475  0.000475  0.497712  1
  Ta  Ta6  1  0.500000  0.000000  0.333333  1
  Ta  Ta7  1  0.002494  0.501992  0.664644  1
  Ta  Ta8  1  0.000000  0.000000  0.833333  1
  Ta  Ta9  1  0.501992  0.002494  0.664644  1
  Ta  Ta10  1  0.000000  0.000000  0.333333  1
  Ta  Ta11  1  0.004438  0.004438  0.661780  1
  Pb  Pb12  1  0.497487  0.497487  0.162254  1
  Pb  Pb13  1  0.500000  0.500000  0.333333  1
  Pb  Pb14  1  0.502513  0.502513  0.504413  1
  Pb  Pb15  1  0.518535  0.518535  0.657215  1
  Pb  Pb16  1  0.500000  0.500000  0.833333  1
  Pb  Pb17  1  0.481465  0.481465  0.009452  1
  Pb  Pb18  1  0.500000  0.000000  0.833333  1
  Pb  Pb19  1  0.000000  0.500000  0.833333  1
  O  O20  1  0.057532  0.057532  0.230741  1
  O  O21  1  0.068730  0.688796  0.017236  1
  O  O22  1  0.068990  0.683726  0.228985  1
  O  O23  1  0.688796  0.068730  0.017236  1
  O  O24  1  0.319957  0.319957  0.309829  1
  O  O25  1  0.072701  0.683658  0.352085  1
  O  O26  1  0.316738  0.921605  0.105598  1
  O  O27  1  0.055831  0.055831  0.564751  1
  O  O28  1  0.683726  0.068990  0.228985  1
  O  O29  1  0.681538  0.681538  0.024872  1
  O  O30  1  0.683658  0.072701  0.352085  1
  O  O31  1  0.316342  0.927299  0.314581  1
  O  O32  1  0.921605  0.316738  0.105598  1
  O  O33  1  0.078395  0.683262  0.561068  1
  O  O34  1  0.318462  0.318462  0.641795  1
  O  O35  1  0.061843  0.683900  0.688546  1
  O  O36  1  0.316274  0.931010  0.437682  1
  O  O37  1  0.067313  0.067313  0.893302  1
  O  O38  1  0.683262  0.078395  0.561068  1
  O  O39  1  0.927299  0.316342  0.314581  1
  O  O40  1  0.944169  0.944169  0.101915  1
  O  O41  1  0.680043  0.680043  0.356837  1
  O  O42  1  0.683900  0.061843  0.688546  1
  O  O43  1  0.394885  0.394885  0.773352  1
  O  O44  1  0.311204  0.931270  0.649431  1
  O  O45  1  0.931010  0.316274  0.437682  1
  O  O46  1  0.064693  0.683400  0.895783  1
  O  O47  1  0.311693  0.311693  0.982551  1
  O  O48  1  0.316600  0.935307  0.770884  1
  O  O49  1  0.683400  0.064693  0.895783  1
  O  O50  1  0.931270  0.311204  0.649431  1
  O  O51  1  0.942468  0.942468  0.435926  1
  O  O52  1  0.688307  0.688307  0.684116  1
  O  O53  1  0.935307  0.316600  0.770884  1
  O  O54  1  0.605115  0.605115  0.893315  1
  O  O55  1  0.316100  0.938157  0.978121  1
  O  O56  1  0.938157  0.316100  0.978121  1
  O  O57  1  0.932687  0.932687  0.773365  1
