# generated using pymatgen
data_Li3Al3P3H2O14F
_symmetry_space_group_name_H-M   'P 1'
_cell_length_a   5.08846309
_cell_length_b   15.72959843
_cell_length_c   7.46905004
_cell_angle_alpha   64.49170072
_cell_angle_beta   113.85587880
_cell_angle_gamma   98.09863249
_symmetry_Int_Tables_number   1
_chemical_formula_structural   Li3Al3P3H2O14F
_chemical_formula_sum   'Li6 Al6 P6 H4 O28 F2'
_cell_volume   493.04807032
_cell_formula_units_Z   2
loop_
 _symmetry_equiv_pos_site_id
 _symmetry_equiv_pos_as_xyz
  1  'x, y, z'
loop_
 _atom_site_type_symbol
 _atom_site_label
 _atom_site_symmetry_multiplicity
 _atom_site_fract_x
 _atom_site_fract_y
 _atom_site_fract_z
 _atom_site_occupancy
  Li  Li0  1  0.263209  0.967831  0.713115  1
  Li  Li1  1  0.261342  0.635736  0.715880  1
  Li  Li2  1  0.260103  0.298069  0.711241  1
  Li  Li3  1  0.744119  0.708075  0.271486  1
  Li  Li4  1  0.751743  0.367727  0.292349  1
  Li  Li5  1  0.756524  0.041775  0.270411  1
  Al  Al6  1  -0.000692  0.835810  0.498158  1
  Al  Al7  1  0.001802  0.500859  0.502539  1
  Al  Al8  1  0.010777  0.168170  0.498566  1
  Al  Al9  1  0.998093  0.666505  0.005650  1
  Al  Al10  1  0.006869  0.333917  -0.000002  1
  Al  Al11  1  0.004795  0.999532  0.004248  1
  P  P12  1  0.326665  0.794349  0.264337  1
  P  P13  1  0.676729  0.870842  0.740995  1
  P  P14  1  0.327451  0.462086  0.264106  1
  P  P15  1  0.676133  0.539357  0.738203  1
  P  P16  1  0.339390  0.126180  0.267058  1
  P  P17  1  0.685143  0.203809  0.741940  1
  H  H18  1  0.347702  0.406035  0.844370  1
  H  H19  1  0.659429  0.929182  0.154598  1
  H  H20  1  0.655551  0.595366  0.158769  1
  H  H21  1  0.670567  0.259783  0.157665  1
  O  O22  1  0.281838  0.231686  0.108765  1
  O  O23  1  0.123681  0.764512  0.389737  1
  O  O24  1  0.358981  0.885673  0.582300  1
  O  O25  1  0.116194  0.432598  0.381815  1
  O  O26  1  0.271431  0.899962  0.103023  1
  O  O27  1  0.360718  0.555880  0.576070  1
  O  O28  1  0.139486  0.095591  0.395478  1
  O  O29  1  0.703823  0.939201  0.847016  1
  O  O30  1  0.297614  0.728551  0.152562  1
  O  O31  1  0.272693  0.567785  0.102598  1
  O  O32  1  0.366966  0.218635  0.583242  1
  O  O33  1  0.861884  0.606235  0.230395  1
  O  O34  1  0.701286  0.604706  0.850753  1
  O  O35  1  0.303340  0.396115  0.153368  1
  O  O36  1  0.141969  0.393613  0.774123  1
  O  O37  1  0.644701  0.779048  0.420068  1
  O  O38  1  0.873942  0.272569  0.227848  1
  O  O39  1  0.709175  0.271920  0.847680  1
  O  O40  1  0.308282  0.060367  0.154953  1
  O  O41  1  0.885402  0.900532  0.620253  1
  O  O42  1  0.642535  0.445743  0.426298  1
  O  O43  1  0.865620  0.939679  0.227616  1
  O  O44  1  0.890784  0.568314  0.623988  1
  O  O45  1  0.751867  0.100846  0.906010  1
  O  O46  1  0.659161  0.110985  0.420601  1
  O  O47  1  0.889628  0.233826  0.617535  1
  O  O48  1  0.740047  0.767278  0.904601  1
  O  O49  1  0.728123  0.433533  0.897611  1
  F  F50  1  0.107911  0.726602  0.766159  1
  F  F51  1  0.119470  0.059686  0.767854  1
