# generated using pymatgen
data_GdH6C6Cl3(O3F2)3
_symmetry_space_group_name_H-M   'P 1'
_cell_length_a   9.51937418
_cell_length_b   10.56319744
_cell_length_c   19.83865306
_cell_angle_alpha   90.00000000
_cell_angle_beta   90.00000000
_cell_angle_gamma   113.95613951
_symmetry_Int_Tables_number   1
_chemical_formula_structural   GdH6C6Cl3(O3F2)3
_chemical_formula_sum   'Gd4 H24 C24 Cl12 O36 F24'
_cell_volume   1823.03080590
_cell_formula_units_Z   4
loop_
 _symmetry_equiv_pos_site_id
 _symmetry_equiv_pos_as_xyz
  1  'x, y, z'
loop_
 _atom_site_type_symbol
 _atom_site_label
 _atom_site_symmetry_multiplicity
 _atom_site_fract_x
 _atom_site_fract_y
 _atom_site_fract_z
 _atom_site_occupancy
  Gd  Gd0  1  0.302684  0.478606  0.430324  1
  Gd  Gd1  1  0.302684  0.978606  0.069676  1
  Gd  Gd2  1  0.697316  0.521394  0.569676  1
  Gd  Gd3  1  0.697316  0.021394  0.930324  1
  H  H4  1  0.995122  0.329786  0.510529  1
  H  H5  1  0.425790  0.984204  0.219011  1
  H  H6  1  0.020349  0.227568  0.936757  1
  H  H7  1  0.322872  0.574430  0.285377  1
  H  H8  1  0.136888  0.666851  0.111145  1
  H  H9  1  0.863112  0.333149  0.888855  1
  H  H10  1  0.425790  0.484204  0.280989  1
  H  H11  1  0.115131  0.239260  0.322694  1
  H  H12  1  0.574210  0.015796  0.780989  1
  H  H13  1  0.884869  0.260740  0.822694  1
  H  H14  1  0.322872  0.074430  0.214623  1
  H  H15  1  0.677128  0.925570  0.785377  1
  H  H16  1  0.979651  0.772432  0.063243  1
  H  H17  1  0.004878  0.670214  0.489471  1
  H  H18  1  0.574210  0.515796  0.719011  1
  H  H19  1  0.995122  0.829786  0.989471  1
  H  H20  1  0.979651  0.272432  0.436757  1
  H  H21  1  0.884869  0.760740  0.677306  1
  H  H22  1  0.115131  0.739260  0.177306  1
  H  H23  1  0.004878  0.170214  0.010529  1
  H  H24  1  0.677128  0.425570  0.714623  1
  H  H25  1  0.020349  0.727568  0.563243  1
  H  H26  1  0.863112  0.833149  0.611145  1
  H  H27  1  0.136888  0.166851  0.388855  1
  C  C28  1  0.647662  0.759438  0.459426  1
  C  C29  1  0.839682  0.331486  0.669776  1
  C  C30  1  0.667090  0.339302  0.349255  1
  C  C31  1  0.731012  0.416347  0.060625  1
  C  C32  1  0.268988  0.083653  0.560625  1
  C  C33  1  0.268988  0.583653  0.939375  1
  C  C34  1  0.640793  0.405290  0.416223  1
  C  C35  1  0.359207  0.594710  0.583777  1
  C  C36  1  0.359207  0.094710  0.916223  1
  C  C37  1  0.935955  0.241951  0.663633  1
  C  C38  1  0.332910  0.660698  0.650745  1
  C  C39  1  0.647662  0.259438  0.040574  1
  C  C40  1  0.332910  0.160698  0.849255  1
  C  C41  1  0.352338  0.240562  0.540574  1
  C  C42  1  0.064045  0.758049  0.336367  1
  C  C43  1  0.160318  0.168514  0.169776  1
  C  C44  1  0.935955  0.741951  0.836367  1
  C  C45  1  0.640793  0.905290  0.083777  1
  C  C46  1  0.160318  0.668514  0.330224  1
  C  C47  1  0.352338  0.740562  0.959426  1
  C  C48  1  0.667090  0.839302  0.150745  1
  C  C49  1  0.839682  0.831486  0.830224  1
  C  C50  1  0.731012  0.916347  0.439375  1
  C  C51  1  0.064045  0.258049  0.163633  1
  Cl  Cl52  1  0.532821  0.163937  0.344834  1
  Cl  Cl53  1  0.810072  0.565247  0.849835  1
  Cl  Cl54  1  0.737642  0.939983  0.350913  1
  Cl  Cl55  1  0.532821  0.663937  0.155166  1
  Cl  Cl56  1  0.262358  0.560017  0.850913  1
  Cl  Cl57  1  0.262358  0.060017  0.649087  1
  Cl  Cl58  1  0.467179  0.336064  0.844834  1
  Cl  Cl59  1  0.737642  0.439984  0.149087  1
  Cl  Cl60  1  0.467179  0.836063  0.655166  1
  Cl  Cl61  1  0.810072  0.065247  0.650165  1
  Cl  Cl62  1  0.189928  0.934753  0.349835  1
  Cl  Cl63  1  0.189928  0.434753  0.150165  1
  O  O64  1  0.263619  0.074157  0.962820  1
  O  O65  1  0.274555  0.787726  0.994653  1
  O  O66  1  0.520888  0.929013  0.083506  1
  O  O67  1  0.972522  0.144281  0.964074  1
  O  O68  1  0.632084  0.482151  0.688922  1
  O  O69  1  0.171117  0.108473  0.115750  1
  O  O70  1  0.520888  0.429013  0.416494  1
  O  O71  1  0.488695  0.799949  0.938720  1
  O  O72  1  0.274555  0.287726  0.505347  1
  O  O73  1  0.828883  0.891527  0.884250  1
  O  O74  1  0.972522  0.644281  0.535926  1
  O  O75  1  0.152701  0.256081  0.369112  1
  O  O76  1  0.632084  0.982151  0.811078  1
  O  O77  1  0.725445  0.212274  0.005347  1
  O  O78  1  0.217330  0.668873  0.273396  1
  O  O79  1  0.511305  0.200051  0.061280  1
  O  O80  1  0.488695  0.299949  0.561280  1
  O  O81  1  0.217330  0.168873  0.226604  1
  O  O82  1  0.847299  0.743919  0.630888  1
  O  O83  1  0.782670  0.331127  0.726604  1
  O  O84  1  0.511305  0.700051  0.438720  1
  O  O85  1  0.782670  0.831127  0.773396  1
  O  O86  1  0.263619  0.574157  0.537180  1
  O  O87  1  0.367916  0.017849  0.188922  1
  O  O88  1  0.479112  0.070987  0.916494  1
  O  O89  1  0.027478  0.855719  0.035926  1
  O  O90  1  0.725445  0.712274  0.494653  1
  O  O91  1  0.171117  0.608473  0.384250  1
  O  O92  1  0.736381  0.925843  0.037180  1
  O  O93  1  0.847299  0.243919  0.869112  1
  O  O94  1  0.479112  0.570987  0.583506  1
  O  O95  1  0.152701  0.756081  0.130888  1
  O  O96  1  0.828883  0.391527  0.615750  1
  O  O97  1  0.027478  0.355719  0.464074  1
  O  O98  1  0.367916  0.517849  0.311078  1
  O  O99  1  0.736381  0.425843  0.462820  1
  F  F100  1  0.655911  0.488603  0.030990  1
  F  F101  1  0.354604  0.589846  0.705158  1
  F  F102  1  0.120885  0.025341  0.537216  1
  F  F103  1  0.960990  0.216880  0.111608  1
  F  F104  1  0.354604  0.089846  0.794842  1
  F  F105  1  0.980374  0.248528  0.221120  1
  F  F106  1  0.879115  0.974659  0.462784  1
  F  F107  1  0.645396  0.410154  0.294842  1
  F  F108  1  0.120885  0.525341  0.962784  1
  F  F109  1  0.811511  0.343893  0.343330  1
  F  F110  1  0.960990  0.716880  0.388392  1
  F  F111  1  0.019626  0.751472  0.778880  1
  F  F112  1  0.039010  0.783120  0.888392  1
  F  F113  1  0.188489  0.656107  0.656670  1
  F  F114  1  0.019626  0.251472  0.721120  1
  F  F115  1  0.344089  0.511397  0.969010  1
  F  F116  1  0.811511  0.843893  0.156670  1
  F  F117  1  0.655911  0.988603  0.469010  1
  F  F118  1  0.645396  0.910154  0.205158  1
  F  F119  1  0.980374  0.748528  0.278880  1
  F  F120  1  0.188489  0.156107  0.843330  1
  F  F121  1  0.879115  0.474659  0.037216  1
  F  F122  1  0.344089  0.011397  0.530990  1
  F  F123  1  0.039010  0.283120  0.611608  1
