# generated using pymatgen
data_Cu4H24C13N7Cl
_symmetry_space_group_name_H-M   'P 1'
_cell_length_a   10.07604700
_cell_length_b   10.44171448
_cell_length_c   10.44171446
_cell_angle_alpha   111.92907797
_cell_angle_beta   92.75213304
_cell_angle_gamma   92.75212929
_symmetry_Int_Tables_number   1
_chemical_formula_structural   Cu4H24C13N7Cl
_chemical_formula_sum   'Cu8 H48 C26 N14 Cl2'
_cell_volume   1015.34237055
_cell_formula_units_Z   2
loop_
 _symmetry_equiv_pos_site_id
 _symmetry_equiv_pos_as_xyz
  1  'x, y, z'
loop_
 _atom_site_type_symbol
 _atom_site_label
 _atom_site_symmetry_multiplicity
 _atom_site_fract_x
 _atom_site_fract_y
 _atom_site_fract_z
 _atom_site_occupancy
  Cu  Cu0  1  0.128067  0.374584  0.627095  1
  Cu  Cu1  1  0.168256  0.948508  0.254392  1
  Cu  Cu2  1  0.331729  0.745531  0.051413  1
  Cu  Cu3  1  0.374208  0.375142  0.623900  1
  Cu  Cu4  1  0.628067  0.627095  0.374584  1
  Cu  Cu5  1  0.668256  0.254392  0.948508  1
  Cu  Cu6  1  0.831729  0.051413  0.745531  1
  Cu  Cu7  1  0.874208  0.623900  0.375142  1
  H  H8  1  0.018689  0.288072  0.182288  1
  H  H9  1  0.018307  0.239777  0.998266  1
  H  H10  1  0.126846  0.962940  0.611536  1
  H  H11  1  0.081566  0.518373  0.213755  1
  H  H12  1  0.087017  0.466868  0.029174  1
  H  H13  1  0.166526  0.992058  0.789700  1
  H  H14  1  0.146880  0.729333  0.563331  1
  H  H15  1  0.112445  0.146927  0.083333  1
  H  H16  1  0.204508  0.760642  0.739522  1
  H  H17  1  0.197519  0.399924  0.332635  1
  H  H18  1  0.244766  0.292811  0.907365  1
  H  H19  1  0.228261  0.560365  0.141813  1
  H  H20  1  0.271759  0.858176  0.439632  1
  H  H21  1  0.255241  0.092656  0.707208  1
  H  H22  1  0.302417  0.667392  0.600095  1
  H  H23  1  0.295471  0.260517  0.239390  1
  H  H24  1  0.387555  0.916684  0.853092  1
  H  H25  1  0.353111  0.436711  0.270797  1
  H  H26  1  0.333473  0.210311  0.007956  1
  H  H27  1  0.413002  0.970823  0.533151  1
  H  H28  1  0.418381  0.786264  0.481641  1
  H  H29  1  0.373144  0.388474  0.037067  1
  H  H30  1  0.481696  0.001745  0.760233  1
  H  H31  1  0.481307  0.817720  0.711948  1
  H  H32  1  0.518689  0.182288  0.288072  1
  H  H33  1  0.518307  0.998266  0.239777  1
  H  H34  1  0.626846  0.611536  0.962940  1
  H  H35  1  0.581566  0.213755  0.518373  1
  H  H36  1  0.587017  0.029174  0.466868  1
  H  H37  1  0.666526  0.789700  0.992058  1
  H  H38  1  0.646880  0.563331  0.729333  1
  H  H39  1  0.612445  0.083333  0.146927  1
  H  H40  1  0.704508  0.739522  0.760642  1
  H  H41  1  0.697519  0.332635  0.399924  1
  H  H42  1  0.744766  0.907365  0.292811  1
  H  H43  1  0.728261  0.141813  0.560365  1
  H  H44  1  0.771759  0.439632  0.858176  1
  H  H45  1  0.755241  0.707208  0.092656  1
  H  H46  1  0.802417  0.600095  0.667392  1
  H  H47  1  0.795471  0.239390  0.260517  1
  H  H48  1  0.887555  0.853092  0.916684  1
  H  H49  1  0.853111  0.270797  0.436711  1
  H  H50  1  0.833472  0.007956  0.210311  1
  H  H51  1  0.913002  0.533151  0.970823  1
  H  H52  1  0.918381  0.481641  0.786264  1
  H  H53  1  0.873144  0.037067  0.388474  1
  H  H54  1  0.981696  0.760233  0.001745  1
  H  H55  1  0.981307  0.711948  0.817720  1
  C  C56  1  0.055245  0.813282  0.274222  1
  C  C57  1  0.077514  0.247316  0.091752  1
  C  C58  1  0.144488  0.483918  0.126449  1
  C  C59  1  0.207074  0.991982  0.694154  1
  C  C60  1  0.233828  0.749592  0.636548  1
  C  C61  1  0.254810  0.509048  0.772077  1
  C  C62  1  0.245896  0.227510  0.491316  1
  C  C63  1  0.266179  0.363529  0.250491  1
  C  C64  1  0.292916  0.305858  0.008046  1
  C  C65  1  0.355515  0.873561  0.516116  1
  C  C66  1  0.422496  0.908263  0.752707  1
  C  C67  1  0.444812  0.725702  0.186601  1
  C  C68  1  0.471423  0.472298  0.531448  1
  C  C69  1  0.555245  0.274222  0.813282  1
  C  C70  1  0.577514  0.091752  0.247316  1
  C  C71  1  0.644488  0.126449  0.483918  1
  C  C72  1  0.707074  0.694154  0.991982  1
  C  C73  1  0.733828  0.636548  0.749592  1
  C  C74  1  0.754810  0.772077  0.509048  1
  C  C75  1  0.745896  0.491316  0.227510  1
  C  C76  1  0.766179  0.250491  0.363529  1
  C  C77  1  0.792916  0.008046  0.305858  1
  C  C78  1  0.855515  0.516116  0.873561  1
  C  C79  1  0.922496  0.752707  0.908263  1
  C  C80  1  0.944812  0.186601  0.725702  1
  C  C81  1  0.971423  0.531448  0.472298  1
  N  N82  1  0.015457  0.262925  0.696169  1
  N  N83  1  0.028062  0.467996  0.527553  1
  N  N84  1  0.195129  0.349208  0.116915  1
  N  N85  1  0.274014  0.606919  0.877309  1
  N  N86  1  0.225291  0.122905  0.392965  1
  N  N87  1  0.304869  0.883112  0.650818  1
  N  N88  1  0.482825  0.302721  0.737594  1
  N  N89  1  0.515457  0.696169  0.262925  1
  N  N90  1  0.528062  0.527553  0.467996  1
  N  N91  1  0.695129  0.116915  0.349208  1
  N  N92  1  0.774014  0.877309  0.606919  1
  N  N93  1  0.725291  0.392965  0.122905  1
  N  N94  1  0.804869  0.650818  0.883112  1
  N  N95  1  0.982825  0.737594  0.302721  1
  Cl  Cl96  1  0.250012  0.950652  0.049399  1
  Cl  Cl97  1  0.750012  0.049399  0.950652  1
