# generated using pymatgen
data_Ni19Se20
_symmetry_space_group_name_H-M   'P 1'
_cell_length_a   7.41888790
_cell_length_b   18.47111182
_cell_length_c   9.03855518
_cell_angle_alpha   34.97789868
_cell_angle_beta   113.90425921
_cell_angle_gamma   119.87238457
_symmetry_Int_Tables_number   1
_chemical_formula_structural   Ni19Se20
_chemical_formula_sum   'Ni19 Se20'
_cell_volume   615.69144181
_cell_formula_units_Z   1
loop_
 _symmetry_equiv_pos_site_id
 _symmetry_equiv_pos_as_xyz
  1  'x, y, z'
loop_
 _atom_site_type_symbol
 _atom_site_label
 _atom_site_symmetry_multiplicity
 _atom_site_fract_x
 _atom_site_fract_y
 _atom_site_fract_z
 _atom_site_occupancy
  Ni  Ni0  1  0.500000  0.000000  0.500000  1
  Ni  Ni1  1  0.493255  0.795700  0.500251  1
  Ni  Ni2  1  0.000000  0.000000  0.500000  1
  Ni  Ni3  1  0.496203  0.600653  0.501592  1
  Ni  Ni4  1  0.505890  0.801776  0.000642  1
  Ni  Ni5  1  0.997593  0.818979  0.450112  1
  Ni  Ni6  1  0.503797  0.399347  0.498408  1
  Ni  Ni7  1  0.499990  0.602580  0.998807  1
  Ni  Ni8  1  0.009284  0.597165  0.512254  1
  Ni  Ni9  1  0.999436  0.799789  0.004746  1
  Ni  Ni10  1  0.506745  0.204300  0.499749  1
  Ni  Ni11  1  0.500010  0.397420  0.001193  1
  Ni  Ni12  1  -0.000201  0.609127  0.975400  1
  Ni  Ni13  1  0.990716  0.402835  0.487746  1
  Ni  Ni14  1  0.494110  0.198224  0.999358  1
  Ni  Ni15  1  0.000201  0.390873  0.024600  1
  Ni  Ni16  1  0.002407  0.181021  0.549888  1
  Ni  Ni17  1  0.500000  0.000000  0.000000  1
  Ni  Ni18  1  0.000564  0.200211  0.995254  1
  Se  Se19  1  0.334096  0.966307  0.753269  1
  Se  Se20  1  0.331579  0.769386  0.741719  1
  Se  Se21  1  0.168950  0.830290  0.253663  1
  Se  Se22  1  0.829327  0.965199  0.746921  1
  Se  Se23  1  0.330495  0.558678  0.765818  1
  Se  Se24  1  0.165731  0.634618  0.245783  1
  Se  Se25  1  0.833203  0.770900  0.738643  1
  Se  Se26  1  0.333440  0.367386  0.749421  1
  Se  Se27  1  0.660284  0.830078  0.254110  1
  Se  Se28  1  0.165265  0.430266  0.257026  1
  Se  Se29  1  0.666560  0.632614  0.250579  1
  Se  Se30  1  0.834735  0.569734  0.742974  1
  Se  Se31  1  0.339716  0.169922  0.745890  1
  Se  Se32  1  0.166797  0.229100  0.261357  1
  Se  Se33  1  0.834269  0.365382  0.754217  1
  Se  Se34  1  0.669505  0.441322  0.234182  1
  Se  Se35  1  0.170673  0.034801  0.253079  1
  Se  Se36  1  0.831050  0.169710  0.746337  1
  Se  Se37  1  0.668421  0.230614  0.258281  1
  Se  Se38  1  0.665904  0.033693  0.246731  1
