# generated using pymatgen
data_H4SO5
_symmetry_space_group_name_H-M   'P 1'
_cell_length_a   8.29969476
_cell_length_b   6.98709014
_cell_length_c   7.32107306
_cell_angle_alpha   90.00000000
_cell_angle_beta   106.35978917
_cell_angle_gamma   90.00000000
_symmetry_Int_Tables_number   1
_chemical_formula_structural   H4SO5
_chemical_formula_sum   'H16 S4 O20'
_cell_volume   407.36486413
_cell_formula_units_Z   4
loop_
 _symmetry_equiv_pos_site_id
 _symmetry_equiv_pos_as_xyz
  1  'x, y, z'
loop_
 _atom_site_type_symbol
 _atom_site_label
 _atom_site_symmetry_multiplicity
 _atom_site_fract_x
 _atom_site_fract_y
 _atom_site_fract_z
 _atom_site_occupancy
  H  H0  1  0.412047  0.192249  0.928701  1
  H  H1  1  0.087953  0.692249  0.071299  1
  H  H2  1  0.587953  0.807751  0.071299  1
  H  H3  1  0.912047  0.307751  0.928701  1
  H  H4  1  0.389721  0.182043  0.391389  1
  H  H5  1  0.110279  0.682043  0.608611  1
  H  H6  1  0.610279  0.817957  0.608611  1
  H  H7  1  0.889721  0.317957  0.391389  1
  H  H8  1  0.281078  0.613108  0.200033  1
  H  H9  1  0.218922  0.113108  0.799967  1
  H  H10  1  0.718922  0.386892  0.799967  1
  H  H11  1  0.781078  0.886892  0.200033  1
  H  H12  1  0.792787  0.169011  0.756169  1
  H  H13  1  0.707213  0.669011  0.243831  1
  H  H14  1  0.207213  0.830989  0.243831  1
  H  H15  1  0.292787  0.330989  0.756169  1
  S  S16  1  0.541870  0.341007  0.248765  1
  S  S17  1  0.958130  0.841007  0.751235  1
  S  S18  1  0.458130  0.658993  0.751235  1
  S  S19  1  0.041870  0.158993  0.248765  1
  O  O20  1  0.545863  0.185852  0.114130  1
  O  O21  1  0.954137  0.685852  0.885870  1
  O  O22  1  0.454137  0.814148  0.885870  1
  O  O23  1  0.045863  0.314148  0.114130  1
  O  O24  1  0.503166  0.248784  0.428511  1
  O  O25  1  0.996834  0.748784  0.571489  1
  O  O26  1  0.496834  0.751216  0.571489  1
  O  O27  1  0.003166  0.251216  0.428511  1
  O  O28  1  0.412765  0.481954  0.163885  1
  O  O29  1  0.087235  0.981954  0.836115  1
  O  O30  1  0.587235  0.518046  0.836115  1
  O  O31  1  0.912765  0.018046  0.163885  1
  O  O32  1  0.707840  0.432027  0.328334  1
  O  O33  1  0.792160  0.932027  0.671666  1
  O  O34  1  0.292160  0.567973  0.671666  1
  O  O35  1  0.207840  0.067973  0.328334  1
  O  O36  1  0.821089  0.304512  0.796971  1
  O  O37  1  0.678911  0.804512  0.203029  1
  O  O38  1  0.178911  0.695488  0.203029  1
  O  O39  1  0.321089  0.195488  0.796971  1
