# generated using pymatgen
data_GaH3NF3
_symmetry_space_group_name_H-M   'P 1'
_cell_length_a   5.58437104
_cell_length_b   5.55812374
_cell_length_c   5.55812374
_cell_angle_alpha   59.54843009
_cell_angle_beta   90.00000000
_cell_angle_gamma   90.00000000
_symmetry_Int_Tables_number   1
_chemical_formula_structural   GaH3NF3
_chemical_formula_sum   'Ga2 H6 N2 F6'
_cell_volume   148.71922152
_cell_formula_units_Z   2
loop_
 _symmetry_equiv_pos_site_id
 _symmetry_equiv_pos_as_xyz
  1  'x, y, z'
loop_
 _atom_site_type_symbol
 _atom_site_label
 _atom_site_symmetry_multiplicity
 _atom_site_fract_x
 _atom_site_fract_y
 _atom_site_fract_z
 _atom_site_occupancy
  Ga  Ga0  1  0.250122  0.641240  0.141240  1
  Ga  Ga1  1  0.749878  0.141240  0.641240  1
  H  H2  1  0.034639  0.877332  0.377332  1
  H  H3  1  0.965361  0.377332  0.877332  1
  H  H4  1  0.288402  0.039949  0.236085  1
  H  H5  1  0.711598  0.236085  0.039949  1
  H  H6  1  0.711598  0.539949  0.736085  1
  H  H7  1  0.288402  0.736085  0.539949  1
  N  N8  1  0.212051  0.845631  0.345631  1
  N  N9  1  0.787949  0.345631  0.845631  1
  F  F10  1  0.500000  0.898383  0.898383  1
  F  F11  1  0.500000  0.398383  0.398383  1
  F  F12  1  0.000000  0.875360  0.875360  1
  F  F13  1  0.000000  0.375360  0.375360  1
  F  F14  1  0.274122  0.447619  0.947619  1
  F  F15  1  0.725878  0.947619  0.447619  1
