# generated using pymatgen
data_Mg5V2(MoO8)2
_symmetry_space_group_name_H-M   'P 1'
_cell_length_a   10.23045014
_cell_length_b   10.47882508
_cell_length_c   17.68322341
_cell_angle_alpha   90.00000000
_cell_angle_beta   89.88284082
_cell_angle_gamma   90.00000000
_symmetry_Int_Tables_number   1
_chemical_formula_structural   Mg5V2(MoO8)2
_chemical_formula_sum   'Mg30 V12 Mo12 O96'
_cell_volume   1895.69236161
_cell_formula_units_Z   6
loop_
 _symmetry_equiv_pos_site_id
 _symmetry_equiv_pos_as_xyz
  1  'x, y, z'
loop_
 _atom_site_type_symbol
 _atom_site_label
 _atom_site_symmetry_multiplicity
 _atom_site_fract_x
 _atom_site_fract_y
 _atom_site_fract_z
 _atom_site_occupancy
  Mg  Mg0  1  0.084939  0.920793  0.968509  1
  Mg  Mg1  1  0.088141  0.244900  0.294905  1
  Mg  Mg2  1  0.081811  0.744900  0.797332  1
  Mg  Mg3  1  0.333942  0.744900  0.689548  1
  Mg  Mg4  1  0.334028  0.416759  0.022213  1
  Mg  Mg5  1  0.855376  0.920031  0.521486  1
  Mg  Mg6  1  0.857589  0.244900  0.192668  1
  Mg  Mg7  1  0.854461  0.069007  0.021491  1
  Mg  Mg8  1  0.855376  0.569769  0.521486  1
  Mg  Mg9  1  0.024492  0.244900  0.745966  1
  Mg  Mg10  1  0.756906  0.244900  0.745647  1
  Mg  Mg11  1  0.084024  0.420031  0.468514  1
  Mg  Mg12  1  0.334260  0.244900  0.191717  1
  Mg  Mg13  1  0.605761  0.072656  0.467711  1
  Mg  Mg14  1  0.333639  0.572656  0.522289  1
  Mg  Mg15  1  0.605761  0.417144  0.467711  1
  Mg  Mg16  1  0.334028  0.073041  0.022213  1
  Mg  Mg17  1  0.605372  0.916759  0.967787  1
  Mg  Mg18  1  0.854461  0.420793  0.021491  1
  Mg  Mg19  1  0.333639  0.917144  0.522289  1
  Mg  Mg20  1  0.084939  0.569007  0.968509  1
  Mg  Mg21  1  0.605372  0.573041  0.967787  1
  Mg  Mg22  1  0.182494  0.744900  0.244353  1
  Mg  Mg23  1  0.914908  0.744900  0.244034  1
  Mg  Mg24  1  0.605458  0.244900  0.300452  1
  Mg  Mg25  1  0.293084  0.244900  0.742276  1
  Mg  Mg26  1  0.851259  0.744900  0.695095  1
  Mg  Mg27  1  0.084024  0.069769  0.468514  1
  Mg  Mg28  1  0.646316  0.744900  0.247724  1
  Mg  Mg29  1  0.605140  0.744900  0.798283  1
  V  V30  1  0.855622  0.969904  0.837186  1
  V  V31  1  0.857651  0.244900  0.556467  1
  V  V32  1  0.083778  0.469904  0.152814  1
  V  V33  1  0.108939  0.521571  0.652859  1
  V  V34  1  0.108939  0.968229  0.652859  1
  V  V35  1  0.081749  0.744900  0.433533  1
  V  V36  1  0.830461  0.468229  0.337141  1
  V  V37  1  0.830461  0.021571  0.337141  1
  V  V38  1  0.855622  0.519896  0.837186  1
  V  V39  1  0.083778  0.019896  0.152814  1
  V  V40  1  0.828098  0.744900  0.054293  1
  V  V41  1  0.111302  0.244900  0.935707  1
  Mo  Mo42  1  0.578238  0.463019  0.151206  1
  Mo  Mo43  1  0.331624  0.023512  0.338854  1
  Mo  Mo44  1  0.578238  0.026781  0.151206  1
  Mo  Mo45  1  0.361162  0.963019  0.838794  1
  Mo  Mo46  1  0.577164  0.744900  0.442703  1
  Mo  Mo47  1  0.328130  0.744900  0.050002  1
  Mo  Mo48  1  0.607776  0.523512  0.651146  1
  Mo  Mo49  1  0.607776  0.966288  0.651146  1
  Mo  Mo50  1  0.362236  0.244900  0.547297  1
  Mo  Mo51  1  0.361162  0.526781  0.838794  1
  Mo  Mo52  1  0.611270  0.244900  0.939998  1
  Mo  Mo53  1  0.331624  0.466288  0.338854  1
  O  O54  1  0.012034  0.621732  0.708383  1
  O  O55  1  0.644657  0.106886  0.699118  1
  O  O56  1  0.017566  0.111220  0.958160  1
  O  O57  1  0.750362  0.244900  0.006790  1
  O  O58  1  0.762058  0.481729  0.918055  1
  O  O59  1  0.435629  0.123142  0.279589  1
  O  O60  1  0.261628  0.381059  0.526709  1
  O  O61  1  0.177333  0.608953  0.453347  1
  O  O62  1  0.503684  0.244900  0.481178  1
  O  O63  1  0.181666  0.370920  0.210765  1
  O  O64  1  0.507022  0.874267  0.868993  1
  O  O65  1  0.677772  0.608741  0.463291  1
  O  O66  1  0.048682  0.610462  0.200096  1
  O  O67  1  0.927366  0.368068  0.281617  1
  O  O68  1  0.787024  0.880136  0.290724  1
  O  O69  1  0.261817  0.996984  0.920717  1
  O  O70  1  0.927366  0.121732  0.281617  1
  O  O71  1  0.677583  0.496984  0.069283  1
  O  O72  1  0.787024  0.609664  0.290724  1
  O  O73  1  0.921834  0.878580  0.031840  1
  O  O74  1  0.402433  0.384941  0.792072  1
  O  O75  1  0.762067  0.108953  0.536653  1
  O  O76  1  0.689122  0.107164  0.366234  1
  O  O77  1  0.921834  0.611220  0.031840  1
  O  O78  1  0.152376  0.380136  0.699276  1
  O  O79  1  0.762058  0.008071  0.918055  1
  O  O80  1  0.535783  0.744900  0.346621  1
  O  O81  1  0.507022  0.615533  0.868993  1
  O  O82  1  0.435629  0.366658  0.279589  1
  O  O83  1  0.757734  0.618880  0.779235  1
  O  O84  1  0.261628  0.108741  0.526709  1
  O  O85  1  0.177342  0.508071  0.071945  1
  O  O86  1  0.012034  0.868068  0.708383  1
  O  O87  1  0.017566  0.378580  0.958160  1
  O  O88  1  0.890718  0.379338  0.789904  1
  O  O89  1  0.892219  0.244900  0.652355  1
  O  O90  1  0.432378  0.115533  0.121007  1
  O  O91  1  0.048682  0.879338  0.200096  1
  O  O92  1  0.152376  0.109664  0.699276  1
  O  O93  1  0.435716  0.744900  0.508822  1
  O  O94  1  0.653861  0.244900  0.844651  1
  O  O95  1  0.181666  0.118880  0.210765  1
  O  O96  1  0.995548  0.244900  0.494492  1
  O  O97  1  0.689812  0.744900  0.991997  1
  O  O98  1  0.154170  0.244900  0.839951  1
  O  O99  1  0.257362  0.863798  0.781511  1
  O  O100  1  0.257362  0.626002  0.781511  1
  O  O101  1  0.187853  0.114818  0.368726  1
  O  O102  1  0.762067  0.380847  0.536653  1
  O  O103  1  0.943852  0.744900  0.495508  1
  O  O104  1  0.508800  0.382890  0.958589  1
  O  O105  1  0.047181  0.744900  0.337645  1
  O  O106  1  0.177342  0.981729  0.071945  1
  O  O107  1  0.677772  0.881059  0.463291  1
  O  O108  1  0.751547  0.614818  0.621274  1
  O  O109  1  0.682038  0.363798  0.208489  1
  O  O110  1  0.890718  0.110462  0.789904  1
  O  O111  1  0.682038  0.126002  0.208489  1
  O  O112  1  0.017144  0.490139  0.571939  1
  O  O113  1  0.536967  0.884941  0.197928  1
  O  O114  1  0.994933  0.606886  0.866138  1
  O  O115  1  0.922256  0.990139  0.418061  1
  O  O116  1  0.757734  0.870920  0.779235  1
  O  O117  1  0.944467  0.382914  0.123862  1
  O  O118  1  0.177333  0.880847  0.453347  1
  O  O119  1  0.503771  0.866658  0.710411  1
  O  O120  1  0.944467  0.106886  0.123862  1
  O  O121  1  0.785230  0.744900  0.150049  1
  O  O122  1  0.507506  0.484206  0.569317  1
  O  O123  1  0.431894  0.984206  0.420683  1
  O  O124  1  0.432378  0.374267  0.121007  1
  O  O125  1  0.261817  0.492816  0.920717  1
  O  O126  1  0.187853  0.374982  0.368726  1
  O  O127  1  0.677583  0.992816  0.069283  1
  O  O128  1  0.294743  0.882914  0.290882  1
  O  O129  1  0.017144  0.999661  0.571939  1
  O  O130  1  0.503771  0.623142  0.710411  1
  O  O131  1  0.507506  0.005594  0.569317  1
  O  O132  1  0.294743  0.606886  0.290882  1
  O  O133  1  0.189038  0.744900  0.983210  1
  O  O134  1  0.751547  0.874982  0.621274  1
  O  O135  1  0.689122  0.382636  0.366234  1
  O  O136  1  0.508800  0.106910  0.958589  1
  O  O137  1  0.922256  0.499661  0.418061  1
  O  O138  1  0.430600  0.606910  0.031411  1
  O  O139  1  0.644657  0.382914  0.699118  1
  O  O140  1  0.403617  0.244900  0.643379  1
  O  O141  1  0.402433  0.104859  0.792072  1
  O  O142  1  0.536967  0.604859  0.197928  1
  O  O143  1  0.250278  0.607164  0.623766  1
  O  O144  1  0.285539  0.744900  0.145349  1
  O  O145  1  0.431894  0.505594  0.420683  1
  O  O146  1  0.249588  0.244900  0.998003  1
  O  O147  1  0.250278  0.882636  0.623766  1
  O  O148  1  0.994933  0.882914  0.866138  1
  O  O149  1  0.430600  0.882890  0.031411  1
