# generated using pymatgen
data_GdSi
_symmetry_space_group_name_H-M   'P 1'
_cell_length_a   3.87559172
_cell_length_b   5.76563873
_cell_length_c   8.01437004
_cell_angle_alpha   90.00507452
_cell_angle_beta   89.99920033
_cell_angle_gamma   90.01678767
_symmetry_Int_Tables_number   1
_chemical_formula_structural   GdSi
_chemical_formula_sum   'Gd4 Si4'
_cell_volume   179.08318764
_cell_formula_units_Z   4
loop_
 _symmetry_equiv_pos_site_id
 _symmetry_equiv_pos_as_xyz
  1  'x, y, z'
loop_
 _atom_site_type_symbol
 _atom_site_label
 _atom_site_symmetry_multiplicity
 _atom_site_fract_x
 _atom_site_fract_y
 _atom_site_fract_z
 _atom_site_occupancy
  Gd  Gd0  1  0.749950  0.614420  0.679409  1
  Gd  Gd1  1  0.249955  0.114596  0.820573  1
  Gd  Gd2  1  0.250023  0.385772  0.320884  1
  Gd  Gd3  1  0.750052  0.885449  0.179258  1
  Si  Si4  1  0.750027  0.125508  0.536631  1
  Si  Si5  1  0.749965  0.373967  0.036826  1
  Si  Si6  1  0.249955  0.874040  0.463149  1
  Si  Si7  1  0.250074  0.626249  0.963270  1
