# generated using pymatgen
data_Be3Zn4Si3SO12
_symmetry_space_group_name_H-M   'P 1'
_cell_length_a   8.19780345
_cell_length_b   8.19780345
_cell_length_c   8.19780345
_cell_angle_alpha   90.00000000
_cell_angle_beta   90.00000000
_cell_angle_gamma   90.00000000
_symmetry_Int_Tables_number   1
_chemical_formula_structural   Be3Zn4Si3SO12
_chemical_formula_sum   'Be6 Zn8 Si6 S2 O24'
_cell_volume   550.92503061
_cell_formula_units_Z   2
loop_
 _symmetry_equiv_pos_site_id
 _symmetry_equiv_pos_as_xyz
  1  'x, y, z'
loop_
 _atom_site_type_symbol
 _atom_site_label
 _atom_site_symmetry_multiplicity
 _atom_site_fract_x
 _atom_site_fract_y
 _atom_site_fract_z
 _atom_site_occupancy
  Be  Be0  1  0.500000  0.750000  0.000000  1
  Be  Be1  1  0.500000  0.250000  0.000000  1
  Be  Be2  1  0.000000  0.500000  0.250000  1
  Be  Be3  1  0.000000  0.500000  0.750000  1
  Be  Be4  1  0.250000  0.000000  0.500000  1
  Be  Be5  1  0.750000  0.000000  0.500000  1
  O  O6  1  0.362214  0.638098  0.092985  1
  O  O7  1  0.138098  0.862214  0.592985  1
  O  O8  1  0.138098  0.137786  0.407015  1
  O  O9  1  0.361902  0.907015  0.362214  1
  O  O10  1  0.361902  0.092985  0.637786  1
  O  O11  1  0.092985  0.362214  0.638098  1
  O  O12  1  0.907015  0.362214  0.361902  1
  O  O13  1  0.637786  0.361902  0.092985  1
  O  O14  1  0.407015  0.861902  0.862214  1
  O  O15  1  0.407015  0.138098  0.137786  1
  O  O16  1  0.137786  0.407015  0.138098  1
  O  O17  1  0.862214  0.592985  0.138098  1
  O  O18  1  0.638098  0.907015  0.637786  1
  O  O19  1  0.862214  0.407015  0.861902  1
  O  O20  1  0.592985  0.861902  0.137786  1
  O  O21  1  0.592985  0.138098  0.862214  1
  O  O22  1  0.907015  0.637786  0.638098  1
  O  O23  1  0.137786  0.592985  0.861902  1
  O  O24  1  0.861902  0.137786  0.592985  1
  O  O25  1  0.861902  0.862214  0.407015  1
  O  O26  1  0.362214  0.361902  0.907015  1
  O  O27  1  0.637786  0.638098  0.907015  1
  O  O28  1  0.092985  0.637786  0.361902  1
  O  O29  1  0.638098  0.092985  0.362214  1
  Si  Si30  1  0.500000  0.000000  0.250000  1
  Si  Si31  1  0.500000  0.000000  0.750000  1
  Si  Si32  1  0.000000  0.250000  0.500000  1
  Si  Si33  1  0.250000  0.500000  0.000000  1
  Si  Si34  1  0.000000  0.750000  0.500000  1
  Si  Si35  1  0.750000  0.500000  0.000000  1
  S  S36  1  0.000000  0.000000  0.000000  1
  S  S37  1  0.500000  0.500000  0.500000  1
  Zn  Zn38  1  0.665819  0.665819  0.665819  1
  Zn  Zn39  1  0.834181  0.165819  0.834181  1
  Zn  Zn40  1  0.165819  0.834181  0.834181  1
  Zn  Zn41  1  0.834181  0.834181  0.165819  1
  Zn  Zn42  1  0.665819  0.334181  0.334181  1
  Zn  Zn43  1  0.334181  0.334181  0.665819  1
  Zn  Zn44  1  0.334181  0.665819  0.334181  1
  Zn  Zn45  1  0.165819  0.165819  0.165819  1
