# generated using pymatgen
data_Ru4C14O13
_symmetry_space_group_name_H-M   'P 1'
_cell_length_a   9.35000853
_cell_length_b   9.46037077
_cell_length_c   14.06102604
_cell_angle_alpha   78.03365469
_cell_angle_beta   74.63971555
_cell_angle_gamma   64.30824272
_symmetry_Int_Tables_number   1
_chemical_formula_structural   Ru4C14O13
_chemical_formula_sum   'Ru8 C28 O26'
_cell_volume   1074.62579918
_cell_formula_units_Z   2
loop_
 _symmetry_equiv_pos_site_id
 _symmetry_equiv_pos_as_xyz
  1  'x, y, z'
loop_
 _atom_site_type_symbol
 _atom_site_label
 _atom_site_symmetry_multiplicity
 _atom_site_fract_x
 _atom_site_fract_y
 _atom_site_fract_z
 _atom_site_occupancy
  Ru  Ru0  1  0.738068  0.897672  0.784156  1
  Ru  Ru1  1  0.990017  0.597623  0.739162  1
  Ru  Ru2  1  0.054159  0.808889  0.819637  1
  Ru  Ru3  1  0.009983  0.402377  0.260838  1
  Ru  Ru4  1  0.261932  0.102328  0.215844  1
  Ru  Ru5  1  0.170031  0.769501  0.613998  1
  Ru  Ru6  1  0.829969  0.230499  0.386002  1
  Ru  Ru7  1  0.945841  0.191111  0.180363  1
  C  C8  1  0.152898  0.489498  0.166791  1
  C  C9  1  0.105950  0.393643  0.368693  1
  C  C10  1  0.398177  0.623197  0.608079  1
  C  C11  1  0.848380  0.252012  0.512313  1
  C  C12  1  0.721242  0.268205  0.169872  1
  C  C13  1  0.039120  0.020594  0.787875  1
  C  C14  1  0.070058  0.150839  0.047523  1
  C  C15  1  0.601823  0.376803  0.391921  1
  C  C16  1  0.900212  0.441339  0.137631  1
  C  C17  1  0.894050  0.606357  0.631307  1
  C  C18  1  0.052218  0.154314  0.308353  1
  C  C19  1  0.184127  0.419294  0.690789  1
  C  C20  1  0.213456  0.951570  0.564743  1
  C  C21  1  0.652168  0.119054  0.787799  1
  C  C22  1  0.929942  0.849161  0.952477  1
  C  C23  1  0.347832  0.880946  0.212201  1
  C  C24  1  0.611276  0.847594  0.911958  1
  C  C25  1  0.388724  0.152406  0.088042  1
  C  C26  1  0.847102  0.510502  0.833209  1
  C  C27  1  0.947782  0.845686  0.691647  1
  C  C28  1  0.591156  0.914814  0.708087  1
  C  C29  1  0.815873  0.580706  0.309211  1
  C  C30  1  0.960880  0.979406  0.212125  1
  C  C31  1  0.786544  0.048430  0.435257  1
  C  C32  1  0.099788  0.558661  0.862369  1
  C  C33  1  0.408844  0.085186  0.291913  1
  C  C34  1  0.151620  0.747988  0.487687  1
  C  C35  1  0.278758  0.731795  0.830128  1
  O  O36  1  0.540120  0.811767  0.987251  1
  O  O37  1  0.296353  0.308982  0.663083  1
  O  O38  1  0.531606  0.537045  0.608837  1
  O  O39  1  0.766174  0.451827  0.887650  1
  O  O40  1  0.497920  0.074564  0.339651  1
  O  O41  1  0.238764  0.063903  0.533130  1
  O  O42  1  0.703647  0.691018  0.336917  1
  O  O43  1  0.400078  0.744795  0.212758  1
  O  O44  1  0.588572  0.314860  0.159967  1
  O  O45  1  0.864281  0.261625  0.589698  1
  O  O46  1  0.838091  0.609240  0.566611  1
  O  O47  1  0.233826  0.548173  0.112350  1
  O  O48  1  0.841124  0.540631  0.077562  1
  O  O49  1  0.411428  0.685140  0.840033  1
  O  O50  1  0.967559  0.851718  0.231086  1
  O  O51  1  0.502080  0.925436  0.660349  1
  O  O52  1  0.138411  0.120653  0.967472  1
  O  O53  1  0.032441  0.148283  0.768914  1
  O  O54  1  0.861589  0.879347  0.032528  1
  O  O55  1  0.468394  0.462955  0.391163  1
  O  O56  1  0.761236  0.936097  0.466870  1
  O  O57  1  0.158876  0.459369  0.922438  1
  O  O58  1  0.459880  0.188233  0.012749  1
  O  O59  1  0.135719  0.738375  0.410302  1
  O  O60  1  0.161909  0.390760  0.433389  1
  O  O61  1  0.599922  0.255205  0.787242  1
