# generated using pymatgen
data_Tl3In2Se5
_symmetry_space_group_name_H-M   'P 1'
_cell_length_a   6.79883889
_cell_length_b   6.79883865
_cell_length_c   67.88868626
_cell_angle_alpha   105.41667627
_cell_angle_beta   105.41667573
_cell_angle_gamma   117.97629907
_symmetry_Int_Tables_number   1
_chemical_formula_structural   Tl3In2Se5
_chemical_formula_sum   'Tl24 In16 Se40'
_cell_volume   2373.98579171
_cell_formula_units_Z   8
loop_
 _symmetry_equiv_pos_site_id
 _symmetry_equiv_pos_as_xyz
  1  'x, y, z'
loop_
 _atom_site_type_symbol
 _atom_site_label
 _atom_site_symmetry_multiplicity
 _atom_site_fract_x
 _atom_site_fract_y
 _atom_site_fract_z
 _atom_site_occupancy
  Tl  Tl0  1  0.250182  0.250240  0.900033  1
  Tl  Tl1  1  0.249972  0.250072  0.800008  1
  Tl  Tl2  1  0.750240  0.750182  0.900033  1
  Tl  Tl3  1  0.249981  0.249981  0.700000  1
  Tl  Tl4  1  0.750072  0.749972  0.800008  1
  Tl  Tl5  1  0.249993  0.249894  0.599992  1
  Tl  Tl6  1  0.749981  0.749981  0.700000  1
  Tl  Tl7  1  0.749894  0.749993  0.599992  1
  Tl  Tl8  1  0.249910  0.249852  0.499967  1
  Tl  Tl9  1  0.249938  0.749938  0.350019  1
  Tl  Tl10  1  0.249726  0.250140  0.399992  1
  Tl  Tl11  1  0.749852  0.749910  0.499967  1
  Tl  Tl12  1  0.249808  0.749808  0.250002  1
  Tl  Tl13  1  0.249914  0.249954  0.299991  1
  Tl  Tl14  1  0.750140  0.749726  0.399992  1
  Tl  Tl15  1  0.249790  0.749790  0.149998  1
  Tl  Tl16  1  0.250079  0.250079  0.200000  1
  Tl  Tl17  1  0.749954  0.749914  0.299991  1
  Tl  Tl18  1  0.249746  0.749746  0.049981  1
  Tl  Tl19  1  0.250042  0.250003  0.100009  1
  Tl  Tl20  1  0.750079  0.750079  0.200000  1
  Tl  Tl21  1  0.250223  0.249810  0.000008  1
  Tl  Tl22  1  0.750003  0.750042  0.100009  1
  Tl  Tl23  1  0.749810  0.750223  0.000008  1
  In  In24  1  0.249658  0.749658  0.949996  1
  In  In25  1  0.249627  0.749627  0.849983  1
  In  In26  1  0.249490  0.749490  0.749990  1
  In  In27  1  0.750327  0.250327  0.950003  1
  In  In28  1  0.249588  0.749588  0.650010  1
  In  In29  1  0.750454  0.250454  0.850009  1
  In  In30  1  0.249795  0.749795  0.550017  1
  In  In31  1  0.750148  0.250148  0.749966  1
  In  In32  1  0.249699  0.749699  0.450004  1
  In  In33  1  0.750489  0.250489  0.650034  1
  In  In34  1  0.750367  0.250367  0.549991  1
  In  In35  1  0.750292  0.250292  0.449997  1
  In  In36  1  0.750284  0.250284  0.349998  1
  In  In37  1  0.750126  0.250126  0.250006  1
  In  In38  1  0.750062  0.250062  0.149994  1
  In  In39  1  0.750305  0.250305  0.050002  1
  Se  Se40  1  0.171090  0.329009  0.949996  1
  Se  Se41  1  0.328306  0.828306  0.915673  1
  Se  Se42  1  0.171089  0.329053  0.850005  1
  Se  Se43  1  0.328372  0.828372  0.815662  1
  Se  Se44  1  0.671432  0.171432  0.984349  1
  Se  Se45  1  0.829009  0.671090  0.949996  1
  Se  Se46  1  0.170995  0.328913  0.749995  1
  Se  Se47  1  0.328278  0.828278  0.715649  1
  Se  Se48  1  0.671535  0.171535  0.884319  1
  Se  Se49  1  0.829053  0.671089  0.850005  1
  Se  Se50  1  0.171043  0.328961  0.650005  1
  Se  Se51  1  0.328358  0.828358  0.615683  1
  Se  Se52  1  0.671528  0.171528  0.784317  1
  Se  Se53  1  0.828913  0.670995  0.749995  1
  Se  Se54  1  0.171036  0.329001  0.549995  1
  Se  Se55  1  0.328340  0.828341  0.515681  1
  Se  Se56  1  0.671793  0.171793  0.684352  1
  Se  Se57  1  0.828961  0.671043  0.650005  1
  Se  Se58  1  0.171131  0.329050  0.450004  1
  Se  Se59  1  0.327947  0.827947  0.415651  1
  Se  Se60  1  0.671749  0.171749  0.584338  1
  Se  Se61  1  0.829001  0.671036  0.549995  1
  Se  Se62  1  0.166888  0.316271  0.350001  1
  Se  Se63  1  0.332473  0.832473  0.314834  1
  Se  Se64  1  0.671573  0.171573  0.484327  1
  Se  Se65  1  0.829050  0.671131  0.450004  1
  Se  Se66  1  0.166948  0.316332  0.249999  1
  Se  Se67  1  0.332484  0.832484  0.214827  1
  Se  Se68  1  0.684574  0.184574  0.385160  1
  Se  Se69  1  0.816271  0.666888  0.350001  1
  Se  Se70  1  0.166961  0.316345  0.150001  1
  Se  Se71  1  0.332470  0.832470  0.114832  1
  Se  Se72  1  0.684155  0.184155  0.285168  1
  Se  Se73  1  0.816332  0.666948  0.249999  1
  Se  Se74  1  0.166881  0.316265  0.049999  1
  Se  Se75  1  0.332979  0.832979  0.014840  1
  Se  Se76  1  0.684215  0.184215  0.185173  1
  Se  Se77  1  0.816345  0.666961  0.150001  1
  Se  Se78  1  0.684133  0.184133  0.085166  1
  Se  Se79  1  0.816265  0.666881  0.049999  1
