# generated using pymatgen
data_Y6O5F8
_symmetry_space_group_name_H-M   'P 1'
_cell_length_a   11.62038254
_cell_length_b   8.80764403
_cell_length_c   5.24399031
_cell_angle_alpha   91.25121684
_cell_angle_beta   91.14632958
_cell_angle_gamma   27.93579551
_symmetry_Int_Tables_number   1
_chemical_formula_structural   Y6O5F8
_chemical_formula_sum   'Y6 O5 F8'
_cell_volume   251.38002510
_cell_formula_units_Z   1
loop_
 _symmetry_equiv_pos_site_id
 _symmetry_equiv_pos_as_xyz
  1  'x, y, z'
loop_
 _atom_site_type_symbol
 _atom_site_label
 _atom_site_symmetry_multiplicity
 _atom_site_fract_x
 _atom_site_fract_y
 _atom_site_fract_z
 _atom_site_occupancy
  Y  Y0  1  0.067503  0.279597  0.212456  1
  Y  Y1  1  0.416533  0.244027  0.192761  1
  Y  Y2  1  0.271528  0.726915  0.791899  1
  Y  Y3  1  0.798863  0.179134  0.217421  1
  Y  Y4  1  0.601787  0.712113  0.784104  1
  Y  Y5  1  0.905999  0.750426  0.789191  1
  O  O6  1  0.262176  0.220042  -0.032285  1
  O  O7  1  0.090333  0.730909  -0.028544  1
  O  O8  1  0.577445  0.256952  -0.014499  1
  O  O9  1  0.949342  0.208089  -0.019000  1
  O  O10  1  0.751548  0.741848  0.013251  1
  F  F11  1  -0.149673  0.360927  0.448138  1
  F  F12  1  0.131869  0.436045  0.439714  1
  F  F13  1  0.166827  0.720996  0.445242  1
  F  F14  1  0.698252  0.075789  0.446369  1
  F  F15  1  0.263974  0.993436  0.583025  1
  F  F16  1  0.440880  0.722384  0.086933  1
  F  F17  1  0.630043  0.410843  0.633289  1
  F  F18  1  0.633284  0.871605  0.518468  1
