# generated using pymatgen
data_Ce4Te3N2
_symmetry_space_group_name_H-M   'P 1'
_cell_length_a   7.29603536
_cell_length_b   11.44761531
_cell_length_c   11.55383586
_cell_angle_alpha   90.00000000
_cell_angle_beta   90.00000000
_cell_angle_gamma   90.00000000
_symmetry_Int_Tables_number   1
_chemical_formula_structural   Ce4Te3N2
_chemical_formula_sum   'Ce16 Te12 N8'
_cell_volume   965.00185982
_cell_formula_units_Z   4
loop_
 _symmetry_equiv_pos_site_id
 _symmetry_equiv_pos_as_xyz
  1  'x, y, z'
loop_
 _atom_site_type_symbol
 _atom_site_label
 _atom_site_symmetry_multiplicity
 _atom_site_fract_x
 _atom_site_fract_y
 _atom_site_fract_z
 _atom_site_occupancy
  Ce  Ce0  1  0.150228  0.390546  0.448999  1
  Ce  Ce1  1  0.349772  0.890546  0.948999  1
  Ce  Ce2  1  0.219854  0.025405  0.250000  1
  Ce  Ce3  1  0.150228  0.390546  0.051001  1
  Ce  Ce4  1  0.280146  0.525405  0.750000  1
  Ce  Ce5  1  0.849772  0.609454  0.551001  1
  Ce  Ce6  1  0.913208  0.339547  0.750000  1
  Ce  Ce7  1  0.086792  0.660453  0.250000  1
  Ce  Ce8  1  0.586792  0.839547  0.250000  1
  Ce  Ce9  1  0.413208  0.160453  0.750000  1
  Ce  Ce10  1  0.719854  0.474595  0.250000  1
  Ce  Ce11  1  0.849772  0.609454  0.948999  1
  Ce  Ce12  1  0.780146  0.974595  0.750000  1
  Ce  Ce13  1  0.650228  0.109454  0.051001  1
  Ce  Ce14  1  0.349772  0.890546  0.551001  1
  Ce  Ce15  1  0.650228  0.109454  0.448999  1
  Te  Te16  1  0.920211  0.231458  0.250000  1
  Te  Te17  1  0.579789  0.731458  0.750000  1
  Te  Te18  1  0.432762  0.635784  0.076440  1
  Te  Te19  1  0.432762  0.635784  0.423560  1
  Te  Te20  1  0.567238  0.364216  0.576440  1
  Te  Te21  1  0.932762  0.864216  0.423560  1
  Te  Te22  1  0.067238  0.135784  0.576440  1
  Te  Te23  1  0.067238  0.135784  0.923560  1
  Te  Te24  1  0.932762  0.864216  0.076440  1
  Te  Te25  1  0.567238  0.364216  0.923560  1
  Te  Te26  1  0.420211  0.268542  0.250000  1
  Te  Te27  1  0.079789  0.768542  0.750000  1
  N  N28  1  0.554502  0.031964  0.620126  1
  N  N29  1  0.445498  0.968036  0.120126  1
  N  N30  1  0.945498  0.531964  0.120126  1
  N  N31  1  0.054502  0.468036  0.620126  1
  N  N32  1  0.445498  0.968036  0.379874  1
  N  N33  1  0.945498  0.531964  0.379874  1
  N  N34  1  0.054502  0.468036  0.879874  1
  N  N35  1  0.554502  0.031964  0.879874  1
