# generated using pymatgen
data_Ba(H2O3)2
_symmetry_space_group_name_H-M   'P 1'
_cell_length_a   6.52839519
_cell_length_b   6.52839519
_cell_length_c   6.48843475
_cell_angle_alpha   86.44058613
_cell_angle_beta   93.55941387
_cell_angle_gamma   82.71556650
_symmetry_Int_Tables_number   1
_chemical_formula_structural   Ba(H2O3)2
_chemical_formula_sum   'Ba2 H8 O12'
_cell_volume   273.09129815
_cell_formula_units_Z   2
loop_
 _symmetry_equiv_pos_site_id
 _symmetry_equiv_pos_as_xyz
  1  'x, y, z'
loop_
 _atom_site_type_symbol
 _atom_site_label
 _atom_site_symmetry_multiplicity
 _atom_site_fract_x
 _atom_site_fract_y
 _atom_site_fract_z
 _atom_site_occupancy
  Ba  Ba0  1  0.829997  0.829997  0.750000  1
  Ba  Ba1  1  0.165913  0.165913  0.250000  1
  H  H2  1  0.376797  0.615652  0.029553  1
  H  H3  1  0.177405  0.663225  0.139436  1
  H  H4  1  0.615652  0.376797  0.470447  1
  H  H5  1  0.663225  0.177405  0.360563  1
  H  H6  1  0.986968  0.411389  0.673926  1
  H  H7  1  0.411389  0.986968  0.826074  1
  H  H8  1  0.922635  0.639401  0.297795  1
  H  H9  1  0.639401  0.922635  0.202205  1
  O  O10  1  0.946129  0.812120  0.185986  1
  O  O11  1  0.812120  0.946129  0.314014  1
  O  O12  1  0.873460  0.207445  0.918900  1
  O  O13  1  0.207445  0.873460  0.581100  1
  O  O14  1  0.245316  0.561205  0.050355  1
  O  O15  1  0.561205  0.245316  0.449645  1
  O  O16  1  0.844474  0.410895  0.858896  1
  O  O17  1  0.410895  0.844474  0.641104  1
  O  O18  1  0.064762  0.445799  0.546810  1
  O  O19  1  0.445799  0.064762  0.953190  1
  O  O20  1  0.885986  0.497869  0.392345  1
  O  O21  1  0.497869  0.885986  0.107655  1
