# generated using pymatgen
data_CdI2
_symmetry_space_group_name_H-M   'P 1'
_cell_length_a   4.34172408
_cell_length_b   4.34172435
_cell_length_c   103.19125472
_cell_angle_alpha   90.00000000
_cell_angle_beta   90.00000000
_cell_angle_gamma   119.99999795
_symmetry_Int_Tables_number   1
_chemical_formula_structural   CdI2
_chemical_formula_sum   'Cd14 I28'
_cell_volume   1684.60467344
_cell_formula_units_Z   14
loop_
 _symmetry_equiv_pos_site_id
 _symmetry_equiv_pos_as_xyz
  1  'x, y, z'
loop_
 _atom_site_type_symbol
 _atom_site_label
 _atom_site_symmetry_multiplicity
 _atom_site_fract_x
 _atom_site_fract_y
 _atom_site_fract_z
 _atom_site_occupancy
  Cd  Cd0  1  0.666667  0.333333  0.303577  1
  Cd  Cd1  1  0.666667  0.333333  0.946443  1
  Cd  Cd2  1  0.666667  0.333333  0.160710  1
  Cd  Cd3  1  0.666667  0.333333  0.660708  1
  Cd  Cd4  1  0.666667  0.333333  0.446439  1
  Cd  Cd5  1  0.666667  0.333333  0.589287  1
  Cd  Cd6  1  0.000000  0.000000  0.232148  1
  Cd  Cd7  1  0.000000  0.000000  0.732146  1
  Cd  Cd8  1  0.666667  0.333333  0.017849  1
  Cd  Cd9  1  0.000000  0.000000  0.517845  1
  Cd  Cd10  1  0.666667  0.333333  0.803577  1
  Cd  Cd11  1  0.000000  0.000000  0.089285  1
  Cd  Cd12  1  0.000000  0.000000  0.374997  1
  Cd  Cd13  1  0.000000  0.000000  0.874996  1
  I  I14  1  0.666667  0.333333  0.072546  1
  I  I15  1  0.000000  0.000000  0.929688  1
  I  I16  1  0.000000  0.000000  0.643959  1
  I  I17  1  0.333333  0.666667  0.534584  1
  I  I18  1  0.333333  0.666667  0.177453  1
  I  I19  1  0.333333  0.666667  0.106039  1
  I  I20  1  0.333333  0.666667  0.463174  1
  I  I21  1  0.333333  0.666667  0.820322  1
  I  I22  1  0.000000  0.000000  0.286818  1
  I  I23  1  0.000000  0.000000  0.786818  1
  I  I24  1  0.333333  0.666667  0.320322  1
  I  I25  1  0.333333  0.666667  0.606042  1
  I  I26  1  0.000000  0.000000  0.143957  1
  I  I27  1  0.333333  0.666667  0.963176  1
  I  I28  1  0.000000  0.000000  0.001127  1
  I  I29  1  0.666667  0.333333  0.858260  1
  I  I30  1  0.333333  0.666667  0.677450  1
  I  I31  1  0.666667  0.333333  0.715402  1
  I  I32  1  0.666667  0.333333  0.215409  1
  I  I33  1  0.333333  0.666667  0.034593  1
  I  I34  1  0.333333  0.666667  0.891731  1
  I  I35  1  0.333333  0.666667  0.248901  1
  I  I36  1  0.666667  0.333333  0.358260  1
  I  I37  1  0.333333  0.666667  0.391735  1
  I  I38  1  0.666667  0.333333  0.501095  1
  I  I39  1  0.000000  0.000000  0.572549  1
  I  I40  1  0.000000  0.000000  0.429686  1
  I  I41  1  0.333333  0.666667  0.748900  1
