# generated using pymatgen
data_BaCaCO3
_symmetry_space_group_name_H-M   'P 1'
_cell_length_a   5.30635397
_cell_length_b   5.30552499
_cell_length_c   13.13828235
_cell_angle_alpha   90.00000000
_cell_angle_beta   90.00000000
_cell_angle_gamma   120.00516884
_symmetry_Int_Tables_number   1
_chemical_formula_structural   BaCaCO3
_chemical_formula_sum   'Ba2 Ca2 C2 O6'
_cell_volume   320.31050473
_cell_formula_units_Z   2
loop_
 _symmetry_equiv_pos_site_id
 _symmetry_equiv_pos_as_xyz
  1  'x, y, z'
loop_
 _atom_site_type_symbol
 _atom_site_label
 _atom_site_symmetry_multiplicity
 _atom_site_fract_x
 _atom_site_fract_y
 _atom_site_fract_z
 _atom_site_occupancy
  Ba  Ba0  1  0.666684  0.333367  0.499870  1
  Ba  Ba1  1  0.333316  0.666633  0.999870  1
  Ca  Ca2  1  0.666671  0.333341  0.806152  1
  Ca  Ca3  1  0.333329  0.666659  0.306152  1
  C  C4  1  0.999947  0.999894  0.922820  1
  C  C5  1  0.000053  0.000106  0.422820  1
  O  O6  1  0.858897  0.717795  0.924390  1
  O  O7  1  0.282058  0.140984  0.924384  1
  O  O8  1  0.858926  0.140984  0.924384  1
  O  O9  1  0.141103  0.282205  0.424390  1
  O  O10  1  0.717942  0.859016  0.424384  1
  O  O11  1  0.141074  0.859016  0.424384  1
