# generated using pymatgen
data_Sm(HO)3
_symmetry_space_group_name_H-M   'P 1'
_cell_length_a   6.49983112
_cell_length_b   6.41361727
_cell_length_c   3.63502196
_cell_angle_alpha   90.00000000
_cell_angle_beta   90.00000000
_cell_angle_gamma   118.96239622
_symmetry_Int_Tables_number   1
_chemical_formula_structural   Sm(HO)3
_chemical_formula_sum   'Sm2 H6 O6'
_cell_volume   132.58344012
_cell_formula_units_Z   2
loop_
 _symmetry_equiv_pos_site_id
 _symmetry_equiv_pos_as_xyz
  1  'x, y, z'
loop_
 _atom_site_type_symbol
 _atom_site_label
 _atom_site_symmetry_multiplicity
 _atom_site_fract_x
 _atom_site_fract_y
 _atom_site_fract_z
 _atom_site_occupancy
  Sm  Sm0  1  0.327491  0.659993  0.250000  1
  Sm  Sm1  1  0.672509  0.340007  0.750000  1
  H  H2  1  0.863783  0.727600  0.250000  1
  H  H3  1  0.855824  0.129256  0.250000  1
  H  H4  1  0.303516  0.141866  0.250000  1
  H  H5  1  0.136217  0.272400  0.750000  1
  H  H6  1  0.144176  0.870744  0.750000  1
  H  H7  1  0.696484  0.858134  0.750000  1
  O  O8  1  0.916865  0.609713  0.250000  1
  O  O9  1  0.689138  0.083600  0.250000  1
  O  O10  1  0.404942  0.314339  0.250000  1
  O  O11  1  0.083135  0.390287  0.750000  1
  O  O12  1  0.310862  0.916400  0.750000  1
  O  O13  1  0.595058  0.685661  0.750000  1
