# generated using pymatgen
data_Pu2Te3
_symmetry_space_group_name_H-M   'P 1'
_cell_length_a   24.16818480
_cell_length_b   9.29237717
_cell_length_c   9.29237709
_cell_angle_alpha   90.00000000
_cell_angle_beta   54.77898413
_cell_angle_gamma   54.77898375
_symmetry_Int_Tables_number   1
_chemical_formula_structural   Pu2Te3
_chemical_formula_sum   'Pu16 Te24'
_cell_volume   1207.43766283
_cell_formula_units_Z   8
loop_
 _symmetry_equiv_pos_site_id
 _symmetry_equiv_pos_as_xyz
  1  'x, y, z'
loop_
 _atom_site_type_symbol
 _atom_site_label
 _atom_site_symmetry_multiplicity
 _atom_site_fract_x
 _atom_site_fract_y
 _atom_site_fract_z
 _atom_site_occupancy
  Pu  Pu0  1  0.999148  0.381835  0.247531  1
  Pu  Pu1  1  0.081664  0.627504  0.377504  1
  Pu  Pu2  1  0.166667  0.250000  0.629867  1
  Pu  Pu3  1  0.251669  0.872496  0.122496  1
  Pu  Pu4  1  0.334185  0.379280  0.252469  1
  Pu  Pu5  1  0.334185  0.118165  0.744976  1
  Pu  Pu6  1  0.166667  0.750000  0.870133  1
  Pu  Pu7  1  0.499148  0.255024  0.620720  1
  Pu  Pu8  1  0.581664  0.877504  0.127504  1
  Pu  Pu9  1  0.666667  0.370133  0.250000  1
  Pu  Pu10  1  0.666667  0.129867  0.750000  1
  Pu  Pu11  1  0.499148  0.747531  0.881835  1
  Pu  Pu12  1  0.751669  0.622496  0.372496  1
  Pu  Pu13  1  0.834185  0.244976  0.618165  1
  Pu  Pu14  1  0.999148  0.120720  0.755024  1
  Pu  Pu15  1  0.834185  0.752469  0.879280  1
  Te  Te16  1  0.049346  0.000928  0.351798  1
  Te  Te17  1  0.120234  0.495832  0.997724  1
  Te  Te18  1  0.049346  0.351033  0.500163  1
  Te  Te19  1  0.283987  0.148967  0.148202  1
  Te  Te20  1  0.283987  0.499072  -0.000163  1
  Te  Te21  1  0.120234  0.643463  0.641572  1
  Te  Te22  1  0.383400  0.001669  0.348099  1
  Te  Te23  1  0.213099  0.856537  0.502276  1
  Te  Te24  1  0.449934  0.498297  0.998331  1
  Te  Te25  1  0.383400  0.348133  0.501703  1
  Te  Te26  1  0.213099  0.004168  0.858428  1
  Te  Te27  1  0.620234  0.141572  0.143463  1
  Te  Te28  1  0.620234  0.497724  0.995832  1
  Te  Te29  1  0.449934  0.651901  0.651867  1
  Te  Te30  1  0.713099  0.002276  0.356537  1
  Te  Te31  1  0.549346  0.851798  0.500928  1
  Te  Te32  1  0.783987  0.499837  0.999072  1
  Te  Te33  1  0.713099  0.358428  0.504168  1
  Te  Te34  1  0.549346  0.000163  0.851033  1
  Te  Te35  1  0.949934  0.151867  0.151901  1
  Te  Te36  1  0.949934  0.498331  0.998297  1
  Te  Te37  1  0.783987  0.648202  0.648967  1
  Te  Te38  1  0.883400  0.848099  0.501669  1
  Te  Te39  1  0.883400  0.001703  0.848133  1
