# generated using pymatgen
data_Ba32Sb7Pb25O96
_symmetry_space_group_name_H-M   'P 1'
_cell_length_a   8.67067660
_cell_length_b   17.31815469
_cell_length_c   19.39413451
_cell_angle_alpha   63.47175189
_cell_angle_beta   89.98544954
_cell_angle_gamma   89.99162449
_symmetry_Int_Tables_number   1
_chemical_formula_structural   Ba32Sb7Pb25O96
_chemical_formula_sum   'Ba32 Sb7 Pb25 O96'
_cell_volume   2605.60965359
_cell_formula_units_Z   1
loop_
 _symmetry_equiv_pos_site_id
 _symmetry_equiv_pos_as_xyz
  1  'x, y, z'
loop_
 _atom_site_type_symbol
 _atom_site_label
 _atom_site_symmetry_multiplicity
 _atom_site_fract_x
 _atom_site_fract_y
 _atom_site_fract_z
 _atom_site_occupancy
  Ba  Ba0  1  0.250062  0.061859  0.125622  1
  Ba  Ba1  1  0.248570  0.563414  0.123496  1
  Ba  Ba2  1  0.249380  0.312410  0.624905  1
  Ba  Ba3  1  0.248732  0.811469  0.626223  1
  Ba  Ba4  1  0.249138  0.314548  0.124271  1
  Ba  Ba5  1  0.249222  0.063036  0.624704  1
  Ba  Ba6  1  0.249784  0.438735  0.374498  1
  Ba  Ba7  1  0.251140  0.187732  0.375270  1
  Ba  Ba8  1  0.251572  0.812771  0.125310  1
  Ba  Ba9  1  0.247957  0.561459  0.625516  1
  Ba  Ba10  1  0.250179  0.938007  0.375584  1
  Ba  Ba11  1  0.250570  0.186599  0.876711  1
  Ba  Ba12  1  0.248984  0.687995  0.375326  1
  Ba  Ba13  1  0.250922  0.686977  0.875545  1
  Ba  Ba14  1  0.252224  0.436625  0.874980  1
  Ba  Ba15  1  0.249025  0.937214  0.875482  1
  Ba  Ba16  1  0.750363  0.062447  0.125558  1
  Ba  Ba17  1  0.751030  0.314065  0.124246  1
  Ba  Ba18  1  0.750757  0.062862  0.625357  1
  Ba  Ba19  1  0.749591  0.563825  0.124812  1
  Ba  Ba20  1  0.750428  0.312980  0.624311  1
  Ba  Ba21  1  0.751178  0.813409  0.124169  1
  Ba  Ba22  1  0.751497  0.437829  0.375152  1
  Ba  Ba23  1  0.750379  0.186777  0.875312  1
  Ba  Ba24  1  0.751304  0.562091  0.625419  1
  Ba  Ba25  1  0.750603  0.937147  0.375942  1
  Ba  Ba26  1  0.749073  0.812425  0.625802  1
  Ba  Ba27  1  0.749113  0.687045  0.875835  1
  Ba  Ba28  1  0.750616  0.188428  0.373879  1
  Ba  Ba29  1  0.750272  0.686777  0.375387  1
  Ba  Ba30  1  0.752914  0.436692  0.876144  1
  Ba  Ba31  1  0.747561  0.937747  0.875315  1
  Sb  Sb32  1  0.000613  0.999445  0.000285  1
  Sb  Sb33  1  0.500109  0.124869  0.250503  1
  Sb  Sb34  1  0.499407  0.875249  0.749628  1
  Sb  Sb35  1  0.000765  0.499909  0.000051  1
  Sb  Sb36  1  0.000411  0.251503  0.500008  1
  Sb  Sb37  1  0.000491  0.500046  0.500041  1
  Sb  Sb38  1  -0.000020  0.748483  0.500571  1
  Pb  Pb39  1  0.999123  0.874490  0.750373  1
  Pb  Pb40  1  0.500616  0.625475  0.249743  1
  Pb  Pb41  1  0.499829  0.374286  0.750522  1
  Pb  Pb42  1  0.500525  0.249013  0.002227  1
  Pb  Pb43  1  0.500007  0.373874  0.249944  1
  Pb  Pb44  1  0.500749  0.876568  0.250624  1
  Pb  Pb45  1  0.500150  -0.000056  0.000234  1
  Pb  Pb46  1  0.498708  0.123174  0.750026  1
  Pb  Pb47  1  0.500118  0.751033  0.998324  1
  Pb  Pb48  1  0.500264  0.500173  0.000094  1
  Pb  Pb49  1  0.500498  0.250664  0.499833  1
  Pb  Pb50  1  0.499617  0.500203  0.499896  1
  Pb  Pb51  1  0.500846  0.626071  0.750127  1
  Pb  Pb52  1  0.499440  0.000237  0.500299  1
  Pb  Pb53  1  0.500225  0.749614  0.500432  1
  Pb  Pb54  1  0.000274  0.125392  0.250098  1
  Pb  Pb55  1  0.000475  0.249750  0.000161  1
  Pb  Pb56  1  -0.000046  0.375288  0.250002  1
  Pb  Pb57  1  0.999839  0.749852  -0.000090  1
  Pb  Pb58  1  0.000722  0.624714  0.250893  1
  Pb  Pb59  1  0.999276  0.124218  0.750440  1
  Pb  Pb60  1  0.999496  0.374997  0.748883  1
  Pb  Pb61  1  0.000593  0.875186  0.250071  1
  Pb  Pb62  1  0.000641  0.624490  0.750707  1
  Pb  Pb63  1  0.999313  0.000199  0.500139  1
  O  O64  1  0.002783  0.116459  0.001142  1
  O  O65  1  0.999797  0.383032  0.999046  1
  O  O66  1  0.999117  0.881455  0.001107  1
  O  O67  1  0.000424  0.940818  0.117505  1
  O  O68  1  0.000953  0.058033  0.882888  1
  O  O69  1  0.999703  0.806319  0.383969  1
  O  O70  1  0.249346  0.250886  0.000580  1
  O  O71  1  0.249214  0.750542  0.996435  1
  O  O72  1  0.249387  0.001231  0.499569  1
  O  O73  1  0.231938  0.501018  0.499721  1
  O  O74  1  0.248627  0.373127  0.249755  1
  O  O75  1  0.247567  0.122077  0.748627  1
  O  O76  1  0.249234  0.877156  0.250524  1
  O  O77  1  0.249391  0.625955  0.748722  1
  O  O78  1  0.265378  0.125467  0.251146  1
  O  O79  1  0.247925  0.623208  0.251040  1
  O  O80  1  0.246846  0.376663  0.748783  1
  O  O81  1  0.264814  0.872723  0.751457  1
  O  O82  1  0.235444  0.997878  0.000282  1
  O  O83  1  0.235458  0.499350  0.000739  1
  O  O84  1  0.233983  0.251002  0.501783  1
  O  O85  1  0.233623  0.747539  0.499552  1
  O  O86  1  0.501928  0.243048  0.248669  1
  O  O87  1  0.500074  0.067521  0.367899  1
  O  O88  1  0.496649  0.992520  0.749897  1
  O  O89  1  0.501243  0.375394  0.000812  1
  O  O90  1  0.498012  0.749651  0.252597  1
  O  O91  1  0.497599  0.124433  0.000041  1
  O  O92  1  0.499617  0.125834  0.499226  1
  O  O93  1  0.499734  0.310502  0.375876  1
  O  O94  1  0.501609  0.561191  0.376909  1
  O  O95  1  0.499167  0.311399  0.876358  1
  O  O96  1  0.500799  0.181635  0.132878  1
  O  O97  1  0.499817  0.375557  0.499113  1
  O  O98  1  0.499428  0.625258  0.998894  1
  O  O99  1  0.500378  0.500341  0.749429  1
  O  O100  1  0.503459  0.875895  0.999363  1
  O  O101  1  0.504375  0.814538  0.376622  1
  O  O102  1  0.496147  0.059531  0.875943  1
  O  O103  1  0.501505  0.499353  0.250989  1
  O  O104  1  0.499664  0.248634  0.750739  1
  O  O105  1  0.499906  0.689573  0.124137  1
  O  O106  1  0.500957  0.625653  0.498772  1
  O  O107  1  0.498304  0.874844  0.501028  1
  O  O108  1  0.497039  0.006909  0.251491  1
  O  O109  1  0.502977  0.816319  0.867199  1
  O  O110  1  0.496050  0.437167  0.622828  1
  O  O111  1  0.500671  0.939052  0.124587  1
  O  O112  1  0.499562  0.564157  0.875921  1
  O  O113  1  0.500792  0.758306  0.748632  1
  O  O114  1  0.498085  0.935387  0.632321  1
  O  O115  1  0.499125  0.437876  0.124221  1
  O  O116  1  0.502126  0.188013  0.623892  1
  O  O117  1  0.502778  0.688711  0.624156  1
  O  O118  1  0.765661  0.000884  0.999241  1
  O  O119  1  0.765968  0.500033  0.000443  1
  O  O120  1  0.766958  0.253537  0.499797  1
  O  O121  1  0.766827  0.747065  0.500757  1
  O  O122  1  0.734603  0.122445  0.250753  1
  O  O123  1  0.752036  0.376551  0.746305  1
  O  O124  1  0.753485  0.625638  0.251637  1
  O  O125  1  0.734156  0.875973  0.748640  1
  O  O126  1  0.751121  0.371984  0.250979  1
  O  O127  1  0.750305  0.121633  0.751279  1
  O  O128  1  0.752220  0.876606  0.248792  1
  O  O129  1  0.752056  0.627196  0.750983  1
  O  O130  1  0.751409  0.250167  0.001925  1
  O  O131  1  0.750800  0.748754  0.999449  1
  O  O132  1  0.768914  0.499636  0.499779  1
  O  O133  1  0.749125  0.998225  0.500394  1
  O  O134  1  0.000751  0.189038  0.125047  1
  O  O135  1  0.998509  0.062439  0.375532  1
  O  O136  1  0.998516  0.134376  0.498316  1
  O  O137  1  0.996089  0.249565  0.251240  1
  O  O138  1  0.001794  0.440061  0.117510  1
  O  O139  1  0.002897  0.312041  0.383771  1
  O  O140  1  0.996650  0.498195  0.252348  1
  O  O141  1  0.002006  0.375579  0.500337  1
  O  O142  1  0.001386  0.616825  0.000433  1
  O  O143  1  -0.000023  0.686381  0.123563  1
  O  O144  1  0.001047  0.558127  0.384514  1
  O  O145  1  0.999354  0.623678  0.501074  1
  O  O146  1  0.004714  0.749792  0.252122  1
  O  O147  1  0.996994  0.999349  0.749661  1
  O  O148  1  0.998350  0.192188  0.616534  1
  O  O149  1  0.000641  0.249928  0.747491  1
  O  O150  1  0.000278  0.441444  0.615425  1
  O  O151  1  0.996148  0.309969  0.876245  1
  O  O152  1  0.997534  0.501402  0.747807  1
  O  O153  1  0.001429  0.688921  0.616889  1
  O  O154  1  0.002413  0.558537  0.882819  1
  O  O155  1  0.001135  0.000085  0.250819  1
  O  O156  1  0.003008  0.751125  0.747874  1
  O  O157  1  0.000243  0.866251  0.500991  1
  O  O158  1  0.996453  0.810453  0.875321  1
  O  O159  1  0.999900  0.938552  0.624678  1
