# generated using pymatgen
data_K2NaNb(OF2)2
_symmetry_space_group_name_H-M   'P 1'
_cell_length_a   6.07810063
_cell_length_b   12.19818138
_cell_length_c   10.55834764
_cell_angle_alpha   29.91498932
_cell_angle_beta   54.91115390
_cell_angle_gamma   60.17477702
_symmetry_Int_Tables_number   1
_chemical_formula_structural   K2NaNb(OF2)2
_chemical_formula_sum   'K4 Na2 Nb2 O4 F8'
_cell_volume   319.44939536
_cell_formula_units_Z   2
loop_
 _symmetry_equiv_pos_site_id
 _symmetry_equiv_pos_as_xyz
  1  'x, y, z'
loop_
 _atom_site_type_symbol
 _atom_site_label
 _atom_site_symmetry_multiplicity
 _atom_site_fract_x
 _atom_site_fract_y
 _atom_site_fract_z
 _atom_site_occupancy
  K  K0  1  0.248091  0.502601  0.249988  1
  K  K1  1  0.745868  0.004387  0.747815  1
  K  K2  1  0.251066  0.998739  0.254926  1
  K  K3  1  0.756398  0.499291  0.746874  1
  Na  Na4  1  0.501388  0.495160  0.503295  1
  Na  Na5  1  0.499428  0.997470  0.503673  1
  Nb  Nb6  1  0.998731  0.996367  0.004724  1
  Nb  Nb7  1  0.997841  0.497225  0.002704  1
  O  O8  1  0.224511  0.776504  0.221366  1
  O  O9  1  0.777813  0.274653  0.225327  1
  O  O10  1  0.214573  0.721982  0.779908  1
  O  O11  1  0.776796  0.217204  0.782956  1
  F  F12  1  0.233402  0.262428  0.240836  1
  F  F13  1  0.766271  0.993489  0.242456  1
  F  F14  1  0.233639  0.998305  0.766518  1
  F  F15  1  0.235873  0.235516  0.762310  1
  F  F16  1  0.758602  0.495196  0.241401  1
  F  F17  1  0.231604  0.498330  0.766535  1
  F  F18  1  0.760096  0.759001  0.243820  1
  F  F19  1  0.756629  0.731780  0.770410  1
