# generated using pymatgen
data_NaEu(PO3)4
_symmetry_space_group_name_H-M   'P 1'
_cell_length_a   7.26535088
_cell_length_b   9.92210449
_cell_length_c   13.20546919
_cell_angle_alpha   90.00000000
_cell_angle_beta   90.00000000
_cell_angle_gamma   90.50378477
_symmetry_Int_Tables_number   1
_chemical_formula_structural   NaEu(PO3)4
_chemical_formula_sum   'Na4 Eu4 P16 O48'
_cell_volume   951.91339420
_cell_formula_units_Z   4
loop_
 _symmetry_equiv_pos_site_id
 _symmetry_equiv_pos_as_xyz
  1  'x, y, z'
loop_
 _atom_site_type_symbol
 _atom_site_label
 _atom_site_symmetry_multiplicity
 _atom_site_fract_x
 _atom_site_fract_y
 _atom_site_fract_z
 _atom_site_occupancy
  Eu  Eu0  1  0.987180  0.023683  0.781908  1
  Eu  Eu1  1  0.512820  0.476317  0.281908  1
  Eu  Eu2  1  0.012820  0.976317  0.218092  1
  Eu  Eu3  1  0.487180  0.523683  0.718092  1
  Na  Na4  1  0.499505  0.064563  0.221747  1
  Na  Na5  1  0.500495  0.935437  0.778253  1
  Na  Na6  1  0.000495  0.435437  0.721747  1
  Na  Na7  1  0.999505  0.564563  0.278253  1
  P  P8  1  0.268768  0.198373  0.409560  1
  P  P9  1  0.646960  0.804591  0.371724  1
  P  P10  1  0.250339  0.756274  0.898795  1
  P  P11  1  0.231232  0.301627  0.909560  1
  P  P12  1  0.122369  0.736017  0.614877  1
  P  P13  1  0.853040  0.695409  0.871724  1
  P  P14  1  0.146960  0.304591  0.128276  1
  P  P15  1  0.749661  0.243726  0.101205  1
  P  P16  1  0.731232  0.801627  0.590440  1
  P  P17  1  0.768768  0.698373  0.090440  1
  P  P18  1  0.877631  0.263983  0.385123  1
  P  P19  1  0.377631  0.763983  0.114877  1
  P  P20  1  0.353040  0.195409  0.628276  1
  P  P21  1  0.750339  0.256274  0.601205  1
  P  P22  1  0.622369  0.236017  0.885123  1
  P  P23  1  0.249661  0.743726  0.398795  1
  O  O24  1  0.697479  0.101708  0.854113  1
  O  O25  1  0.906878  0.205085  0.665483  1
  O  O26  1  0.218939  0.394474  0.211163  1
  O  O27  1  0.302521  0.898292  0.145887  1
  O  O28  1  0.429597  0.290818  0.389551  1
  O  O29  1  0.285752  0.594553  0.392662  1
  O  O30  1  0.912057  0.708870  0.580190  1
  O  O31  1  0.238624  0.082016  0.338352  1
  O  O32  1  0.282925  0.133253  0.521830  1
  O  O33  1  0.319657  0.344223  0.632774  1
  O  O34  1  0.070403  0.209182  0.889551  1
  O  O35  1  0.412057  0.208870  0.919810  1
  O  O36  1  0.802521  0.398292  0.354113  1
  O  O37  1  0.587943  0.791130  0.080190  1
  O  O38  1  0.819657  0.844223  0.867226  1
  O  O39  1  0.680343  0.655777  0.367226  1
  O  O40  1  0.428652  0.834710  0.375265  1
  O  O41  1  0.717075  0.866747  0.478170  1
  O  O42  1  0.714248  0.405447  0.607338  1
  O  O43  1  0.738624  0.582016  0.161648  1
  O  O44  1  0.093122  0.794915  0.334517  1
  O  O45  1  0.283704  0.708227  0.013532  1
  O  O46  1  0.197479  0.601708  0.645887  1
  O  O47  1  0.593122  0.294915  0.165483  1
  O  O48  1  0.281062  0.105526  0.711163  1
  O  O49  1  0.633205  0.349224  0.810352  1
  O  O50  1  0.761376  0.917984  0.661648  1
  O  O51  1  0.214248  0.905447  0.892662  1
  O  O52  1  0.180343  0.155777  0.132774  1
  O  O53  1  0.406878  0.705085  0.834517  1
  O  O54  1  0.570403  0.709182  0.610449  1
  O  O55  1  0.781061  0.605526  0.788837  1
  O  O56  1  0.216296  0.791773  0.513532  1
  O  O57  1  0.928652  0.334710  0.124735  1
  O  O58  1  0.716296  0.291773  0.986468  1
  O  O59  1  0.071348  0.665290  0.875265  1
  O  O60  1  0.785752  0.094553  0.107338  1
  O  O61  1  0.866795  0.150776  0.310352  1
  O  O62  1  0.782925  0.633253  0.978170  1
  O  O63  1  0.718939  0.894474  0.288837  1
  O  O64  1  0.571348  0.165290  0.624735  1
  O  O65  1  0.217075  0.366747  0.021830  1
  O  O66  1  0.929597  0.790818  0.110449  1
  O  O67  1  0.261376  0.417984  0.838352  1
  O  O68  1  0.366795  0.650776  0.189648  1
  O  O69  1  0.783704  0.208227  0.486468  1
  O  O70  1  0.133205  0.849224  0.689648  1
  O  O71  1  0.087943  0.291130  0.419810  1
