# generated using pymatgen
data_Ti3H2O7
_symmetry_space_group_name_H-M   'P 1'
_cell_length_a   16.06678535
_cell_length_b   16.08961830
_cell_length_c   9.49472782
_cell_angle_alpha   83.11399685
_cell_angle_beta   96.90595497
_cell_angle_gamma   166.50031624
_symmetry_Int_Tables_number   1
_chemical_formula_structural   Ti3H2O7
_chemical_formula_sum   'Ti6 H4 O14'
_cell_volume   568.76693750
_cell_formula_units_Z   2
loop_
 _symmetry_equiv_pos_site_id
 _symmetry_equiv_pos_as_xyz
  1  'x, y, z'
loop_
 _atom_site_type_symbol
 _atom_site_label
 _atom_site_symmetry_multiplicity
 _atom_site_fract_x
 _atom_site_fract_y
 _atom_site_fract_z
 _atom_site_occupancy
  Ti  Ti0  1  0.771545  0.227584  0.791309  1
  Ti  Ti1  1  0.226947  0.771685  0.208198  1
  Ti  Ti2  1  0.790027  0.213185  0.479184  1
  Ti  Ti3  1  0.210893  0.787319  0.520303  1
  Ti  Ti4  1  0.808928  0.206163  0.165660  1
  Ti  Ti5  1  0.197468  0.800432  0.834423  1
  H  H6  1  0.927000  0.155114  0.225436  1
  H  H7  1  0.760224  0.000258  0.070241  1
  H  H8  1  0.114138  0.886198  0.765052  1
  H  H9  1  0.116643  0.883452  0.938741  1
  O  O10  1  0.794865  0.192169  0.959434  1
  O  O11  1  0.195928  0.800626  0.041034  1
  O  O12  1  0.814211  0.189705  0.660513  1
  O  O13  1  0.185417  0.810321  0.338644  1
  O  O14  1  0.830925  0.173779  0.350465  1
  O  O15  1  0.169840  0.826005  0.647310  1
  O  O16  1  0.947484  0.203093  0.128485  1
  O  O17  1  0.130281  0.866916  0.855924  1
  O  O18  1  0.710262  0.287283  0.845642  1
  O  O19  1  0.290756  0.713518  0.155091  1
  O  O20  1  0.728942  0.270053  0.547282  1
  O  O21  1  0.271812  0.730351  0.451955  1
  O  O22  1  0.746119  0.254408  0.235729  1
  O  O23  1  0.253668  0.745614  0.763180  1
