# generated using pymatgen
data_SiO2
_symmetry_space_group_name_H-M   'P 1'
_cell_length_a   13.38371302
_cell_length_b   13.38371384
_cell_length_c   20.85589095
_cell_angle_alpha   90.00000000
_cell_angle_beta   90.00000000
_cell_angle_gamma   116.84496116
_symmetry_Int_Tables_number   1
_chemical_formula_structural   SiO2
_chemical_formula_sum   'Si56 O112'
_cell_volume   3333.18692566
_cell_formula_units_Z   56
loop_
 _symmetry_equiv_pos_site_id
 _symmetry_equiv_pos_as_xyz
  1  'x, y, z'
loop_
 _atom_site_type_symbol
 _atom_site_label
 _atom_site_symmetry_multiplicity
 _atom_site_fract_x
 _atom_site_fract_y
 _atom_site_fract_z
 _atom_site_occupancy
  Si  Si0  1  0.548747  0.451253  0.308199  1
  Si  Si1  1  0.048747  0.951253  0.691801  1
  Si  Si2  1  0.558694  0.815079  0.936050  1
  Si  Si3  1  0.315079  0.058694  0.936050  1
  Si  Si4  1  0.221973  0.355614  0.184803  1
  Si  Si5  1  0.050488  0.949512  0.945864  1
  Si  Si6  1  0.528202  0.471798  0.818909  1
  Si  Si7  1  0.364050  0.864050  0.876316  1
  Si  Si8  1  0.028202  0.971798  0.181091  1
  Si  Si9  1  0.135950  0.635950  0.876316  1
  Si  Si10  1  0.971798  0.028202  0.818909  1
  Si  Si11  1  0.182843  0.431721  0.692872  1
  Si  Si12  1  0.355614  0.221973  0.815197  1
  Si  Si13  1  0.431721  0.182843  0.307128  1
  Si  Si14  1  0.278027  0.144386  0.184803  1
  Si  Si15  1  0.317157  0.068279  0.692872  1
  Si  Si16  1  0.471798  0.528202  0.181091  1
  Si  Si17  1  0.644386  0.778027  0.184803  1
  Si  Si18  1  0.134378  0.634378  0.723698  1
  Si  Si19  1  0.645125  0.780588  0.431007  1
  Si  Si20  1  0.855614  0.721973  0.184803  1
  Si  Si21  1  0.865622  0.365622  0.276302  1
  Si  Si22  1  0.068279  0.317157  0.307128  1
  Si  Si23  1  0.721973  0.855614  0.815197  1
  Si  Si24  1  0.815079  0.558694  0.063950  1
  Si  Si25  1  0.466456  0.533544  0.432177  1
  Si  Si26  1  0.682843  0.931721  0.307128  1
  Si  Si27  1  0.684921  0.941306  0.063950  1
  Si  Si28  1  0.219412  0.354875  0.431007  1
  Si  Si29  1  0.966456  0.033544  0.567823  1
  Si  Si30  1  0.550488  0.449512  0.054136  1
  Si  Si31  1  0.778027  0.644386  0.815197  1
  Si  Si32  1  0.144386  0.278027  0.815197  1
  Si  Si33  1  0.280588  0.145125  0.431007  1
  Si  Si34  1  0.941306  0.684921  0.936050  1
  Si  Si35  1  0.780588  0.645125  0.568993  1
  Si  Si36  1  0.951253  0.048747  0.308199  1
  Si  Si37  1  0.058694  0.315079  0.063950  1
  Si  Si38  1  0.931721  0.682843  0.692872  1
  Si  Si39  1  0.533544  0.466456  0.567823  1
  Si  Si40  1  0.441306  0.184921  0.063950  1
  Si  Si41  1  0.568279  0.817157  0.692872  1
  Si  Si42  1  0.817157  0.568279  0.307128  1
  Si  Si43  1  0.854875  0.719412  0.431007  1
  Si  Si44  1  0.864050  0.364050  0.123684  1
  Si  Si45  1  0.449512  0.550488  0.945864  1
  Si  Si46  1  0.354875  0.219412  0.568993  1
  Si  Si47  1  0.719412  0.854875  0.568993  1
  Si  Si48  1  0.634378  0.134378  0.276302  1
  Si  Si49  1  0.033544  0.966456  0.432177  1
  Si  Si50  1  0.635950  0.135950  0.123684  1
  Si  Si51  1  0.145125  0.280588  0.568993  1
  Si  Si52  1  0.365622  0.865622  0.723698  1
  Si  Si53  1  0.184921  0.441306  0.936050  1
  Si  Si54  1  0.949512  0.050488  0.054136  1
  Si  Si55  1  0.451253  0.548747  0.691801  1
  O  O56  1  0.360637  0.973166  0.690650  1
  O  O57  1  0.648381  0.033414  0.090468  1
  O  O58  1  0.495024  0.317509  0.301125  1
  O  O59  1  0.522306  0.477694  0.125755  1
  O  O60  1  0.250000  0.250000  0.576616  1
  O  O61  1  0.001366  0.998634  0.748845  1
  O  O62  1  0.995024  0.817509  0.698875  1
  O  O63  1  0.526834  0.139363  0.309350  1
  O  O64  1  0.973166  0.360637  0.309350  1
  O  O65  1  0.336081  0.472528  0.175626  1
  O  O66  1  0.472528  0.336081  0.824374  1
  O  O67  1  0.163319  0.348742  0.880898  1
  O  O68  1  0.501781  0.684293  0.955936  1
  O  O69  1  0.888025  0.388025  0.199813  1
  O  O70  1  0.750000  0.250000  0.112962  1
  O  O71  1  0.026834  0.639363  0.690650  1
  O  O72  1  0.362368  0.145848  0.373813  1
  O  O73  1  0.148381  0.533414  0.909532  1
  O  O74  1  0.651258  0.836681  0.880898  1
  O  O75  1  0.663919  0.527472  0.824374  1
  O  O76  1  0.998634  0.001366  0.251155  1
  O  O77  1  0.867777  0.651829  0.245834  1
  O  O78  1  0.157412  0.342588  0.500000  1
  O  O79  1  0.498219  0.315707  0.044064  1
  O  O80  1  0.639363  0.026834  0.309350  1
  O  O81  1  0.473166  0.860637  0.690650  1
  O  O82  1  0.637632  0.854152  0.626187  1
  O  O83  1  0.386911  0.113089  0.000000  1
  O  O84  1  0.651829  0.867777  0.754166  1
  O  O85  1  0.315707  0.498219  0.955936  1
  O  O86  1  0.476083  0.330529  0.572804  1
  O  O87  1  0.815707  0.998219  0.044064  1
  O  O88  1  0.477694  0.522306  0.874245  1
  O  O89  1  0.860637  0.473166  0.309350  1
  O  O90  1  0.351619  0.966586  0.909532  1
  O  O91  1  0.145848  0.362368  0.626187  1
  O  O92  1  0.632223  0.848171  0.245834  1
  O  O93  1  0.682491  0.504976  0.301125  1
  O  O94  1  0.851619  0.466586  0.090468  1
  O  O95  1  0.348171  0.132223  0.245834  1
  O  O96  1  0.984480  0.015520  0.376374  1
  O  O97  1  0.354152  0.137632  0.626187  1
  O  O98  1  0.842588  0.657412  0.500000  1
  O  O99  1  0.023917  0.169471  0.572804  1
  O  O100  1  0.976083  0.830529  0.427196  1
  O  O101  1  0.027472  0.163919  0.824374  1
  O  O102  1  0.862368  0.645848  0.626187  1
  O  O103  1  0.000000  0.000000  0.500000  1
  O  O104  1  0.501366  0.498634  0.251155  1
  O  O105  1  0.484480  0.515520  0.623626  1
  O  O106  1  0.139363  0.526834  0.690650  1
  O  O107  1  0.684293  0.501781  0.044064  1
  O  O108  1  0.854152  0.637632  0.373813  1
  O  O109  1  0.250000  0.250000  0.196936  1
  O  O110  1  0.317509  0.495024  0.698875  1
  O  O111  1  0.250000  0.750000  0.711884  1
  O  O112  1  0.250000  0.750000  0.887038  1
  O  O113  1  0.966586  0.351619  0.090468  1
  O  O114  1  0.645848  0.862368  0.373813  1
  O  O115  1  0.663319  0.848742  0.119102  1
  O  O116  1  0.498634  0.501366  0.748845  1
  O  O117  1  0.830529  0.976083  0.572804  1
  O  O118  1  0.750000  0.750000  0.196936  1
  O  O119  1  0.504976  0.682491  0.698875  1
  O  O120  1  0.367777  0.151829  0.754166  1
  O  O121  1  0.515520  0.484480  0.376374  1
  O  O122  1  0.250000  0.250000  0.803064  1
  O  O123  1  0.466586  0.851619  0.909532  1
  O  O124  1  0.527472  0.663919  0.175626  1
  O  O125  1  0.500000  0.500000  0.500000  1
  O  O126  1  0.342588  0.157412  0.500000  1
  O  O127  1  0.000000  0.000000  0.000000  1
  O  O128  1  0.336681  0.151258  0.880898  1
  O  O129  1  0.750000  0.750000  0.576616  1
  O  O130  1  0.836081  0.972528  0.824374  1
  O  O131  1  0.004976  0.182491  0.301125  1
  O  O132  1  0.137632  0.354152  0.373813  1
  O  O133  1  0.169471  0.023917  0.427196  1
  O  O134  1  0.886911  0.613089  0.000000  1
  O  O135  1  0.848742  0.663319  0.880898  1
  O  O136  1  0.750000  0.750000  0.423384  1
  O  O137  1  0.613089  0.886911  0.000000  1
  O  O138  1  0.848171  0.632223  0.754166  1
  O  O139  1  0.836681  0.651258  0.119102  1
  O  O140  1  0.151258  0.336681  0.119102  1
  O  O141  1  0.817509  0.995024  0.301125  1
  O  O142  1  0.972528  0.836081  0.175626  1
  O  O143  1  0.022306  0.977694  0.874245  1
  O  O144  1  0.132223  0.348171  0.754166  1
  O  O145  1  0.250000  0.250000  0.423384  1
  O  O146  1  0.033414  0.648381  0.909532  1
  O  O147  1  0.151829  0.367777  0.245834  1
  O  O148  1  0.182491  0.004976  0.698875  1
  O  O149  1  0.001781  0.184293  0.044064  1
  O  O150  1  0.015520  0.984480  0.623626  1
  O  O151  1  0.111975  0.611975  0.800187  1
  O  O152  1  0.388025  0.888025  0.800187  1
  O  O153  1  0.500000  0.500000  0.000000  1
  O  O154  1  0.750000  0.250000  0.288116  1
  O  O155  1  0.977694  0.022306  0.125755  1
  O  O156  1  0.533414  0.148381  0.090468  1
  O  O157  1  0.184293  0.001781  0.955936  1
  O  O158  1  0.750000  0.750000  0.803064  1
  O  O159  1  0.669471  0.523917  0.572804  1
  O  O160  1  0.611975  0.111975  0.199813  1
  O  O161  1  0.657412  0.842588  0.500000  1
  O  O162  1  0.523917  0.669471  0.427196  1
  O  O163  1  0.998219  0.815707  0.955936  1
  O  O164  1  0.348742  0.163319  0.119102  1
  O  O165  1  0.163919  0.027472  0.175626  1
  O  O166  1  0.330529  0.476083  0.427196  1
  O  O167  1  0.113089  0.386911  0.000000  1
