# generated using pymatgen
data_Na7Bi3P12(Pb5O24)2
_symmetry_space_group_name_H-M   'P 1'
_cell_length_a   9.85444130
_cell_length_b   9.77389174
_cell_length_c   14.46561786
_cell_angle_alpha   89.79203695
_cell_angle_beta   90.56891480
_cell_angle_gamma   120.20899307
_symmetry_Int_Tables_number   1
_chemical_formula_structural   Na7Bi3P12(Pb5O24)2
_chemical_formula_sum   'Na7 Bi3 P12 Pb10 O48'
_cell_volume   1204.00069343
_cell_formula_units_Z   1
loop_
 _symmetry_equiv_pos_site_id
 _symmetry_equiv_pos_as_xyz
  1  'x, y, z'
loop_
 _atom_site_type_symbol
 _atom_site_label
 _atom_site_symmetry_multiplicity
 _atom_site_fract_x
 _atom_site_fract_y
 _atom_site_fract_z
 _atom_site_occupancy
  Na  Na0  1  0.329102  0.662939  0.496866  1
  Na  Na1  1  0.327869  0.665285  0.999042  1
  Na  Na2  1  0.244670  0.990814  0.861733  1
  Na  Na3  1  0.647526  0.323133  0.255774  1
  Na  Na4  1  0.659589  0.323478  0.738215  1
  Na  Na5  1  0.649403  0.324296  0.505855  1
  Na  Na6  1  0.273804  0.004205  0.389112  1
  Bi  Bi7  1  0.326398  0.682920  0.258288  1
  Bi  Bi8  1  0.325913  0.683378  0.756577  1
  Bi  Bi9  1  0.629370  0.322914  0.002465  1
  P  P10  1  0.012248  0.404223  0.122013  1
  P  P11  1  0.020556  0.401800  0.624743  1
  P  P12  1  0.374008  0.968692  0.122220  1
  P  P13  1  0.369566  0.969508  0.626071  1
  P  P14  1  0.388376  0.374206  0.370175  1
  P  P15  1  0.397663  0.378130  0.875114  1
  P  P16  1  0.581512  0.615220  0.123192  1
  P  P17  1  0.592908  0.624567  0.623519  1
  P  P18  1  0.621756  0.026553  0.370308  1
  P  P19  1  0.612857  0.030197  0.875910  1
  P  P20  1  0.971894  0.601781  0.368932  1
  P  P21  1  0.974683  0.604934  0.873653  1
  Pb  Pb22  1  0.991870  0.259193  0.377691  1
  Pb  Pb23  1  0.984131  0.261500  0.869214  1
  Pb  Pb24  1  0.238930  0.259743  0.130424  1
  Pb  Pb25  1  0.263197  0.262266  0.614605  1
  Pb  Pb26  1  0.725608  0.733664  0.868763  1
  Pb  Pb27  1  0.731463  0.732978  0.375491  1
  Pb  Pb28  1  0.001365  0.752440  0.120636  1
  Pb  Pb29  1  0.986400  0.730269  0.614483  1
  Pb  Pb30  1  0.740239  0.995645  0.124744  1
  Pb  Pb31  1  0.733912  0.005222  0.616343  1
  O  O32  1  0.252308  0.918500  0.042911  1
  O  O33  1  0.239976  0.922341  0.550981  1
  O  O34  1  0.286752  0.914709  0.216778  1
  O  O35  1  0.286322  0.895329  0.721391  1
  O  O36  1  0.106587  0.591125  0.128718  1
  O  O37  1  0.118655  0.590156  0.623770  1
  O  O38  1  0.154138  0.669668  0.367596  1
  O  O39  1  0.152735  0.653806  0.873795  1
  O  O40  1  0.070343  0.353305  0.036311  1
  O  O41  1  0.068624  0.348132  0.208583  1
  O  O42  1  0.075734  0.340227  0.541790  1
  O  O43  1  0.079319  0.355023  0.713621  1
  O  O44  1  0.468561  0.877955  0.115738  1
  O  O45  1  0.463808  0.880437  0.606963  1
  O  O46  1  0.356340  0.511775  0.877022  1
  O  O47  1  0.330628  0.498114  0.367825  1
  O  O48  1  0.500411  0.846426  0.870305  1
  O  O49  1  0.502506  0.841510  0.367941  1
  O  O50  1  0.397102  0.530055  0.123521  1
  O  O51  1  0.408440  0.535335  0.615038  1
  O  O52  1  0.342637  0.273231  0.281068  1
  O  O53  1  0.295929  0.246081  0.807411  1
  O  O54  1  0.311621  0.257622  0.451986  1
  O  O55  1  0.385503  0.303666  0.974882  1
  O  O56  1  0.664633  0.744499  0.541708  1
  O  O57  1  0.647388  0.725453  0.037914  1
  O  O58  1  0.637432  0.725280  0.210018  1
  O  O59  1  0.633728  0.732892  0.712166  1
  O  O60  1  0.571541  0.464651  0.382360  1
  O  O61  1  0.581234  0.457431  0.856295  1
  O  O62  1  0.491695  0.150720  0.119651  1
  O  O63  1  0.477394  0.148509  0.630929  1
  O  O64  1  0.637215  0.492170  0.125033  1
  O  O65  1  0.653687  0.508837  0.627081  1
  O  O66  1  0.536774  0.118727  0.383868  1
  O  O67  1  0.517438  0.116481  0.885895  1
  O  O68  1  0.910025  0.645545  0.281646  1
  O  O69  1  0.934792  0.679364  0.451873  1
  O  O70  1  0.946180  0.705731  0.801140  1
  O  O71  1  0.919194  0.633821  0.968313  1
  O  O72  1  0.833684  0.337129  0.120367  1
  O  O73  1  0.845176  0.342936  0.620623  1
  O  O74  1  0.883721  0.419210  0.381115  1
  O  O75  1  0.873700  0.423497  0.853402  1
  O  O76  1  0.724901  0.080147  0.281803  1
  O  O77  1  0.720377  0.087783  0.789610  1
  O  O78  1  0.724308  0.075257  0.961922  1
  O  O79  1  0.742020  0.057314  0.451150  1
