# generated using pymatgen
data_Ba2NF
_symmetry_space_group_name_H-M   'P 1'
_cell_length_a   8.11944210
_cell_length_b   10.78773845
_cell_length_c   7.09986111
_cell_angle_alpha   29.12238888
_cell_angle_beta   55.08936893
_cell_angle_gamma   41.14237396
_symmetry_Int_Tables_number   1
_chemical_formula_structural   Ba2NF
_chemical_formula_sum   'Ba4 N2 F2'
_cell_volume   191.88287643
_cell_formula_units_Z   2
loop_
 _symmetry_equiv_pos_site_id
 _symmetry_equiv_pos_as_xyz
  1  'x, y, z'
loop_
 _atom_site_type_symbol
 _atom_site_label
 _atom_site_symmetry_multiplicity
 _atom_site_fract_x
 _atom_site_fract_y
 _atom_site_fract_z
 _atom_site_occupancy
  Ba  Ba0  1  0.233130  0.997267  0.542562  1
  Ba  Ba1  1  0.770561  0.999269  0.461775  1
  Ba  Ba2  1  0.521160  0.496994  0.464122  1
  Ba  Ba3  1  0.980819  0.498764  0.540815  1
  N  N4  1  0.998639  0.999410  0.001638  1
  N  N5  1  0.742198  0.504643  0.994727  1
  F  F6  1  0.501219  0.998098  0.002060  1
  F  F7  1  0.249861  0.502725  0.996118  1
