# generated using pymatgen
data_Nd2Fe14B
_symmetry_space_group_name_H-M   'P 1'
_cell_length_a   8.77460739
_cell_length_b   8.77460739
_cell_length_c   12.55357051
_cell_angle_alpha   90.00000000
_cell_angle_beta   90.00000000
_cell_angle_gamma   90.00000000
_symmetry_Int_Tables_number   1
_chemical_formula_structural   Nd2Fe14B
_chemical_formula_sum   'Nd8 Fe56 B4'
_cell_volume   966.54627925
_cell_formula_units_Z   4
loop_
 _symmetry_equiv_pos_site_id
 _symmetry_equiv_pos_as_xyz
  1  'x, y, z'
loop_
 _atom_site_type_symbol
 _atom_site_label
 _atom_site_symmetry_multiplicity
 _atom_site_fract_x
 _atom_site_fract_y
 _atom_site_fract_z
 _atom_site_occupancy
  Nd  Nd0  1  0.241296  0.241296  0.000000  1
  Nd  Nd1  1  0.679980  0.679980  0.500000  1
  Nd  Nd2  1  0.258704  0.741296  0.500000  1
  Nd  Nd3  1  0.179980  0.820020  0.000000  1
  Nd  Nd4  1  0.820020  0.179980  0.000000  1
  Nd  Nd5  1  0.741296  0.258704  0.500000  1
  Nd  Nd6  1  0.320020  0.320020  0.500000  1
  Nd  Nd7  1  0.758704  0.758704  0.000000  1
  Fe  Fe8  1  0.191899  0.808101  0.251148  1
  Fe  Fe9  1  0.191899  0.808101  0.748852  1
  Fe  Fe10  1  0.528689  0.143561  0.321070  1
  Fe  Fe11  1  0.231610  0.542392  0.885854  1
  Fe  Fe12  1  0.471311  0.856439  0.678930  1
  Fe  Fe13  1  0.500000  0.000000  0.500000  1
  Fe  Fe14  1  0.268390  0.042392  0.385854  1
  Fe  Fe15  1  0.957608  0.731610  0.614146  1
  Fe  Fe16  1  0.000000  0.000000  0.101788  1
  Fe  Fe17  1  0.971311  0.643561  0.821070  1
  Fe  Fe18  1  0.000000  0.000000  0.898212  1
  Fe  Fe19  1  0.356439  0.028689  0.178930  1
  Fe  Fe20  1  0.471311  0.856439  0.321070  1
  Fe  Fe21  1  0.042392  0.268390  0.385854  1
  Fe  Fe22  1  0.856439  0.471311  0.321070  1
  Fe  Fe23  1  0.143561  0.528689  0.678930  1
  Fe  Fe24  1  0.731610  0.957608  0.385854  1
  Fe  Fe25  1  0.102548  0.102548  0.754645  1
  Fe  Fe26  1  0.768390  0.457608  0.114146  1
  Fe  Fe27  1  0.691899  0.691899  0.751148  1
  Fe  Fe28  1  0.500000  0.500000  0.398212  1
  Fe  Fe29  1  0.457608  0.768390  0.114146  1
  Fe  Fe30  1  0.356439  0.028689  0.821070  1
  Fe  Fe31  1  0.308101  0.308101  0.751148  1
  Fe  Fe32  1  0.897452  0.897452  0.754645  1
  Fe  Fe33  1  0.143561  0.528689  0.321070  1
  Fe  Fe34  1  0.602548  0.397452  0.745355  1
  Fe  Fe35  1  0.643561  0.971311  0.821070  1
  Fe  Fe36  1  0.268390  0.042392  0.614146  1
  Fe  Fe37  1  0.731610  0.957608  0.614146  1
  Fe  Fe38  1  0.397452  0.602548  0.745355  1
  Fe  Fe39  1  0.897452  0.897452  0.245355  1
  Fe  Fe40  1  0.971311  0.643561  0.178930  1
  Fe  Fe41  1  0.457608  0.768390  0.885854  1
  Fe  Fe42  1  0.808101  0.191899  0.748852  1
  Fe  Fe43  1  0.957608  0.731610  0.385854  1
  Fe  Fe44  1  0.542392  0.231610  0.114146  1
  Fe  Fe45  1  0.102548  0.102548  0.245355  1
  Fe  Fe46  1  0.028689  0.356439  0.178930  1
  Fe  Fe47  1  0.500000  0.000000  0.000000  1
  Fe  Fe48  1  0.231610  0.542392  0.114146  1
  Fe  Fe49  1  0.542392  0.231610  0.885854  1
  Fe  Fe50  1  0.856439  0.471311  0.678930  1
  Fe  Fe51  1  0.500000  0.500000  0.601788  1
  Fe  Fe52  1  0.691899  0.691899  0.248852  1
  Fe  Fe53  1  0.528689  0.143561  0.678930  1
  Fe  Fe54  1  0.042392  0.268390  0.614146  1
  Fe  Fe55  1  0.643561  0.971311  0.178930  1
  Fe  Fe56  1  0.602548  0.397452  0.254645  1
  Fe  Fe57  1  0.308101  0.308101  0.248852  1
  Fe  Fe58  1  0.768390  0.457608  0.885854  1
  Fe  Fe59  1  0.028689  0.356439  0.821070  1
  Fe  Fe60  1  0.808101  0.191899  0.251148  1
  Fe  Fe61  1  0.397452  0.602548  0.254645  1
  Fe  Fe62  1  0.000000  0.500000  0.500000  1
  Fe  Fe63  1  0.000000  0.500000  0.000000  1
  B  B64  1  0.607382  0.392618  0.000000  1
  B  B65  1  0.107382  0.107382  0.500000  1
  B  B66  1  0.892618  0.892618  0.500000  1
  B  B67  1  0.392618  0.607382  0.000000  1
