# generated using pymatgen
data_Tl2FeC5N6O
_symmetry_space_group_name_H-M   'P 1'
_cell_length_a   6.85984355
_cell_length_b   9.27097406
_cell_length_c   9.27097478
_cell_angle_alpha   86.77616546
_cell_angle_beta   73.15396212
_cell_angle_gamma   73.15395844
_symmetry_Int_Tables_number   1
_chemical_formula_structural   Tl2FeC5N6O
_chemical_formula_sum   'Tl4 Fe2 C10 N12 O2'
_cell_volume   539.84416463
_cell_formula_units_Z   2
loop_
 _symmetry_equiv_pos_site_id
 _symmetry_equiv_pos_as_xyz
  1  'x, y, z'
loop_
 _atom_site_type_symbol
 _atom_site_label
 _atom_site_symmetry_multiplicity
 _atom_site_fract_x
 _atom_site_fract_y
 _atom_site_fract_z
 _atom_site_occupancy
  Tl  Tl0  1  0.998940  0.966911  0.031323  1
  Tl  Tl1  1  0.498940  0.031323  0.966911  1
  Tl  Tl2  1  0.469677  0.520328  0.749787  1
  Tl  Tl3  1  0.969677  0.749787  0.520328  1
  Fe  Fe4  1  0.206588  0.139460  0.552346  1
  Fe  Fe5  1  0.706588  0.552346  0.139460  1
  C  C6  1  0.328709  0.938505  0.617338  1
  C  C7  1  0.201120  0.213595  0.744002  1
  C  C8  1  0.160563  0.070971  0.375241  1
  C  C9  1  0.701120  0.744002  0.213595  1
  C  C10  1  0.660563  0.375241  0.070971  1
  C  C11  1  0.023507  0.335904  0.529544  1
  C  C12  1  0.938632  0.102591  0.651613  1
  C  C13  1  0.828709  0.617338  0.938505  1
  C  C14  1  0.523507  0.529544  0.335904  1
  C  C15  1  0.438632  0.651613  0.102591  1
  N  N16  1  0.626112  0.266923  0.037421  1
  N  N17  1  0.126112  0.037421  0.266923  1
  N  N18  1  0.774669  0.077896  0.705470  1
  N  N19  1  0.706560  0.859581  0.255821  1
  N  N20  1  0.943498  0.459519  0.162999  1
  N  N21  1  0.403901  0.823415  0.666926  1
  N  N22  1  0.206560  0.255821  0.859581  1
  N  N23  1  0.900921  0.452800  0.523013  1
  N  N24  1  0.400921  0.523013  0.452800  1
  N  N25  1  0.274669  0.705470  0.077896  1
  N  N26  1  0.443498  0.162999  0.459519  1
  N  N27  1  0.903901  0.666926  0.823415  1
  O  O28  1  0.609402  0.173796  0.396560  1
  O  O29  1  0.109402  0.396560  0.173796  1
