# generated using pymatgen
data_Na17Zr12Si11P7O72
_symmetry_space_group_name_H-M   'P 1'
_cell_length_a   9.34759709
_cell_length_b   9.37220851
_cell_length_c   28.23257858
_cell_angle_alpha   58.75327819
_cell_angle_beta   58.89562846
_cell_angle_gamma   58.83604354
_symmetry_Int_Tables_number   1
_chemical_formula_structural   Na17Zr12Si11P7O72
_chemical_formula_sum   'Na17 Zr12 Si11 P7 O72'
_cell_volume   1702.15469453
_cell_formula_units_Z   1
loop_
 _symmetry_equiv_pos_site_id
 _symmetry_equiv_pos_as_xyz
  1  'x, y, z'
loop_
 _atom_site_type_symbol
 _atom_site_label
 _atom_site_symmetry_multiplicity
 _atom_site_fract_x
 _atom_site_fract_y
 _atom_site_fract_z
 _atom_site_occupancy
  Na  Na0  1  0.298300  0.463322  0.224464  1
  Na  Na1  1  0.750714  0.125744  0.122586  1
  Na  Na2  1  0.256775  0.899869  0.205713  1
  Na  Na3  1  0.639109  0.252099  0.293976  1
  Na  Na4  1  0.871984  0.622691  0.083138  1
  Na  Na5  1  0.748273  0.120830  0.462471  1
  Na  Na6  1  0.440909  0.506038  0.513235  1
  Na  Na7  1  0.254550  0.896015  0.544209  1
  Na  Na8  1  0.620224  0.249404  0.631014  1
  Na  Na9  1  0.857458  0.565307  0.414032  1
  Na  Na10  1  0.049654  0.920949  0.348807  1
  Na  Na11  1  0.752522  0.122749  0.796400  1
  Na  Na12  1  0.444790  0.503132  0.844854  1
  Na  Na13  1  0.247954  0.902036  0.885665  1
  Na  Na14  1  0.647216  0.252438  0.968272  1
  Na  Na15  1  0.864679  0.560339  0.746391  1
  Na  Na16  1  0.062381  0.912500  0.681819  1
  Zr  Zr17  1  0.148612  0.136976  0.044032  1
  Zr  Zr18  1  0.356105  0.361492  0.116943  1
  Zr  Zr19  1  0.148163  0.144105  0.378457  1
  Zr  Zr20  1  0.349598  0.362504  0.453176  1
  Zr  Zr21  1  0.643819  0.647193  0.218635  1
  Zr  Zr22  1  0.151198  0.144076  0.710055  1
  Zr  Zr23  1  0.851535  0.843494  0.283129  1
  Zr  Zr24  1  0.349701  0.364918  0.784276  1
  Zr  Zr25  1  0.652092  0.647850  0.550406  1
  Zr  Zr26  1  0.848522  0.844844  0.618353  1
  Zr  Zr27  1  0.656309  0.652376  0.881989  1
  Zr  Zr28  1  0.849371  0.847361  0.949910  1
  Si  Si29  1  0.038714  0.747003  0.156039  1
  Si  Si30  1  0.453478  0.036291  0.249813  1
  Si  Si31  1  0.750724  0.460096  0.012663  1
  Si  Si32  1  0.245869  0.543943  0.321406  1
  Si  Si33  1  0.044494  0.745620  0.488603  1
  Si  Si34  1  0.452602  0.040454  0.584664  1
  Si  Si35  1  0.744083  0.452043  0.349109  1
  Si  Si36  1  0.252150  0.543317  0.652219  1
  Si  Si37  1  0.048791  0.747440  0.821450  1
  Si  Si38  1  0.459387  0.041620  0.914877  1
  Si  Si39  1  0.747653  0.451420  0.681421  1
  P  P40  1  0.539227  0.961951  0.084259  1
  P  P41  1  0.962145  0.247493  0.176848  1
  P  P42  1  0.543114  0.961395  0.417165  1
  P  P43  1  0.956160  0.246190  0.513475  1
  P  P44  1  0.253283  0.532151  0.986010  1
  P  P45  1  0.539966  0.956788  0.751969  1
  P  P46  1  0.953702  0.249408  0.845414  1
  O  O47  1  0.139427  0.254875  0.165241  1
  O  O48  1  0.286764  0.498035  0.039699  1
  O  O49  1  0.055145  0.930779  0.102118  1
  O  O50  1  0.529204  0.120286  0.091693  1
  O  O51  1  0.209269  0.572278  0.144410  1
  O  O52  1  0.028952  0.750501  0.215710  1
  O  O53  1  0.278277  0.063262  0.308067  1
  O  O54  1  0.431789  0.217199  0.192139  1
  O  O55  1  0.580763  0.421369  0.071647  1
  O  O56  1  0.205908  0.376150  0.331946  1
  O  O57  1  0.071133  0.727944  0.314826  1
  O  O58  1  0.363346  0.002467  0.080471  1
  O  O59  1  0.633598  0.998461  0.257859  1
  O  O60  1  0.126262  0.266900  0.501761  1
  O  O61  1  0.923211  0.283693  0.023237  1
  O  O62  1  0.774672  0.633913  0.003878  1
  O  O63  1  0.416046  0.562676  0.259211  1
  O  O64  1  0.284625  0.502329  0.378156  1
  O  O65  1  0.572767  0.788291  0.137564  1
  O  O66  1  0.059821  0.924120  0.430274  1
  O  O67  1  0.701797  0.935571  0.027369  1
  O  O68  1  0.521438  0.109724  0.432562  1
  O  O69  1  0.222718  0.573432  0.480753  1
  O  O70  1  0.011576  0.779685  0.545302  1
  O  O71  1  0.969899  0.237208  0.122846  1
  O  O72  1  0.800761  0.414159  0.189890  1
  O  O73  1  0.469507  0.872089  0.239063  1
  O  O74  1  0.272206  0.050479  0.642260  1
  O  O75  1  0.932986  0.081943  0.233760  1
  O  O76  1  0.435653  0.221885  0.527289  1
  O  O77  1  0.704325  0.482379  0.293970  1
  O  O78  1  0.580791  0.419455  0.411877  1
  O  O79  1  0.217996  0.367686  0.666966  1
  O  O80  1  0.076767  0.726734  0.645735  1
  O  O81  1  0.856856  0.729579  0.167731  1
  O  O82  1  0.372049  0.008217  0.408162  1
  O  O83  1  0.622614  0.007807  0.597193  1
  O  O84  1  0.120994  0.278236  0.831779  1
  O  O85  1  0.915378  0.270853  0.359967  1
  O  O86  1  0.777964  0.625537  0.337174  1
  O  O87  1  0.420542  0.568193  0.589324  1
  O  O88  1  0.291889  0.511510  0.707560  1
  O  O89  1  0.572439  0.777910  0.468225  1
  O  O90  1  0.061969  0.925295  0.763222  1
  O  O91  1  0.708908  0.946434  0.360112  1
  O  O92  1  0.514565  0.109469  0.765951  1
  O  O93  1  0.223364  0.574097  0.812475  1
  O  O94  1  0.022518  0.775691  0.878205  1
  O  O95  1  0.974378  0.223852  0.459612  1
  O  O96  1  0.785891  0.412351  0.522191  1
  O  O97  1  0.489664  0.876053  0.568134  1
  O  O98  1  0.293685  0.054911  0.975210  1
  O  O99  1  0.929700  0.084589  0.570832  1
  O  O100  1  0.436031  0.222131  0.857878  1
  O  O101  1  0.710007  0.483687  0.625276  1
  O  O102  1  0.583293  0.418941  0.743536  1
  O  O103  1  0.233915  0.365811  0.995201  1
  O  O104  1  0.084860  0.700739  0.979911  1
  O  O105  1  0.872843  0.714373  0.498271  1
  O  O106  1  0.374393  0.000497  0.740746  1
  O  O107  1  0.644034  0.004354  0.920039  1
  O  O108  1  0.918345  0.270946  0.692274  1
  O  O109  1  0.781684  0.623862  0.670245  1
  O  O110  1  0.413419  0.567281  0.927459  1
  O  O111  1  0.564966  0.775664  0.804446  1
  O  O112  1  0.711523  0.935803  0.696792  1
  O  O113  1  0.969343  0.227526  0.791990  1
  O  O114  1  0.780771  0.414158  0.855508  1
  O  O115  1  0.486049  0.876135  0.901302  1
  O  O116  1  0.932773  0.086137  0.902932  1
  O  O117  1  0.718010  0.488401  0.955812  1
  O  O118  1  0.872217  0.720940  0.831863  1
