# generated using pymatgen
data_Ni(XeF8)2
_symmetry_space_group_name_H-M   'P 1'
_cell_length_a   11.23662398
_cell_length_b   11.44905423
_cell_length_c   19.05261346
_cell_angle_alpha   90.00000000
_cell_angle_beta   90.00000000
_cell_angle_gamma   90.00000000
_symmetry_Int_Tables_number   1
_chemical_formula_structural   Ni(XeF8)2
_chemical_formula_sum   'Ni8 Xe16 F128'
_cell_volume   2451.09428302
_cell_formula_units_Z   8
loop_
 _symmetry_equiv_pos_site_id
 _symmetry_equiv_pos_as_xyz
  1  'x, y, z'
loop_
 _atom_site_type_symbol
 _atom_site_label
 _atom_site_symmetry_multiplicity
 _atom_site_fract_x
 _atom_site_fract_y
 _atom_site_fract_z
 _atom_site_occupancy
  Ni  Ni0  1  0.475671  0.037799  0.122751  1
  Ni  Ni1  1  0.975671  0.462201  0.122751  1
  Ni  Ni2  1  0.524329  0.462201  0.622751  1
  Ni  Ni3  1  0.024329  0.537799  0.877249  1
  Ni  Ni4  1  0.475671  0.537799  0.377249  1
  Ni  Ni5  1  0.975671  0.962201  0.377249  1
  Ni  Ni6  1  0.524329  0.962201  0.877249  1
  Ni  Ni7  1  0.024329  0.037799  0.622751  1
  Xe  Xe8  1  0.808082  0.309403  0.992286  1
  Xe  Xe9  1  0.191918  0.190597  0.492286  1
  Xe  Xe10  1  0.481751  0.503016  0.788547  1
  Xe  Xe11  1  0.808082  0.809403  0.507714  1
  Xe  Xe12  1  0.308082  0.690597  0.507714  1
  Xe  Xe13  1  0.518249  0.996984  0.288547  1
  Xe  Xe14  1  0.481751  0.003016  0.711453  1
  Xe  Xe15  1  0.308082  0.190597  0.992286  1
  Xe  Xe16  1  0.691918  0.809403  0.007714  1
  Xe  Xe17  1  0.018249  0.003016  0.211453  1
  Xe  Xe18  1  0.691918  0.309403  0.492286  1
  Xe  Xe19  1  0.981751  0.996984  0.788547  1
  Xe  Xe20  1  0.191918  0.690597  0.007714  1
  Xe  Xe21  1  0.018249  0.503016  0.288547  1
  Xe  Xe22  1  0.981751  0.496984  0.711453  1
  Xe  Xe23  1  0.518249  0.496984  0.211453  1
  F  F24  1  0.171317  0.080579  0.984480  1
  F  F25  1  0.689132  0.804524  0.112339  1
  F  F26  1  0.328683  0.580579  0.015520  1
  F  F27  1  0.563160  0.864863  0.668697  1
  F  F28  1  0.436840  0.135137  0.331303  1
  F  F29  1  0.054575  0.540539  0.054199  1
  F  F30  1  0.389765  0.442007  0.673285  1
  F  F31  1  0.936840  0.364863  0.331303  1
  F  F32  1  0.541638  0.460341  0.111037  1
  F  F33  1  0.054575  0.040539  0.445801  1
  F  F34  1  0.458362  0.539659  0.888963  1
  F  F35  1  0.113439  0.149043  0.220898  1
  F  F36  1  0.907249  0.665316  0.512336  1
  F  F37  1  0.671077  0.081226  0.305348  1
  F  F38  1  0.955448  0.593039  0.174490  1
  F  F39  1  0.889765  0.057993  0.673285  1
  F  F40  1  0.597282  0.388456  0.694369  1
  F  F41  1  0.592751  0.165316  0.487664  1
  F  F42  1  0.671077  0.581226  0.194652  1
  F  F43  1  0.671317  0.919421  0.515520  1
  F  F44  1  0.041638  0.539659  0.388963  1
  F  F45  1  0.063160  0.135137  0.831303  1
  F  F46  1  0.110235  0.942007  0.326715  1
  F  F47  1  0.907249  0.165316  0.987664  1
  F  F48  1  0.491526  0.671519  0.426323  1
  F  F49  1  0.554575  0.459461  0.445801  1
  F  F50  1  0.491526  0.171519  0.073677  1
  F  F51  1  0.628139  0.096567  0.693008  1
  F  F52  1  0.945425  0.459461  0.945801  1
  F  F53  1  0.092751  0.834684  0.012336  1
  F  F54  1  0.063160  0.635137  0.668697  1
  F  F55  1  0.744497  0.261549  0.587471  1
  F  F56  1  0.544552  0.093039  0.825510  1
  F  F57  1  0.689132  0.304524  0.387661  1
  F  F58  1  0.386561  0.149043  0.720898  1
  F  F59  1  0.337829  0.019377  0.075869  1
  F  F60  1  0.662171  0.980623  0.924131  1
  F  F61  1  0.128139  0.403433  0.693008  1
  F  F62  1  0.544552  0.593039  0.674490  1
  F  F63  1  0.837829  0.980623  0.424131  1
  F  F64  1  0.041638  0.039659  0.111037  1
  F  F65  1  0.828683  0.419421  0.484480  1
  F  F66  1  0.189132  0.195476  0.387661  1
  F  F67  1  0.128139  0.903433  0.806992  1
  F  F68  1  0.681013  0.195821  0.971169  1
  F  F69  1  0.886561  0.850957  0.779102  1
  F  F70  1  0.613439  0.350957  0.220898  1
  F  F71  1  0.936840  0.864863  0.168697  1
  F  F72  1  0.597282  0.888456  0.805631  1
  F  F73  1  0.328923  0.918774  0.694652  1
  F  F74  1  0.958362  0.460341  0.611037  1
  F  F75  1  0.318987  0.304179  0.471169  1
  F  F76  1  0.008474  0.671519  0.926323  1
  F  F77  1  0.828683  0.919421  0.015520  1
  F  F78  1  0.113439  0.649043  0.279102  1
  F  F79  1  0.828923  0.081226  0.805348  1
  F  F80  1  0.991526  0.328481  0.073677  1
  F  F81  1  0.681013  0.695821  0.528831  1
  F  F82  1  0.902718  0.888456  0.305631  1
  F  F83  1  0.402718  0.611544  0.305631  1
  F  F84  1  0.097282  0.111544  0.694369  1
  F  F85  1  0.337829  0.519377  0.424131  1
  F  F86  1  0.613439  0.850957  0.279102  1
  F  F87  1  0.810868  0.804524  0.612339  1
  F  F88  1  0.255503  0.238451  0.087471  1
  F  F89  1  0.458362  0.039659  0.611037  1
  F  F90  1  0.407249  0.334684  0.987664  1
  F  F91  1  0.402718  0.111544  0.194369  1
  F  F92  1  0.310868  0.195476  0.887661  1
  F  F93  1  0.818987  0.195821  0.471169  1
  F  F94  1  0.955448  0.093039  0.325510  1
  F  F95  1  0.828923  0.581226  0.694652  1
  F  F96  1  0.318987  0.804179  0.028831  1
  F  F97  1  0.162171  0.019377  0.575869  1
  F  F98  1  0.171077  0.418774  0.305348  1
  F  F99  1  0.810868  0.304524  0.887661  1
  F  F100  1  0.407249  0.834684  0.512336  1
  F  F101  1  0.244497  0.738451  0.912529  1
  F  F102  1  0.755503  0.261549  0.087471  1
  F  F103  1  0.563160  0.364863  0.831303  1
  F  F104  1  0.902718  0.388456  0.194369  1
  F  F105  1  0.386561  0.649043  0.779102  1
  F  F106  1  0.328683  0.080579  0.484480  1
  F  F107  1  0.181013  0.304179  0.971169  1
  F  F108  1  0.837829  0.480623  0.075869  1
  F  F109  1  0.958362  0.960341  0.888963  1
  F  F110  1  0.445425  0.540539  0.554199  1
  F  F111  1  0.445425  0.040539  0.945801  1
  F  F112  1  0.189132  0.695476  0.112339  1
  F  F113  1  0.871861  0.596567  0.306992  1
  F  F114  1  0.662171  0.480623  0.575869  1
  F  F115  1  0.889765  0.557993  0.826715  1
  F  F116  1  0.097282  0.611544  0.805631  1
  F  F117  1  0.991526  0.828481  0.426323  1
  F  F118  1  0.110235  0.442007  0.173285  1
  F  F119  1  0.171317  0.580579  0.515520  1
  F  F120  1  0.541638  0.960341  0.388963  1
  F  F121  1  0.310868  0.695476  0.612339  1
  F  F122  1  0.886561  0.350957  0.720898  1
  F  F123  1  0.255503  0.738451  0.412529  1
  F  F124  1  0.871861  0.096567  0.193008  1
  F  F125  1  0.328923  0.418774  0.805348  1
  F  F126  1  0.671317  0.419421  0.984480  1
  F  F127  1  0.744497  0.761549  0.912529  1
  F  F128  1  0.610235  0.557993  0.326715  1
  F  F129  1  0.455448  0.406961  0.325510  1
  F  F130  1  0.508474  0.328481  0.573677  1
  F  F131  1  0.455448  0.906961  0.174490  1
  F  F132  1  0.244497  0.238451  0.587471  1
  F  F133  1  0.371861  0.403433  0.193008  1
  F  F134  1  0.818987  0.695821  0.028831  1
  F  F135  1  0.371861  0.903433  0.306992  1
  F  F136  1  0.628139  0.596567  0.806992  1
  F  F137  1  0.171077  0.918774  0.194652  1
  F  F138  1  0.181013  0.804179  0.528831  1
  F  F139  1  0.508474  0.828481  0.926323  1
  F  F140  1  0.092751  0.334684  0.487664  1
  F  F141  1  0.592751  0.665316  0.012336  1
  F  F142  1  0.389765  0.942007  0.826715  1
  F  F143  1  0.044552  0.406961  0.825510  1
  F  F144  1  0.554575  0.959461  0.054199  1
  F  F145  1  0.755503  0.761549  0.412529  1
  F  F146  1  0.044552  0.906961  0.674490  1
  F  F147  1  0.162171  0.519377  0.924131  1
  F  F148  1  0.436840  0.635137  0.168697  1
  F  F149  1  0.945425  0.959461  0.554199  1
  F  F150  1  0.008474  0.171519  0.573677  1
  F  F151  1  0.610235  0.057993  0.173285  1
