# generated using pymatgen
data_LiAlSiH2O5
_symmetry_space_group_name_H-M   'P 1'
_cell_length_a   10.48652139
_cell_length_b   8.29093943
_cell_length_c   5.04491152
_cell_angle_alpha   90.00000000
_cell_angle_beta   90.00000000
_cell_angle_gamma   90.00000000
_symmetry_Int_Tables_number   1
_chemical_formula_structural   LiAlSiH2O5
_chemical_formula_sum   'Li4 Al4 Si4 H8 O20'
_cell_volume   438.62031577
_cell_formula_units_Z   4
loop_
 _symmetry_equiv_pos_site_id
 _symmetry_equiv_pos_as_xyz
  1  'x, y, z'
loop_
 _atom_site_type_symbol
 _atom_site_label
 _atom_site_symmetry_multiplicity
 _atom_site_fract_x
 _atom_site_fract_y
 _atom_site_fract_z
 _atom_site_occupancy
  Li  Li0  1  0.814210  0.315498  0.763610  1
  Li  Li1  1  0.185790  0.684502  0.263610  1
  Li  Li2  1  0.685790  0.815498  0.263610  1
  Li  Li3  1  0.314210  0.184502  0.763610  1
  Al  Al4  1  0.657424  0.418356  0.255295  1
  Al  Al5  1  0.342576  0.581644  0.755295  1
  Al  Al6  1  0.842576  0.918356  0.755295  1
  Al  Al7  1  0.157424  0.081644  0.255295  1
  Si  Si8  1  0.855217  0.125147  0.254199  1
  Si  Si9  1  0.144783  0.874853  0.754199  1
  Si  Si10  1  0.644783  0.625147  0.754199  1
  Si  Si11  1  0.355217  0.374853  0.254199  1
  H  H12  1  0.042413  0.328469  0.832348  1
  H  H13  1  0.957587  0.671531  0.332348  1
  H  H14  1  0.457587  0.828469  0.332348  1
  H  H15  1  0.542413  0.171531  0.832348  1
  H  H16  1  0.016673  0.446111  0.588232  1
  H  H17  1  0.983327  0.553889  0.088232  1
  H  H18  1  0.483327  0.946111  0.088232  1
  H  H19  1  0.516673  0.053889  0.588232  1
  O  O20  1  0.505428  0.338542  0.198575  1
  O  O21  1  0.494572  0.661458  0.698575  1
  O  O22  1  0.994572  0.838542  0.698575  1
  O  O23  1  0.005428  0.161458  0.198575  1
  O  O24  1  0.771924  0.278373  0.141650  1
  O  O25  1  0.228076  0.721627  0.641650  1
  O  O26  1  0.728076  0.778373  0.641650  1
  O  O27  1  0.271924  0.221627  0.141650  1
  O  O28  1  0.688603  0.460216  0.593795  1
  O  O29  1  0.311397  0.539784  0.093795  1
  O  O30  1  0.811397  0.960216  0.093795  1
  O  O31  1  0.188603  0.039784  0.593795  1
  O  O32  1  0.676211  0.600896  0.071691  1
  O  O33  1  0.323789  0.399104  0.571691  1
  O  O34  1  0.823789  0.100896  0.571691  1
  O  O35  1  0.176211  0.899104  0.071691  1
  O  O36  1  0.985601  0.411978  0.764305  1
  O  O37  1  0.014399  0.588022  0.264305  1
  O  O38  1  0.514399  0.911978  0.264305  1
  O  O39  1  0.485601  0.088022  0.764305  1
