# generated using pymatgen
data_SnSO4
_symmetry_space_group_name_H-M   'P 1'
_cell_length_a   5.41907930
_cell_length_b   7.34315083
_cell_length_c   9.13753576
_cell_angle_alpha   90.00000000
_cell_angle_beta   86.82374191
_cell_angle_gamma   90.00000000
_symmetry_Int_Tables_number   1
_chemical_formula_structural   SnSO4
_chemical_formula_sum   'Sn4 S4 O16'
_cell_volume   363.05245067
_cell_formula_units_Z   4
loop_
 _symmetry_equiv_pos_site_id
 _symmetry_equiv_pos_as_xyz
  1  'x, y, z'
loop_
 _atom_site_type_symbol
 _atom_site_label
 _atom_site_symmetry_multiplicity
 _atom_site_fract_x
 _atom_site_fract_y
 _atom_site_fract_z
 _atom_site_occupancy
  Sn  Sn0  1  0.278076  0.223123  0.210488  1
  Sn  Sn1  1  0.721924  0.776877  0.789512  1
  Sn  Sn2  1  0.278076  0.276877  0.710488  1
  Sn  Sn3  1  0.721924  0.723123  0.289512  1
  S  S4  1  0.763171  0.176984  0.418457  1
  S  S5  1  0.763171  0.323016  0.918457  1
  S  S6  1  0.236829  0.823016  0.581543  1
  S  S7  1  0.236829  0.676984  0.081543  1
  O  O8  1  0.563840  0.304829  0.372279  1
  O  O9  1  0.563840  0.195171  0.872279  1
  O  O10  1  0.005032  0.222093  0.911971  1
  O  O11  1  0.994968  0.777907  0.088029  1
  O  O12  1  0.436160  0.695171  0.627721  1
  O  O13  1  0.790078  0.027196  0.305596  1
  O  O14  1  0.297400  0.888875  0.432983  1
  O  O15  1  0.790078  0.472804  0.805596  1
  O  O16  1  0.005032  0.277907  0.411971  1
  O  O17  1  0.209922  0.527196  0.194404  1
  O  O18  1  0.297400  0.611125  0.932983  1
  O  O19  1  0.702600  0.388875  0.067017  1
  O  O20  1  0.702600  0.111125  0.567017  1
  O  O21  1  0.994968  0.722093  0.588029  1
  O  O22  1  0.209922  0.972804  0.694404  1
  O  O23  1  0.436160  0.804829  0.127721  1
