# generated using pymatgen
data_Ca(H8O5)2
_symmetry_space_group_name_H-M   'P 1'
_cell_length_a   6.29855648
_cell_length_b   6.21731488
_cell_length_c   11.21167322
_cell_angle_alpha   89.85443810
_cell_angle_beta   88.74765459
_cell_angle_gamma   91.42935342
_symmetry_Int_Tables_number   1
_chemical_formula_structural   Ca(H8O5)2
_chemical_formula_sum   'Ca2 H32 O20'
_cell_volume   438.80679642
_cell_formula_units_Z   2
loop_
 _symmetry_equiv_pos_site_id
 _symmetry_equiv_pos_as_xyz
  1  'x, y, z'
loop_
 _atom_site_type_symbol
 _atom_site_label
 _atom_site_symmetry_multiplicity
 _atom_site_fract_x
 _atom_site_fract_y
 _atom_site_fract_z
 _atom_site_occupancy
  Ca  Ca0  1  0.010982  0.998864  0.259569  1
  Ca  Ca1  1  0.985731  0.000846  0.733850  1
  H  H2  1  0.279792  0.364367  0.357164  1
  H  H3  1  0.041342  0.430231  0.373530  1
  H  H4  1  0.728599  0.602073  0.349175  1
  H  H5  1  0.859887  0.689720  0.459030  1
  H  H6  1  0.558029  0.022450  0.373149  1
  H  H7  1  0.625652  0.266670  0.356022  1
  H  H8  1  0.391588  0.715237  0.347656  1
  H  H9  1  0.313962  0.853168  0.461169  1
  H  H10  1  0.741767  0.376810  0.856138  1
  H  H11  1  0.996074  0.330003  0.883527  1
  H  H12  1  0.022381  0.629558  0.862990  1
  H  H13  1  0.280954  0.617177  0.852225  1
  H  H14  1  0.327493  0.072832  0.911777  1
  H  H15  1  0.371651  0.285717  0.837967  1
  H  H16  1  0.626826  0.708797  0.847594  1
  H  H17  1  0.720396  0.853561  0.953466  1
  H  H18  1  0.721658  0.617845  0.644250  1
  H  H19  1  0.964243  0.558735  0.623853  1
  H  H20  1  0.269395  0.391577  0.649450  1
  H  H21  1  0.132420  0.310593  0.539284  1
  H  H22  1  0.434848  0.973310  0.630662  1
  H  H23  1  0.370890  0.730513  0.646070  1
  H  H24  1  0.609701  0.278543  0.646050  1
  H  H25  1  0.690455  0.140202  0.533848  1
  H  H26  1  0.076443  0.567854  0.149530  1
  H  H27  1  0.138280  0.718912  0.042889  1
  H  H28  1  0.884187  0.289956  0.062767  1
  H  H29  1  0.733152  0.389775  0.165579  1
  H  H30  1  0.617706  0.725423  0.145405  1
  H  H31  1  0.634063  0.991366  0.135623  1
  H  H32  1  0.393649  0.280513  0.147622  1
  H  H33  1  0.377161  0.020358  0.120835  1
  O  O34  1  0.507539  0.487889  0.317472  1
  O  O35  1  0.498835  0.496441  0.814354  1
  O  O36  1  0.496156  0.504635  0.681087  1
  O  O37  1  0.532009  0.484225  0.184507  1
  O  O38  1  0.134789  0.305193  0.385195  1
  O  O39  1  0.873205  0.668865  0.371180  1
  O  O40  1  0.685832  0.121462  0.378190  1
  O  O41  1  0.333186  0.860767  0.372494  1
  O  O42  1  0.849671  0.274618  0.886926  1
  O  O43  1  0.155056  0.708787  0.877634  1
  O  O44  1  0.266754  0.158147  0.849277  1
  O  O45  1  0.723878  0.836632  0.865639  1
  O  O46  1  0.867076  0.683184  0.620229  1
  O  O47  1  0.122598  0.332301  0.627791  1
  O  O48  1  0.311235  0.872242  0.619444  1
  O  O49  1  0.674090  0.135533  0.622904  1
  O  O50  1  0.134833  0.713416  0.130948  1
  O  O51  1  0.881620  0.312310  0.149683  1
  O  O52  1  0.705573  0.858746  0.116143  1
  O  O53  1  0.294719  0.149019  0.129052  1
