# generated using pymatgen
data_H8PtO6
_symmetry_space_group_name_H-M   'P 1'
_cell_length_a   5.76805287
_cell_length_b   5.68994259
_cell_length_c   7.40429333
_cell_angle_alpha   85.94898721
_cell_angle_beta   90.96754022
_cell_angle_gamma   101.96535217
_symmetry_Int_Tables_number   1
_chemical_formula_structural   H8PtO6
_chemical_formula_sum   'H16 Pt2 O12'
_cell_volume   237.13371209
_cell_formula_units_Z   2
loop_
 _symmetry_equiv_pos_site_id
 _symmetry_equiv_pos_as_xyz
  1  'x, y, z'
loop_
 _atom_site_type_symbol
 _atom_site_label
 _atom_site_symmetry_multiplicity
 _atom_site_fract_x
 _atom_site_fract_y
 _atom_site_fract_z
 _atom_site_occupancy
  H  H0  1  0.972159  0.746889  0.770215  1
  H  H1  1  0.840264  0.467400  0.849204  1
  H  H2  1  0.590974  0.096428  0.676207  1
  H  H3  1  0.895014  0.387944  0.164267  1
  H  H4  1  0.181729  0.517709  0.167394  1
  H  H5  1  0.551357  0.160235  0.343339  1
  H  H6  1  0.402340  0.872559  0.355113  1
  H  H7  1  0.285208  0.591936  0.922233  1
  H  H8  1  0.560539  0.455985  0.488052  1
  H  H9  1  0.578068  0.449992  0.015920  1
  H  H10  1  0.401894  0.744217  0.602687  1
  H  H11  1  0.203058  0.138587  0.805471  1
  H  H12  1  0.178329  0.143334  0.489655  1
  H  H13  1  0.845654  0.850779  0.211046  1
  H  H14  1  0.978072  0.984872  0.017446  1
  H  H15  1  0.874160  0.903681  0.490220  1
  Pt  Pt16  1  0.001894  0.498249  0.497295  1
  Pt  Pt17  1  0.513779  0.994818  0.005844  1
  O  O18  1  0.980490  0.577463  0.761793  1
  O  O19  1  0.563501  0.938380  0.748165  1
  O  O20  1  0.041628  0.405084  0.243440  1
  O  O21  1  0.437726  0.034169  0.272753  1
  O  O22  1  0.362648  0.636877  0.037042  1
  O  O23  1  0.656534  0.328015  0.494114  1
  O  O24  1  0.694295  0.347332  0.991256  1
  O  O25  1  0.351848  0.660581  0.487926  1
  O  O26  1  0.211754  0.104378  0.940118  1
  O  O27  1  0.093308  0.187093  0.591777  1
  O  O28  1  0.820347  0.879104  0.070430  1
  O  O29  1  0.898628  0.797428  0.395486  1
