# generated using pymatgen
data_Ga2HgTe4
_symmetry_space_group_name_H-M   'P 1'
_cell_length_a   24.87232589
_cell_length_b   19.60934475
_cell_length_c   7.53208533
_cell_angle_alpha   121.60084953
_cell_angle_beta   114.44305490
_cell_angle_gamma   18.47000129
_symmetry_Int_Tables_number   1
_chemical_formula_structural   Ga2HgTe4
_chemical_formula_sum   'Ga8 Hg4 Te16'
_cell_volume   942.93940990
_cell_formula_units_Z   4
loop_
 _symmetry_equiv_pos_site_id
 _symmetry_equiv_pos_as_xyz
  1  'x, y, z'
loop_
 _atom_site_type_symbol
 _atom_site_label
 _atom_site_symmetry_multiplicity
 _atom_site_fract_x
 _atom_site_fract_y
 _atom_site_fract_z
 _atom_site_occupancy
  Ga  Ga0  1  0.243272  0.258179  0.492318  1
  Ga  Ga1  1  0.479062  0.275502  0.523299  1
  Ga  Ga2  1  0.255231  0.737332  0.492910  1
  Ga  Ga3  1  0.758102  0.238505  0.506089  1
  Ga  Ga4  1  0.738892  0.508760  0.002344  1
  Ga  Ga5  1  0.010810  0.237305  0.474930  1
  Ga  Ga6  1  0.010057  0.484211  0.990547  1
  Ga  Ga7  1  0.015939  0.732250  0.501658  1
  Hg  Hg8  1  0.004081  0.995995  0.992867  1
  Hg  Hg9  1  0.264887  0.989461  0.035451  1
  Hg  Hg10  1  0.495480  0.005636  0.008345  1
  Hg  Hg11  1  0.743804  0.005327  0.964918  1
  Te  Te12  1  0.052624  0.134239  0.743504  1
  Te  Te13  1  0.028468  0.425234  0.278299  1
  Te  Te14  1  0.312941  0.112492  0.718213  1
  Te  Te15  1  0.095246  0.594059  0.758298  1
  Te  Te16  1  0.300627  0.400844  0.237084  1
  Te  Te17  1  0.536236  0.148560  0.742218  1
  Te  Te18  1  0.080247  0.838411  0.237863  1
  Te  Te19  1  0.342553  0.598744  0.762508  1
  Te  Te20  1  0.548828  0.405178  0.253849  1
  Te  Te21  1  0.785529  0.150895  0.760920  1
  Te  Te22  1  0.331119  0.840315  0.253639  1
  Te  Te23  1  0.574440  0.610624  0.719734  1
  Te  Te24  1  0.782120  0.419781  0.282420  1
  Te  Te25  1  0.573060  0.863256  0.278041  1
  Te  Te26  1  0.822845  0.615855  0.730359  1
  Te  Te27  1  0.813497  0.873050  0.257374  1
