# generated using pymatgen
data_ReH3O5
_symmetry_space_group_name_H-M   'P 1'
_cell_length_a   7.15729463
_cell_length_b   7.59035862
_cell_length_c   7.64374358
_cell_angle_alpha   133.63083385
_cell_angle_beta   131.39753974
_cell_angle_gamma   70.37089338
_symmetry_Int_Tables_number   1
_chemical_formula_structural   ReH3O5
_chemical_formula_sum   'Re2 H6 O10'
_cell_volume   219.85511743
_cell_formula_units_Z   2
loop_
 _symmetry_equiv_pos_site_id
 _symmetry_equiv_pos_as_xyz
  1  'x, y, z'
loop_
 _atom_site_type_symbol
 _atom_site_label
 _atom_site_symmetry_multiplicity
 _atom_site_fract_x
 _atom_site_fract_y
 _atom_site_fract_z
 _atom_site_occupancy
  Re  Re0  1  0.392305  0.126294  0.269805  1
  Re  Re1  1  0.617769  0.890548  0.759243  1
  H  H2  1  0.770994  0.727011  0.224621  1
  H  H3  1  0.791507  0.444029  0.107639  1
  H  H4  1  0.059311  0.651404  0.320363  1
  H  H5  1  0.238021  0.510629  0.949331  1
  H  H6  1  0.938051  0.342629  0.654398  1
  H  H7  1  0.145027  0.328083  0.596934  1
  O  O8  1  0.888873  0.624522  0.267928  1
  O  O9  1  0.125898  0.351734  0.732825  1
  O  O10  1  0.694278  0.335348  0.583686  1
  O  O11  1  0.248225  0.093335  0.953763  1
  O  O12  1  0.626125  0.189440  0.881102  1
  O  O13  1  0.827817  0.754197  0.679387  1
  O  O14  1  0.306520  0.695233  0.413322  1
  O  O15  1  0.721716  0.917568  0.059309  1
  O  O16  1  0.434189  0.834964  0.170748  1
  O  O17  1  0.197925  0.253904  0.380468  1
