# generated using pymatgen
data_Rb8C4O7
_symmetry_space_group_name_H-M   'P 1'
_cell_length_a   5.99804287
_cell_length_b   6.49806375
_cell_length_c   15.10341326
_cell_angle_alpha   90.00000000
_cell_angle_beta   90.00000000
_cell_angle_gamma   122.46594166
_symmetry_Int_Tables_number   1
_chemical_formula_structural   Rb8C4O7
_chemical_formula_sum   'Rb8 C4 O7'
_cell_volume   496.66343502
_cell_formula_units_Z   1
loop_
 _symmetry_equiv_pos_site_id
 _symmetry_equiv_pos_as_xyz
  1  'x, y, z'
loop_
 _atom_site_type_symbol
 _atom_site_label
 _atom_site_symmetry_multiplicity
 _atom_site_fract_x
 _atom_site_fract_y
 _atom_site_fract_z
 _atom_site_occupancy
  Rb  Rb0  1  0.306290  0.663961  0.125000  1
  Rb  Rb1  1  0.187392  0.595472  0.625000  1
  Rb  Rb2  1  0.004576  0.010702  0.992875  1
  Rb  Rb3  1  0.004576  0.010702  0.257125  1
  Rb  Rb4  1  0.909727  0.913788  0.497680  1
  Rb  Rb5  1  0.909727  0.913788  0.752320  1
  Rb  Rb6  1  0.661169  0.347149  0.887218  1
  Rb  Rb7  1  0.661169  0.347149  0.362782  1
  C  C8  1  0.341057  0.724839  0.382035  1
  C  C9  1  0.341057  0.724839  0.867965  1
  C  C10  1  0.599561  0.414974  0.625000  1
  C  C11  1  0.554297  0.348802  0.125000  1
  O  O12  1  0.490274  0.712525  0.324780  1
  O  O13  1  0.490274  0.712525  0.925220  1
  O  O14  1  0.419084  0.215524  0.625000  1
  O  O15  1  0.942174  0.314847  0.765181  1
  O  O16  1  0.942174  0.314847  0.484819  1
  O  O17  1  0.197212  0.810783  0.884045  1
  O  O18  1  0.197212  0.810783  0.365955  1
