# generated using pymatgen
data_Ba2U2O3
_symmetry_space_group_name_H-M   'P 1'
_cell_length_a   4.02408101
_cell_length_b   5.92571830
_cell_length_c   7.98387313
_cell_angle_alpha   88.99792638
_cell_angle_beta   89.94826647
_cell_angle_gamma   89.86482350
_symmetry_Int_Tables_number   1
_chemical_formula_structural   Ba2U2O3
_chemical_formula_sum   'Ba2 U2 O3'
_cell_volume   190.35029245
_cell_formula_units_Z   1
loop_
 _symmetry_equiv_pos_site_id
 _symmetry_equiv_pos_as_xyz
  1  'x, y, z'
loop_
 _atom_site_type_symbol
 _atom_site_label
 _atom_site_symmetry_multiplicity
 _atom_site_fract_x
 _atom_site_fract_y
 _atom_site_fract_z
 _atom_site_occupancy
  Ba  Ba0  1  -0.000068  0.017243  0.983284  1
  Ba  Ba1  1  0.000110  0.037725  0.486005  1
  U  U2  1  0.499793  0.497129  0.229864  1
  U  U3  1  0.500613  0.535312  0.721686  1
  O  O4  1  -0.000036  0.369270  0.202516  1
  O  O5  1  0.499654  0.366121  0.483569  1
  O  O6  1  -0.000066  0.677201  0.733125  1
