# generated using pymatgen
data_Rb6LiPr11Se12(Cl4O9)4
_symmetry_space_group_name_H-M   'P 1'
_cell_length_a   16.11691080
_cell_length_b   16.11691071
_cell_length_c   16.98914469
_cell_angle_alpha   118.31571451
_cell_angle_beta   118.31571432
_cell_angle_gamma   89.99999806
_symmetry_Int_Tables_number   1
_chemical_formula_structural   Rb6LiPr11Se12(Cl4O9)4
_chemical_formula_sum   'Rb12 Li2 Pr22 Se24 Cl32 O72'
_cell_volume   3272.84497681
_cell_formula_units_Z   2
loop_
 _symmetry_equiv_pos_site_id
 _symmetry_equiv_pos_as_xyz
  1  'x, y, z'
loop_
 _atom_site_type_symbol
 _atom_site_label
 _atom_site_symmetry_multiplicity
 _atom_site_fract_x
 _atom_site_fract_y
 _atom_site_fract_z
 _atom_site_occupancy
  Rb  Rb0  1  0.629391  0.379923  0.000000  1
  Rb  Rb1  1  0.376312  0.876312  0.000000  1
  Rb  Rb2  1  0.879923  0.129391  0.000000  1
  Rb  Rb3  1  0.620077  0.629391  1.000000  1
  Rb  Rb4  1  0.123688  0.376312  1.000000  1
  Rb  Rb5  1  0.370609  0.620077  1.000000  1
  Rb  Rb6  1  0.876312  0.623688  0.000000  1
  Rb  Rb7  1  0.379923  0.370609  0.000000  1
  Rb  Rb8  1  0.623688  0.123688  1.000000  1
  Rb  Rb9  1  0.120077  0.870609  1.000000  1
  Rb  Rb10  1  0.129391  0.120077  1.000000  1
  Rb  Rb11  1  0.870609  0.879923  0.000000  1
  Li  Li12  1  0.750000  0.250000  0.500000  1
  Li  Li13  1  0.250000  0.750000  0.500000  1
  Pr  Pr14  1  0.493056  0.750000  0.500000  1
  Pr  Pr15  1  0.250000  0.506944  0.500000  1
  Pr  Pr16  1  0.993056  0.250000  0.500000  1
  Pr  Pr17  1  0.997512  0.497512  0.752517  1
  Pr  Pr18  1  0.750000  0.006944  0.500000  1
  Pr  Pr19  1  0.506944  0.250000  0.500000  1
  Pr  Pr20  1  0.255005  0.997512  0.752517  1
  Pr  Pr21  1  0.250000  0.993056  0.500000  1
  Pr  Pr22  1  0.500000  0.500000  0.500000  1
  Pr  Pr23  1  0.502488  0.244995  0.247483  1
  Pr  Pr24  1  0.500000  0.000000  0.500000  1
  Pr  Pr25  1  0.244995  0.744995  0.247483  1
  Pr  Pr26  1  0.497512  0.755005  0.752517  1
  Pr  Pr27  1  0.006944  0.750000  0.500000  1
  Pr  Pr28  1  0.750000  0.750000  0.500000  1
  Pr  Pr29  1  0.744995  0.002488  0.247483  1
  Pr  Pr30  1  0.750000  0.493056  0.500000  1
  Pr  Pr31  1  0.755005  0.255005  0.752517  1
  Pr  Pr32  1  0.002488  0.502488  0.247483  1
  Pr  Pr33  1  0.000000  0.500000  0.500000  1
  Pr  Pr34  1  0.000000  0.000000  0.500000  1
  Pr  Pr35  1  0.250000  0.250000  0.500000  1
  Se  Se36  1  0.720940  0.436130  0.657070  1
  Se  Se37  1  0.010328  0.038486  0.319976  1
  Se  Se38  1  0.936130  0.220940  0.657070  1
  Se  Se39  1  0.809648  0.538486  0.319976  1
  Se  Se40  1  0.038486  0.309648  0.319976  1
  Se  Se41  1  0.063870  0.779060  0.342930  1
  Se  Se42  1  0.489672  0.218510  0.680024  1
  Se  Se43  1  0.718510  0.989672  0.680024  1
  Se  Se44  1  0.281490  0.010328  0.319976  1
  Se  Se45  1  0.563870  0.063870  0.342930  1
  Se  Se46  1  0.690352  0.718510  0.680024  1
  Se  Se47  1  0.781490  0.809648  0.319976  1
  Se  Se48  1  0.220940  0.720940  0.657070  1
  Se  Se49  1  0.436130  0.936130  0.657070  1
  Se  Se50  1  0.190352  0.461514  0.680024  1
  Se  Se51  1  0.961514  0.690352  0.680024  1
  Se  Se52  1  0.279060  0.563870  0.342930  1
  Se  Se53  1  0.779060  0.279060  0.342930  1
  Se  Se54  1  0.538486  0.510328  0.319976  1
  Se  Se55  1  0.218510  0.190352  0.680024  1
  Se  Se56  1  0.461514  0.489672  0.680024  1
  Se  Se57  1  0.989672  0.961514  0.680024  1
  Se  Se58  1  0.309648  0.281490  0.319976  1
  Se  Se59  1  0.510328  0.781490  0.319976  1
  Cl  Cl60  1  0.310085  0.582105  0.150248  1
  Cl  Cl61  1  0.684501  0.184501  0.847221  1
  Cl  Cl62  1  0.077160  0.077160  0.154320  1
  Cl  Cl63  1  0.417895  0.159837  0.849752  1
  Cl  Cl64  1  0.577160  0.577160  0.154320  1
  Cl  Cl65  1  0.189915  0.931858  0.849752  1
  Cl  Cl66  1  0.575843  0.075843  0.151686  1
  Cl  Cl67  1  0.422840  0.422840  0.845680  1
  Cl  Cl68  1  0.662720  0.684501  0.847221  1
  Cl  Cl69  1  0.424157  0.924157  0.848314  1
  Cl  Cl70  1  0.075843  0.575843  0.151686  1
  Cl  Cl71  1  0.810085  0.068142  0.150248  1
  Cl  Cl72  1  0.922840  0.922840  0.845680  1
  Cl  Cl73  1  0.162720  0.662720  0.847221  1
  Cl  Cl74  1  0.659837  0.917895  0.849752  1
  Cl  Cl75  1  0.340163  0.082105  0.150248  1
  Cl  Cl76  1  0.924157  0.424157  0.848314  1
  Cl  Cl77  1  0.082105  0.810085  0.150248  1
  Cl  Cl78  1  0.184501  0.162720  0.847221  1
  Cl  Cl79  1  0.917895  0.189915  0.849752  1
  Cl  Cl80  1  0.931858  0.659837  0.849752  1
  Cl  Cl81  1  0.315499  0.815499  0.152779  1
  Cl  Cl82  1  0.815499  0.837280  0.152779  1
  Cl  Cl83  1  0.837280  0.337280  0.152779  1
  Cl  Cl84  1  0.689915  0.417895  0.849752  1
  Cl  Cl85  1  0.582105  0.840163  0.150248  1
  Cl  Cl86  1  0.431858  0.689915  0.849752  1
  Cl  Cl87  1  0.068142  0.340163  0.150248  1
  Cl  Cl88  1  0.337280  0.315499  0.152779  1
  Cl  Cl89  1  0.159837  0.431858  0.849752  1
  Cl  Cl90  1  0.568142  0.310085  0.150248  1
  Cl  Cl91  1  0.840163  0.568142  0.150248  1
  O  O92  1  0.318510  0.405061  0.395177  1
  O  O93  1  0.564053  0.182601  0.370383  1
  O  O94  1  0.490116  0.576666  0.395177  1
  O  O95  1  0.594939  0.923334  0.604823  1
  O  O96  1  0.428507  0.806066  0.364744  1
  O  O97  1  0.435947  0.817399  0.629617  1
  O  O98  1  0.817399  0.193671  0.629617  1
  O  O99  1  0.574633  0.737221  0.398332  1
  O  O100  1  0.374051  0.594393  0.468444  1
  O  O101  1  0.182601  0.806329  0.370383  1
  O  O102  1  0.676301  0.762779  0.601668  1
  O  O103  1  0.936238  0.558679  0.364744  1
  O  O104  1  0.074633  0.161111  0.398332  1
  O  O105  1  0.312218  0.693671  0.629617  1
  O  O106  1  0.436238  0.306066  0.364744  1
  O  O107  1  0.762779  0.925367  0.601668  1
  O  O108  1  0.405061  0.076666  0.395177  1
  O  O109  1  0.181490  0.509884  0.604823  1
  O  O110  1  0.737221  0.823699  0.398332  1
  O  O111  1  0.009884  0.681490  0.604823  1
  O  O112  1  0.923334  0.009884  0.604823  1
  O  O113  1  0.874051  0.374051  0.468444  1
  O  O114  1  0.818510  0.490116  0.395177  1
  O  O115  1  0.509884  0.423334  0.604823  1
  O  O116  1  0.823699  0.661111  0.398332  1
  O  O117  1  0.071493  0.941321  0.635256  1
  O  O118  1  0.187782  0.564053  0.370383  1
  O  O119  1  0.594393  0.094393  0.468444  1
  O  O120  1  0.990116  0.318510  0.395177  1
  O  O121  1  0.058679  0.436238  0.364744  1
  O  O122  1  0.423334  0.094939  0.604823  1
  O  O123  1  0.661111  0.574633  0.398332  1
  O  O124  1  0.176301  0.338888  0.601668  1
  O  O125  1  0.941321  0.563762  0.635256  1
  O  O126  1  0.317399  0.935947  0.629617  1
  O  O127  1  0.925367  0.838889  0.601668  1
  O  O128  1  0.571493  0.193934  0.635256  1
  O  O129  1  0.625949  0.405607  0.531556  1
  O  O130  1  0.237221  0.074633  0.398332  1
  O  O131  1  0.558679  0.428507  0.364744  1
  O  O132  1  0.441321  0.571493  0.635256  1
  O  O133  1  0.682601  0.064053  0.370383  1
  O  O134  1  0.125949  0.625949  0.531556  1
  O  O135  1  0.905061  0.818510  0.395177  1
  O  O136  1  0.063762  0.441321  0.635256  1
  O  O137  1  0.306329  0.682601  0.370383  1
  O  O138  1  0.076666  0.990116  0.395177  1
  O  O139  1  0.193934  0.063762  0.635256  1
  O  O140  1  0.563762  0.693934  0.635256  1
  O  O141  1  0.094393  0.874051  0.468444  1
  O  O142  1  0.094939  0.181490  0.604823  1
  O  O143  1  0.935947  0.312218  0.629617  1
  O  O144  1  0.806329  0.187782  0.370383  1
  O  O145  1  0.425367  0.262779  0.601668  1
  O  O146  1  0.323699  0.237221  0.398332  1
  O  O147  1  0.161111  0.323699  0.398332  1
  O  O148  1  0.838889  0.676301  0.601668  1
  O  O149  1  0.687782  0.306329  0.370383  1
  O  O150  1  0.693671  0.317399  0.629617  1
  O  O151  1  0.193671  0.812218  0.629617  1
  O  O152  1  0.306066  0.928507  0.364744  1
  O  O153  1  0.064053  0.687782  0.370383  1
  O  O154  1  0.905607  0.125949  0.531556  1
  O  O155  1  0.405607  0.905607  0.531556  1
  O  O156  1  0.806066  0.936238  0.364744  1
  O  O157  1  0.928507  0.058679  0.364744  1
  O  O158  1  0.262779  0.176301  0.601668  1
  O  O159  1  0.576666  0.905061  0.395177  1
  O  O160  1  0.812218  0.435947  0.629617  1
  O  O161  1  0.693934  0.071493  0.635256  1
  O  O162  1  0.338888  0.425367  0.601668  1
  O  O163  1  0.681490  0.594939  0.604823  1
