# generated using pymatgen
data_Ba7(Al3Te8)2
_symmetry_space_group_name_H-M   'P 1'
_cell_length_a   7.89732206
_cell_length_b   7.01628225
_cell_length_c   55.76497681
_cell_angle_alpha   71.94494749
_cell_angle_beta   55.47451151
_cell_angle_gamma   55.93443167
_symmetry_Int_Tables_number   1
_chemical_formula_structural   Ba7(Al3Te8)2
_chemical_formula_sum   'Ba14 Al12 Te32'
_cell_volume   2108.73179206
_cell_formula_units_Z   2
loop_
 _symmetry_equiv_pos_site_id
 _symmetry_equiv_pos_as_xyz
  1  'x, y, z'
loop_
 _atom_site_type_symbol
 _atom_site_label
 _atom_site_symmetry_multiplicity
 _atom_site_fract_x
 _atom_site_fract_y
 _atom_site_fract_z
 _atom_site_occupancy
  Ba  Ba0  1  0.763824  0.977060  0.999295  1
  Ba  Ba1  1  0.271861  0.975508  0.247424  1
  Ba  Ba2  1  0.735425  0.009591  0.126866  1
  Ba  Ba3  1  0.253263  0.068812  0.366561  1
  Ba  Ba4  1  0.753796  0.011093  0.247672  1
  Ba  Ba5  1  0.256160  0.995578  0.499771  1
  Ba  Ba6  1  0.825348  0.929000  0.366108  1
  Ba  Ba7  1  0.252877  0.005109  0.624330  1
  Ba  Ba8  1  0.748572  0.006535  0.500215  1
  Ba  Ba9  1  0.246254  0.015072  0.749291  1
  Ba  Ba10  1  0.755277  0.996147  0.624867  1
  Ba  Ba11  1  0.242052  0.942944  0.885347  1
  Ba  Ba12  1  0.758393  0.985779  0.749749  1
  Ba  Ba13  1  0.673142  0.074612  0.885688  1
  Al  Al14  1  0.747613  0.498529  0.062525  1
  Al  Al15  1  0.759167  0.480656  0.185853  1
  Al  Al16  1  0.279406  0.498529  0.435421  1
  Al  Al17  1  0.755162  0.497711  0.312146  1
  Al  Al18  1  0.245080  0.497783  0.563998  1
  Al  Al19  1  0.740676  0.500471  0.438687  1
  Al  Al20  1  0.254471  0.497397  0.686550  1
  Al  Al21  1  0.746760  0.501042  0.562921  1
  Al  Al22  1  0.262088  0.499475  0.814199  1
  Al  Al23  1  0.751405  0.500814  0.686545  1
  Al  Al24  1  0.748630  0.503016  0.811608  1
  Al  Al25  1  0.733247  0.521157  0.939062  1
  Te  Te26  1  0.148097  0.505956  0.031738  1
  Te  Te27  1  0.140161  0.508417  0.146898  1
  Te  Te28  1  0.349998  0.752986  0.062668  1
  Te  Te29  1  0.596560  0.242346  0.064985  1
  Te  Te30  1  0.138655  0.495694  0.267795  1
  Te  Te31  1  0.370842  0.811128  0.185312  1
  Te  Te32  1  0.697538  0.150158  0.185628  1
  Te  Te33  1  0.893518  0.492655  0.094860  1
  Te  Te34  1  0.150094  0.500931  0.398008  1
  Te  Te35  1  0.373367  0.850952  0.310435  1
  Te  Te36  1  0.724439  0.144959  0.310554  1
  Te  Te37  1  0.832356  0.490901  0.226435  1
  Te  Te38  1  0.142809  0.501177  0.518185  1
  Te  Te39  1  0.341172  0.855603  0.437548  1
  Te  Te40  1  0.699522  0.143596  0.437295  1
  Te  Te41  1  0.719147  0.499934  0.363619  1
  Te  Te42  1  0.148882  0.500741  0.641765  1
  Te  Te43  1  0.355869  0.861120  0.562569  1
  Te  Te44  1  0.721414  0.137009  0.562616  1
  Te  Te45  1  0.809393  0.500462  0.481454  1
  Te  Te46  1  0.168045  0.500903  0.769189  1
  Te  Te47  1  0.356495  0.861264  0.687182  1
  Te  Te48  1  0.722655  0.136266  0.687191  1
  Te  Te49  1  0.773591  0.500956  0.608737  1
  Te  Te50  1  0.122281  0.511760  0.887318  1
  Te  Te51  1  0.330484  0.854822  0.812409  1
  Te  Te52  1  0.689255  0.148209  0.812422  1
  Te  Te53  1  0.778903  0.500636  0.732169  1
  Te  Te54  1  0.338278  0.873928  0.941230  1
  Te  Te55  1  0.689310  0.171894  0.940054  1
  Te  Te56  1  0.837671  0.504952  0.852007  1
  Te  Te57  1  0.779253  0.498265  0.982027  1
