# generated using pymatgen
data_Ti8S3
_symmetry_space_group_name_H-M   'P 1'
_cell_length_a   3.33585396
_cell_length_b   12.60875231
_cell_length_c   16.34427231
_cell_angle_alpha   82.05327212
_cell_angle_beta   84.14640468
_cell_angle_gamma   82.39065121
_symmetry_Int_Tables_number   1
_chemical_formula_structural   Ti8S3
_chemical_formula_sum   'Ti32 S12'
_cell_volume   672.40219150
_cell_formula_units_Z   4
loop_
 _symmetry_equiv_pos_site_id
 _symmetry_equiv_pos_as_xyz
  1  'x, y, z'
loop_
 _atom_site_type_symbol
 _atom_site_label
 _atom_site_symmetry_multiplicity
 _atom_site_fract_x
 _atom_site_fract_y
 _atom_site_fract_z
 _atom_site_occupancy
  Ti  Ti0  1  0.405947  0.774862  0.413986  1
  Ti  Ti1  1  0.991702  0.596674  0.424509  1
  Ti  Ti2  1  0.064784  0.159465  0.718933  1
  Ti  Ti3  1  0.451577  0.379523  0.721267  1
  Ti  Ti4  1  0.152372  0.897432  0.796719  1
  Ti  Ti5  1  0.166714  0.517714  0.153634  1
  Ti  Ti6  1  0.989671  0.107217  0.910829  1
  Ti  Ti7  1  0.842526  0.482092  0.845052  1
  Ti  Ti8  1  0.674514  0.996172  0.659961  1
  Ti  Ti9  1  0.014750  0.404883  0.573821  1
  Ti  Ti10  1  0.422475  0.586873  0.571734  1
  Ti  Ti11  1  0.284243  0.828369  0.606452  1
  Ti  Ti12  1  0.300344  0.281280  0.126791  1
  Ti  Ti13  1  0.565265  0.920191  0.943222  1
  Ti  Ti14  1  0.201179  0.068941  0.532358  1
  Ti  Ti15  1  0.554441  0.621114  0.276587  1
  Ti  Ti16  1  0.849779  0.102497  0.202403  1
  Ti  Ti17  1  0.701534  0.719683  0.872421  1
  Ti  Ti18  1  0.236902  0.573172  0.958515  1
  Ti  Ti19  1  0.769659  0.427753  0.038930  1
  Ti  Ti20  1  0.941774  0.840771  0.279813  1
  Ti  Ti21  1  0.433962  0.080917  0.055142  1
  Ti  Ti22  1  0.329224  0.002669  0.339100  1
  Ti  Ti23  1  0.008970  0.892720  0.087950  1
  Ti  Ti24  1  0.621043  0.688338  0.067587  1
  Ti  Ti25  1  0.598253  0.227281  0.585499  1
  Ti  Ti26  1  0.584702  0.414347  0.427437  1
  Ti  Ti27  1  0.307045  0.641270  0.748896  1
  Ti  Ti28  1  0.721436  0.171219  0.393096  1
  Ti  Ti29  1  0.699400  0.358023  0.250341  1
  Ti  Ti30  1  0.798516  0.933172  0.468771  1
  Ti  Ti31  1  0.381913  0.312262  0.931108  1
  S  S32  1  0.055492  0.715002  0.175785  1
  S  S33  1  0.259675  0.206131  0.279626  1
  S  S34  1  0.873162  0.224243  0.032024  1
  S  S35  1  0.947969  0.285518  0.823082  1
  S  S36  1  0.895349  0.529433  0.684900  1
  S  S37  1  0.871598  0.731655  0.526911  1
  S  S38  1  0.111882  0.471286  0.313965  1
  S  S39  1  0.573793  0.046289  0.808261  1
  S  S40  1  0.135417  0.269478  0.471689  1
  S  S41  1  0.744960  0.793502  0.719469  1
  S  S42  1  0.430164  0.953439  0.190661  1
  S  S43  1  0.125006  0.775901  0.967243  1
