# generated using pymatgen
data_K6Ba2CaU6O24
_symmetry_space_group_name_H-M   'P 1'
_cell_length_a   7.55616363
_cell_length_b   7.55616398
_cell_length_c   30.22744634
_cell_angle_alpha   109.46589375
_cell_angle_beta   109.46589467
_cell_angle_gamma   109.47813228
_symmetry_Int_Tables_number   1
_chemical_formula_structural   K6Ba2CaU6O24
_chemical_formula_sum   'K12 Ba4 Ca2 U12 O48'
_cell_volume   1328.62476029
_cell_formula_units_Z   2
loop_
 _symmetry_equiv_pos_site_id
 _symmetry_equiv_pos_as_xyz
  1  'x, y, z'
loop_
 _atom_site_type_symbol
 _atom_site_label
 _atom_site_symmetry_multiplicity
 _atom_site_fract_x
 _atom_site_fract_y
 _atom_site_fract_z
 _atom_site_occupancy
  K  K0  1  0.508408  0.508408  0.876487  1
  K  K1  1  0.000000  0.000000  0.625000  1
  K  K2  1  0.498990  0.998990  0.749495  1
  K  K3  1  0.500000  0.500000  0.625000  1
  K  K4  1  0.997539  0.997539  0.876487  1
  K  K5  1  0.998990  0.498990  0.749495  1
  K  K6  1  0.491592  0.491592  0.373513  1
  K  K7  1  0.501010  0.001010  0.500505  1
  K  K8  1  0.001010  0.501010  0.500505  1
  K  K9  1  0.002461  0.002461  0.373513  1
  K  K10  1  0.500000  0.500000  0.125000  1
  K  K11  1  0.000000  0.000000  0.125000  1
  Ba  Ba12  1  0.501650  0.001650  0.250825  1
  Ba  Ba13  1  0.001650  0.501650  0.250825  1
  Ba  Ba14  1  0.498350  0.998350  0.999175  1
  Ba  Ba15  1  0.998350  0.498350  0.999175  1
  Ca  Ca16  1  0.999405  0.999405  0.749703  1
  Ca  Ca17  1  0.000595  0.000595  0.500297  1
  U  U18  1  0.995542  0.494657  0.872550  1
  U  U19  1  0.000000  0.500000  0.625000  1
  U  U20  1  0.494657  0.995542  0.872550  1
  U  U21  1  0.004458  0.505343  0.377450  1
  U  U22  1  0.498033  0.498033  0.749016  1
  U  U23  1  0.500000  0.000000  0.625000  1
  U  U24  1  0.000000  0.500000  0.125000  1
  U  U25  1  0.501967  0.501967  0.500984  1
  U  U26  1  0.505343  0.004458  0.377450  1
  U  U27  1  0.501933  0.501933  0.250966  1
  U  U28  1  0.500000  0.000000  0.125000  1
  U  U29  1  0.498067  0.498067  0.999034  1
  O  O30  1  0.007890  0.713465  0.930339  1
  O  O31  1  0.245973  0.509333  0.938827  1
  O  O32  1  0.254400  0.754400  0.877200  1
  O  O33  1  0.270348  0.998967  0.817329  1
  O  O34  1  0.999973  0.725500  0.681368  1
  O  O35  1  0.509333  0.245973  0.938827  1
  O  O36  1  0.248847  0.499900  0.687187  1
  O  O37  1  0.499403  0.745879  0.811321  1
  O  O38  1  0.250000  0.750000  0.625000  1
  O  O39  1  0.273624  0.273624  0.749888  1
  O  O40  1  0.001033  0.729652  0.432671  1
  O  O41  1  0.713465  0.007890  0.930339  1
  O  O42  1  0.725927  0.725927  0.749888  1
  O  O43  1  0.754400  0.254400  0.877200  1
  O  O44  1  0.499900  0.248847  0.687187  1
  O  O45  1  0.254121  0.500597  0.438679  1
  O  O46  1  0.500100  0.751153  0.562813  1
  O  O47  1  0.745879  0.499403  0.811321  1
  O  O48  1  0.245600  0.745600  0.372800  1
  O  O49  1  0.274073  0.274073  0.500112  1
  O  O50  1  0.009829  0.718759  0.182147  1
  O  O51  1  0.274500  0.000027  0.568632  1
  O  O52  1  0.998967  0.270348  0.817329  1
  O  O53  1  0.725500  0.999973  0.681368  1
  O  O54  1  0.726376  0.726376  0.500112  1
  O  O55  1  0.750000  0.250000  0.625000  1
  O  O56  1  0.500597  0.254121  0.438679  1
  O  O57  1  0.251282  0.510252  0.190384  1
  O  O58  1  0.490667  0.754027  0.311173  1
  O  O59  1  0.250000  0.750000  0.125000  1
  O  O60  1  0.751153  0.500100  0.562813  1
  O  O61  1  0.286535  0.992110  0.319661  1
  O  O62  1  0.282196  0.282196  0.250164  1
  O  O63  1  0.281241  0.990171  0.067853  1
  O  O64  1  0.729652  0.001033  0.432671  1
  O  O65  1  0.000027  0.274500  0.568632  1
  O  O66  1  0.718458  0.718458  0.250164  1
  O  O67  1  0.510252  0.251282  0.190384  1
  O  O68  1  0.745600  0.245600  0.372800  1
  O  O69  1  0.489748  0.748718  0.059616  1
  O  O70  1  0.754027  0.490667  0.311173  1
  O  O71  1  0.281542  0.281542  0.999836  1
  O  O72  1  0.992110  0.286535  0.319661  1
  O  O73  1  0.718759  0.009829  0.182147  1
  O  O74  1  0.717804  0.717804  0.999836  1
  O  O75  1  0.750000  0.250000  0.125000  1
  O  O76  1  0.748718  0.489748  0.059616  1
  O  O77  1  0.990171  0.281241  0.067853  1
