# generated using pymatgen
data_ZrGeRu
_symmetry_space_group_name_H-M   'P 1'
_cell_length_a   6.82707964
_cell_length_b   7.53579323
_cell_length_c   7.77004429
_cell_angle_alpha   119.00762679
_cell_angle_beta   116.06053488
_cell_angle_gamma   90.00000206
_symmetry_Int_Tables_number   1
_chemical_formula_structural   ZrGeRu
_chemical_formula_sum   'Zr6 Ge6 Ru6'
_cell_volume   302.29175535
_cell_formula_units_Z   6
loop_
 _symmetry_equiv_pos_site_id
 _symmetry_equiv_pos_as_xyz
  1  'x, y, z'
loop_
 _atom_site_type_symbol
 _atom_site_label
 _atom_site_symmetry_multiplicity
 _atom_site_fract_x
 _atom_site_fract_y
 _atom_site_fract_z
 _atom_site_occupancy
  Zr  Zr0  1  0.052204  0.030296  0.560592  1
  Zr  Zr1  1  0.100500  0.553123  0.606246  1
  Zr  Zr2  1  0.915866  0.751739  0.003477  1
  Zr  Zr3  1  0.912389  0.248261  0.996523  1
  Zr  Zr4  1  0.494254  0.446877  0.393754  1
  Zr  Zr5  1  0.491612  0.969704  0.439408  1
  Ge  Ge6  1  0.828095  0.337550  0.665450  1
  Ge  Ge7  1  0.477572  0.224679  0.949358  1
  Ge  Ge8  1  0.828095  0.827900  0.665450  1
  Ge  Ge9  1  0.528214  0.775321  0.050642  1
  Ge  Ge10  1  0.162646  0.172100  0.334550  1
  Ge  Ge11  1  0.162646  0.662450  0.334550  1
  Ru  Ru12  1  0.742877  0.594640  0.245718  1
  Ru  Ru13  1  0.252918  0.000000  0.000000  1
  Ru  Ru14  1  0.497159  0.848922  0.754282  1
  Ru  Ru15  1  0.742877  0.151078  0.245718  1
  Ru  Ru16  1  0.252918  0.500000  0.000000  1
  Ru  Ru17  1  0.497159  0.405360  0.754282  1
