# generated using pymatgen
data_Ca5MnPb3
_symmetry_space_group_name_H-M   'P 1'
_cell_length_a   9.51820883
_cell_length_b   9.51820907
_cell_length_c   6.92257455
_cell_angle_alpha   90.00000000
_cell_angle_beta   90.00000000
_cell_angle_gamma   119.99999920
_symmetry_Int_Tables_number   1
_chemical_formula_structural   Ca5MnPb3
_chemical_formula_sum   'Ca10 Mn2 Pb6'
_cell_volume   543.13619517
_cell_formula_units_Z   2
loop_
 _symmetry_equiv_pos_site_id
 _symmetry_equiv_pos_as_xyz
  1  'x, y, z'
loop_
 _atom_site_type_symbol
 _atom_site_label
 _atom_site_symmetry_multiplicity
 _atom_site_fract_x
 _atom_site_fract_y
 _atom_site_fract_z
 _atom_site_occupancy
  Ca  Ca0  1  0.707675  0.000000  0.750000  1
  Ca  Ca1  1  0.292325  0.000000  0.250000  1
  Ca  Ca2  1  0.292325  0.292325  0.750000  1
  Ca  Ca3  1  1.000000  0.707675  0.750000  1
  Ca  Ca4  1  0.333333  0.666667  0.500000  1
  Ca  Ca5  1  0.666667  0.333333  0.500000  1
  Ca  Ca6  1  0.707675  0.707675  0.250000  1
  Ca  Ca7  1  0.000000  0.292325  0.250000  1
  Ca  Ca8  1  0.333333  0.666667  0.000000  1
  Ca  Ca9  1  0.666667  0.333333  0.000000  1
  Mn  Mn10  1  0.000000  0.000000  0.000000  1
  Mn  Mn11  1  0.000000  0.000000  0.500000  1
  Pb  Pb12  1  0.000000  0.637522  0.250000  1
  Pb  Pb13  1  0.000000  0.362478  0.750000  1
  Pb  Pb14  1  0.362478  0.000000  0.750000  1
  Pb  Pb15  1  0.362478  0.362478  0.250000  1
  Pb  Pb16  1  0.637522  0.000000  0.250000  1
  Pb  Pb17  1  0.637522  0.637522  0.750000  1
