# generated using pymatgen
data_Yb2Ce8O19
_symmetry_space_group_name_H-M   'P 1'
_cell_length_a   3.86343538
_cell_length_b   38.42568480
_cell_length_c   36.63581167
_cell_angle_alpha   5.22866626
_cell_angle_beta   58.23607488
_cell_angle_gamma   59.87415763
_symmetry_Int_Tables_number   1
_chemical_formula_structural   Yb2Ce8O19
_chemical_formula_sum   'Yb2 Ce8 O19'
_cell_volume   403.52676416
_cell_formula_units_Z   1
loop_
 _symmetry_equiv_pos_site_id
 _symmetry_equiv_pos_as_xyz
  1  'x, y, z'
loop_
 _atom_site_type_symbol
 _atom_site_label
 _atom_site_symmetry_multiplicity
 _atom_site_fract_x
 _atom_site_fract_y
 _atom_site_fract_z
 _atom_site_occupancy
  Yb  Yb0  1  0.023729  0.015282  0.980541  1
  Yb  Yb1  1  0.978161  0.086135  0.018231  1
  Ce  Ce2  1  0.007322  0.304813  0.993596  1
  Ce  Ce3  1  0.014753  0.215186  0.981618  1
  Ce  Ce4  1  0.005501  0.499005  0.000752  1
  Ce  Ce5  1  0.005913  0.399650  0.999719  1
  Ce  Ce6  1  0.007851  0.599114  0.000660  1
  Ce  Ce7  1  0.003577  0.698436  0.001802  1
  Ce  Ce8  1  0.988349  0.886959  0.016221  1
  Ce  Ce9  1  0.995892  0.795477  0.005749  1
  O  O10  1  0.254081  0.006102  0.242682  1
  O  O11  1  0.253433  0.099312  0.250105  1
  O  O12  1  0.254190  0.197673  0.252225  1
  O  O13  1  0.256181  0.299843  0.249769  1
  O  O14  1  0.258809  0.397782  0.252284  1
  O  O15  1  0.250629  0.500063  0.250047  1
  O  O16  1  0.748992  0.998376  0.752039  1
  O  O17  1  0.248179  0.595329  0.255882  1
  O  O18  1  0.750685  0.097439  0.753287  1
  O  O19  1  0.252817  0.698411  0.251771  1
  O  O20  1  0.737966  0.187312  0.765747  1
  O  O21  1  0.750007  0.297267  0.752851  1
  O  O22  1  0.251149  0.905055  0.244655  1
  O  O23  1  0.764332  0.415649  0.731403  1
  O  O24  1  0.753116  0.505688  0.743320  1
  O  O25  1  0.752825  0.598754  0.750818  1
  O  O26  1  0.755556  0.698504  0.751170  1
  O  O27  1  0.754620  0.798148  0.751835  1
  O  O28  1  0.760964  0.899246  0.750389  1
