# generated using pymatgen
data_Gd(CoB)2
_symmetry_space_group_name_H-M   'P 1'
_cell_length_a   3.56221779
_cell_length_b   3.55753382
_cell_length_c   5.40307764
_cell_angle_alpha   109.26520441
_cell_angle_beta   109.17535748
_cell_angle_gamma   89.99194486
_symmetry_Int_Tables_number   1
_chemical_formula_structural   Gd(CoB)2
_chemical_formula_sum   'Gd1 Co2 B2'
_cell_volume   60.59964342
_cell_formula_units_Z   1
loop_
 _symmetry_equiv_pos_site_id
 _symmetry_equiv_pos_as_xyz
  1  'x, y, z'
loop_
 _atom_site_type_symbol
 _atom_site_label
 _atom_site_symmetry_multiplicity
 _atom_site_fract_x
 _atom_site_fract_y
 _atom_site_fract_z
 _atom_site_occupancy
  Gd  Gd0  1  0.004437  0.993979  0.999546  1
  Co  Co1  1  0.254246  0.742270  0.498915  1
  Co  Co2  1  0.754209  0.242365  0.499512  1
  B  B3  1  0.348965  0.337120  0.688604  1
  B  B4  1  0.659894  0.648253  0.310633  1
