# generated using pymatgen
data_KFe(SeO3)2
_symmetry_space_group_name_H-M   'P 1'
_cell_length_a   5.53441704
_cell_length_b   8.26908056
_cell_length_c   13.18260729
_cell_angle_alpha   90.00393156
_cell_angle_beta   89.99996054
_cell_angle_gamma   89.99994184
_symmetry_Int_Tables_number   1
_chemical_formula_structural   KFe(SeO3)2
_chemical_formula_sum   'K4 Fe4 Se8 O24'
_cell_volume   603.29596216
_cell_formula_units_Z   4
loop_
 _symmetry_equiv_pos_site_id
 _symmetry_equiv_pos_as_xyz
  1  'x, y, z'
loop_
 _atom_site_type_symbol
 _atom_site_label
 _atom_site_symmetry_multiplicity
 _atom_site_fract_x
 _atom_site_fract_y
 _atom_site_fract_z
 _atom_site_occupancy
  K  K0  1  0.250014  0.506784  0.873704  1
  K  K1  1  0.249998  0.993812  0.373817  1
  K  K2  1  0.750000  0.493658  0.126169  1
  K  K3  1  0.750010  0.006577  0.626258  1
  Fe  Fe4  1  0.249993  0.802814  0.102328  1
  Fe  Fe5  1  0.750008  0.302757  0.397637  1
  Fe  Fe6  1  0.249997  0.697298  0.602880  1
  Fe  Fe7  1  0.749991  0.197217  0.897174  1
  Se  Se8  1  0.750000  0.011298  0.202950  1
  Se  Se9  1  0.249997  0.988415  0.797504  1
  Se  Se10  1  0.249999  0.511232  0.296935  1
  Se  Se11  1  0.749999  0.793752  0.938497  1
  Se  Se12  1  0.750000  0.706640  0.439152  1
  Se  Se13  1  0.249997  0.206734  0.060818  1
  Se  Se14  1  0.750000  0.488300  0.702732  1
  Se  Se15  1  0.249999  0.293739  0.561447  1
  O  O16  1  0.506725  0.620896  0.705972  1
  O  O17  1  0.006658  0.378723  0.294029  1
  O  O18  1  0.250001  0.007624  0.022647  1
  O  O19  1  0.493028  0.212562  0.495784  1
  O  O20  1  0.250003  0.573645  0.170669  1
  O  O21  1  0.006973  0.212563  0.495783  1
  O  O22  1  0.993379  0.878794  0.205920  1
  O  O23  1  0.250000  0.492539  0.522734  1
  O  O24  1  0.993274  0.620893  0.705972  1
  O  O25  1  0.507144  0.787691  0.505053  1
  O  O26  1  0.750000  0.507753  0.477425  1
  O  O27  1  0.993022  0.712719  0.004174  1
  O  O28  1  0.006875  0.120838  0.794228  1
  O  O29  1  0.249998  0.925940  0.671289  1
  O  O30  1  0.506622  0.878794  0.205919  1
  O  O31  1  0.493340  0.378722  0.294030  1
  O  O32  1  0.992853  0.787692  0.505053  1
  O  O33  1  0.493124  0.120839  0.794228  1
  O  O34  1  0.506976  0.712720  0.004172  1
  O  O35  1  0.750001  0.992350  0.977094  1
  O  O36  1  0.007295  0.287526  0.994887  1
  O  O37  1  0.492703  0.287527  0.994886  1
  O  O38  1  0.750000  0.425882  0.828821  1
  O  O39  1  0.750001  0.073743  0.329232  1
