# generated using pymatgen
data_LiAl2H6ClO6
_symmetry_space_group_name_H-M   'P 1'
_cell_length_a   5.15984643
_cell_length_b   5.15984656
_cell_length_c   14.28458303
_cell_angle_alpha   90.00000000
_cell_angle_beta   90.00000000
_cell_angle_gamma   119.99991131
_symmetry_Int_Tables_number   1
_chemical_formula_structural   LiAl2H6ClO6
_chemical_formula_sum   'Li2 Al4 H12 Cl2 O12'
_cell_volume   329.36098315
_cell_formula_units_Z   2
loop_
 _symmetry_equiv_pos_site_id
 _symmetry_equiv_pos_as_xyz
  1  'x, y, z'
loop_
 _atom_site_type_symbol
 _atom_site_label
 _atom_site_symmetry_multiplicity
 _atom_site_fract_x
 _atom_site_fract_y
 _atom_site_fract_z
 _atom_site_occupancy
  Li  Li0  1  0.000012  0.000012  0.499999  1
  Li  Li1  1  0.999988  0.999988  -0.000001  1
  Al  Al2  1  0.666663  0.333347  0.499999  1
  Al  Al3  1  0.333347  0.666663  0.499999  1
  Al  Al4  1  0.333337  0.666653  -0.000001  1
  Al  Al5  1  0.666653  0.333337  -0.000001  1
  H  H6  1  0.311357  0.999992  0.866710  1
  H  H7  1  0.999992  0.311357  0.866710  1
  H  H8  1  0.688632  0.688632  0.866713  1
  H  H9  1  0.688631  -0.000006  0.133289  1
  H  H10  1  -0.000006  0.688631  0.133289  1
  H  H11  1  0.311359  0.311359  0.133292  1
  H  H12  1  0.688643  0.000008  0.366710  1
  H  H13  1  0.000008  0.688643  0.366710  1
  H  H14  1  0.311368  0.311368  0.366713  1
  H  H15  1  0.311369  0.000006  0.633289  1
  H  H16  1  0.000006  0.311369  0.633289  1
  H  H17  1  0.688641  0.688641  0.633292  1
  Cl  Cl18  1  0.000002  0.000002  0.250008  1
  Cl  Cl19  1  0.999998  0.999998  0.750008  1
  O  O20  1  0.367957  0.000005  0.932230  1
  O  O21  1  0.000005  0.367957  0.932230  1
  O  O22  1  0.632024  0.632024  0.932226  1
  O  O23  1  0.632023  0.999991  0.067768  1
  O  O24  1  0.999991  0.632023  0.067768  1
  O  O25  1  0.367963  0.367963  0.067769  1
  O  O26  1  0.632043  -0.000005  0.432230  1
  O  O27  1  -0.000005  0.632043  0.432230  1
  O  O28  1  0.367976  0.367976  0.432226  1
  O  O29  1  0.367977  0.000009  0.567768  1
  O  O30  1  0.000009  0.367977  0.567768  1
  O  O31  1  0.632037  0.632037  0.567769  1
