# generated using pymatgen
data_MnSiO3
_symmetry_space_group_name_H-M   'P 1'
_cell_length_a   10.27450558
_cell_length_b   10.27450508
_cell_length_c   10.27450510
_cell_angle_alpha   109.12427555
_cell_angle_beta   109.12427466
_cell_angle_gamma   110.16736576
_symmetry_Int_Tables_number   1
_chemical_formula_structural   MnSiO3
_chemical_formula_sum   'Mn16 Si16 O48'
_cell_volume   834.85815484
_cell_formula_units_Z   16
loop_
 _symmetry_equiv_pos_site_id
 _symmetry_equiv_pos_as_xyz
  1  'x, y, z'
loop_
 _atom_site_type_symbol
 _atom_site_label
 _atom_site_symmetry_multiplicity
 _atom_site_fract_x
 _atom_site_fract_y
 _atom_site_fract_z
 _atom_site_occupancy
  Mn  Mn0  1  0.633134  0.268121  0.882480  1
  Mn  Mn1  1  0.124032  0.874032  0.250000  1
  Mn  Mn2  1  0.768121  0.385641  0.634987  1
  Mn  Mn3  1  0.885641  0.750654  0.617520  1
  Mn  Mn4  1  0.374032  0.624032  0.750000  1
  Mn  Mn5  1  0.250654  0.133134  0.865013  1
  Mn  Mn6  1  0.000000  0.500000  0.500000  1
  Mn  Mn7  1  0.000000  0.500000  0.000000  1
  Mn  Mn8  1  0.000000  0.000000  0.500000  1
  Mn  Mn9  1  0.500000  0.500000  0.000000  1
  Mn  Mn10  1  0.749346  0.866866  0.134987  1
  Mn  Mn11  1  0.625968  0.375968  0.250000  1
  Mn  Mn12  1  0.114359  0.249346  0.382480  1
  Mn  Mn13  1  0.231879  0.614359  0.365013  1
  Mn  Mn14  1  0.875968  0.125968  0.750000  1
  Mn  Mn15  1  0.366866  0.731879  0.117520  1
  O  O16  1  0.030845  0.632417  0.231257  1
  O  O17  1  0.083545  0.916351  0.886478  1
  O  O18  1  0.994485  0.624788  0.710455  1
  O  O19  1  0.143677  0.735413  0.032312  1
  O  O20  1  0.124788  0.914333  0.630303  1
  O  O21  1  0.388003  0.001254  0.318998  1
  O  O22  1  0.316310  0.822513  0.911789  1
  O  O23  1  0.416351  0.029873  0.832806  1
  O  O24  1  0.132417  0.401160  0.601572  1
  O  O25  1  0.235413  0.703100  0.591735  1
  O  O26  1  0.299588  0.530845  0.898428  1
  O  O27  1  0.322513  0.910724  0.506202  1
  O  O28  1  0.901160  0.799588  0.268743  1
  O  O29  1  0.569004  0.888003  0.886749  1
  O  O30  1  0.203100  0.111365  0.467688  1
  O  O31  1  0.414333  0.284030  0.789545  1
  O  O32  1  0.501254  0.682255  0.613251  1
  O  O33  1  0.410724  0.404522  0.588211  1
  O  O34  1  0.611365  0.643677  0.908265  1
  O  O35  1  0.182255  0.069004  0.181002  1
  O  O36  1  0.529873  0.197067  0.613522  1
  O  O37  1  0.697067  0.583545  0.667194  1
  O  O38  1  0.904522  0.816310  0.993798  1
  O  O39  1  0.215970  0.505515  0.130303  1
  O  O40  1  0.784030  0.494485  0.869697  1
  O  O41  1  0.095478  0.183690  0.006202  1
  O  O42  1  0.302933  0.416455  0.332806  1
  O  O43  1  0.470127  0.802933  0.386478  1
  O  O44  1  0.817745  0.930996  0.818998  1
  O  O45  1  0.388635  0.356323  0.091735  1
  O  O46  1  0.589276  0.595478  0.411789  1
  O  O47  1  0.498746  0.317745  0.386749  1
  O  O48  1  0.585667  0.715970  0.210455  1
  O  O49  1  0.796900  0.888635  0.532312  1
  O  O50  1  0.430996  0.111997  0.113251  1
  O  O51  1  0.098840  0.200412  0.731257  1
  O  O52  1  0.677487  0.089276  0.493798  1
  O  O53  1  0.700412  0.469155  0.101572  1
  O  O54  1  0.764587  0.296900  0.408265  1
  O  O55  1  0.867583  0.598840  0.398428  1
  O  O56  1  0.583649  0.970127  0.167194  1
  O  O57  1  0.683690  0.177487  0.088211  1
  O  O58  1  0.611997  0.998746  0.681002  1
  O  O59  1  0.875212  0.085667  0.369697  1
  O  O60  1  0.856323  0.264587  0.967688  1
  O  O61  1  0.005515  0.375212  0.289545  1
  O  O62  1  0.916455  0.083649  0.113522  1
  O  O63  1  0.969155  0.367583  0.768743  1
  Si  Si64  1  0.133420  0.774162  0.887701  1
  Si  Si65  1  0.274162  0.886462  0.640743  1
  Si  Si66  1  0.386462  0.245719  0.612299  1
  Si  Si67  1  0.745719  0.633420  0.859257  1
  Si  Si68  1  0.000000  0.000000  0.000000  1
  Si  Si69  1  0.254281  0.366580  0.140743  1
  Si  Si70  1  0.500000  0.500000  0.500000  1
  Si  Si71  1  0.613538  0.754281  0.387701  1
  Si  Si72  1  0.375000  0.125000  0.250000  1
  Si  Si73  1  0.500000  0.000000  0.500000  1
  Si  Si74  1  0.500000  0.000000  0.000000  1
  Si  Si75  1  0.725838  0.113538  0.359257  1
  Si  Si76  1  0.875000  0.625000  0.250000  1
  Si  Si77  1  0.625000  0.875000  0.750000  1
  Si  Si78  1  0.866580  0.225838  0.112299  1
  Si  Si79  1  0.125000  0.375000  0.750000  1
