# generated using pymatgen
data_Eu2Al42O65
_symmetry_space_group_name_H-M   'P 1'
_cell_length_a   11.46718934
_cell_length_b   11.44100761
_cell_length_c   45.57283388
_cell_angle_alpha   29.04523690
_cell_angle_beta   28.84120493
_cell_angle_gamma   28.76267144
_symmetry_Int_Tables_number   1
_chemical_formula_structural   Eu2Al42O65
_chemical_formula_sum   'Eu2 Al42 O65'
_cell_volume   1233.56165350
_cell_formula_units_Z   1
loop_
 _symmetry_equiv_pos_site_id
 _symmetry_equiv_pos_as_xyz
  1  'x, y, z'
loop_
 _atom_site_type_symbol
 _atom_site_label
 _atom_site_symmetry_multiplicity
 _atom_site_fract_x
 _atom_site_fract_y
 _atom_site_fract_z
 _atom_site_occupancy
  Eu  Eu0  1  0.514409  0.000241  0.496190  1
  Eu  Eu1  1  0.483109  0.001801  0.758895  1
  Al  Al2  1  0.000159  0.998357  0.000534  1
  Al  Al3  1  0.093145  0.093203  0.147880  1
  Al  Al4  1  0.089072  0.589813  0.024989  1
  Al  Al5  1  0.591209  0.088159  0.025018  1
  Al  Al6  1  0.347875  0.349115  0.088967  1
  Al  Al7  1  0.453339  0.453742  0.112691  1
  Al  Al8  1  0.548367  0.547811  0.135992  1
  Al  Al9  1  0.094216  0.101875  0.396444  1
  Al  Al10  1  0.101861  0.597738  0.270687  1
  Al  Al11  1  0.594288  0.106316  0.270512  1
  Al  Al12  1  0.649074  0.650033  0.162721  1
  Al  Al13  1  0.354055  0.360038  0.336815  1
  Al  Al14  1  0.999485  0.001039  0.251524  1
  Al  Al15  1  0.413314  0.901402  0.228725  1
  Al  Al16  1  0.903282  0.414904  0.227763  1
  Al  Al17  1  0.904492  0.904624  0.103251  1
  Al  Al18  1  0.564927  0.579643  0.381100  1
  Al  Al19  1  0.090216  0.083605  0.643339  1
  Al  Al20  1  0.081048  0.585762  0.525036  1
  Al  Al21  1  0.589852  0.088946  0.526063  1
  Al  Al22  1  0.648644  0.652504  0.412800  1
  Al  Al23  1  0.352398  0.350200  0.585225  1
  Al  Al24  1  0.001586  0.999298  0.499470  1
  Al  Al25  1  0.412125  0.914090  0.472274  1
  Al  Al26  1  0.921170  0.415626  0.472899  1
  Al  Al27  1  0.915958  0.919693  0.353953  1
  Al  Al28  1  0.432807  0.426272  0.613836  1
  Al  Al29  1  0.094291  0.092408  0.899424  1
  Al  Al30  1  0.104502  0.578111  0.771550  1
  Al  Al31  1  0.592808  0.102255  0.774120  1
  Al  Al32  1  0.646666  0.644041  0.661280  1
  Al  Al33  1  0.352031  0.348816  0.838212  1
  Al  Al34  1  0.003382  0.995736  0.748555  1
  Al  Al35  1  0.404403  0.891905  0.728231  1
  Al  Al36  1  0.897643  0.402028  0.729211  1
  Al  Al37  1  0.906455  0.901246  0.602469  1
  Al  Al38  1  0.447319  0.445283  0.864893  1
  Al  Al39  1  0.550401  0.538591  0.890823  1
  Al  Al40  1  0.650111  0.647771  0.912476  1
  Al  Al41  1  0.407015  0.902449  0.977675  1
  Al  Al42  1  0.904077  0.404259  0.977785  1
  Al  Al43  1  0.903759  0.901129  0.853727  1
  O  O44  1  0.094819  0.095810  0.024812  1
  O  O45  1  0.291325  0.291998  0.075370  1
  O  O46  1  0.187549  0.192890  0.180578  1
  O  O47  1  0.197849  0.718936  0.046145  1
  O  O48  1  0.718584  0.197175  0.046590  1
  O  O49  1  0.100752  0.106617  0.272704  1
  O  O50  1  0.102768  0.603178  0.148662  1
  O  O51  1  0.600469  0.103340  0.149323  1
  O  O52  1  0.603308  0.603827  0.023650  1
  O  O53  1  0.400411  0.401108  0.224442  1
  O  O54  1  0.400274  0.900246  0.099499  1
  O  O55  1  0.901095  0.398368  0.099928  1
  O  O56  1  0.291564  0.297234  0.324616  1
  O  O57  1  0.278704  0.806610  0.202925  1
  O  O58  1  0.808874  0.808227  0.069936  1
  O  O59  1  0.803710  0.279506  0.203770  1
  O  O60  1  0.190369  0.184203  0.432162  1
  O  O61  1  0.188088  0.722101  0.298348  1
  O  O62  1  0.717175  0.183233  0.301547  1
  O  O63  1  0.712004  0.712395  0.172272  1
  O  O64  1  0.099784  0.087543  0.527303  1
  O  O65  1  0.083012  0.605596  0.404622  1
  O  O66  1  0.608746  0.610081  0.270769  1
  O  O67  1  0.604407  0.065192  0.412131  1
  O  O68  1  0.403552  0.400364  0.469429  1
  O  O69  1  0.391513  0.925202  0.345043  1
  O  O70  1  0.913468  0.398909  0.346232  1
  O  O71  1  0.903263  0.903867  0.225531  1
  O  O72  1  0.308310  0.306284  0.567118  1
  O  O73  1  0.278481  0.807253  0.451384  1
  O  O74  1  0.802729  0.805247  0.321827  1
  O  O75  1  0.806602  0.280484  0.452020  1
  O  O76  1  0.200893  0.193252  0.677645  1
  O  O77  1  0.187776  0.715392  0.550613  1
  O  O78  1  0.714390  0.189323  0.551886  1
  O  O79  1  0.683792  0.683962  0.436418  1
  O  O80  1  0.103959  0.093437  0.774371  1
  O  O81  1  0.082214  0.601768  0.655097  1
  O  O82  1  0.604752  0.077804  0.657387  1
  O  O83  1  0.599363  0.604334  0.528295  1
  O  O84  1  0.399310  0.931258  0.587781  1
  O  O85  1  0.388791  0.352358  0.736350  1
  O  O86  1  0.909943  0.399005  0.596464  1
  O  O87  1  0.898685  0.912697  0.472549  1
  O  O88  1  0.296684  0.298467  0.823682  1
  O  O89  1  0.278731  0.805816  0.700463  1
  O  O90  1  0.804751  0.277451  0.703517  1
  O  O91  1  0.806595  0.817090  0.568314  1
  O  O92  1  0.193192  0.189405  0.929696  1
  O  O93  1  0.196261  0.723819  0.794970  1
  O  O94  1  0.727616  0.193824  0.795835  1
  O  O95  1  0.705480  0.706614  0.674715  1
  O  O96  1  0.096995  0.595105  0.900084  1
  O  O97  1  0.596227  0.604067  0.773699  1
  O  O98  1  0.600174  0.094292  0.900704  1
  O  O99  1  0.505670  0.569637  0.856686  1
  O  O100  1  0.397145  0.391763  0.978519  1
  O  O101  1  0.407086  0.899339  0.850193  1
  O  O102  1  0.904039  0.395104  0.851953  1
  O  O103  1  0.892560  0.894818  0.727449  1
  O  O104  1  0.282066  0.809341  0.951516  1
  O  O105  1  0.806976  0.815633  0.819025  1
  O  O106  1  0.810067  0.279703  0.952314  1
  O  O107  1  0.707361  0.706931  0.924883  1
  O  O108  1  0.906551  0.902289  0.975213  1
