# generated using pymatgen
data_As12S13
_symmetry_space_group_name_H-M   'P 1'
_cell_length_a   8.18489501
_cell_length_b   9.25312967
_cell_length_c   28.56482416
_cell_angle_alpha   87.02730064
_cell_angle_beta   54.46449340
_cell_angle_gamma   87.23603500
_symmetry_Int_Tables_number   1
_chemical_formula_structural   As12S13
_chemical_formula_sum   'As24 S26'
_cell_volume   1757.66030034
_cell_formula_units_Z   2
loop_
 _symmetry_equiv_pos_site_id
 _symmetry_equiv_pos_as_xyz
  1  'x, y, z'
loop_
 _atom_site_type_symbol
 _atom_site_label
 _atom_site_symmetry_multiplicity
 _atom_site_fract_x
 _atom_site_fract_y
 _atom_site_fract_z
 _atom_site_occupancy
  As  As0  1  0.113184  0.708004  0.997406  1
  As  As1  1  0.947098  0.399902  0.163337  1
  As  As2  1  0.255847  0.380026  0.523765  1
  As  As3  1  0.443493  0.259688  0.307337  1
  As  As4  1  0.270586  0.285496  0.807944  1
  As  As5  1  0.845285  0.757860  0.099817  1
  As  As6  1  0.418395  0.295852  0.651709  1
  As  As7  1  0.565540  0.580871  0.357623  1
  As  As8  1  0.559037  0.411678  0.929186  1
  As  As9  1  0.556731  0.841256  0.323602  1
  As  As10  1  0.629270  0.493164  0.236679  1
  As  As11  1  0.649077  0.822814  0.679796  1
  As  As12  1  0.814943  0.551537  0.587800  1
  As  As13  1  0.517828  0.916690  0.592597  1
  As  As14  1  0.834459  0.775628  0.524774  1
  As  As15  1  0.744649  0.004971  0.078499  1
  As  As16  1  0.291006  0.487385  0.590913  1
  As  As17  1  -0.002411  0.471857  0.874176  1
  As  As18  1  0.192144  0.303972  -0.012675  1
  As  As19  1  0.273949  0.276719  0.260762  1
  As  As20  1  0.431255  0.567549  0.665240  1
  As  As21  1  0.859878  0.025099  0.383901  1
  As  As22  1  0.927212  0.487292  0.245077  1
  As  As23  1  0.779448  0.978317  0.730309  1
  S  S24  1  0.168935  0.133829  0.050778  1
  S  S25  1  0.266814  0.504902  0.017292  1
  S  S26  1  0.038005  0.012782  0.413595  1
  S  S27  1  0.199775  0.407566  0.376683  1
  S  S28  1  0.984017  0.852521  0.738117  1
  S  S29  1  -0.017899  0.492154  0.742909  1
  S  S30  1  0.395295  0.031962  0.232152  1
  S  S31  1  0.418247  0.013215  0.156550  1
  S  S32  1  0.774251  0.343362  0.952035  1
  S  S33  1  0.524620  0.095089  0.530832  1
  S  S34  1  0.529901  0.008519  0.466069  1
  S  S35  1  0.430468  0.562088  0.466205  1
  S  S36  1  0.341815  0.153570  0.733009  1
  S  S37  1  0.378090  0.129883  0.853159  1
  S  S38  1  0.804793  0.629588  0.040377  1
  S  S39  1  0.409718  0.611105  0.749232  1
  S  S40  1  0.446621  0.935390  0.817270  1
  S  S41  1  0.534172  0.438808  0.768356  1
  S  S42  1  0.752442  0.764910  0.351463  1
  S  S43  1  0.061994  0.467149  0.338515  1
  S  S44  1  0.043066  0.727226  0.216034  1
  S  S45  1  0.908164  0.664106  0.636545  1
  S  S46  1  0.089016  0.348032  0.681963  1
  S  S47  1  0.823743  0.958889  0.576000  1
  S  S48  1  0.808503  0.830320  0.222495  1
  S  S49  1  0.867934  0.142609  0.117093  1
