# generated using pymatgen
data_CdH12C2(NCl2)2
_symmetry_space_group_name_H-M   'P 1'
_cell_length_a   10.57383387
_cell_length_b   10.57383387
_cell_length_c   7.53712158
_cell_angle_alpha   90.00000000
_cell_angle_beta   90.00000000
_cell_angle_gamma   41.84775694
_symmetry_Int_Tables_number   1
_chemical_formula_structural   CdH12C2(NCl2)2
_chemical_formula_sum   'Cd2 H24 C4 N4 Cl8'
_cell_volume   562.20709698
_cell_formula_units_Z   2
loop_
 _symmetry_equiv_pos_site_id
 _symmetry_equiv_pos_as_xyz
  1  'x, y, z'
loop_
 _atom_site_type_symbol
 _atom_site_label
 _atom_site_symmetry_multiplicity
 _atom_site_fract_x
 _atom_site_fract_y
 _atom_site_fract_z
 _atom_site_occupancy
  Cd  Cd0  1  0.500000  0.500000  0.500000  1
  Cd  Cd1  1  0.000000  0.000000  0.000000  1
  H  H2  1  0.801408  0.020980  0.529404  1
  H  H3  1  0.979020  0.198592  0.470596  1
  H  H4  1  0.479020  0.698592  0.029404  1
  H  H5  1  0.301408  0.520980  0.970596  1
  H  H6  1  0.198592  0.979020  0.470596  1
  H  H7  1  0.020980  0.801408  0.529404  1
  H  H8  1  0.520980  0.301408  0.970596  1
  H  H9  1  0.698592  0.479020  0.029404  1
  H  H10  1  0.889736  0.889736  0.340251  1
  H  H11  1  0.110264  0.110264  0.659749  1
  H  H12  1  0.610264  0.610264  0.840251  1
  H  H13  1  0.389736  0.389736  0.159749  1
  H  H14  1  0.671157  0.908404  0.482606  1
  H  H15  1  0.091596  0.328843  0.517394  1
  H  H16  1  0.591596  0.828843  0.982606  1
  H  H17  1  0.171157  0.408404  0.017394  1
  H  H18  1  0.328843  0.091596  0.517394  1
  H  H19  1  0.908404  0.671157  0.482606  1
  H  H20  1  0.408404  0.171157  0.017394  1
  H  H21  1  0.828843  0.591596  0.982606  1
  H  H22  1  0.812973  0.812973  0.681204  1
  H  H23  1  0.187027  0.187027  0.318796  1
  H  H24  1  0.687027  0.687027  0.181204  1
  H  H25  1  0.312973  0.312973  0.818796  1
  C  C26  1  0.814242  0.814242  0.535829  1
  C  C27  1  0.185758  0.185758  0.464171  1
  C  C28  1  0.685758  0.685758  0.035829  1
  C  C29  1  0.314242  0.314242  0.964171  1
  N  N30  1  0.886268  0.886268  0.479540  1
  N  N31  1  0.113732  0.113732  0.520460  1
  N  N32  1  0.613732  0.613732  0.979540  1
  N  N33  1  0.386268  0.386268  0.020460  1
  Cl  Cl34  1  0.230721  0.730721  0.750000  1
  Cl  Cl35  1  0.269279  0.769279  0.250000  1
  Cl  Cl36  1  0.769279  0.269279  0.250000  1
  Cl  Cl37  1  0.730721  0.230721  0.750000  1
  Cl  Cl38  1  0.371258  0.371258  0.442293  1
  Cl  Cl39  1  0.628742  0.628742  0.557707  1
  Cl  Cl40  1  0.128742  0.128742  0.942293  1
  Cl  Cl41  1  0.871258  0.871258  0.057707  1
