# generated using pymatgen
data_KSbO3
_symmetry_space_group_name_H-M   'P 1'
_cell_length_a   11.42500950
_cell_length_b   3.84739866
_cell_length_c   7.87536353
_cell_angle_alpha   111.22164539
_cell_angle_beta   147.71673983
_cell_angle_gamma   61.24976218
_symmetry_Int_Tables_number   1
_chemical_formula_structural   KSbO3
_chemical_formula_sum   'K2 Sb2 O6'
_cell_volume   161.36156354
_cell_formula_units_Z   2
loop_
 _symmetry_equiv_pos_site_id
 _symmetry_equiv_pos_as_xyz
  1  'x, y, z'
loop_
 _atom_site_type_symbol
 _atom_site_label
 _atom_site_symmetry_multiplicity
 _atom_site_fract_x
 _atom_site_fract_y
 _atom_site_fract_z
 _atom_site_occupancy
  K  K0  1  0.257698  0.009991  0.378391  1
  K  K1  1  0.742302  -0.009991  0.621609  1
  Sb  Sb2  1  0.766350  0.309376  0.142610  1
  Sb  Sb3  1  0.233650  0.690624  0.857390  1
  O  O4  1  0.452656  0.664327  0.292394  1
  O  O5  1  0.067911  0.341469  0.724319  1
  O  O6  1  0.474353  0.167240  0.937487  1
  O  O7  1  0.547344  0.335673  0.707606  1
  O  O8  1  0.932089  0.658531  0.275681  1
  O  O9  1  0.525647  0.832760  0.062513  1
