# generated using pymatgen
data_K5InO4
_symmetry_space_group_name_H-M   'P 1'
_cell_length_a   13.45967650
_cell_length_b   16.91453675
_cell_length_c   17.09771714
_cell_angle_alpha   114.14836029
_cell_angle_beta   112.97889494
_cell_angle_gamma   90.25729928
_symmetry_Int_Tables_number   1
_chemical_formula_structural   K5InO4
_chemical_formula_sum   'K80 In16 O64'
_cell_volume   3206.97890911
_cell_formula_units_Z   16
loop_
 _symmetry_equiv_pos_site_id
 _symmetry_equiv_pos_as_xyz
  1  'x, y, z'
loop_
 _atom_site_type_symbol
 _atom_site_label
 _atom_site_symmetry_multiplicity
 _atom_site_fract_x
 _atom_site_fract_y
 _atom_site_fract_z
 _atom_site_occupancy
  K  K0  1  0.516260  0.875413  0.970756  1
  K  K1  1  0.889860  0.891921  0.720093  1
  K  K2  1  0.472042  0.050386  0.610907  1
  K  K3  1  0.220334  0.308572  0.445918  1
  K  K4  1  0.268346  0.865333  0.546018  1
  K  K5  1  0.416401  0.747369  0.255831  1
  K  K6  1  0.211076  0.487157  0.786351  1
  K  K7  1  0.486526  0.886211  0.161212  1
  K  K8  1  0.316009  0.944537  0.858034  1
  K  K9  1  0.585967  0.545106  0.351788  1
  K  K10  1  0.896599  0.990527  0.230953  1
  K  K11  1  0.822904  0.488451  0.401299  1
  K  K12  1  0.271653  0.189267  0.547413  1
  K  K13  1  0.728347  0.810733  0.452587  1
  K  K14  1  0.712111  0.016588  0.607025  1
  K  K15  1  0.105175  0.213291  0.885162  1
  K  K16  1  0.414033  0.454894  0.648212  1
  K  K17  1  0.177096  0.511549  0.598701  1
  K  K18  1  0.582619  0.350775  0.333866  1
  K  K19  1  0.257834  0.670979  0.021913  1
  K  K20  1  0.830703  0.732868  0.899644  1
  K  K21  1  0.967697  0.564507  0.628331  1
  K  K22  1  0.110140  0.108079  0.279907  1
  K  K23  1  0.454952  0.874171  0.746155  1
  K  K24  1  0.788924  0.512843  0.213649  1
  K  K25  1  0.966360  0.380713  0.756503  1
  K  K26  1  0.596593  0.666355  0.876000  1
  K  K27  1  0.723711  0.287297  0.645363  1
  K  K28  1  0.680801  0.764021  0.717571  1
  K  K29  1  0.133156  0.756067  0.700901  1
  K  K30  1  0.073928  0.863437  0.344546  1
  K  K31  1  0.652260  0.764150  0.108939  1
  K  K32  1  0.276289  0.712703  0.354637  1
  K  K33  1  0.731654  0.134667  0.453982  1
  K  K34  1  0.004929  0.606169  0.842349  1
  K  K35  1  0.252925  0.846383  0.995598  1
  K  K36  1  0.586027  0.634305  0.223949  1
  K  K37  1  0.000478  0.916685  0.523115  1
  K  K38  1  0.527958  0.949614  0.389093  1
  K  K39  1  0.702821  0.978094  0.780420  1
  K  K40  1  0.311034  0.521012  0.213064  1
  K  K41  1  0.103401  0.009473  0.769047  1
  K  K42  1  0.894825  0.786709  0.114838  1
  K  K43  1  0.297179  0.021906  0.219580  1
  K  K44  1  0.007457  0.605967  0.032935  1
  K  K45  1  0.999522  0.083315  0.476885  1
  K  K46  1  0.170982  0.273525  0.717801  1
  K  K47  1  0.169297  0.267132  0.100356  1
  K  K48  1  0.403407  0.333645  0.124000  1
  K  K49  1  0.926072  0.136563  0.655454  1
  K  K50  1  0.779666  0.691428  0.554082  1
  K  K51  1  0.347740  0.235850  0.891061  1
  K  K52  1  0.990997  0.198374  0.145852  1
  K  K53  1  0.319199  0.235979  0.282429  1
  K  K54  1  0.866844  0.243933  0.299099  1
  K  K55  1  0.545048  0.125829  0.253845  1
  K  K56  1  0.287889  0.983412  0.392975  1
  K  K57  1  0.583599  0.252631  0.744169  1
  K  K58  1  0.829018  0.726475  0.282199  1
  K  K59  1  0.742166  0.329021  0.978087  1
  K  K60  1  0.791296  0.360763  0.520006  1
  K  K61  1  0.465508  0.573703  0.970333  1
  K  K62  1  0.513474  0.113789  0.838788  1
  K  K63  1  0.032303  0.435493  0.371669  1
  K  K64  1  0.009003  0.801626  0.854148  1
  K  K65  1  0.021447  0.946979  0.059301  1
  K  K66  1  0.995071  0.393831  0.157651  1
  K  K67  1  0.517917  0.408737  0.506731  1
  K  K68  1  0.482083  0.591263  0.493269  1
  K  K69  1  0.978553  0.053021  0.940699  1
  K  K70  1  0.208704  0.639237  0.479994  1
  K  K71  1  0.688966  0.478988  0.786936  1
  K  K72  1  0.413973  0.365695  0.776051  1
  K  K73  1  0.483740  0.124587  0.029244  1
  K  K74  1  0.747075  0.153617  0.004402  1
  K  K75  1  0.992543  0.394033  0.967065  1
  K  K76  1  0.534492  0.426297  0.029667  1
  K  K77  1  0.683991  0.055463  0.141966  1
  K  K78  1  0.033640  0.619287  0.243497  1
  K  K79  1  0.417381  0.649225  0.666134  1
  In  In80  1  0.252592  0.073206  0.666427  1
  In  In81  1  0.969301  0.701289  0.476791  1
  In  In82  1  0.328252  0.688089  0.841658  1
  In  In83  1  0.514120  0.798218  0.515817  1
  In  In84  1  0.260329  0.439742  0.346209  1
  In  In85  1  0.030699  0.298711  0.523209  1
  In  In86  1  0.739671  0.560258  0.653791  1
  In  In87  1  0.747408  0.926794  0.333573  1
  In  In88  1  0.755231  0.943140  0.975762  1
  In  In89  1  0.155832  0.821336  0.161162  1
  In  In90  1  0.844168  0.178664  0.838838  1
  In  In91  1  0.746684  0.539893  0.012885  1
  In  In92  1  0.253316  0.460107  0.987116  1
  In  In93  1  0.485880  0.201782  0.484183  1
  In  In94  1  0.671748  0.311911  0.158342  1
  In  In95  1  0.244769  0.056860  0.024238  1
  O  O96  1  0.112928  0.505844  0.920372  1
  O  O97  1  0.887072  0.494156  0.079628  1
  O  O98  1  0.319286  0.149973  0.389695  1
  O  O99  1  0.358460  0.779293  0.794226  1
  O  O100  1  0.498872  0.685605  0.391596  1
  O  O101  1  0.605491  0.589044  0.689445  1
  O  O102  1  0.307608  0.488318  0.495209  1
  O  O103  1  0.321559  0.861797  0.195577  1
  O  O104  1  0.678441  0.138203  0.804423  1
  O  O105  1  0.096618  0.935131  0.223763  1
  O  O106  1  0.819894  0.467947  0.695552  1
  O  O107  1  0.903382  0.064869  0.776237  1
  O  O108  1  0.806824  0.990611  0.483083  1
  O  O109  1  0.501128  0.314395  0.608404  1
  O  O110  1  0.425919  0.885046  0.468518  1
  O  O111  1  0.383110  0.572867  0.782862  1
  O  O112  1  0.276115  0.156393  0.988428  1
  O  O113  1  0.574988  0.255871  0.009468  1
  O  O114  1  0.641540  0.220707  0.205774  1
  O  O115  1  0.057006  0.745394  0.417529  1
  O  O116  1  0.723885  0.843607  0.011572  1
  O  O117  1  0.147737  0.322029  0.280677  1
  O  O118  1  0.870717  0.879272  0.291156  1
  O  O119  1  0.425012  0.744129  0.990532  1
  O  O120  1  0.193176  0.009389  0.516917  1
  O  O121  1  0.034973  0.189225  0.405521  1
  O  O122  1  0.852263  0.677971  0.719323  1
  O  O123  1  0.157715  0.655054  0.799907  1
  O  O124  1  0.061684  0.767411  0.010563  1
  O  O125  1  0.321451  0.987086  0.725183  1
  O  O126  1  0.831772  0.898956  0.882463  1
  O  O127  1  0.376755  0.570879  0.100288  1
  O  O128  1  0.168228  0.101044  0.117537  1
  O  O129  1  0.129283  0.120728  0.708844  1
  O  O130  1  0.863332  0.055749  0.102190  1
  O  O131  1  0.623245  0.429121  0.899712  1
  O  O132  1  0.180106  0.532053  0.304448  1
  O  O133  1  0.842285  0.344946  0.200093  1
  O  O134  1  0.872458  0.268026  0.789902  1
  O  O135  1  0.136668  0.944251  0.897810  1
  O  O136  1  0.938316  0.232589  0.989437  1
  O  O137  1  0.211257  0.374938  0.035534  1
  O  O138  1  0.678549  0.012914  0.274817  1
  O  O139  1  0.788743  0.625062  0.964466  1
  O  O140  1  0.942994  0.254606  0.582471  1
  O  O141  1  0.965027  0.810775  0.594479  1
  O  O142  1  0.608650  0.992104  0.925598  1
  O  O143  1  0.680714  0.850027  0.610305  1
  O  O144  1  0.391350  0.007896  0.074402  1
  O  O145  1  0.041673  0.607065  0.520256  1
  O  O146  1  0.430950  0.751095  0.576944  1
  O  O147  1  0.800698  0.645097  0.381739  1
  O  O148  1  0.692392  0.511682  0.504791  1
  O  O149  1  0.394509  0.410956  0.310555  1
  O  O150  1  0.127542  0.731974  0.210098  1
  O  O151  1  0.569050  0.248905  0.423056  1
  O  O152  1  0.320753  0.396619  0.890027  1
  O  O153  1  0.679247  0.603381  0.109973  1
  O  O154  1  0.574081  0.114954  0.531482  1
  O  O155  1  0.376648  0.183348  0.719659  1
  O  O156  1  0.958327  0.392935  0.479744  1
  O  O157  1  0.623352  0.816651  0.280341  1
  O  O158  1  0.616890  0.427133  0.217138  1
  O  O159  1  0.199302  0.354903  0.618261  1
