# generated using pymatgen
data_Ca(H8O5)2
_symmetry_space_group_name_H-M   'P 1'
_cell_length_a   6.56743741
_cell_length_b   6.36182836
_cell_length_c   10.76777096
_cell_angle_alpha   86.49110071
_cell_angle_beta   90.67755300
_cell_angle_gamma   87.59179640
_symmetry_Int_Tables_number   1
_chemical_formula_structural   Ca(H8O5)2
_chemical_formula_sum   'Ca2 H32 O20'
_cell_volume   448.60052241
_cell_formula_units_Z   2
loop_
 _symmetry_equiv_pos_site_id
 _symmetry_equiv_pos_as_xyz
  1  'x, y, z'
loop_
 _atom_site_type_symbol
 _atom_site_label
 _atom_site_symmetry_multiplicity
 _atom_site_fract_x
 _atom_site_fract_y
 _atom_site_fract_z
 _atom_site_occupancy
  Ca  Ca0  1  0.953130  0.971403  0.272801  1
  Ca  Ca1  1  0.979223  0.989133  0.745558  1
  H  H2  1  0.290180  0.364922  0.376726  1
  H  H3  1  0.051828  0.399144  0.376585  1
  H  H4  1  0.870450  0.619496  0.448302  1
  H  H5  1  0.715332  0.555449  0.344091  1
  H  H6  1  0.622642  0.151980  0.387588  1
  H  H7  1  0.359943  0.732555  0.347274  1
  H  H8  1  0.300451  0.906704  0.444817  1
  H  H9  1  0.760909  0.369518  0.874573  1
  H  H10  1  0.036398  0.521700  0.870136  1
  H  H11  1  0.146334  0.692333  0.945026  1
  H  H12  1  0.227810  0.217684  0.883316  1
  H  H13  1  0.407234  0.047512  0.872943  1
  H  H14  1  0.630487  0.757605  0.845319  1
  H  H15  1  0.716187  0.868367  0.962714  1
  H  H16  1  0.719751  0.654307  0.633002  1
  H  H17  1  0.785559  0.849888  0.539023  1
  H  H18  1  0.029430  0.438371  0.650871  1
  H  H19  1  0.142527  0.290997  0.561661  1
  H  H20  1  0.389563  0.764562  0.627475  1
  H  H21  1  0.435821  0.005452  0.627383  1
  H  H22  1  0.618076  0.301668  0.647528  1
  H  H23  1  0.704158  0.132671  0.549575  1
  H  H24  1  0.010825  0.657338  0.116282  1
  H  H25  1  0.250438  0.646719  0.142202  1
  H  H26  1  0.885725  0.375137  0.177004  1
  H  H27  1  0.902160  0.295026  0.004136  1
  H  H28  1  0.607230  0.958684  0.128508  1
  H  H29  1  0.630260  0.710418  0.139786  1
  H  H30  1  0.360905  0.057795  0.237137  1
  H  H31  1  0.315044  0.114881  0.091088  1
  H  H32  1  0.370176  0.568739  0.812101  1
  H  H33  1  0.452101  0.371503  0.167527  1
  O  O34  1  0.162471  0.292184  0.401251  1
  O  O35  1  0.864117  0.596740  0.358045  1
  O  O36  1  0.739255  0.063658  0.419347  1
  O  O37  1  0.282773  0.873937  0.356045  1
  O  O38  1  0.898635  0.318294  0.900504  1
  O  O39  1  0.129484  0.646121  0.858914  1
  O  O40  1  0.268828  0.069935  0.905118  1
  O  O41  1  0.692595  0.889657  0.871047  1
  O  O42  1  0.847989  0.738531  0.598791  1
  O  O43  1  0.105299  0.303861  0.651240  1
  O  O44  1  0.320955  0.909336  0.614080  1
  O  O45  1  0.666994  0.149384  0.641974  1
  O  O46  1  0.131866  0.740593  0.108612  1
  O  O47  1  0.928391  0.254873  0.130057  1
  O  O48  1  0.710090  0.838823  0.121604  1
  O  O49  1  0.414520  0.129087  0.159246  1
  O  O50  1  0.483058  0.515814  0.320881  1
  O  O51  1  0.520912  0.539381  0.801762  1
  O  O52  1  0.538789  0.543802  0.664671  1
  O  O53  1  0.465464  0.526387  0.183197  1
