# generated using pymatgen
data_KLiNd2(MoO4)4
_symmetry_space_group_name_H-M   'P 1'
_cell_length_a   5.40774260
_cell_length_b   7.06524007
_cell_length_c   19.92222995
_cell_angle_alpha   88.69788722
_cell_angle_beta   86.60230563
_cell_angle_gamma   67.49919219
_symmetry_Int_Tables_number   1
_chemical_formula_structural   KLiNd2(MoO4)4
_chemical_formula_sum   'K2 Li2 Nd4 Mo8 O32'
_cell_volume   701.98789712
_cell_formula_units_Z   2
loop_
 _symmetry_equiv_pos_site_id
 _symmetry_equiv_pos_as_xyz
  1  'x, y, z'
loop_
 _atom_site_type_symbol
 _atom_site_label
 _atom_site_symmetry_multiplicity
 _atom_site_fract_x
 _atom_site_fract_y
 _atom_site_fract_z
 _atom_site_occupancy
  K  K0  1  0.032095  0.935836  0.750017  1
  K  K1  1  0.967905  0.064164  0.249983  1
  Li  Li2  1  0.689844  0.620627  0.249995  1
  Li  Li3  1  0.310156  0.379373  0.750005  1
  Nd  Nd4  1  0.147382  0.706440  0.533493  1
  Nd  Nd5  1  0.852618  0.293560  0.466507  1
  Nd  Nd6  1  0.853954  0.293521  0.033503  1
  Nd  Nd7  1  0.146046  0.706479  0.966497  1
  Mo  Mo8  1  0.452979  0.124669  0.907511  1
  Mo  Mo9  1  0.758213  0.510430  0.850926  1
  Mo  Mo10  1  0.577706  0.875327  0.407537  1
  Mo  Mo11  1  0.268954  0.489511  0.350916  1
  Mo  Mo12  1  0.731046  0.510489  0.649084  1
  Mo  Mo13  1  0.241787  0.489570  0.149074  1
  Mo  Mo14  1  0.422294  0.124673  0.592463  1
  Mo  Mo15  1  0.547021  0.875331  0.092489  1
  O  O16  1  0.692313  0.811947  0.170904  1
  O  O17  1  0.503983  0.188170  0.670891  1
  O  O18  1  0.931687  0.478672  0.931539  1
  O  O19  1  0.678169  0.088719  0.398718  1
  O  O20  1  0.472484  0.589145  0.713622  1
  O  O21  1  0.321831  0.911281  0.601282  1
  O  O22  1  0.221153  0.039927  0.959928  1
  O  O23  1  0.486742  0.332864  0.957045  1
  O  O24  1  0.180278  0.332850  0.542937  1
  O  O25  1  0.980601  0.276143  0.672652  1
  O  O26  1  0.938149  0.589069  0.786404  1
  O  O27  1  0.307687  0.188053  0.829096  1
  O  O28  1  0.410562  0.521333  0.431535  1
  O  O29  1  0.019399  0.723857  0.327348  1
  O  O30  1  0.061851  0.410931  0.213596  1
  O  O31  1  0.778847  0.960073  0.040072  1
  O  O32  1  0.743009  0.276073  0.827372  1
  O  O33  1  0.895380  0.689899  0.633971  1
  O  O34  1  0.738897  0.039948  0.540065  1
  O  O35  1  0.104620  0.310101  0.366029  1
  O  O36  1  0.766854  0.911241  0.898717  1
  O  O37  1  0.068313  0.521328  0.068461  1
  O  O38  1  0.496017  0.811830  0.329109  1
  O  O39  1  0.414481  0.689931  0.866022  1
  O  O40  1  0.256991  0.723927  0.172628  1
  O  O41  1  0.527516  0.410855  0.286378  1
  O  O42  1  0.589438  0.478667  0.568465  1
  O  O43  1  0.585519  0.310069  0.133978  1
  O  O44  1  0.233146  0.088759  0.101283  1
  O  O45  1  0.261103  0.960052  0.459935  1
  O  O46  1  0.819722  0.667150  0.457063  1
  O  O47  1  0.513258  0.667136  0.042955  1
