# generated using pymatgen
data_Ge3N4
_symmetry_space_group_name_H-M   'P 1'
_cell_length_a   4.89655459
_cell_length_b   5.95396460
_cell_length_c   10.10816688
_cell_angle_alpha   90.00000000
_cell_angle_beta   90.00000000
_cell_angle_gamma   90.00000000
_symmetry_Int_Tables_number   1
_chemical_formula_structural   Ge3N4
_chemical_formula_sum   'Ge12 N16'
_cell_volume   294.69261468
_cell_formula_units_Z   4
loop_
 _symmetry_equiv_pos_site_id
 _symmetry_equiv_pos_as_xyz
  1  'x, y, z'
loop_
 _atom_site_type_symbol
 _atom_site_label
 _atom_site_symmetry_multiplicity
 _atom_site_fract_x
 _atom_site_fract_y
 _atom_site_fract_z
 _atom_site_occupancy
  Ge  Ge0  1  0.551208  0.750000  0.904491  1
  Ge  Ge1  1  0.948792  0.750000  0.404491  1
  Ge  Ge2  1  0.051208  0.250000  0.595509  1
  Ge  Ge3  1  0.510955  0.250000  0.779135  1
  Ge  Ge4  1  0.500000  0.000000  0.500000  1
  Ge  Ge5  1  0.489045  0.750000  0.220865  1
  Ge  Ge6  1  0.448792  0.250000  0.095509  1
  Ge  Ge7  1  0.000000  0.000000  0.000000  1
  Ge  Ge8  1  0.010955  0.750000  0.720865  1
  Ge  Ge9  1  0.989045  0.250000  0.279135  1
  Ge  Ge10  1  0.000000  0.500000  0.000000  1
  Ge  Ge11  1  0.500000  0.500000  0.500000  1
  N  N12  1  0.678941  0.250000  0.594613  1
  N  N13  1  0.758922  0.504279  0.337562  1
  N  N14  1  0.741078  0.504279  0.837562  1
  N  N15  1  0.257084  0.250000  0.931414  1
  N  N16  1  0.742916  0.750000  0.068586  1
  N  N17  1  0.758922  0.995721  0.337562  1
  N  N18  1  0.242916  0.250000  0.431414  1
  N  N19  1  0.741078  0.995721  0.837562  1
  N  N20  1  0.258922  0.004279  0.162438  1
  N  N21  1  0.757084  0.750000  0.568586  1
  N  N22  1  0.821059  0.250000  0.094613  1
  N  N23  1  0.178941  0.750000  0.905387  1
  N  N24  1  0.258922  0.495721  0.162438  1
  N  N25  1  0.321059  0.750000  0.405387  1
  N  N26  1  0.241078  0.004279  0.662438  1
  N  N27  1  0.241078  0.495721  0.662438  1
