# generated using pymatgen
data_K3(Na13In24)2
_symmetry_space_group_name_H-M   'P 1'
_cell_length_a   16.41824188
_cell_length_b   16.41824188
_cell_length_c   16.41824188
_cell_angle_alpha   90.00000000
_cell_angle_beta   90.00000000
_cell_angle_gamma   90.00000000
_symmetry_Int_Tables_number   1
_chemical_formula_structural   K3(Na13In24)2
_chemical_formula_sum   'K6 Na52 In96'
_cell_volume   4425.67938630
_cell_formula_units_Z   2
loop_
 _symmetry_equiv_pos_site_id
 _symmetry_equiv_pos_as_xyz
  1  'x, y, z'
loop_
 _atom_site_type_symbol
 _atom_site_label
 _atom_site_symmetry_multiplicity
 _atom_site_fract_x
 _atom_site_fract_y
 _atom_site_fract_z
 _atom_site_occupancy
  K  K0  1  0.500000  0.500000  0.000000  1
  K  K1  1  0.500000  0.000000  0.500000  1
  K  K2  1  0.000000  0.500000  0.500000  1
  K  K3  1  0.500000  0.000000  0.000000  1
  K  K4  1  0.000000  0.000000  0.500000  1
  K  K5  1  0.000000  0.500000  0.000000  1
  Na  Na6  1  0.689084  0.310916  0.310916  1
  Na  Na7  1  0.636097  0.500000  0.204068  1
  Na  Na8  1  0.636097  0.500000  0.795932  1
  Na  Na9  1  0.810916  0.189084  0.189084  1
  Na  Na10  1  0.795932  0.363903  0.500000  1
  Na  Na11  1  0.863903  0.295932  0.000000  1
  Na  Na12  1  0.204068  0.363903  0.500000  1
  Na  Na13  1  0.689084  0.310916  0.689084  1
  Na  Na14  1  0.795932  0.636097  0.500000  1
  Na  Na15  1  0.863903  0.704068  0.000000  1
  Na  Na16  1  0.189084  0.810916  0.810916  1
  Na  Na17  1  0.810916  0.810916  0.189084  1
  Na  Na18  1  0.363903  0.500000  0.795932  1
  Na  Na19  1  0.189084  0.189084  0.810916  1
  Na  Na20  1  0.204068  0.636097  0.500000  1
  Na  Na21  1  0.810916  0.189084  0.810916  1
  Na  Na22  1  0.000000  0.750000  0.500000  1
  Na  Na23  1  0.500000  0.204068  0.636097  1
  Na  Na24  1  0.310916  0.689084  0.689084  1
  Na  Na25  1  0.500000  0.795932  0.636097  1
  Na  Na26  1  0.250000  0.000000  0.500000  1
  Na  Na27  1  0.500000  0.204068  0.363903  1
  Na  Na28  1  0.689084  0.689084  0.310916  1
  Na  Na29  1  0.000000  0.500000  0.750000  1
  Na  Na30  1  0.704068  0.000000  0.863903  1
  Na  Na31  1  0.000000  0.136097  0.704068  1
  Na  Na32  1  0.500000  0.750000  0.000000  1
  Na  Na33  1  0.295932  0.000000  0.863903  1
  Na  Na34  1  0.000000  0.500000  0.250000  1
  Na  Na35  1  0.310916  0.310916  0.689084  1
  Na  Na36  1  0.250000  0.500000  0.000000  1
  Na  Na37  1  0.136097  0.295932  0.000000  1
  Na  Na38  1  0.295932  0.000000  0.136097  1
  Na  Na39  1  0.810916  0.810916  0.810916  1
  Na  Na40  1  0.189084  0.189084  0.189084  1
  Na  Na41  1  0.310916  0.310916  0.310916  1
  Na  Na42  1  0.000000  0.136097  0.295932  1
  Na  Na43  1  0.136097  0.704068  0.000000  1
  Na  Na44  1  0.000000  0.250000  0.500000  1
  Na  Na45  1  0.750000  0.000000  0.500000  1
  Na  Na46  1  0.500000  0.250000  0.000000  1
  Na  Na47  1  0.363903  0.500000  0.204068  1
  Na  Na48  1  0.500000  0.000000  0.750000  1
  Na  Na49  1  0.500000  0.000000  0.250000  1
  Na  Na50  1  0.704068  0.000000  0.136097  1
  Na  Na51  1  0.689084  0.689084  0.689084  1
  Na  Na52  1  0.500000  0.795932  0.363903  1
  Na  Na53  1  0.310916  0.689084  0.310916  1
  Na  Na54  1  0.189084  0.810916  0.189084  1
  Na  Na55  1  0.000000  0.863903  0.295932  1
  Na  Na56  1  0.750000  0.500000  0.000000  1
  Na  Na57  1  0.000000  0.863903  0.704068  1
  In  In58  1  0.166756  0.829890  0.595068  1
  In  In59  1  0.092936  0.000000  0.153682  1
  In  In60  1  0.500000  0.592936  0.653682  1
  In  In61  1  0.092936  0.000000  0.846318  1
  In  In62  1  0.333244  0.095068  0.329890  1
  In  In63  1  0.000000  0.153682  0.907064  1
  In  In64  1  0.407064  0.346318  0.500000  1
  In  In65  1  0.670110  0.666756  0.904932  1
  In  In66  1  0.170110  0.595068  0.166756  1
  In  In67  1  0.407064  0.653682  0.500000  1
  In  In68  1  0.829890  0.595068  0.833244  1
  In  In69  1  0.666756  0.904932  0.670110  1
  In  In70  1  0.662603  0.180984  0.500000  1
  In  In71  1  0.153682  0.907064  0.000000  1
  In  In72  1  0.346318  0.500000  0.407064  1
  In  In73  1  0.337397  0.180984  0.500000  1
  In  In74  1  0.595068  0.166756  0.829890  1
  In  In75  1  0.404932  0.166756  0.170110  1
  In  In76  1  0.333244  0.904932  0.670110  1
  In  In77  1  0.404932  0.166756  0.829890  1
  In  In78  1  0.329890  0.666756  0.904932  1
  In  In79  1  0.837397  0.000000  0.680984  1
  In  In80  1  0.170110  0.404932  0.833244  1
  In  In81  1  0.595068  0.833244  0.829890  1
  In  In82  1  0.653682  0.500000  0.592936  1
  In  In83  1  0.329890  0.333244  0.095068  1
  In  In84  1  0.500000  0.407064  0.346318  1
  In  In85  1  0.162603  0.000000  0.319016  1
  In  In86  1  0.670110  0.333244  0.095068  1
  In  In87  1  0.670110  0.666756  0.095068  1
  In  In88  1  0.180984  0.500000  0.337397  1
  In  In89  1  0.500000  0.592936  0.346318  1
  In  In90  1  0.680984  0.162603  0.000000  1
  In  In91  1  0.907064  0.000000  0.153682  1
  In  In92  1  0.680984  0.837397  0.000000  1
  In  In93  1  0.666756  0.904932  0.329890  1
  In  In94  1  0.653682  0.500000  0.407064  1
  In  In95  1  0.500000  0.662603  0.819016  1
  In  In96  1  0.592936  0.346318  0.500000  1
  In  In97  1  0.153682  0.092936  0.000000  1
  In  In98  1  0.095068  0.670110  0.666756  1
  In  In99  1  0.095068  0.670110  0.333244  1
  In  In100  1  0.833244  0.170110  0.404932  1
  In  In101  1  0.166756  0.829890  0.404932  1
  In  In102  1  0.500000  0.337397  0.180984  1
  In  In103  1  0.404932  0.833244  0.829890  1
  In  In104  1  0.319016  0.837397  0.000000  1
  In  In105  1  0.904932  0.670110  0.666756  1
  In  In106  1  0.904932  0.329890  0.333244  1
  In  In107  1  0.829890  0.595068  0.166756  1
  In  In108  1  0.819016  0.500000  0.662603  1
  In  In109  1  0.904932  0.670110  0.333244  1
  In  In110  1  0.833244  0.829890  0.595068  1
  In  In111  1  0.000000  0.846318  0.092936  1
  In  In112  1  0.904932  0.329890  0.666756  1
  In  In113  1  0.000000  0.153682  0.092936  1
  In  In114  1  0.500000  0.662603  0.180984  1
  In  In115  1  0.829890  0.404932  0.833244  1
  In  In116  1  0.500000  0.337397  0.819016  1
  In  In117  1  0.000000  0.680984  0.162603  1
  In  In118  1  0.162603  0.000000  0.680984  1
  In  In119  1  0.846318  0.092936  0.000000  1
  In  In120  1  0.166756  0.170110  0.595068  1
  In  In121  1  0.329890  0.666756  0.095068  1
  In  In122  1  0.833244  0.170110  0.595068  1
  In  In123  1  0.170110  0.404932  0.166756  1
  In  In124  1  0.666756  0.095068  0.329890  1
  In  In125  1  0.829890  0.404932  0.166756  1
  In  In126  1  0.329890  0.333244  0.904932  1
  In  In127  1  0.662603  0.819016  0.500000  1
  In  In128  1  0.166756  0.170110  0.404932  1
  In  In129  1  0.666756  0.095068  0.670110  1
  In  In130  1  0.907064  0.000000  0.846318  1
  In  In131  1  0.333244  0.904932  0.329890  1
  In  In132  1  0.180984  0.500000  0.662603  1
  In  In133  1  0.595068  0.166756  0.170110  1
  In  In134  1  0.837397  0.000000  0.319016  1
  In  In135  1  0.000000  0.846318  0.907064  1
  In  In136  1  0.346318  0.500000  0.592936  1
  In  In137  1  0.337397  0.819016  0.500000  1
  In  In138  1  0.000000  0.319016  0.837397  1
  In  In139  1  0.000000  0.319016  0.162603  1
  In  In140  1  0.170110  0.595068  0.833244  1
  In  In141  1  0.595068  0.833244  0.170110  1
  In  In142  1  0.000000  0.680984  0.837397  1
  In  In143  1  0.670110  0.333244  0.904932  1
  In  In144  1  0.095068  0.329890  0.666756  1
  In  In145  1  0.319016  0.162603  0.000000  1
  In  In146  1  0.846318  0.907064  0.000000  1
  In  In147  1  0.592936  0.653682  0.500000  1
  In  In148  1  0.333244  0.095068  0.670110  1
  In  In149  1  0.500000  0.407064  0.653682  1
  In  In150  1  0.833244  0.829890  0.404932  1
  In  In151  1  0.404932  0.833244  0.170110  1
  In  In152  1  0.819016  0.500000  0.337397  1
  In  In153  1  0.095068  0.329890  0.333244  1
