# generated using pymatgen
data_Ta4AgS8
_symmetry_space_group_name_H-M   'P 1'
_cell_length_a   13.63180060
_cell_length_b   27.26079212
_cell_length_c   40.61370687
_cell_angle_alpha   9.42530369
_cell_angle_beta   12.53877131
_cell_angle_gamma   14.18273983
_symmetry_Int_Tables_number   1
_chemical_formula_structural   Ta4AgS8
_chemical_formula_sum   'Ta8 Ag2 S16'
_cell_volume   527.40363449
_cell_formula_units_Z   2
loop_
 _symmetry_equiv_pos_site_id
 _symmetry_equiv_pos_as_xyz
  1  'x, y, z'
loop_
 _atom_site_type_symbol
 _atom_site_label
 _atom_site_symmetry_multiplicity
 _atom_site_fract_x
 _atom_site_fract_y
 _atom_site_fract_z
 _atom_site_occupancy
  Ta  Ta0  1  0.076236  0.014327  0.040221  1
  Ta  Ta1  1  0.069855  0.518056  0.039862  1
  Ta  Ta2  1  0.076571  0.270471  0.536287  1
  Ta  Ta3  1  0.930145  0.231944  0.460138  1
  Ta  Ta4  1  0.078191  0.771757  0.534557  1
  Ta  Ta5  1  0.923764  0.735673  0.459779  1
  Ta  Ta6  1  0.923429  0.479529  0.963713  1
  Ta  Ta7  1  0.921809  0.978243  0.965443  1
  Ag  Ag8  1  0.158310  0.287621  0.580672  1
  Ag  Ag9  1  0.841690  0.462379  0.919328  1
  S  S10  1  0.225467  0.048359  0.111670  1
  S  S11  1  0.295249  0.076102  0.147136  1
  S  S12  1  0.208522  0.557054  0.111549  1
  S  S13  1  0.299427  0.573883  0.147154  1
  S  S14  1  0.700573  0.176117  0.352846  1
  S  S15  1  0.791478  0.192946  0.388451  1
  S  S16  1  0.218059  0.303936  0.610739  1
  S  S17  1  0.295341  0.323857  0.647809  1
  S  S18  1  0.704751  0.673898  0.352864  1
  S  S19  1  0.774533  0.701641  0.388330  1
  S  S20  1  0.225485  0.810369  0.603889  1
  S  S21  1  0.294482  0.821802  0.650042  1
  S  S22  1  0.704659  0.426143  0.852191  1
  S  S23  1  0.781941  0.446064  0.889261  1
  S  S24  1  0.705518  0.928198  0.849958  1
  S  S25  1  0.774515  0.939631  0.896111  1
