# generated using pymatgen
data_Na2ZnP2O7
_symmetry_space_group_name_H-M   'P 1'
_cell_length_a   7.83377751
_cell_length_b   7.83377751
_cell_length_c   10.42038230
_cell_angle_alpha   90.00000000
_cell_angle_beta   90.00000000
_cell_angle_gamma   90.00000000
_symmetry_Int_Tables_number   1
_chemical_formula_structural   Na2ZnP2O7
_chemical_formula_sum   'Na8 Zn4 P8 O28'
_cell_volume   639.47875121
_cell_formula_units_Z   4
loop_
 _symmetry_equiv_pos_site_id
 _symmetry_equiv_pos_as_xyz
  1  'x, y, z'
loop_
 _atom_site_type_symbol
 _atom_site_label
 _atom_site_symmetry_multiplicity
 _atom_site_fract_x
 _atom_site_fract_y
 _atom_site_fract_z
 _atom_site_occupancy
  O  O0  1  0.080456  0.306029  0.353190  1
  O  O1  1  0.919544  0.693971  0.353190  1
  O  O2  1  0.306029  0.080456  0.646810  1
  O  O3  1  0.806029  0.419544  0.853190  1
  O  O4  1  0.193971  0.580456  0.853190  1
  O  O5  1  0.419544  0.806029  0.146810  1
  O  O6  1  0.580456  0.193971  0.146810  1
  O  O7  1  0.693971  0.919544  0.646810  1
  O  O8  1  0.919544  0.693971  0.646810  1
  O  O9  1  0.080456  0.306029  0.646810  1
  O  O10  1  0.693971  0.919544  0.353190  1
  O  O11  1  0.193971  0.580456  0.146810  1
  O  O12  1  0.806029  0.419544  0.146810  1
  O  O13  1  0.580456  0.193971  0.853190  1
  O  O14  1  0.419544  0.806029  0.853190  1
  O  O15  1  0.306029  0.080456  0.353190  1
  O  O16  1  0.863504  0.863504  0.856519  1
  O  O17  1  0.136496  0.136496  0.856519  1
  O  O18  1  0.863504  0.863504  0.143481  1
  O  O19  1  0.363504  0.636496  0.356519  1
  O  O20  1  0.000000  0.000000  0.345406  1
  O  O21  1  0.500000  0.500000  0.845406  1
  O  O22  1  0.500000  0.500000  0.154594  1
  O  O23  1  0.000000  0.000000  0.654594  1
  O  O24  1  0.136496  0.136496  0.143481  1
  O  O25  1  0.363504  0.636496  0.643481  1
  O  O26  1  0.636496  0.363504  0.643481  1
  O  O27  1  0.636496  0.363504  0.356519  1
  Na  Na28  1  0.806078  0.193922  0.500000  1
  Na  Na29  1  0.645929  0.645929  0.500000  1
  Na  Na30  1  0.145929  0.854071  0.000000  1
  Na  Na31  1  0.193922  0.806078  0.500000  1
  Na  Na32  1  0.854071  0.145929  0.000000  1
  Na  Na33  1  0.693922  0.693922  0.000000  1
  Na  Na34  1  0.306078  0.306078  0.000000  1
  Na  Na35  1  0.354071  0.354071  0.500000  1
  P  P36  1  0.361910  0.638090  0.788678  1
  P  P37  1  0.638090  0.361910  0.788678  1
  P  P38  1  0.861910  0.861910  0.711322  1
  P  P39  1  0.361910  0.638090  0.211322  1
  P  P40  1  0.861910  0.861910  0.288678  1
  P  P41  1  0.138090  0.138090  0.711322  1
  P  P42  1  0.138090  0.138090  0.288678  1
  P  P43  1  0.638090  0.361910  0.211322  1
  Zn  Zn44  1  0.500000  0.000000  0.250000  1
  Zn  Zn45  1  0.000000  0.500000  0.250000  1
  Zn  Zn46  1  0.000000  0.500000  0.750000  1
  Zn  Zn47  1  0.500000  0.000000  0.750000  1
