# generated using pymatgen
data_InH24C6(Br2N)3
_symmetry_space_group_name_H-M   'P 1'
_cell_length_a   17.34815614
_cell_length_b   17.34815588
_cell_length_c   17.34815625
_cell_angle_alpha   117.40072430
_cell_angle_beta   117.40072385
_cell_angle_gamma   117.40072698
_symmetry_Int_Tables_number   1
_chemical_formula_structural   InH24C6(Br2N)3
_chemical_formula_sum   'In4 H96 C24 Br24 N12'
_cell_volume   2150.66114274
_cell_formula_units_Z   4
loop_
 _symmetry_equiv_pos_site_id
 _symmetry_equiv_pos_as_xyz
  1  'x, y, z'
loop_
 _atom_site_type_symbol
 _atom_site_label
 _atom_site_symmetry_multiplicity
 _atom_site_fract_x
 _atom_site_fract_y
 _atom_site_fract_z
 _atom_site_occupancy
  In  In0  1  0.500000  0.000000  0.500000  1
  In  In1  1  0.000000  0.000000  0.000000  1
  In  In2  1  0.000000  0.500000  0.500000  1
  In  In3  1  0.500000  0.500000  0.000000  1
  H  H4  1  0.436989  0.904732  0.673949  1
  H  H5  1  0.523244  0.884431  0.056415  1
  H  H6  1  0.673780  0.384810  0.451044  1
  H  H7  1  0.982133  0.351317  0.760519  1
  H  H8  1  0.122806  0.040253  0.326899  1
  H  H9  1  0.430413  0.309758  0.597894  1
  H  H10  1  0.457497  0.331926  0.517886  1
  H  H11  1  0.283354  0.243081  0.064341  1
  H  H12  1  0.198514  0.019002  0.412464  1
  H  H13  1  0.243081  0.064341  0.283354  1
  H  H14  1  0.760519  0.982133  0.351317  1
  H  H15  1  0.115569  0.943585  0.476756  1
  H  H16  1  0.402106  0.569587  0.690242  1
  H  H17  1  0.445990  0.968598  0.054163  1
  H  H18  1  0.351317  0.760519  0.982133  1
  H  H19  1  0.615190  0.548956  0.326220  1
  H  H20  1  0.320410  0.055880  0.374800  1
  H  H21  1  0.054163  0.445990  0.968598  1
  H  H22  1  0.551735  0.930478  0.799897  1
  H  H23  1  0.943585  0.476756  0.115569  1
  H  H24  1  0.451044  0.673780  0.384810  1
  H  H25  1  0.866635  0.199182  0.045410  1
  H  H26  1  0.625200  0.679590  0.944120  1
  H  H27  1  0.200103  0.448265  0.069522  1
  H  H28  1  0.326051  0.563011  0.095268  1
  H  H29  1  0.690242  0.402106  0.569587  1
  H  H30  1  0.750904  0.361825  0.878393  1
  H  H31  1  0.133365  0.800818  0.954590  1
  H  H32  1  0.968598  0.054163  0.445990  1
  H  H33  1  0.326220  0.615190  0.548956  1
  H  H34  1  0.569587  0.690242  0.402106  1
  H  H35  1  0.799897  0.551735  0.930478  1
  H  H36  1  0.517886  0.457497  0.331926  1
  H  H37  1  0.800818  0.954590  0.133365  1
  H  H38  1  0.563011  0.095268  0.326051  1
  H  H39  1  0.597894  0.430413  0.309758  1
  H  H40  1  0.554010  0.031402  0.945837  1
  H  H41  1  0.809185  0.444758  0.077457  1
  H  H42  1  0.885795  0.651023  0.108157  1
  H  H43  1  0.239481  0.017867  0.648683  1
  H  H44  1  0.309758  0.597894  0.430413  1
  H  H45  1  0.249096  0.638175  0.121607  1
  H  H46  1  0.945837  0.554010  0.031402  1
  H  H47  1  0.668074  0.482114  0.542503  1
  H  H48  1  0.959747  0.673101  0.877194  1
  H  H49  1  0.348977  0.891843  0.114205  1
  H  H50  1  0.673101  0.877194  0.959747  1
  H  H51  1  0.930478  0.799897  0.551735  1
  H  H52  1  0.031402  0.945837  0.554010  1
  H  H53  1  0.077457  0.809185  0.444758  1
  H  H54  1  0.444758  0.077457  0.809185  1
  H  H55  1  0.878393  0.750904  0.361825  1
  H  H56  1  0.716646  0.756919  0.935659  1
  H  H57  1  0.331926  0.517886  0.457497  1
  H  H58  1  0.935659  0.716646  0.756919  1
  H  H59  1  0.017867  0.648683  0.239481  1
  H  H60  1  0.756919  0.935659  0.716646  1
  H  H61  1  0.548956  0.326220  0.615190  1
  H  H62  1  0.045410  0.866635  0.199182  1
  H  H63  1  0.361825  0.878393  0.750904  1
  H  H64  1  0.374800  0.320410  0.055880  1
  H  H65  1  0.069522  0.200103  0.448265  1
  H  H66  1  0.555242  0.922543  0.190815  1
  H  H67  1  0.095268  0.326051  0.563011  1
  H  H68  1  0.326899  0.122806  0.040253  1
  H  H69  1  0.019002  0.412464  0.198514  1
  H  H70  1  0.904732  0.673949  0.436989  1
  H  H71  1  0.108157  0.885795  0.651023  1
  H  H72  1  0.542503  0.668074  0.482114  1
  H  H73  1  0.121607  0.249096  0.638175  1
  H  H74  1  0.884431  0.056415  0.523244  1
  H  H75  1  0.056415  0.523244  0.884431  1
  H  H76  1  0.801486  0.980998  0.587536  1
  H  H77  1  0.980998  0.587536  0.801486  1
  H  H78  1  0.476756  0.115569  0.943585  1
  H  H79  1  0.040253  0.326899  0.122806  1
  H  H80  1  0.954590  0.133365  0.800818  1
  H  H81  1  0.587536  0.801486  0.980998  1
  H  H82  1  0.064341  0.283354  0.243081  1
  H  H83  1  0.199182  0.045410  0.866635  1
  H  H84  1  0.651023  0.108157  0.885795  1
  H  H85  1  0.384810  0.451044  0.673780  1
  H  H86  1  0.891843  0.114205  0.348977  1
  H  H87  1  0.673949  0.436989  0.904732  1
  H  H88  1  0.922543  0.190815  0.555242  1
  H  H89  1  0.412464  0.198514  0.019002  1
  H  H90  1  0.679590  0.944120  0.625200  1
  H  H91  1  0.190815  0.555242  0.922543  1
  H  H92  1  0.944120  0.625200  0.679590  1
  H  H93  1  0.877194  0.959747  0.673101  1
  H  H94  1  0.638175  0.121607  0.249096  1
  H  H95  1  0.114205  0.348977  0.891843  1
  H  H96  1  0.482114  0.542503  0.668074  1
  H  H97  1  0.055880  0.374800  0.320410  1
  H  H98  1  0.648683  0.239481  0.017867  1
  H  H99  1  0.448265  0.069522  0.200103  1
  C  C100  1  0.720612  0.461418  0.557371  1
  C  C101  1  0.442629  0.279388  0.538582  1
  C  C102  1  0.483917  0.884478  0.090961  1
  C  C103  1  0.845478  0.001482  0.674821  1
  C  C104  1  0.535159  0.984055  0.798946  1
  C  C105  1  0.998518  0.325179  0.154522  1
  C  C106  1  0.001482  0.674821  0.845478  1
  C  C107  1  0.115522  0.909039  0.516083  1
  C  C108  1  0.279388  0.538582  0.442629  1
  C  C109  1  0.090961  0.483917  0.884478  1
  C  C110  1  0.674821  0.845478  0.001482  1
  C  C111  1  0.464841  0.015945  0.201054  1
  C  C112  1  0.516083  0.115522  0.909039  1
  C  C113  1  0.015945  0.201054  0.464841  1
  C  C114  1  0.538582  0.442629  0.279388  1
  C  C115  1  0.461418  0.557371  0.720612  1
  C  C116  1  0.984055  0.798946  0.535159  1
  C  C117  1  0.798946  0.535159  0.984055  1
  C  C118  1  0.909039  0.516083  0.115522  1
  C  C119  1  0.154522  0.998518  0.325179  1
  C  C120  1  0.884478  0.090961  0.483917  1
  C  C121  1  0.557371  0.720612  0.461418  1
  C  C122  1  0.201054  0.464841  0.015945  1
  C  C123  1  0.325179  0.154522  0.998518  1
  Br  Br124  1  0.736222  0.888626  0.826174  1
  Br  Br125  1  0.057551  0.598545  0.423034  1
  Br  Br126  1  0.276821  0.637456  0.685452  1
  Br  Br127  1  0.194481  0.216739  0.805712  1
  Br  Br128  1  0.888626  0.826174  0.736222  1
  Br  Br129  1  0.942449  0.401455  0.576966  1
  Br  Br130  1  0.216739  0.805712  0.194481  1
  Br  Br131  1  0.401455  0.576966  0.942449  1
  Br  Br132  1  0.576966  0.942449  0.401455  1
  Br  Br133  1  0.826174  0.736222  0.888626  1
  Br  Br134  1  0.805519  0.783261  0.194288  1
  Br  Br135  1  0.783261  0.194288  0.805519  1
  Br  Br136  1  0.173826  0.263778  0.111374  1
  Br  Br137  1  0.111374  0.173826  0.263778  1
  Br  Br138  1  0.805712  0.194481  0.216739  1
  Br  Br139  1  0.598545  0.423034  0.057551  1
  Br  Br140  1  0.314548  0.723179  0.362544  1
  Br  Br141  1  0.685452  0.276821  0.637456  1
  Br  Br142  1  0.723179  0.362544  0.314548  1
  Br  Br143  1  0.423034  0.057551  0.598545  1
  Br  Br144  1  0.194288  0.805519  0.783261  1
  Br  Br145  1  0.637456  0.685452  0.276821  1
  Br  Br146  1  0.263778  0.111374  0.173826  1
  Br  Br147  1  0.362544  0.314548  0.723179  1
  N  N148  1  0.093795  0.373652  0.288569  1
  N  N149  1  0.995779  0.851024  0.487048  1
  N  N150  1  0.373652  0.288569  0.093795  1
  N  N151  1  0.512952  0.004221  0.148976  1
  N  N152  1  0.004221  0.148976  0.512952  1
  N  N153  1  0.148976  0.512952  0.004221  1
  N  N154  1  0.711431  0.906205  0.626348  1
  N  N155  1  0.288569  0.093795  0.373652  1
  N  N156  1  0.906205  0.626348  0.711431  1
  N  N157  1  0.626348  0.711431  0.906205  1
  N  N158  1  0.851024  0.487048  0.995779  1
  N  N159  1  0.487048  0.995779  0.851024  1
