# generated using pymatgen
data_Ba11(Cd4Bi7)2
_symmetry_space_group_name_H-M   'P 1'
_cell_length_a   5.01776572
_cell_length_b   14.61383340
_cell_length_c   17.21519387
_cell_angle_alpha   91.43703182
_cell_angle_beta   89.99824108
_cell_angle_gamma   99.80762732
_symmetry_Int_Tables_number   1
_chemical_formula_structural   Ba11(Cd4Bi7)2
_chemical_formula_sum   'Ba11 Cd8 Bi14'
_cell_volume   1243.51738849
_cell_formula_units_Z   1
loop_
 _symmetry_equiv_pos_site_id
 _symmetry_equiv_pos_as_xyz
  1  'x, y, z'
loop_
 _atom_site_type_symbol
 _atom_site_label
 _atom_site_symmetry_multiplicity
 _atom_site_fract_x
 _atom_site_fract_y
 _atom_site_fract_z
 _atom_site_occupancy
  Ba  Ba0  1  0.749700  0.494791  0.703722  1
  Ba  Ba1  1  0.381536  0.764679  0.840048  1
  Ba  Ba2  1  0.146911  0.289269  0.534535  1
  Ba  Ba3  1  0.652964  0.309967  0.900151  1
  Ba  Ba4  1  0.994140  0.982509  0.634159  1
  Ba  Ba5  1  0.503463  0.000558  0.999650  1
  Ba  Ba6  1  0.255079  0.506375  0.297856  1
  Ba  Ba7  1  0.351284  0.690527  0.099143  1
  Ba  Ba8  1  0.852971  0.709254  0.466250  1
  Ba  Ba9  1  0.614903  0.235467  0.159953  1
  Ba  Ba10  1  0.011107  0.016999  0.367378  1
  Cd  Cd11  1  0.804709  0.597270  0.958973  1
  Cd  Cd12  1  0.368853  0.745404  0.611684  1
  Cd  Cd13  1  0.196844  0.404213  0.040031  1
  Cd  Cd14  1  0.599901  0.188582  0.684918  1
  Cd  Cd15  1  0.624149  0.252034  0.388676  1
  Cd  Cd16  1  0.943603  0.878284  0.158537  1
  Cd  Cd17  1  0.058908  0.121123  0.841152  1
  Cd  Cd18  1  0.409139  0.812206  0.315564  1
  Bi  Bi19  1  0.560613  0.114475  0.517713  1
  Bi  Bi20  1  0.909870  0.812806  0.987513  1
  Bi  Bi21  1  0.153351  0.298695  0.738483  1
  Bi  Bi22  1  0.092594  0.188292  0.011876  1
  Bi  Bi23  1  0.854631  0.700985  0.262362  1
  Bi  Bi24  1  0.866996  0.740261  0.698879  1
  Bi  Bi25  1  0.263063  0.515140  0.883033  1
  Bi  Bi26  1  0.441399  0.883837  0.483611  1
  Bi  Bi27  1  0.729013  0.457663  0.460813  1
  Bi  Bi28  1  0.493629  0.980410  0.209128  1
  Bi  Bi29  1  0.269891  0.540110  0.541128  1
  Bi  Bi30  1  0.128121  0.260815  0.301293  1
  Bi  Bi31  1  0.509515  0.018847  0.790350  1
  Bi  Bi32  1  0.738634  0.485551  0.116513  1
