# generated using pymatgen
data_Ru2S4Cl13
_symmetry_space_group_name_H-M   'P 1'
_cell_length_a   9.07187227
_cell_length_b   15.47858801
_cell_length_c   34.09813244
_cell_angle_alpha   90.00000000
_cell_angle_beta   96.64186658
_cell_angle_gamma   90.00000000
_symmetry_Int_Tables_number   1
_chemical_formula_structural   Ru2S4Cl13
_chemical_formula_sum   'Ru16 S32 Cl104'
_cell_volume   4755.91708862
_cell_formula_units_Z   8
loop_
 _symmetry_equiv_pos_site_id
 _symmetry_equiv_pos_as_xyz
  1  'x, y, z'
loop_
 _atom_site_type_symbol
 _atom_site_label
 _atom_site_symmetry_multiplicity
 _atom_site_fract_x
 _atom_site_fract_y
 _atom_site_fract_z
 _atom_site_occupancy
  Ru  Ru0  1  0.117242  0.721173  0.504275  1
  Ru  Ru1  1  0.978774  0.564872  0.231927  1
  Ru  Ru2  1  0.412714  0.786949  0.918468  1
  Ru  Ru3  1  0.855595  0.943215  0.751922  1
  Ru  Ru4  1  0.478774  0.935128  0.731927  1
  Ru  Ru5  1  0.587286  0.213051  0.081532  1
  Ru  Ru6  1  0.021226  0.435128  0.768073  1
  Ru  Ru7  1  0.882758  0.278827  0.495725  1
  Ru  Ru8  1  0.521226  0.064872  0.268073  1
  Ru  Ru9  1  0.644405  0.443215  0.748078  1
  Ru  Ru10  1  0.087286  0.286949  0.581532  1
  Ru  Ru11  1  0.355595  0.556785  0.251922  1
  Ru  Ru12  1  0.382758  0.221173  0.995725  1
  Ru  Ru13  1  0.144405  0.056785  0.248078  1
  Ru  Ru14  1  0.912714  0.713051  0.418468  1
  Ru  Ru15  1  0.617242  0.778827  0.004275  1
  S  S16  1  0.993920  0.873114  0.800625  1
  S  S17  1  0.493920  0.626886  0.300625  1
  S  S18  1  0.492754  0.215311  0.938820  1
  S  S19  1  0.271441  0.608481  0.520261  1
  S  S20  1  0.878555  0.451538  0.891764  1
  S  S21  1  0.148213  0.535141  0.289496  1
  S  S22  1  0.991746  0.057216  0.762737  1
  S  S23  1  0.121445  0.548462  0.108236  1
  S  S24  1  0.507246  0.784689  0.061180  1
  S  S25  1  0.508254  0.557216  0.737263  1
  S  S26  1  0.883887  0.795482  0.364024  1
  S  S27  1  0.228559  0.108481  0.979739  1
  S  S28  1  0.006080  0.126886  0.199375  1
  S  S29  1  0.506080  0.373114  0.699375  1
  S  S30  1  0.116113  0.204518  0.635976  1
  S  S31  1  0.378555  0.048462  0.391764  1
  S  S32  1  0.771441  0.891519  0.020261  1
  S  S33  1  0.383887  0.704518  0.864024  1
  S  S34  1  0.281300  0.818646  0.531294  1
  S  S35  1  0.351787  0.035141  0.210504  1
  S  S36  1  0.781300  0.681354  0.031294  1
  S  S37  1  0.851787  0.464859  0.710504  1
  S  S38  1  0.616113  0.295482  0.135976  1
  S  S39  1  0.007246  0.715311  0.561180  1
  S  S40  1  0.648213  0.964859  0.789496  1
  S  S41  1  0.218700  0.318646  0.968706  1
  S  S42  1  0.992754  0.284689  0.438820  1
  S  S43  1  0.718700  0.181354  0.468706  1
  S  S44  1  0.621445  0.951538  0.608236  1
  S  S45  1  0.008254  0.942784  0.237263  1
  S  S46  1  0.491746  0.442784  0.262737  1
  S  S47  1  0.728559  0.391519  0.479739  1
  Cl  Cl48  1  0.656452  0.713325  0.413196  1
  Cl  Cl49  1  0.104301  0.112293  0.147204  1
  Cl  Cl50  1  0.617440  0.101013  0.332170  1
  Cl  Cl51  1  0.141791  0.409796  0.307232  1
  Cl  Cl52  1  0.477769  0.610110  0.200343  1
  Cl  Cl53  1  0.210852  0.055216  0.426042  1
  Cl  Cl54  1  0.139817  0.075749  0.623518  1
  Cl  Cl55  1  0.674663  0.769060  0.934714  1
  Cl  Cl56  1  0.382560  0.898987  0.667830  1
  Cl  Cl57  1  0.220058  0.894522  0.046574  1
  Cl  Cl58  1  0.106782  0.124315  0.925081  1
  Cl  Cl59  1  0.169438  0.476716  0.204292  1
  Cl  Cl60  1  0.279942  0.394522  0.453426  1
  Cl  Cl61  1  0.832096  0.324385  0.766928  1
  Cl  Cl62  1  0.130682  0.784087  0.607107  1
  Cl  Cl63  1  0.108398  0.066018  0.817548  1
  Cl  Cl64  1  0.032569  0.593790  0.586578  1
  Cl  Cl65  1  0.165727  0.341974  0.738423  1
  Cl  Cl66  1  0.977769  0.889890  0.700343  1
  Cl  Cl67  1  0.809443  0.057266  0.470124  1
  Cl  Cl68  1  0.669438  0.023284  0.704292  1
  Cl  Cl69  1  0.393218  0.624315  0.574919  1
  Cl  Cl70  1  0.429945  0.900219  0.874524  1
  Cl  Cl71  1  0.869318  0.215913  0.392893  1
  Cl  Cl72  1  0.563002  0.389852  0.515552  1
  Cl  Cl73  1  0.084250  0.182862  0.527196  1
  Cl  Cl74  1  0.949463  0.574572  0.897520  1
  Cl  Cl75  1  0.167904  0.675615  0.233072  1
  Cl  Cl76  1  0.436998  0.610148  0.484448  1
  Cl  Cl77  1  0.789148  0.944784  0.573958  1
  Cl  Cl78  1  0.834273  0.658026  0.261577  1
  Cl  Cl79  1  0.334273  0.841974  0.761577  1
  Cl  Cl80  1  0.639817  0.424251  0.123518  1
  Cl  Cl81  1  0.473878  0.757757  0.293564  1
  Cl  Cl82  1  0.895699  0.887707  0.852796  1
  Cl  Cl83  1  0.720058  0.605478  0.546574  1
  Cl  Cl84  1  0.450234  0.838489  0.496671  1
  Cl  Cl85  1  0.526122  0.242243  0.706436  1
  Cl  Cl86  1  0.843548  0.213325  0.086804  1
  Cl  Cl87  1  0.415750  0.682862  0.972804  1
  Cl  Cl88  1  0.830562  0.523284  0.795708  1
  Cl  Cl89  1  0.779942  0.105478  0.953426  1
  Cl  Cl90  1  0.860183  0.924251  0.376482  1
  Cl  Cl91  1  0.343548  0.286675  0.586804  1
  Cl  Cl92  1  0.825337  0.269060  0.565286  1
  Cl  Cl93  1  0.532569  0.906210  0.086578  1
  Cl  Cl94  1  0.325337  0.230940  0.065286  1
  Cl  Cl95  1  0.665727  0.158026  0.238423  1
  Cl  Cl96  1  0.630682  0.715913  0.107107  1
  Cl  Cl97  1  0.320955  0.047969  0.736757  1
  Cl  Cl98  1  0.608398  0.433982  0.317548  1
  Cl  Cl99  1  0.395699  0.612293  0.352796  1
  Cl  Cl100  1  0.915750  0.817138  0.472804  1
  Cl  Cl101  1  0.882560  0.601013  0.167830  1
  Cl  Cl102  1  0.179045  0.547969  0.763243  1
  Cl  Cl103  1  0.584250  0.317138  0.027196  1
  Cl  Cl104  1  0.679045  0.952031  0.263243  1
  Cl  Cl105  1  0.550537  0.074572  0.602480  1
  Cl  Cl106  1  0.893218  0.875685  0.074919  1
  Cl  Cl107  1  0.973878  0.742243  0.793564  1
  Cl  Cl108  1  0.369318  0.284087  0.892893  1
  Cl  Cl109  1  0.050537  0.425428  0.102480  1
  Cl  Cl110  1  0.604301  0.387707  0.647204  1
  Cl  Cl111  1  0.026122  0.257757  0.206436  1
  Cl  Cl112  1  0.332096  0.175615  0.266928  1
  Cl  Cl113  1  0.117440  0.398987  0.832170  1
  Cl  Cl114  1  0.156452  0.786675  0.913196  1
  Cl  Cl115  1  0.943073  0.611142  0.473489  1
  Cl  Cl116  1  0.056927  0.388858  0.526511  1
  Cl  Cl117  1  0.522231  0.389890  0.799657  1
  Cl  Cl118  1  0.579483  0.700822  0.838453  1
  Cl  Cl119  1  0.570055  0.099781  0.125476  1
  Cl  Cl120  1  0.391602  0.566018  0.682452  1
  Cl  Cl121  1  0.549766  0.161511  0.503329  1
  Cl  Cl122  1  0.936998  0.889852  0.984448  1
  Cl  Cl123  1  0.820955  0.452031  0.236757  1
  Cl  Cl124  1  0.858209  0.590204  0.692768  1
  Cl  Cl125  1  0.920517  0.200822  0.661547  1
  Cl  Cl126  1  0.710852  0.444784  0.926042  1
  Cl  Cl127  1  0.967431  0.406210  0.413422  1
  Cl  Cl128  1  0.330562  0.976716  0.295708  1
  Cl  Cl129  1  0.358209  0.909796  0.192768  1
  Cl  Cl130  1  0.070055  0.400219  0.625476  1
  Cl  Cl131  1  0.022231  0.110110  0.299657  1
  Cl  Cl132  1  0.929945  0.599781  0.374524  1
  Cl  Cl133  1  0.190557  0.942734  0.529876  1
  Cl  Cl134  1  0.049766  0.338489  0.003329  1
  Cl  Cl135  1  0.443073  0.888858  0.973489  1
  Cl  Cl136  1  0.891602  0.933982  0.182452  1
  Cl  Cl137  1  0.174663  0.730940  0.434714  1
  Cl  Cl138  1  0.690557  0.557266  0.029876  1
  Cl  Cl139  1  0.950234  0.661511  0.996671  1
  Cl  Cl140  1  0.449463  0.925428  0.397520  1
  Cl  Cl141  1  0.606782  0.375685  0.425081  1
  Cl  Cl142  1  0.360183  0.575749  0.876482  1
  Cl  Cl143  1  0.667904  0.824385  0.733072  1
  Cl  Cl144  1  0.556927  0.111142  0.026511  1
  Cl  Cl145  1  0.289148  0.555216  0.073958  1
  Cl  Cl146  1  0.309443  0.442734  0.970124  1
  Cl  Cl147  1  0.641791  0.090204  0.807232  1
  Cl  Cl148  1  0.467431  0.093790  0.913422  1
  Cl  Cl149  1  0.420517  0.299178  0.161547  1
  Cl  Cl150  1  0.063002  0.110148  0.015552  1
  Cl  Cl151  1  0.079483  0.799178  0.338453  1
