# generated using pymatgen
data_LaSe
_symmetry_space_group_name_H-M   'P 1'
_cell_length_a   4.21624143
_cell_length_b   4.21545922
_cell_length_c   35.58450103
_cell_angle_alpha   89.57597457
_cell_angle_beta   89.68882080
_cell_angle_gamma   90.09865274
_symmetry_Int_Tables_number   1
_chemical_formula_structural   LaSe
_chemical_formula_sum   'La4 Se4'
_cell_volume   632.42972190
_cell_formula_units_Z   4
loop_
 _symmetry_equiv_pos_site_id
 _symmetry_equiv_pos_as_xyz
  1  'x, y, z'
loop_
 _atom_site_type_symbol
 _atom_site_label
 _atom_site_symmetry_multiplicity
 _atom_site_fract_x
 _atom_site_fract_y
 _atom_site_fract_z
 _atom_site_occupancy
  La  La0  1  0.020203  0.751948  0.215835  1
  La  La1  1  0.518094  0.245624  0.288366  1
  La  La2  1  0.922936  0.165559  0.717637  1
  La  La3  1  0.418917  0.662497  0.790079  1
  Se  Se4  1  0.520736  0.253006  0.202354  1
  Se  Se5  1  0.017489  0.744924  0.301798  1
  Se  Se6  1  0.423648  0.666266  0.703657  1
  Se  Se7  1  0.918678  0.161677  0.804074  1
