# generated using pymatgen
data_Na3Pr5Cl18
_symmetry_space_group_name_H-M   'P 1'
_cell_length_a   7.61913519
_cell_length_b   7.61913527
_cell_length_c   12.99779039
_cell_angle_alpha   90.00000000
_cell_angle_beta   90.00000000
_cell_angle_gamma   119.99999966
_symmetry_Int_Tables_number   1
_chemical_formula_structural   Na3Pr5Cl18
_chemical_formula_sum   'Na3 Pr5 Cl18'
_cell_volume   653.44874129
_cell_formula_units_Z   1
loop_
 _symmetry_equiv_pos_site_id
 _symmetry_equiv_pos_as_xyz
  1  'x, y, z'
loop_
 _atom_site_type_symbol
 _atom_site_label
 _atom_site_symmetry_multiplicity
 _atom_site_fract_x
 _atom_site_fract_y
 _atom_site_fract_z
 _atom_site_occupancy
  Na  Na0  1  0.333333  0.666667  0.750000  1
  Na  Na1  1  0.000000  0.000000  0.609578  1
  Na  Na2  1  0.000000  0.000000  0.890422  1
  Pr  Pr3  1  0.333333  0.666667  0.084811  1
  Pr  Pr4  1  0.333333  0.666667  0.415189  1
  Pr  Pr5  1  0.666667  0.333333  0.250000  1
  Pr  Pr6  1  0.666667  0.333333  0.583687  1
  Pr  Pr7  1  0.666667  0.333333  0.916313  1
  Cl  Cl8  1  0.305758  0.913652  0.250000  1
  Cl  Cl9  1  0.312131  0.921018  0.576257  1
  Cl  Cl10  1  0.312131  0.921018  0.923743  1
  Cl  Cl11  1  0.086348  0.392106  0.250000  1
  Cl  Cl12  1  0.078982  0.391113  0.576257  1
  Cl  Cl13  1  0.078982  0.391113  0.923743  1
  Cl  Cl14  1  0.390719  0.304004  0.085447  1
  Cl  Cl15  1  0.390719  0.304004  0.414553  1
  Cl  Cl16  1  0.379363  0.279157  0.750000  1
  Cl  Cl17  1  0.607894  0.694242  0.250000  1
  Cl  Cl18  1  0.608887  0.687869  0.576257  1
  Cl  Cl19  1  0.608887  0.687869  0.923743  1
  Cl  Cl20  1  0.913286  0.609281  0.085447  1
  Cl  Cl21  1  0.913286  0.609281  0.414553  1
  Cl  Cl22  1  0.899794  0.620637  0.750000  1
  Cl  Cl23  1  0.695996  0.086714  0.085447  1
  Cl  Cl24  1  0.695996  0.086714  0.414553  1
  Cl  Cl25  1  0.720843  0.100206  0.750000  1
