# generated using pymatgen
data_Ca3Cu3(PO4)4
_symmetry_space_group_name_H-M   'P 1'
_cell_length_a   4.96732362
_cell_length_b   9.02638958
_cell_length_c   14.79860186
_cell_angle_alpha   94.88637364
_cell_angle_beta   90.00000000
_cell_angle_gamma   90.00000000
_symmetry_Int_Tables_number   1
_chemical_formula_structural   Ca3Cu3(PO4)4
_chemical_formula_sum   'Ca6 Cu6 P8 O32'
_cell_volume   661.11335754
_cell_formula_units_Z   2
loop_
 _symmetry_equiv_pos_site_id
 _symmetry_equiv_pos_as_xyz
  1  'x, y, z'
loop_
 _atom_site_type_symbol
 _atom_site_label
 _atom_site_symmetry_multiplicity
 _atom_site_fract_x
 _atom_site_fract_y
 _atom_site_fract_z
 _atom_site_occupancy
  O  O0  1  0.540956  0.919678  0.240099  1
  O  O1  1  0.040956  0.580322  0.259901  1
  O  O2  1  0.459044  0.080322  0.759901  1
  O  O3  1  0.959044  0.419678  0.740099  1
  O  O4  1  0.321178  0.391545  0.857137  1
  O  O5  1  0.821178  0.108455  0.642863  1
  O  O6  1  0.678822  0.608455  0.142863  1
  O  O7  1  0.178822  0.891545  0.357137  1
  O  O8  1  0.576985  0.713861  0.349999  1
  O  O9  1  0.076985  0.786139  0.150001  1
  O  O10  1  0.423015  0.286139  0.650001  1
  O  O11  1  0.923015  0.213861  0.849999  1
  O  O12  1  0.648585  0.991604  0.399622  1
  O  O13  1  0.148585  0.508396  0.100378  1
  O  O14  1  0.351415  0.008396  0.600378  1
  O  O15  1  0.851415  0.491604  0.899622  1
  O  O16  1  0.691738  0.010887  0.082258  1
  O  O17  1  0.191738  0.489113  0.417741  1
  O  O18  1  0.308262  0.989113  0.917741  1
  O  O19  1  0.808262  0.510887  0.582259  1
  O  O20  1  0.906501  0.747515  0.680404  1
  O  O21  1  0.406501  0.752485  0.819596  1
  O  O22  1  0.093499  0.252485  0.319596  1
  O  O23  1  0.593499  0.247515  0.180404  1
  O  O24  1  0.555449  0.244320  0.009076  1
  O  O25  1  0.055449  0.255680  0.490924  1
  O  O26  1  0.444551  0.755680  0.990924  1
  O  O27  1  0.944551  0.744320  0.509076  1
  O  O28  1  0.288944  0.602694  0.600419  1
  O  O29  1  0.788944  0.897306  0.899581  1
  O  O30  1  0.711056  0.397306  0.399581  1
  O  O31  1  0.211056  0.102694  0.100419  1
  P  P32  1  0.487478  0.877692  0.340104  1
  P  P33  1  0.987478  0.622308  0.159896  1
  P  P34  1  0.512522  0.122308  0.659896  1
  P  P35  1  0.012522  0.377692  0.840104  1
  P  P36  1  0.508773  0.157302  0.093653  1
  P  P37  1  0.008773  0.342698  0.406347  1
  P  P38  1  0.491227  0.842698  0.906347  1
  P  P39  1  0.991227  0.657302  0.593653  1
  Ca  Ca40  1  0.030281  0.964536  0.765328  1
  Ca  Ca41  1  0.530281  0.535464  0.734672  1
  Ca  Ca42  1  0.969719  0.035464  0.234672  1
  Ca  Ca43  1  0.469719  0.464536  0.265328  1
  Ca  Ca44  1  0.500000  0.500000  0.000000  1
  Ca  Ca45  1  0.000000  0.000000  0.500000  1
  Cu  Cu46  1  0.030457  0.328054  0.620073  1
  Cu  Cu47  1  0.530457  0.171946  0.879927  1
  Cu  Cu48  1  0.969543  0.671946  0.379927  1
  Cu  Cu49  1  0.469543  0.828054  0.120073  1
  Cu  Cu50  1  0.500000  0.500000  0.500000  1
  Cu  Cu51  1  0.000000  0.000000  0.000000  1
