# generated using pymatgen
data_SrH6(CO3)2
_symmetry_space_group_name_H-M   'P 1'
_cell_length_a   7.62006070
_cell_length_b   8.04882120
_cell_length_c   11.44925072
_cell_angle_alpha   90.00000000
_cell_angle_beta   90.00000000
_cell_angle_gamma   90.00000000
_symmetry_Int_Tables_number   1
_chemical_formula_structural   SrH6(CO3)2
_chemical_formula_sum   'Sr4 H24 C8 O24'
_cell_volume   702.21123971
_cell_formula_units_Z   4
loop_
 _symmetry_equiv_pos_site_id
 _symmetry_equiv_pos_as_xyz
  1  'x, y, z'
loop_
 _atom_site_type_symbol
 _atom_site_label
 _atom_site_symmetry_multiplicity
 _atom_site_fract_x
 _atom_site_fract_y
 _atom_site_fract_z
 _atom_site_occupancy
  Sr  Sr0  1  0.373218  0.234623  0.545770  1
  Sr  Sr1  1  0.626782  0.734623  0.954230  1
  Sr  Sr2  1  0.126782  0.765377  0.045770  1
  Sr  Sr3  1  0.873218  0.265377  0.454230  1
  H  H4  1  0.315200  0.363386  0.158355  1
  H  H5  1  0.457609  0.670640  0.548432  1
  H  H6  1  0.309376  0.160805  0.932092  1
  H  H7  1  0.553873  0.312915  0.293343  1
  H  H8  1  0.184800  0.636614  0.658354  1
  H  H9  1  0.815200  0.136614  0.841646  1
  H  H10  1  0.853390  0.675557  0.770956  1
  H  H11  1  0.594073  0.618348  0.339865  1
  H  H12  1  0.353390  0.824443  0.229044  1
  H  H13  1  0.690624  0.660805  0.567908  1
  H  H14  1  0.190624  0.839195  0.432092  1
  H  H15  1  0.146610  0.175557  0.729044  1
  H  H16  1  0.905927  0.381652  0.839865  1
  H  H17  1  0.646610  0.324443  0.270956  1
  H  H18  1  0.684800  0.863386  0.341645  1
  H  H19  1  0.094073  0.881652  0.660135  1
  H  H20  1  0.809376  0.339195  0.067908  1
  H  H21  1  0.946127  0.687085  0.793343  1
  H  H22  1  0.446127  0.812915  0.206657  1
  H  H23  1  0.405927  0.118348  0.160135  1
  H  H24  1  0.542391  0.170640  0.951568  1
  H  H25  1  0.042391  0.329360  0.048432  1
  H  H26  1  0.053873  0.187085  0.706657  1
  H  H27  1  0.957609  0.829360  0.451568  1
  C  C28  1  0.419420  0.118172  0.987735  1
  C  C29  1  0.580580  0.618172  0.512265  1
  C  C30  1  0.919420  0.381828  0.012265  1
  C  C31  1  0.177912  0.530270  0.259099  1
  C  C32  1  0.080580  0.881828  0.487735  1
  C  C33  1  0.677912  0.969730  0.740901  1
  C  C34  1  0.322088  0.469730  0.759099  1
  C  C35  1  0.822088  0.030270  0.240901  1
  O  O36  1  0.341035  0.570507  0.851768  1
  O  O37  1  0.076773  0.048391  0.506219  1
  O  O38  1  0.258429  0.273145  0.344346  1
  O  O39  1  0.100848  0.666112  0.260951  1
  O  O40  1  0.600848  0.833888  0.739049  1
  O  O41  1  0.106647  0.793540  0.602419  1
  O  O42  1  0.158965  0.429493  0.351768  1
  O  O43  1  0.576773  0.451609  0.493781  1
  O  O44  1  0.841035  0.929493  0.148232  1
  O  O45  1  0.658965  0.070507  0.648232  1
  O  O46  1  0.223060  0.511804  0.668982  1
  O  O47  1  0.741571  0.773145  0.155654  1
  O  O48  1  0.423227  0.951609  0.006219  1
  O  O49  1  0.606647  0.706460  0.397581  1
  O  O50  1  0.776940  0.011804  0.831018  1
  O  O51  1  0.758429  0.226855  0.655654  1
  O  O52  1  0.241571  0.726855  0.844346  1
  O  O53  1  0.899152  0.166112  0.239049  1
  O  O54  1  0.723060  0.988196  0.331018  1
  O  O55  1  0.393353  0.206460  0.102419  1
  O  O56  1  0.893353  0.293540  0.897581  1
  O  O57  1  0.923227  0.548391  0.993781  1
  O  O58  1  0.399152  0.333888  0.760951  1
  O  O59  1  0.276940  0.488196  0.168982  1
