# generated using pymatgen
data_AgH8C7S2O2F7
_symmetry_space_group_name_H-M   'P 1'
_cell_length_a   9.10179456
_cell_length_b   10.88582315
_cell_length_c   13.57592597
_cell_angle_alpha   90.00000000
_cell_angle_beta   90.00000000
_cell_angle_gamma   90.00000000
_symmetry_Int_Tables_number   1
_chemical_formula_structural   AgH8C7S2O2F7
_chemical_formula_sum   'Ag4 H32 C28 S8 O8 F28'
_cell_volume   1345.10988506
_cell_formula_units_Z   4
loop_
 _symmetry_equiv_pos_site_id
 _symmetry_equiv_pos_as_xyz
  1  'x, y, z'
loop_
 _atom_site_type_symbol
 _atom_site_label
 _atom_site_symmetry_multiplicity
 _atom_site_fract_x
 _atom_site_fract_y
 _atom_site_fract_z
 _atom_site_occupancy
  Ag  Ag0  1  0.667583  0.228053  0.037203  1
  Ag  Ag1  1  0.167583  0.771947  0.962797  1
  Ag  Ag2  1  0.167583  0.271947  0.037203  1
  Ag  Ag3  1  0.667583  0.728053  0.962797  1
  H  H4  1  0.641838  0.080661  0.261322  1
  H  H5  1  0.836440  0.597907  0.760169  1
  H  H6  1  0.641838  0.580661  0.738678  1
  H  H7  1  0.336440  0.902093  0.760169  1
  H  H8  1  0.141838  0.919339  0.738678  1
  H  H9  1  0.895348  0.142941  0.819294  1
  H  H10  1  0.141838  0.419339  0.261322  1
  H  H11  1  0.337088  0.208280  0.779568  1
  H  H12  1  0.837088  0.791720  0.220432  1
  H  H13  1  0.261139  0.549438  0.272848  1
  H  H14  1  0.029578  0.258044  0.790747  1
  H  H15  1  0.529578  0.741956  0.209253  1
  H  H16  1  0.472832  0.006771  0.884546  1
  H  H17  1  0.409685  0.506208  0.989919  1
  H  H18  1  0.529578  0.241956  0.790747  1
  H  H19  1  0.337088  0.708280  0.220432  1
  H  H20  1  0.409685  0.006208  0.010081  1
  H  H21  1  0.395348  0.357059  0.819294  1
  H  H22  1  0.761139  0.450562  0.727152  1
  H  H23  1  0.972832  0.993229  0.115454  1
  H  H24  1  0.029578  0.758044  0.209253  1
  H  H25  1  0.336440  0.402093  0.239831  1
  H  H26  1  0.909685  0.493792  0.010081  1
  H  H27  1  0.472832  0.506771  0.115454  1
  H  H28  1  0.836440  0.097907  0.239831  1
  H  H29  1  0.395348  0.857059  0.180706  1
  H  H30  1  0.972832  0.493229  0.884546  1
  H  H31  1  0.261139  0.049438  0.727152  1
  H  H32  1  0.837088  0.291720  0.779568  1
  H  H33  1  0.761139  0.950562  0.272848  1
  H  H34  1  0.909685  0.993792  0.989919  1
  H  H35  1  0.895348  0.642941  0.180706  1
  C  C36  1  0.686326  0.870198  0.607675  1
  C  C37  1  0.260813  0.097056  0.207176  1
  C  C38  1  0.241614  0.963398  0.766778  1
  C  C39  1  0.920190  0.241543  0.821551  1
  C  C40  1  0.242779  0.037882  0.312617  1
  C  C41  1  0.420190  0.758457  0.178449  1
  C  C42  1  0.241614  0.463398  0.233222  1
  C  C43  1  0.760813  0.402944  0.207176  1
  C  C44  1  0.186326  0.129802  0.392325  1
  C  C45  1  0.242779  0.537882  0.687383  1
  C  C46  1  0.420190  0.258457  0.821551  1
  C  C47  1  0.741614  0.536602  0.766778  1
  C  C48  1  0.920190  0.741543  0.178449  1
  C  C49  1  0.710303  0.908128  0.497808  1
  C  C50  1  0.742779  0.462118  0.312617  1
  C  C51  1  0.390034  0.042577  0.935856  1
  C  C52  1  0.710303  0.408128  0.502192  1
  C  C53  1  0.260813  0.597056  0.792824  1
  C  C54  1  0.742779  0.962118  0.687383  1
  C  C55  1  0.210303  0.091872  0.502192  1
  C  C56  1  0.741614  0.036602  0.233222  1
  C  C57  1  0.210303  0.591872  0.497808  1
  C  C58  1  0.390034  0.542577  0.064144  1
  C  C59  1  0.890034  0.957423  0.064144  1
  C  C60  1  0.186326  0.629802  0.607675  1
  C  C61  1  0.890034  0.457423  0.935856  1
  C  C62  1  0.760813  0.902944  0.792824  1
  C  C63  1  0.686326  0.370198  0.392325  1
  S  S64  1  0.912631  0.791302  0.050621  1
  S  S65  1  0.708540  0.505072  0.895955  1
  S  S66  1  0.912631  0.291302  0.949379  1
  S  S67  1  0.412631  0.208698  0.949379  1
  S  S68  1  0.208540  0.994928  0.895955  1
  S  S69  1  0.412631  0.708698  0.050621  1
  S  S70  1  0.208540  0.494928  0.104045  1
  S  S71  1  0.708540  0.005072  0.104045  1
  O  O72  1  0.641032  0.861049  0.827276  1
  O  O73  1  0.641032  0.361049  0.172724  1
  O  O74  1  0.141032  0.138951  0.172724  1
  O  O75  1  0.885804  0.905486  0.829677  1
  O  O76  1  0.385804  0.094514  0.170323  1
  O  O77  1  0.385804  0.594514  0.829677  1
  O  O78  1  0.141032  0.638951  0.827276  1
  O  O79  1  0.885804  0.405486  0.170323  1
  F  F80  1  0.873739  0.010547  0.654931  1
  F  F81  1  0.353427  0.099179  0.528804  1
  F  F82  1  0.144040  0.941008  0.307540  1
  F  F83  1  0.353427  0.599179  0.471196  1
  F  F84  1  0.644040  0.558992  0.307540  1
  F  F85  1  0.373739  0.989453  0.345069  1
  F  F86  1  0.039046  0.147780  0.379735  1
  F  F87  1  0.256666  0.740102  0.620830  1
  F  F88  1  0.539046  0.852220  0.620265  1
  F  F89  1  0.133352  0.169262  0.561577  1
  F  F90  1  0.144040  0.441008  0.692460  1
  F  F91  1  0.662042  0.024131  0.481785  1
  F  F92  1  0.039046  0.647780  0.620265  1
  F  F93  1  0.662042  0.524131  0.518215  1
  F  F94  1  0.162042  0.475869  0.481785  1
  F  F95  1  0.373739  0.489453  0.654931  1
  F  F96  1  0.644040  0.058992  0.692460  1
  F  F97  1  0.756666  0.259898  0.379170  1
  F  F98  1  0.853427  0.900821  0.471196  1
  F  F99  1  0.873739  0.510547  0.345069  1
  F  F100  1  0.539046  0.352220  0.379735  1
  F  F101  1  0.853427  0.400821  0.528804  1
  F  F102  1  0.633352  0.830738  0.438423  1
  F  F103  1  0.756666  0.759898  0.620830  1
  F  F104  1  0.633352  0.330738  0.561577  1
  F  F105  1  0.162042  0.975869  0.518215  1
  F  F106  1  0.256666  0.240102  0.379170  1
  F  F107  1  0.133352  0.669262  0.438423  1
