# generated using pymatgen
data_K2Cu(PO3)4
_symmetry_space_group_name_H-M   'P 1'
_cell_length_a   8.27783923
_cell_length_b   8.25876294
_cell_length_c   8.25876294
_cell_angle_alpha   97.04856332
_cell_angle_beta   95.93086703
_cell_angle_gamma   95.93086702
_symmetry_Int_Tables_number   1
_chemical_formula_structural   K2Cu(PO3)4
_chemical_formula_sum   'K4 Cu2 P8 O24'
_cell_volume   553.47947188
_cell_formula_units_Z   2
loop_
 _symmetry_equiv_pos_site_id
 _symmetry_equiv_pos_as_xyz
  1  'x, y, z'
loop_
 _atom_site_type_symbol
 _atom_site_label
 _atom_site_symmetry_multiplicity
 _atom_site_fract_x
 _atom_site_fract_y
 _atom_site_fract_z
 _atom_site_occupancy
  O  O0  1  0.662913  0.122969  0.023700  1
  O  O1  1  0.162913  0.023700  0.122969  1
  O  O2  1  0.539718  0.985801  0.257092  1
  O  O3  1  0.039718  0.257092  0.985801  1
  O  O4  1  0.227497  0.088448  0.838188  1
  O  O5  1  0.727497  0.838188  0.088448  1
  O  O6  1  0.334399  0.821900  0.911587  1
  O  O7  1  0.834399  0.911587  0.821900  1
  O  O8  1  0.446330  0.975095  0.682941  1
  O  O9  1  0.946330  0.682941  0.975095  1
  O  O10  1  0.157612  0.819786  0.649270  1
  O  O11  1  0.657612  0.649270  0.819786  1
  O  O12  1  0.922106  0.735639  0.425320  1
  O  O13  1  0.422106  0.425320  0.735639  1
  O  O14  1  0.499162  0.484299  0.318829  1
  O  O15  1  -0.000838  0.318829  0.484299  1
  O  O16  1  0.290159  0.574390  0.097418  1
  O  O17  1  0.790159  0.097418  0.574390  1
  O  O18  1  0.342814  0.276888  0.096183  1
  O  O19  1  0.842814  0.096183  0.276888  1
  O  O20  1  0.568216  0.479396  0.033255  1
  O  O21  1  0.068216  0.033255  0.479396  1
  O  O22  1  0.719240  0.356446  0.806659  1
  O  O23  1  0.219240  0.806659  0.356446  1
  P  P24  1  0.307529  0.925463  0.774530  1
  P  P25  1  0.807529  0.774530  0.925463  1
  P  P26  1  0.083608  0.837551  0.462593  1
  P  P27  1  0.583608  0.462593  0.837551  1
  P  P28  1  0.919069  0.146461  0.466617  1
  P  P29  1  0.419069  0.466617  0.146461  1
  P  P30  1  0.678562  0.015397  0.159022  1
  P  P31  1  0.178562  0.159022  0.015397  1
  K  K32  1  0.900428  0.459593  0.202052  1
  K  K33  1  0.400428  0.202052  0.459593  1
  K  K34  1  0.609939  0.773565  0.498737  1
  K  K35  1  0.109939  0.498737  0.773565  1
  Cu  Cu36  1  0.253600  0.812705  0.125217  1
  Cu  Cu37  1  0.753600  0.125217  0.812705  1
