# generated using pymatgen
data_Na5Ce3Ti6Nb2O24
_symmetry_space_group_name_H-M   'P 1'
_cell_length_a   5.52642598
_cell_length_b   5.50938737
_cell_length_c   15.40086284
_cell_angle_alpha   89.88723060
_cell_angle_beta   89.98603259
_cell_angle_gamma   90.01424486
_symmetry_Int_Tables_number   1
_chemical_formula_structural   Na5Ce3Ti6Nb2O24
_chemical_formula_sum   'Na5 Ce3 Ti6 Nb2 O24'
_cell_volume   468.91254568
_cell_formula_units_Z   1
loop_
 _symmetry_equiv_pos_site_id
 _symmetry_equiv_pos_as_xyz
  1  'x, y, z'
loop_
 _atom_site_type_symbol
 _atom_site_label
 _atom_site_symmetry_multiplicity
 _atom_site_fract_x
 _atom_site_fract_y
 _atom_site_fract_z
 _atom_site_occupancy
  Na  Na0  1  0.996079  0.509475  0.123125  1
  Na  Na1  1  0.997500  0.512777  0.626767  1
  Na  Na2  1  0.502719  0.002837  0.377272  1
  Na  Na3  1  0.502727  0.019167  0.874058  1
  Na  Na4  1  0.497615  0.982210  0.623793  1
  Ce  Ce5  1  0.492578  0.984352  0.125522  1
  Ce  Ce6  1  0.004924  0.482479  0.372443  1
  Ce  Ce7  1  0.006814  0.498775  0.876330  1
  Ti  Ti8  1  0.999356  0.018117  0.001661  1
  Ti  Ti9  1  0.997987  0.987111  0.247875  1
  Ti  Ti10  1  0.999441  0.985555  0.499411  1
  Ti  Ti11  1  0.499816  0.487697  0.251218  1
  Ti  Ti12  1  0.500500  0.516743  0.751175  1
  Ti  Ti13  1  0.500768  0.514943  -0.000561  1
  Nb  Nb14  1  -0.000136  0.011165  0.744858  1
  Nb  Nb15  1  0.500276  0.490945  0.505654  1
  O  O16  1  0.998064  0.907585  0.373453  1
  O  O17  1  0.998436  0.908467  0.878258  1
  O  O18  1  0.250323  0.748388  0.226799  1
  O  O19  1  0.242027  0.742496  0.518545  1
  O  O20  1  0.245412  0.743357  0.732132  1
  O  O21  1  0.252380  0.752256  0.023623  1
  O  O22  1  0.243396  0.247964  0.472567  1
  O  O23  1  0.250411  0.248151  0.271199  1
  O  O24  1  0.247062  0.258273  0.778090  1
  O  O25  1  0.247077  0.253930  0.977130  1
  O  O26  1  0.502374  0.403894  0.124133  1
  O  O27  1  0.501234  0.407576  0.627230  1
  O  O28  1  0.496335  0.581011  0.876013  1
  O  O29  1  0.499218  0.578811  0.372213  1
  O  O30  1  0.740298  0.759867  0.023926  1
  O  O31  1  0.742337  0.756405  0.225887  1
  O  O32  1  0.752033  0.748458  0.519321  1
  O  O33  1  0.747305  0.750467  0.731849  1
  O  O34  1  0.762166  0.253274  0.472777  1
  O  O35  1  0.758344  0.255582  0.271499  1
  O  O36  1  0.758794  0.264917  0.778023  1
  O  O37  1  0.759969  0.261266  0.976608  1
  O  O38  1  0.004049  0.078215  0.125035  1
  O  O39  1  0.001992  0.085040  0.623087  1
