# generated using pymatgen
data_LiCa3Zr3TaO12
_symmetry_space_group_name_H-M   'P 1'
_cell_length_a   5.55991078
_cell_length_b   5.79924409
_cell_length_c   15.96838356
_cell_angle_alpha   90.00000000
_cell_angle_beta   89.87385259
_cell_angle_gamma   90.00000000
_symmetry_Int_Tables_number   1
_chemical_formula_structural   LiCa3Zr3TaO12
_chemical_formula_sum   'Li2 Ca6 Zr6 Ta2 O24'
_cell_volume   514.87180962
_cell_formula_units_Z   2
loop_
 _symmetry_equiv_pos_site_id
 _symmetry_equiv_pos_as_xyz
  1  'x, y, z'
loop_
 _atom_site_type_symbol
 _atom_site_label
 _atom_site_symmetry_multiplicity
 _atom_site_fract_x
 _atom_site_fract_y
 _atom_site_fract_z
 _atom_site_occupancy
  Li  Li0  1  0.464729  0.380318  0.625406  1
  Li  Li1  1  0.035271  0.880318  0.624594  1
  Ca  Ca2  1  0.013285  0.944815  0.382845  1
  Ca  Ca3  1  0.019868  0.944315  0.866126  1
  Ca  Ca4  1  0.486715  0.444815  0.867155  1
  Ca  Ca5  1  0.480132  0.444315  0.383874  1
  Ca  Ca6  1  0.517052  0.547979  0.125142  1
  Ca  Ca7  1  0.982948  0.047979  0.124858  1
  Zr  Zr8  1  0.004409  0.495162  0.998013  1
  Zr  Zr9  1  0.983119  0.480134  0.506421  1
  Zr  Zr10  1  0.495591  0.995162  0.251987  1
  Zr  Zr11  1  0.501210  0.996168  0.997164  1
  Zr  Zr12  1  0.516881  0.980134  0.743579  1
  Zr  Zr13  1  0.998790  0.496168  0.252836  1
  Ta  Ta14  1  0.503325  0.987657  0.505018  1
  Ta  Ta15  1  0.996675  0.487657  0.744982  1
  O  O16  1  0.106182  0.454115  0.124861  1
  O  O17  1  0.118040  0.513426  0.629011  1
  O  O18  1  0.188399  0.190161  0.281648  1
  O  O19  1  0.209561  0.232413  0.775168  1
  O  O20  1  0.207133  0.214902  0.472684  1
  O  O21  1  0.194115  0.191250  0.967251  1
  O  O22  1  0.305885  0.691250  0.282749  1
  O  O23  1  0.290439  0.732413  0.474832  1
  O  O24  1  0.292867  0.714902  0.777316  1
  O  O25  1  0.311601  0.690161  0.968352  1
  O  O26  1  0.393818  0.954115  0.125139  1
  O  O27  1  0.381960  0.013426  0.620989  1
  O  O28  1  0.608028  0.041066  0.870300  1
  O  O29  1  0.597325  0.034572  0.382498  1
  O  O30  1  0.697383  0.296117  0.027896  1
  O  O31  1  0.692100  0.296185  0.223969  1
  O  O32  1  0.707200  0.318545  0.722478  1
  O  O33  1  0.670037  0.306001  0.523560  1
  O  O34  1  0.807900  0.796185  0.026031  1
  O  O35  1  0.792800  0.818545  0.527522  1
  O  O36  1  0.802617  0.796117  0.222104  1
  O  O37  1  0.829963  0.806001  0.726440  1
  O  O38  1  0.891972  0.541066  0.379700  1
  O  O39  1  0.902675  0.534572  0.867502  1
