# generated using pymatgen
data_Cu(HO)2
_symmetry_space_group_name_H-M   'P 1'
_cell_length_a   5.83180204
_cell_length_b   5.83180204
_cell_length_c   5.24399527
_cell_angle_alpha   90.70075582
_cell_angle_beta   89.29924418
_cell_angle_gamma   29.37335856
_symmetry_Int_Tables_number   1
_chemical_formula_structural   Cu(HO)2
_chemical_formula_sum   'Cu2 H4 O4'
_cell_volume   87.37752160
_cell_formula_units_Z   2
loop_
 _symmetry_equiv_pos_site_id
 _symmetry_equiv_pos_as_xyz
  1  'x, y, z'
loop_
 _atom_site_type_symbol
 _atom_site_label
 _atom_site_symmetry_multiplicity
 _atom_site_fract_x
 _atom_site_fract_y
 _atom_site_fract_z
 _atom_site_occupancy
  Cu  Cu0  1  0.135486  0.220749  0.284607  1
  Cu  Cu1  1  0.779251  0.864514  0.784607  1
  H  H2  1  0.482371  0.555617  0.428969  1
  H  H3  1  0.444383  0.517629  0.928969  1
  H  H4  1  0.765485  0.965727  0.304472  1
  H  H5  1  0.034273  0.234515  0.804472  1
  O  O6  1  0.534413  0.585448  0.261849  1
  O  O7  1  0.414552  0.465587  0.761849  1
  O  O8  1  0.737070  0.845257  0.211625  1
  O  O9  1  0.154743  0.262930  0.711625  1
