# generated using pymatgen
data_AsS2N2OF9
_symmetry_space_group_name_H-M   'P 1'
_cell_length_a   7.53973021
_cell_length_b   7.55785557
_cell_length_c   7.79512311
_cell_angle_alpha   88.74897307
_cell_angle_beta   109.63726719
_cell_angle_gamma   90.27424036
_symmetry_Int_Tables_number   1
_chemical_formula_structural   AsS2N2OF9
_chemical_formula_sum   'As2 S4 N4 O2 F18'
_cell_volume   418.26251643
_cell_formula_units_Z   2
loop_
 _symmetry_equiv_pos_site_id
 _symmetry_equiv_pos_as_xyz
  1  'x, y, z'
loop_
 _atom_site_type_symbol
 _atom_site_label
 _atom_site_symmetry_multiplicity
 _atom_site_fract_x
 _atom_site_fract_y
 _atom_site_fract_z
 _atom_site_occupancy
  As  As0  1  0.714987  0.333628  0.495876  1
  As  As1  1  0.378856  0.730775  0.485988  1
  S  S2  1  0.359931  0.714976  0.037001  1
  S  S3  1  0.823726  0.709120  0.914129  1
  S  S4  1  0.252235  0.269697  0.179170  1
  S  S5  1  0.666996  0.116657  0.013349  1
  N  N6  1  0.844768  0.826735  0.609824  1
  N  N7  1  0.159098  0.715934  0.944234  1
  N  N8  1  0.710158  0.216911  0.874802  1
  N  N9  1  0.298927  0.209198  0.610138  1
  O  O10  1  0.320060  0.332985  0.698305  1
  O  O11  1  0.498368  0.780921  0.199054  1
  F  F12  1  0.753717  0.509944  0.363050  1
  F  F13  1  0.756538  0.167580  0.356929  1
  F  F14  1  0.947786  0.337982  0.642750  1
  F  F15  1  0.878590  -0.009136  0.688906  1
  F  F16  1  0.258126  0.475946  0.309317  1
  F  F17  1  0.209420  0.854407  0.314631  1
  F  F18  1  0.105279  0.375287  0.015347  1
  F  F19  1  0.234718  0.102744  0.037738  1
  F  F20  1  0.079163  0.196508  0.243018  1
  F  F21  1  0.884732  0.844456  0.455971  1
  F  F22  1  0.494997  0.920886  0.614965  1
  F  F23  1  0.739025  0.547089  0.782503  1
  F  F24  1  0.833551  0.927899  0.093674  1
  F  F25  1  0.852715  0.598918  0.091808  1
  F  F26  1  0.435380  0.393468  0.084457  1
  F  F27  1  0.487212  0.698777  0.905607  1
  F  F28  1  0.214588  0.055625  0.696666  1
  F  F29  1  0.219452  0.689182  0.602794  1
