# generated using pymatgen
data_Nd4AlSi5(NO)7
_symmetry_space_group_name_H-M   'P 1'
_cell_length_a   6.94477301
_cell_length_b   6.71255195
_cell_length_c   20.88745658
_cell_angle_alpha   88.96038641
_cell_angle_beta   90.58328172
_cell_angle_gamma   90.13585428
_symmetry_Int_Tables_number   1
_chemical_formula_structural   Nd4AlSi5(NO)7
_chemical_formula_sum   'Nd12 Al3 Si15 N21 O21'
_cell_volume   973.50062894
_cell_formula_units_Z   3
loop_
 _symmetry_equiv_pos_site_id
 _symmetry_equiv_pos_as_xyz
  1  'x, y, z'
loop_
 _atom_site_type_symbol
 _atom_site_label
 _atom_site_symmetry_multiplicity
 _atom_site_fract_x
 _atom_site_fract_y
 _atom_site_fract_z
 _atom_site_occupancy
  Nd  Nd0  1  0.409345  0.272643  0.239921  1
  Nd  Nd1  1  0.436961  0.355591  0.597110  1
  Nd  Nd2  1  0.379908  0.696989  0.054829  1
  Nd  Nd3  1  0.357998  0.229846  0.942129  1
  Nd  Nd4  1  0.337953  0.728867  0.414300  1
  Nd  Nd5  1  0.298316  0.749119  0.739700  1
  Nd  Nd6  1  0.611510  0.157413  0.086717  1
  Nd  Nd7  1  0.701987  0.246052  0.410017  1
  Nd  Nd8  1  0.618594  0.854447  0.586071  1
  Nd  Nd9  1  0.591978  0.242221  0.763394  1
  Nd  Nd10  1  0.681487  0.742809  0.215216  1
  Nd  Nd11  1  0.640335  0.802789  0.891693  1
  Al  Al12  1  0.884372  0.950260  0.002608  1
  Al  Al13  1  0.072311  0.009885  0.322052  1
  Al  Al14  1  0.152723  0.900759  0.549260  1
  Si  Si15  1  0.095268  0.524048  0.166780  1
  Si  Si16  1  0.018699  0.042060  0.659177  1
  Si  Si17  1  0.933087  0.538693  0.496214  1
  Si  Si18  1  0.897495  0.461177  0.837570  1
  Si  Si19  1  0.817948  0.541908  0.062878  1
  Si  Si20  1  0.864214  0.316925  0.271331  1
  Si  Si21  1  0.807244  0.688332  0.362953  1
  Si  Si22  1  0.900271  0.414277  0.633996  1
  Si  Si23  1  0.780015  0.634413  0.706992  1
  Si  Si24  1  0.820096  0.317836  0.966547  1
  Si  Si25  1  0.238196  0.207432  0.452597  1
  Si  Si26  1  0.159283  0.072621  0.112178  1
  Si  Si27  1  0.254675  0.861946  0.195792  1
  Si  Si28  1  0.169093  0.128439  0.810196  1
  Si  Si29  1  0.151263  0.803152  0.885688  1
  N  N30  1  0.722969  0.480109  0.315670  1
  N  N31  1  0.548162  0.607390  0.671726  1
  N  N32  1  0.329619  0.613037  0.188421  1
  N  N33  1  0.278252  0.372556  0.829871  1
  N  N34  1  0.145740  0.670768  0.502676  1
  N  N35  1  0.137031  0.559451  0.835169  1
  N  N36  1  0.809832  0.072636  0.314338  1
  N  N37  1  0.759093  0.609237  0.439174  1
  N  N38  1  0.675717  0.911542  0.341116  1
  N  N39  1  0.710599  0.758982  0.041030  1
  N  N40  1  0.678619  0.101520  0.968060  1
  N  N41  1  0.720383  0.459497  0.143897  1
  N  N42  1  0.873554  0.386221  0.189975  1
  N  N43  1  0.611388  0.121194  0.654493  1
  N  N44  1  0.801599  0.197753  0.669204  1
  N  N45  1  0.745660  0.589352  0.785855  1
  N  N46  1  0.793031  0.488198  0.562044  1
  N  N47  1  0.755047  0.465686  0.903305  1
  N  N48  1  0.494382  0.001365  0.180448  1
  N  N49  1  0.351730  0.067152  0.511776  1
  N  N50  1  0.418476  -0.012339  0.815984  1
  O  O51  1  0.455394  0.405698  0.023615  1
  O  O52  1  0.302585  0.043660  0.050104  1
  O  O53  1  0.258575  0.957097  0.269881  1
  O  O54  1  0.210455  0.289885  0.147796  1
  O  O55  1  0.226160  0.901286  0.632118  1
  O  O56  1  0.196850  0.051020  0.395125  1
  O  O57  1  0.385579  0.378599  0.422913  1
  O  O58  1  0.156350  0.079180  0.730682  1
  O  O59  1  0.338669  0.782071  0.936043  1
  O  O60  1  0.009154  0.746018  0.202423  1
  O  O61  1  0.923629  0.988140  0.574397  1
  O  O62  1  0.973544  0.803661  0.938038  1
  O  O63  1  0.941951  0.059006  0.081246  1
  O  O64  1  0.018374  0.307340  0.465667  1
  O  O65  1  0.927165  0.225031  0.813595  1
  O  O66  1  0.048788  0.580067  0.088176  1
  O  O67  1  0.036391  0.742734  0.351074  1
  O  O68  1  -0.097673  0.841528  0.694453  1
  O  O69  1  0.092274  0.289540  0.290637  1
  O  O70  1  0.117926  0.303539  0.629680  1
  O  O71  1  0.034354  0.210645  0.962200  1
