# generated using pymatgen
data_RbAl6H20N5F24
_symmetry_space_group_name_H-M   'P 1'
_cell_length_a   5.37908120
_cell_length_b   5.33835426
_cell_length_c   20.14438354
_cell_angle_alpha   104.67758097
_cell_angle_beta   106.46639423
_cell_angle_gamma   90.98802237
_symmetry_Int_Tables_number   1
_chemical_formula_structural   RbAl6H20N5F24
_chemical_formula_sum   'Rb1 Al6 H20 N5 F24'
_cell_volume   534.14882562
_cell_formula_units_Z   1
loop_
 _symmetry_equiv_pos_site_id
 _symmetry_equiv_pos_as_xyz
  1  'x, y, z'
loop_
 _atom_site_type_symbol
 _atom_site_label
 _atom_site_symmetry_multiplicity
 _atom_site_fract_x
 _atom_site_fract_y
 _atom_site_fract_z
 _atom_site_occupancy
  Rb  Rb0  1  0.255056  0.779711  0.170973  1
  Al  Al1  1  0.512670  0.440171  0.663548  1
  Al  Al2  1  0.991812  0.020400  0.005616  1
  Al  Al3  1  0.497787  0.415065  0.328083  1
  Al  Al4  1  0.010520  0.912804  0.652805  1
  Al  Al5  1  0.488167  0.506468  0.999894  1
  Al  Al6  1  0.000927  0.944990  0.338322  1
  H  H7  1  0.343567  0.710646  0.823962  1
  H  H8  1  0.707382  0.311954  0.884813  1
  H  H9  1  0.320196  0.549835  0.479306  1
  H  H10  1  0.565098  0.046347  0.760269  1
  H  H11  1  0.773583  0.419480  0.821192  1
  H  H12  1  0.940942  0.556391  0.904898  1
  H  H13  1  0.613586  0.948178  0.780128  1
  H  H14  1  -0.048871  0.185902  0.743005  1
  H  H15  1  -0.004515  0.247480  0.868476  1
  H  H16  1  0.665484  0.901436  0.415557  1
  H  H17  1  0.558083  0.503778  0.411628  1
  H  H18  1  0.839508  0.498473  0.523959  1
  H  H19  1  0.720327  0.205022  0.524441  1
  H  H20  1  0.014737  0.237064  0.510771  1
  H  H21  1  0.975559  0.371157  0.590876  1
  H  H22  1  0.712379  0.677450  0.152994  1
  H  H23  1  0.653614  0.337104  0.193896  1
  H  H24  1  0.825418  0.085982  0.200639  1
  H  H25  1  0.886391  0.259152  0.147893  1
  H  H26  1  0.973005  0.383882  0.238493  1
  N  N27  1  0.312750  0.863080  0.864159  1
  N  N28  1  0.272646  0.726050  0.507625  1
  N  N29  1  0.859479  0.378045  0.870175  1
  N  N30  1  0.887567  0.326134  0.536855  1
  N  N31  1  0.832645  0.271395  0.194296  1
  F  F32  1  0.397861  0.436982  0.908398  1
  F  F33  1  0.094362  0.076084  0.758316  1
  F  F34  1  0.247728  0.678272  0.660595  1
  F  F35  1  0.248568  0.170920  0.658382  1
  F  F36  1  0.437203  0.338015  0.572739  1
  F  F37  1  0.067281  0.084529  0.426423  1
  F  F38  1  0.873987  0.898112  0.915077  1
  F  F39  1  0.186796  0.675072  0.315538  1
  F  F40  1  0.586164  0.522141  0.756524  1
  F  F41  1  0.206747  0.150083  0.310298  1
  F  F42  1  0.781071  0.691869  0.669410  1
  F  F43  1  0.396659  0.368300  0.234549  1
  F  F44  1  0.778963  0.199188  0.674681  1
  F  F45  1  0.095654  0.143175  0.100727  1
  F  F46  1  0.851014  0.845609  0.563526  1
  F  F47  1  0.244400  0.763416  0.014977  1
  F  F48  1  0.539315  0.011978  0.426313  1
  F  F49  1  0.238218  0.265491  0.001557  1
  F  F50  1  0.740714  0.699176  0.331081  1
  F  F51  1  0.733121  0.162492  0.314300  1
  F  F52  1  0.819323  0.793541  0.211492  1
  F  F53  1  0.582800  0.554405  0.101198  1
  F  F54  1  0.749230  0.771149  0.020062  1
  F  F55  1  0.740522  0.269779  0.004822  1
