# generated using pymatgen
data_Mg3MnH7
_symmetry_space_group_name_H-M   'P 1'
_cell_length_a   4.67490007
_cell_length_b   4.67485843
_cell_length_c   10.27122933
_cell_angle_alpha   90.00000000
_cell_angle_beta   90.00000000
_cell_angle_gamma   120.00029470
_symmetry_Int_Tables_number   1
_chemical_formula_structural   Mg3MnH7
_chemical_formula_sum   'Mg6 Mn2 H14'
_cell_volume   194.39834523
_cell_formula_units_Z   2
loop_
 _symmetry_equiv_pos_site_id
 _symmetry_equiv_pos_as_xyz
  1  'x, y, z'
loop_
 _atom_site_type_symbol
 _atom_site_label
 _atom_site_symmetry_multiplicity
 _atom_site_fract_x
 _atom_site_fract_y
 _atom_site_fract_z
 _atom_site_occupancy
  Mg  Mg0  1  0.000005  0.000010  0.250000  1
  Mg  Mg1  1  0.999995  0.999990  0.750000  1
  Mg  Mg2  1  0.333317  0.666635  0.433795  1
  Mg  Mg3  1  0.666683  0.333365  0.566205  1
  Mg  Mg4  1  0.666683  0.333365  0.933795  1
  Mg  Mg5  1  0.333317  0.666635  0.066205  1
  Mn  Mn6  1  0.000000  0.000000  0.500000  1
  Mn  Mn7  1  0.000000  0.000000  0.000000  1
  H  H8  1  0.163056  0.836948  0.906936  1
  H  H9  1  0.163054  0.326107  0.906934  1
  H  H10  1  0.673892  0.836948  0.906936  1
  H  H11  1  0.836944  0.163052  0.093064  1
  H  H12  1  0.836946  0.673893  0.093066  1
  H  H13  1  0.326108  0.163052  0.093064  1
  H  H14  1  0.836944  0.163052  0.406936  1
  H  H15  1  0.836946  0.673893  0.406934  1
  H  H16  1  0.326108  0.163052  0.406936  1
  H  H17  1  0.163056  0.836948  0.593064  1
  H  H18  1  0.163054  0.326107  0.593066  1
  H  H19  1  0.673892  0.836948  0.593064  1
  H  H20  1  0.333302  0.666604  0.250000  1
  H  H21  1  0.666698  0.333396  0.750000  1
