# generated using pymatgen
data_Rb2NaNb6(PO8)3
_symmetry_space_group_name_H-M   'P 1'
_cell_length_a   8.57708899
_cell_length_b   8.57708970
_cell_length_c   8.57702942
_cell_angle_alpha   104.47082202
_cell_angle_beta   104.47082327
_cell_angle_gamma   104.44916682
_symmetry_Int_Tables_number   1
_chemical_formula_structural   Rb2NaNb6(PO8)3
_chemical_formula_sum   'Rb2 Na1 Nb6 P3 O24'
_cell_volume   557.87147496
_cell_formula_units_Z   1
loop_
 _symmetry_equiv_pos_site_id
 _symmetry_equiv_pos_as_xyz
  1  'x, y, z'
loop_
 _atom_site_type_symbol
 _atom_site_label
 _atom_site_symmetry_multiplicity
 _atom_site_fract_x
 _atom_site_fract_y
 _atom_site_fract_z
 _atom_site_occupancy
  Rb  Rb0  1  0.411686  0.105221  0.799630  1
  Rb  Rb1  1  0.894779  0.588314  0.200370  1
  Na  Na2  1  0.999505  0.000495  0.000000  1
  Nb  Nb3  1  0.146578  0.343606  0.463480  1
  Nb  Nb4  1  0.535270  0.655137  0.851306  1
  Nb  Nb5  1  0.344863  0.464730  0.148694  1
  Nb  Nb6  1  0.656394  0.853422  0.536520  1
  Nb  Nb7  1  0.463846  0.146809  0.344658  1
  Nb  Nb8  1  0.853191  0.536154  0.655342  1
  P  P9  1  0.228543  0.771457  0.000000  1
  P  P10  1  0.771429  0.000649  0.228663  1
  P  P11  1  0.999351  0.228571  0.771337  1
  O  O12  1  0.056338  0.738727  0.861179  1
  O  O13  1  0.999516  0.474690  0.523869  1
  O  O14  1  0.139766  0.260652  0.942715  1
  O  O15  1  0.080306  0.211207  0.628780  1
  O  O16  1  0.371894  0.789783  0.920512  1
  O  O17  1  0.261273  0.943662  0.138821  1
  O  O18  1  0.185551  0.429252  0.289618  1
  O  O19  1  0.210217  0.628106  0.079488  1
  O  O20  1  0.347413  0.499527  0.652879  1
  O  O21  1  0.290808  0.187024  0.430041  1
  O  O22  1  0.570748  0.814449  0.710382  1
  O  O23  1  0.500473  0.652587  0.347121  1
  O  O24  1  0.429044  0.289657  0.185261  1
  O  O25  1  0.475736  0.524264  1.000000  1
  O  O26  1  0.710343  0.570956  0.814739  1
  O  O27  1  0.525310  0.000484  0.476131  1
  O  O28  1  0.652637  0.347363  0.500000  1
  O  O29  1  0.788793  0.919694  0.371220  1
  O  O30  1  0.812976  0.709192  0.569959  1
  O  O31  1  0.739348  0.860234  0.057285  1
  O  O32  1  0.627762  0.079514  0.210424  1
  O  O33  1  0.920486  0.372238  0.789576  1
  O  O34  1  0.860378  0.056451  0.738435  1
  O  O35  1  0.943549  0.139622  0.261565  1
