# generated using pymatgen
data_Fe4P2O9
_symmetry_space_group_name_H-M   'P 1'
_cell_length_a   6.66623765
_cell_length_b   9.52567603
_cell_length_c   11.42507709
_cell_angle_alpha   90.00000000
_cell_angle_beta   90.00000000
_cell_angle_gamma   104.33790575
_symmetry_Int_Tables_number   1
_chemical_formula_structural   Fe4P2O9
_chemical_formula_sum   'Fe16 P8 O36'
_cell_volume   702.89948964
_cell_formula_units_Z   4
loop_
 _symmetry_equiv_pos_site_id
 _symmetry_equiv_pos_as_xyz
  1  'x, y, z'
loop_
 _atom_site_type_symbol
 _atom_site_label
 _atom_site_symmetry_multiplicity
 _atom_site_fract_x
 _atom_site_fract_y
 _atom_site_fract_z
 _atom_site_occupancy
  Fe  Fe0  1  0.469751  0.682214  0.134081  1
  Fe  Fe1  1  0.045234  0.882648  0.594599  1
  Fe  Fe2  1  0.228694  0.251643  0.118869  1
  Fe  Fe3  1  0.180539  0.034796  0.896445  1
  Fe  Fe4  1  0.954766  0.617352  0.094599  1
  Fe  Fe5  1  0.469751  0.182214  0.365919  1
  Fe  Fe6  1  0.180539  0.534796  0.603555  1
  Fe  Fe7  1  0.530249  0.317786  0.865919  1
  Fe  Fe8  1  0.819461  0.465204  0.396445  1
  Fe  Fe9  1  0.819461  0.965204  0.103555  1
  Fe  Fe10  1  0.954766  0.117352  0.405401  1
  Fe  Fe11  1  0.771306  0.248357  0.618869  1
  Fe  Fe12  1  0.045234  0.382648  0.905401  1
  Fe  Fe13  1  0.771306  0.748357  0.881131  1
  Fe  Fe14  1  0.228694  0.751643  0.381131  1
  Fe  Fe15  1  0.530249  0.817786  0.634081  1
  P  P16  1  0.240264  0.684776  0.869895  1
  P  P17  1  0.296732  0.425629  0.328942  1
  P  P18  1  0.759736  0.315224  0.130105  1
  P  P19  1  0.759736  0.815224  0.369895  1
  P  P20  1  0.296732  0.925629  0.171058  1
  P  P21  1  0.240264  0.184776  0.630105  1
  P  P22  1  0.703268  0.074371  0.828942  1
  P  P23  1  0.703268  0.574371  0.671058  1
  O  O24  1  0.495424  0.418197  0.392749  1
  O  O25  1  0.538513  0.742582  0.330817  1
  O  O26  1  0.835967  0.493150  0.595206  1
  O  O27  1  0.137665  0.557117  0.785900  1
  O  O28  1  0.108559  0.297772  0.619303  1
  O  O29  1  0.164033  0.506850  0.404794  1
  O  O30  1  0.248020  0.767445  0.558955  1
  O  O31  1  0.178049  0.761626  0.192745  1
  O  O32  1  0.862335  0.942883  0.285900  1
  O  O33  1  0.769536  0.895864  0.492095  1
  O  O34  1  0.891441  0.202228  0.119303  1
  O  O35  1  0.461487  0.757418  0.830817  1
  O  O36  1  0.230464  0.104136  0.507905  1
  O  O37  1  0.751980  0.732555  0.058955  1
  O  O38  1  0.248020  0.267445  0.941045  1
  O  O39  1  0.672216  0.515717  0.797673  1
  O  O40  1  0.821951  0.738374  0.692745  1
  O  O41  1  0.769536  0.395864  0.007905  1
  O  O42  1  0.504576  0.581803  0.607251  1
  O  O43  1  0.821951  0.238374  0.807255  1
  O  O44  1  0.230464  0.604136  0.992095  1
  O  O45  1  0.538513  0.242582  0.169183  1
  O  O46  1  0.137665  0.057117  0.714100  1
  O  O47  1  0.495424  0.918197  0.107251  1
  O  O48  1  0.108559  0.797772  0.880697  1
  O  O49  1  0.178049  0.261626  0.307255  1
  O  O50  1  0.164033  0.006850  0.095206  1
  O  O51  1  0.751980  0.232555  0.441045  1
  O  O52  1  0.891441  0.702228  0.380697  1
  O  O53  1  0.504576  0.081803  0.892749  1
  O  O54  1  0.862335  0.442883  0.214100  1
  O  O55  1  0.327784  0.484283  0.202327  1
  O  O56  1  0.672216  0.015717  0.702327  1
  O  O57  1  0.835967  0.993150  0.904794  1
  O  O58  1  0.461487  0.257418  0.669183  1
  O  O59  1  0.327784  0.984283  0.297673  1
