# generated using pymatgen
data_CuH11C5NO6
_symmetry_space_group_name_H-M   'P 1'
_cell_length_a   8.22215795
_cell_length_b   8.22215795
_cell_length_c   8.91104194
_cell_angle_alpha   61.95670060
_cell_angle_beta   118.04329940
_cell_angle_gamma   114.88309434
_symmetry_Int_Tables_number   1
_chemical_formula_structural   CuH11C5NO6
_chemical_formula_sum   'Cu2 H22 C10 N2 O12'
_cell_volume   453.57881788
_cell_formula_units_Z   2
loop_
 _symmetry_equiv_pos_site_id
 _symmetry_equiv_pos_as_xyz
  1  'x, y, z'
loop_
 _atom_site_type_symbol
 _atom_site_label
 _atom_site_symmetry_multiplicity
 _atom_site_fract_x
 _atom_site_fract_y
 _atom_site_fract_z
 _atom_site_occupancy
  Cu  Cu0  1  0.000000  0.500000  0.500000  1
  Cu  Cu1  1  0.500000  0.000000  0.000000  1
  H  H2  1  0.320404  0.449726  0.240768  1
  H  H3  1  0.449726  0.320404  0.259232  1
  H  H4  1  0.679596  0.550274  0.759232  1
  H  H5  1  0.550274  0.679596  0.740768  1
  H  H6  1  0.026455  0.271941  0.075357  1
  H  H7  1  0.271941  0.026455  0.424643  1
  H  H8  1  0.973545  0.728059  0.924643  1
  H  H9  1  0.728059  0.973545  0.575357  1
  H  H10  1  0.156827  0.138310  0.087567  1
  H  H11  1  0.138310  0.156827  0.412433  1
  H  H12  1  0.843173  0.861690  0.912433  1
  H  H13  1  0.861690  0.843173  0.587567  1
  H  H14  1  0.201577  0.388990  0.965144  1
  H  H15  1  0.388990  0.201577  0.534856  1
  H  H16  1  0.798423  0.611010  0.034856  1
  H  H17  1  0.611010  0.798423  0.465144  1
  H  H18  1  0.336467  0.336467  0.750000  1
  H  H19  1  0.663533  0.663533  0.250000  1
  H  H20  1  0.761043  0.184552  0.727777  1
  H  H21  1  0.184552  0.761043  0.772223  1
  H  H22  1  0.238957  0.815448  0.272223  1
  H  H23  1  0.815448  0.238957  0.227777  1
  C  C24  1  0.759307  0.321280  0.722738  1
  C  C25  1  0.321280  0.759307  0.777262  1
  C  C26  1  0.240693  0.678720  0.277262  1
  C  C27  1  0.678720  0.240693  0.222738  1
  C  C28  1  0.211488  0.211488  0.750000  1
  C  C29  1  0.788512  0.788512  0.250000  1
  C  C30  1  0.165071  0.276596  0.083042  1
  C  C31  1  0.276596  0.165071  0.416958  1
  C  C32  1  0.834929  0.723404  0.916958  1
  C  C33  1  0.723404  0.834929  0.583042  1
  N  N34  1  0.313677  0.313677  0.250000  1
  N  N35  1  0.686323  0.686323  0.750000  1
  O  O36  1  0.045333  0.238086  0.660678  1
  O  O37  1  0.238086  0.045333  0.839322  1
  O  O38  1  0.954667  0.761914  0.339322  1
  O  O39  1  0.761914  0.954667  0.160678  1
  O  O40  1  0.855072  0.476775  0.637445  1
  O  O41  1  0.476775  0.855072  0.862555  1
  O  O42  1  0.144928  0.523225  0.362555  1
  O  O43  1  0.523225  0.144928  0.137445  1
  O  O44  1  0.663363  0.316846  0.801995  1
  O  O45  1  0.316846  0.663363  0.698005  1
  O  O46  1  0.336637  0.683154  0.198005  1
  O  O47  1  0.683154  0.336637  0.301995  1
