# generated using pymatgen
data_MnH8(N2Cl)2
_symmetry_space_group_name_H-M   'P 1'
_cell_length_a   6.08271322
_cell_length_b   6.08271322
_cell_length_c   4.34069765
_cell_angle_alpha   79.31684899
_cell_angle_beta   100.68315101
_cell_angle_gamma   96.83616027
_symmetry_Int_Tables_number   1
_chemical_formula_structural   MnH8(N2Cl)2
_chemical_formula_sum   'Mn1 H8 N4 Cl2'
_cell_volume   154.48683987
_cell_formula_units_Z   1
loop_
 _symmetry_equiv_pos_site_id
 _symmetry_equiv_pos_as_xyz
  1  'x, y, z'
loop_
 _atom_site_type_symbol
 _atom_site_label
 _atom_site_symmetry_multiplicity
 _atom_site_fract_x
 _atom_site_fract_y
 _atom_site_fract_z
 _atom_site_occupancy
  Mn  Mn0  1  0.000000  0.000000  0.000000  1
  H  H1  1  0.017592  0.329480  0.471994  1
  H  H2  1  0.670520  0.982408  0.471994  1
  H  H3  1  0.982408  0.670520  0.528006  1
  H  H4  1  0.329480  0.017592  0.528006  1
  H  H5  1  0.263720  0.363967  0.708254  1
  H  H6  1  0.636033  0.736280  0.708254  1
  H  H7  1  0.736280  0.636033  0.291746  1
  H  H8  1  0.363967  0.263720  0.291746  1
  N  N9  1  0.149461  0.247366  0.608174  1
  N  N10  1  0.752634  0.850539  0.608174  1
  N  N11  1  0.850539  0.752634  0.391826  1
  N  N12  1  0.247366  0.149461  0.391826  1
  Cl  Cl13  1  0.717628  0.282372  0.000508  1
  Cl  Cl14  1  0.282372  0.717628  0.999492  1
