# generated using pymatgen
data_AlH15N5Cl3
_symmetry_space_group_name_H-M   'P 1'
_cell_length_a   13.65230350
_cell_length_b   10.69876911
_cell_length_c   6.78633791
_cell_angle_alpha   90.00000000
_cell_angle_beta   90.00000000
_cell_angle_gamma   90.00000000
_symmetry_Int_Tables_number   1
_chemical_formula_structural   AlH15N5Cl3
_chemical_formula_sum   'Al4 H60 N20 Cl12'
_cell_volume   991.23180846
_cell_formula_units_Z   4
loop_
 _symmetry_equiv_pos_site_id
 _symmetry_equiv_pos_as_xyz
  1  'x, y, z'
loop_
 _atom_site_type_symbol
 _atom_site_label
 _atom_site_symmetry_multiplicity
 _atom_site_fract_x
 _atom_site_fract_y
 _atom_site_fract_z
 _atom_site_occupancy
  Al  Al0  1  0.601307  0.250000  0.322828  1
  Al  Al1  1  0.101307  0.250000  0.177172  1
  Al  Al2  1  0.398693  0.750000  0.677172  1
  Al  Al3  1  0.898693  0.750000  0.822828  1
  H  H4  1  0.773050  0.250000  0.491525  1
  H  H5  1  0.273050  0.250000  0.008475  1
  H  H6  1  0.226950  0.750000  0.508475  1
  H  H7  1  0.726950  0.750000  0.991525  1
  H  H8  1  0.695542  0.172233  0.631459  1
  H  H9  1  0.195542  0.327767  0.868541  1
  H  H10  1  0.304458  0.672233  0.368541  1
  H  H11  1  0.804458  0.827767  0.131459  1
  H  H12  1  0.304458  0.827767  0.368541  1
  H  H13  1  0.804458  0.672233  0.131459  1
  H  H14  1  0.695542  0.327767  0.631459  1
  H  H15  1  0.195542  0.172233  0.868541  1
  H  H16  1  0.532466  0.250000  0.956711  1
  H  H17  1  0.032466  0.250000  0.543289  1
  H  H18  1  0.467534  0.750000  0.043289  1
  H  H19  1  0.967534  0.750000  0.456711  1
  H  H20  1  0.958158  0.172849  0.394848  1
  H  H21  1  0.458158  0.327151  0.105152  1
  H  H22  1  0.041842  0.672849  0.605152  1
  H  H23  1  0.541842  0.827151  0.894848  1
  H  H24  1  0.041842  0.827151  0.605152  1
  H  H25  1  0.541842  0.672849  0.894848  1
  H  H26  1  0.958158  0.327151  0.394848  1
  H  H27  1  0.458158  0.172849  0.105152  1
  H  H28  1  0.783674  0.250000  0.167412  1
  H  H29  1  0.283674  0.250000  0.332588  1
  H  H30  1  0.216326  0.750000  0.832588  1
  H  H31  1  0.716326  0.750000  0.667412  1
  H  H32  1  0.707187  0.172857  0.026904  1
  H  H33  1  0.207187  0.327143  0.473096  1
  H  H34  1  0.292813  0.672857  0.973096  1
  H  H35  1  0.792813  0.827143  0.526904  1
  H  H36  1  0.292813  0.827143  0.973096  1
  H  H37  1  0.792813  0.672857  0.526904  1
  H  H38  1  0.707187  0.327143  0.026904  1
  H  H39  1  0.207187  0.172857  0.473096  1
  H  H40  1  0.534007  0.023093  0.282403  1
  H  H41  1  0.034007  0.476907  0.217597  1
  H  H42  1  0.465993  0.523093  0.717597  1
  H  H43  1  0.965993  0.976907  0.782403  1
  H  H44  1  0.465993  0.976907  0.717597  1
  H  H45  1  0.965993  0.523093  0.782403  1
  H  H46  1  0.534007  0.476907  0.282403  1
  H  H47  1  0.034007  0.023093  0.217597  1
  H  H48  1  0.613225  0.024041  0.464580  1
  H  H49  1  0.113225  0.475959  0.035420  1
  H  H50  1  0.386775  0.524041  0.535420  1
  H  H51  1  0.886775  0.975959  0.964580  1
  H  H52  1  0.386775  0.975959  0.535420  1
  H  H53  1  0.886775  0.524041  0.964580  1
  H  H54  1  0.613225  0.475959  0.464580  1
  H  H55  1  0.113225  0.024041  0.035420  1
  H  H56  1  0.651996  0.020954  0.234966  1
  H  H57  1  0.151996  0.479046  0.265034  1
  H  H58  1  0.348004  0.520954  0.765034  1
  H  H59  1  0.848004  0.979046  0.734966  1
  H  H60  1  0.348004  0.979046  0.765034  1
  H  H61  1  0.848004  0.520954  0.734966  1
  H  H62  1  0.651996  0.479046  0.234966  1
  H  H63  1  0.151996  0.020954  0.265034  1
  N  N64  1  0.702582  0.250000  0.542544  1
  N  N65  1  0.202582  0.250000  0.957456  1
  N  N66  1  0.297418  0.750000  0.457456  1
  N  N67  1  0.797418  0.750000  0.042544  1
  N  N68  1  0.503691  0.250000  0.096098  1
  N  N69  1  0.003691  0.250000  0.403902  1
  N  N70  1  0.496309  0.750000  0.903902  1
  N  N71  1  0.996309  0.750000  0.596098  1
  N  N72  1  0.712830  0.250000  0.117878  1
  N  N73  1  0.212830  0.250000  0.382122  1
  N  N74  1  0.287170  0.750000  0.882122  1
  N  N75  1  0.787170  0.750000  0.617878  1
  N  N76  1  0.600232  0.059812  0.325919  1
  N  N77  1  0.100232  0.440188  0.174081  1
  N  N78  1  0.399768  0.559812  0.674081  1
  N  N79  1  0.899768  0.940188  0.825919  1
  N  N80  1  0.399768  0.940188  0.674081  1
  N  N81  1  0.899768  0.559812  0.825919  1
  N  N82  1  0.600232  0.440188  0.325919  1
  N  N83  1  0.100232  0.059812  0.174081  1
  Cl  Cl84  1  0.973450  0.250000  0.953511  1
  Cl  Cl85  1  0.473450  0.250000  0.546489  1
  Cl  Cl86  1  0.026550  0.750000  0.046489  1
  Cl  Cl87  1  0.526550  0.750000  0.453511  1
  Cl  Cl88  1  0.852103  0.000878  0.334477  1
  Cl  Cl89  1  0.352103  0.499122  0.165523  1
  Cl  Cl90  1  0.147897  0.500878  0.665523  1
  Cl  Cl91  1  0.647897  0.999122  0.834477  1
  Cl  Cl92  1  0.147897  0.999122  0.665523  1
  Cl  Cl93  1  0.647897  0.500878  0.834477  1
  Cl  Cl94  1  0.852103  0.499122  0.334477  1
  Cl  Cl95  1  0.352103  0.000878  0.165523  1
