# generated using pymatgen
data_AsXe2O4F9
_symmetry_space_group_name_H-M   'P 1'
_cell_length_a   5.50219152
_cell_length_b   10.69349555
_cell_length_c   19.07576299
_cell_angle_alpha   101.30615703
_cell_angle_beta   90.00000000
_cell_angle_gamma   90.00000000
_symmetry_Int_Tables_number   1
_chemical_formula_structural   AsXe2O4F9
_chemical_formula_sum   'As4 Xe8 O16 F36'
_cell_volume   1100.59203830
_cell_formula_units_Z   4
loop_
 _symmetry_equiv_pos_site_id
 _symmetry_equiv_pos_as_xyz
  1  'x, y, z'
loop_
 _atom_site_type_symbol
 _atom_site_label
 _atom_site_symmetry_multiplicity
 _atom_site_fract_x
 _atom_site_fract_y
 _atom_site_fract_z
 _atom_site_occupancy
  As  As0  1  0.151449  0.013986  0.125513  1
  As  As1  1  0.348551  0.013986  0.625513  1
  As  As2  1  0.848551  0.986014  0.874487  1
  As  As3  1  0.651449  0.986014  0.374487  1
  Xe  Xe4  1  0.119666  0.281956  0.432797  1
  Xe  Xe5  1  0.835961  0.317585  0.659602  1
  Xe  Xe6  1  0.619666  0.718044  0.067203  1
  Xe  Xe7  1  0.664039  0.317585  0.159602  1
  Xe  Xe8  1  0.880334  0.718044  0.567203  1
  Xe  Xe9  1  0.380334  0.281956  0.932797  1
  Xe  Xe10  1  0.164039  0.682415  0.340398  1
  Xe  Xe11  1  0.335961  0.682415  0.840398  1
  O  O12  1  0.869616  0.442996  0.139413  1
  O  O13  1  0.599260  0.409638  0.924188  1
  O  O14  1  0.104254  0.359282  0.976836  1
  O  O15  1  0.630384  0.442996  0.639413  1
  O  O16  1  0.130384  0.557004  0.860587  1
  O  O17  1  0.631371  0.606932  0.811507  1
  O  O18  1  0.368629  0.393068  0.188493  1
  O  O19  1  0.895746  0.640718  0.023164  1
  O  O20  1  0.395746  0.359282  0.476836  1
  O  O21  1  0.369616  0.557004  0.360587  1
  O  O22  1  0.900740  0.409638  0.424188  1
  O  O23  1  0.400740  0.590362  0.075812  1
  O  O24  1  0.099260  0.590362  0.575812  1
  O  O25  1  0.604254  0.640718  0.523164  1
  O  O26  1  0.868629  0.606932  0.311507  1
  O  O27  1  0.131371  0.393068  0.688493  1
  F  F28  1  0.612185  0.933020  0.582598  1
  F  F29  1  0.959638  0.273722  0.543522  1
  F  F30  1  0.256291  0.870353  0.149712  1
  F  F31  1  0.548851  0.843146  0.401616  1
  F  F32  1  0.887815  0.933020  0.082598  1
  F  F33  1  0.915084  0.903193  0.333453  1
  F  F34  1  0.112185  0.066980  0.917402  1
  F  F35  1  0.040362  0.726278  0.456478  1
  F  F36  1  0.756291  0.129647  0.350288  1
  F  F37  1  0.540362  0.273722  0.043522  1
  F  F38  1  0.511160  0.055894  0.705184  1
  F  F39  1  0.246656  0.257302  0.331022  1
  F  F40  1  0.084916  0.096807  0.666547  1
  F  F41  1  0.686146  0.028088  0.955147  1
  F  F42  1  0.709091  0.320511  0.760121  1
  F  F43  1  0.451149  0.156854  0.598384  1
  F  F44  1  0.209091  0.679489  0.739879  1
  F  F45  1  0.488840  0.944106  0.294816  1
  F  F46  1  0.790909  0.320511  0.260121  1
  F  F47  1  0.813854  0.028088  0.455147  1
  F  F48  1  0.584916  0.903193  0.833453  1
  F  F49  1  0.387815  0.066980  0.417402  1
  F  F50  1  0.743709  0.129647  0.850288  1
  F  F51  1  0.951149  0.843146  0.901616  1
  F  F52  1  0.186146  0.971912  0.544853  1
  F  F53  1  0.415084  0.096807  0.166547  1
  F  F54  1  0.753344  0.742698  0.668978  1
  F  F55  1  0.988840  0.055894  0.205184  1
  F  F56  1  0.746656  0.742698  0.168978  1
  F  F57  1  0.290909  0.679489  0.239879  1
  F  F58  1  0.253344  0.257302  0.831022  1
  F  F59  1  0.243709  0.870353  0.649712  1
  F  F60  1  0.459638  0.726278  0.956478  1
  F  F61  1  0.048851  0.156854  0.098384  1
  F  F62  1  0.313854  0.971912  0.044853  1
  F  F63  1  0.011160  0.944106  0.794816  1
