# generated using pymatgen
data_Ba8CaY2U4O24
_symmetry_space_group_name_H-M   'P 1'
_cell_length_a   12.38410603
_cell_length_b   12.39264463
_cell_length_c   17.63582885
_cell_angle_alpha   90.00000000
_cell_angle_beta   90.00000000
_cell_angle_gamma   90.00000000
_symmetry_Int_Tables_number   1
_chemical_formula_structural   Ba8CaY2U4O24
_chemical_formula_sum   'Ba32 Ca4 Y8 U16 O96'
_cell_volume   2706.60284058
_cell_formula_units_Z   4
loop_
 _symmetry_equiv_pos_site_id
 _symmetry_equiv_pos_as_xyz
  1  'x, y, z'
loop_
 _atom_site_type_symbol
 _atom_site_label
 _atom_site_symmetry_multiplicity
 _atom_site_fract_x
 _atom_site_fract_y
 _atom_site_fract_z
 _atom_site_occupancy
  Ba  Ba0  1  0.500000  0.264510  0.116807  1
  Ba  Ba1  1  0.500000  0.264510  0.883193  1
  Ba  Ba2  1  0.764463  0.500000  0.619115  1
  Ba  Ba3  1  0.235537  0.500000  0.380885  1
  Ba  Ba4  1  0.500000  0.735490  0.883193  1
  Ba  Ba5  1  0.500000  0.735490  0.116807  1
  Ba  Ba6  1  0.000000  0.268378  0.616238  1
  Ba  Ba7  1  0.739173  0.000000  0.617336  1
  Ba  Ba8  1  0.000000  0.761873  0.882459  1
  Ba  Ba9  1  0.764463  0.500000  0.380885  1
  Ba  Ba10  1  0.769782  0.000000  0.117020  1
  Ba  Ba11  1  0.769782  0.000000  0.882980  1
  Ba  Ba12  1  0.258672  0.500000  0.120539  1
  Ba  Ba13  1  0.000000  0.731622  0.616238  1
  Ba  Ba14  1  0.260827  0.000000  0.617336  1
  Ba  Ba15  1  0.000000  0.731622  0.383762  1
  Ba  Ba16  1  0.000000  0.268378  0.383762  1
  Ba  Ba17  1  0.500000  0.768368  0.618031  1
  Ba  Ba18  1  0.500000  0.768368  0.381969  1
  Ba  Ba19  1  0.000000  0.238127  0.117541  1
  Ba  Ba20  1  0.258672  0.500000  0.879461  1
  Ba  Ba21  1  0.500000  0.231632  0.381969  1
  Ba  Ba22  1  0.235537  0.500000  0.619115  1
  Ba  Ba23  1  0.500000  0.231632  0.618031  1
  Ba  Ba24  1  0.739173  0.000000  0.382664  1
  Ba  Ba25  1  0.741328  0.500000  0.120539  1
  Ba  Ba26  1  0.230218  0.000000  0.117020  1
  Ba  Ba27  1  0.741328  0.500000  0.879461  1
  Ba  Ba28  1  0.260827  0.000000  0.382664  1
  Ba  Ba29  1  0.000000  0.238127  0.882459  1
  Ba  Ba30  1  0.000000  0.761873  0.117541  1
  Ba  Ba31  1  0.230218  0.000000  0.882980  1
  Ca  Ca32  1  0.500000  0.500000  0.500000  1
  Ca  Ca33  1  0.000000  0.000000  0.500000  1
  Ca  Ca34  1  0.500000  0.000000  0.000000  1
  Ca  Ca35  1  0.000000  0.500000  0.000000  1
  Y  Y36  1  0.750149  0.249413  0.250000  1
  Y  Y37  1  0.249851  0.750587  0.250000  1
  Y  Y38  1  0.750149  0.750587  0.250000  1
  Y  Y39  1  0.249851  0.750587  0.750000  1
  Y  Y40  1  0.249851  0.249413  0.750000  1
  Y  Y41  1  0.750149  0.750587  0.750000  1
  Y  Y42  1  0.249851  0.249413  0.250000  1
  Y  Y43  1  0.750149  0.249413  0.750000  1
  U  U44  1  0.500000  0.500000  0.746921  1
  U  U45  1  0.000000  0.000000  0.746503  1
  U  U46  1  0.751382  0.748781  0.500000  1
  U  U47  1  0.248618  0.251219  0.500000  1
  U  U48  1  0.500000  0.500000  0.253079  1
  U  U49  1  0.248618  0.748781  0.500000  1
  U  U50  1  0.000000  0.500000  0.753609  1
  U  U51  1  0.000000  0.000000  0.253497  1
  U  U52  1  0.750782  0.250517  0.000000  1
  U  U53  1  0.500000  0.000000  0.752843  1
  U  U54  1  0.750782  0.749483  0.000000  1
  U  U55  1  0.249218  0.749483  0.000000  1
  U  U56  1  0.751382  0.251219  0.500000  1
  U  U57  1  0.500000  0.000000  0.247157  1
  U  U58  1  0.000000  0.500000  0.246391  1
  U  U59  1  0.249218  0.250517  0.000000  1
  O  O60  1  0.377696  0.621462  0.751566  1
  O  O61  1  0.630921  0.631039  0.500000  1
  O  O62  1  0.755019  0.746843  0.377352  1
  O  O63  1  0.878217  0.120466  0.752381  1
  O  O64  1  0.127443  0.366668  0.000000  1
  O  O65  1  0.369079  0.368961  0.500000  1
  O  O66  1  0.121783  0.120466  0.247619  1
  O  O67  1  0.879536  0.378076  0.250542  1
  O  O68  1  0.000000  0.500000  0.639163  1
  O  O69  1  0.135295  0.866944  0.000000  1
  O  O70  1  0.362625  0.865956  0.500000  1
  O  O71  1  0.130793  0.131314  0.500000  1
  O  O72  1  0.379256  0.122042  0.253134  1
  O  O73  1  0.127443  0.633332  0.000000  1
  O  O74  1  0.134093  0.366937  0.500000  1
  O  O75  1  0.500000  0.000000  0.361645  1
  O  O76  1  0.121783  0.120466  0.752381  1
  O  O77  1  0.878217  0.120466  0.247619  1
  O  O78  1  0.872557  0.366668  0.000000  1
  O  O79  1  0.000000  0.500000  0.131054  1
  O  O80  1  0.879536  0.378076  0.749458  1
  O  O81  1  0.500000  0.000000  0.868007  1
  O  O82  1  0.379256  0.122042  0.746866  1
  O  O83  1  0.864705  0.133056  0.000000  1
  O  O84  1  0.120464  0.621924  0.749458  1
  O  O85  1  0.637375  0.134044  0.500000  1
  O  O86  1  0.637375  0.865956  0.500000  1
  O  O87  1  0.000000  0.500000  0.360837  1
  O  O88  1  0.865907  0.366937  0.500000  1
  O  O89  1  0.245523  0.252121  0.122796  1
  O  O90  1  0.878217  0.879534  0.752381  1
  O  O91  1  0.865907  0.633063  0.500000  1
  O  O92  1  0.369079  0.631039  0.500000  1
  O  O93  1  0.622304  0.621462  0.751566  1
  O  O94  1  0.872557  0.633332  0.000000  1
  O  O95  1  0.638995  0.367730  0.000000  1
  O  O96  1  0.754477  0.252121  0.122796  1
  O  O97  1  0.500000  0.500000  0.632321  1
  O  O98  1  0.500000  0.500000  0.860880  1
  O  O99  1  0.500000  0.500000  0.139120  1
  O  O100  1  0.620744  0.877958  0.746866  1
  O  O101  1  0.120464  0.621924  0.250542  1
  O  O102  1  0.121783  0.879534  0.752381  1
  O  O103  1  0.500000  0.000000  0.131993  1
  O  O104  1  0.869207  0.131314  0.500000  1
  O  O105  1  0.134093  0.633063  0.500000  1
  O  O106  1  0.121783  0.879534  0.247619  1
  O  O107  1  0.754477  0.747879  0.877204  1
  O  O108  1  0.630017  0.132783  0.000000  1
  O  O109  1  0.377696  0.378538  0.751566  1
  O  O110  1  0.000000  0.000000  0.631519  1
  O  O111  1  0.622304  0.621462  0.248434  1
  O  O112  1  0.379256  0.877958  0.746866  1
  O  O113  1  0.369983  0.867217  0.000000  1
  O  O114  1  0.245523  0.747879  0.877204  1
  O  O115  1  0.135295  0.133056  0.000000  1
  O  O116  1  0.379256  0.877958  0.253134  1
  O  O117  1  0.120464  0.378076  0.250542  1
  O  O118  1  0.500000  0.500000  0.367679  1
  O  O119  1  0.000000  0.500000  0.868946  1
  O  O120  1  0.361005  0.367730  0.000000  1
  O  O121  1  0.755019  0.253157  0.622648  1
  O  O122  1  0.864705  0.866944  0.000000  1
  O  O123  1  0.638995  0.632270  0.000000  1
  O  O124  1  0.000000  0.000000  0.368481  1
  O  O125  1  0.622304  0.378538  0.751566  1
  O  O126  1  0.000000  0.000000  0.861764  1
  O  O127  1  0.879536  0.621924  0.749458  1
  O  O128  1  0.620744  0.122042  0.746866  1
  O  O129  1  0.130793  0.868686  0.500000  1
  O  O130  1  0.362625  0.134044  0.500000  1
  O  O131  1  0.245523  0.747879  0.122796  1
  O  O132  1  0.755019  0.746843  0.622648  1
  O  O133  1  0.244981  0.253157  0.622648  1
  O  O134  1  0.878217  0.879534  0.247619  1
  O  O135  1  0.869207  0.868686  0.500000  1
  O  O136  1  0.361005  0.632270  0.000000  1
  O  O137  1  0.244981  0.253157  0.377352  1
  O  O138  1  0.755019  0.253157  0.377352  1
  O  O139  1  0.377696  0.621462  0.248434  1
  O  O140  1  0.377696  0.378538  0.248434  1
  O  O141  1  0.245523  0.252121  0.877204  1
  O  O142  1  0.244981  0.746843  0.377352  1
  O  O143  1  0.630017  0.867217  0.000000  1
  O  O144  1  0.620744  0.122042  0.253134  1
  O  O145  1  0.754477  0.252121  0.877204  1
  O  O146  1  0.000000  0.000000  0.138236  1
  O  O147  1  0.369983  0.132783  0.000000  1
  O  O148  1  0.120464  0.378076  0.749458  1
  O  O149  1  0.754477  0.747879  0.122796  1
  O  O150  1  0.620744  0.877958  0.253134  1
  O  O151  1  0.879536  0.621924  0.250542  1
  O  O152  1  0.630921  0.368961  0.500000  1
  O  O153  1  0.622304  0.378538  0.248434  1
  O  O154  1  0.500000  0.000000  0.638355  1
  O  O155  1  0.244981  0.746843  0.622648  1
