# generated using pymatgen
data_Dy5Mg24
_symmetry_space_group_name_H-M   'P 1'
_cell_length_a   9.75579811
_cell_length_b   9.75578158
_cell_length_c   9.75579886
_cell_angle_alpha   109.47228535
_cell_angle_beta   109.47223998
_cell_angle_gamma   109.47207077
_symmetry_Int_Tables_number   1
_chemical_formula_structural   Dy5Mg24
_chemical_formula_sum   'Dy5 Mg24'
_cell_volume   714.74329896
_cell_formula_units_Z   1
loop_
 _symmetry_equiv_pos_site_id
 _symmetry_equiv_pos_as_xyz
  1  'x, y, z'
loop_
 _atom_site_type_symbol
 _atom_site_label
 _atom_site_symmetry_multiplicity
 _atom_site_fract_x
 _atom_site_fract_y
 _atom_site_fract_z
 _atom_site_occupancy
  Dy  Dy0  1  0.000002  0.369463  0.000002  1
  Dy  Dy1  1  0.000001  0.000001  0.000001  1
  Dy  Dy2  1  0.000000  0.000002  0.369463  1
  Dy  Dy3  1  0.369463  0.000002  0.000002  1
  Dy  Dy4  1  0.630537  0.630538  0.630538  1
  Mg  Mg5  1  0.679435  0.679434  0.286330  1
  Mg  Mg6  1  0.372171  0.372171  0.180992  1
  Mg  Mg7  1  0.000000  0.627829  0.808819  1
  Mg  Mg8  1  0.320564  0.000000  0.606896  1
  Mg  Mg9  1  0.393104  0.713669  0.393106  1
  Mg  Mg10  1  0.000000  0.606896  0.320566  1
  Mg  Mg11  1  0.713669  0.393103  0.393103  1
  Mg  Mg12  1  0.999999  0.808818  0.627827  1
  Mg  Mg13  1  0.393102  0.393103  0.713668  1
  Mg  Mg14  1  0.627827  0.808817  0.999997  1
  Mg  Mg15  1  0.286330  0.679433  0.679435  1
  Mg  Mg16  1  0.679433  0.286330  0.679434  1
  Mg  Mg17  1  0.819010  0.191183  0.191182  1
  Mg  Mg18  1  0.191184  0.191184  0.819008  1
  Mg  Mg19  1  0.606896  0.320563  1.000000  1
  Mg  Mg20  1  0.808817  0.999999  0.627827  1
  Mg  Mg21  1  0.191184  0.819010  0.191183  1
  Mg  Mg22  1  0.372172  0.180991  0.372171  1
  Mg  Mg23  1  0.320566  0.606895  0.000000  1
  Mg  Mg24  1  0.627828  -0.000000  0.808818  1
  Mg  Mg25  1  1.000000  0.320565  0.606896  1
  Mg  Mg26  1  0.606896  1.000000  0.320565  1
  Mg  Mg27  1  0.808816  0.627826  0.999998  1
  Mg  Mg28  1  0.180992  0.372173  0.372172  1
