# generated using pymatgen
data_Na3Sr4La3Ti10O30
_symmetry_space_group_name_H-M   'P 1'
_cell_length_a   5.54360780
_cell_length_b   27.71979130
_cell_length_c   7.87340275
_cell_angle_alpha   44.76076715
_cell_angle_beta   135.19180740
_cell_angle_gamma   120.23723372
_symmetry_Int_Tables_number   1
_chemical_formula_structural   Na3Sr4La3Ti10O30
_chemical_formula_sum   'Na3 Sr4 La3 Ti10 O30'
_cell_volume   600.39241528
_cell_formula_units_Z   1
loop_
 _symmetry_equiv_pos_site_id
 _symmetry_equiv_pos_as_xyz
  1  'x, y, z'
loop_
 _atom_site_type_symbol
 _atom_site_label
 _atom_site_symmetry_multiplicity
 _atom_site_fract_x
 _atom_site_fract_y
 _atom_site_fract_z
 _atom_site_occupancy
  Na  Na0  1  0.508269  0.699884  0.257308  1
  Na  Na1  1  0.506564  0.500957  0.250736  1
  Na  Na2  1  0.501675  0.301508  0.245840  1
  Sr  Sr3  1  0.500696  0.899468  0.750673  1
  Sr  Sr4  1  0.499448  0.901070  0.246899  1
  Sr  Sr5  1  0.496471  0.102679  0.739360  1
  Sr  Sr6  1  0.496449  0.101100  0.243595  1
  La  La7  1  0.509850  0.700340  0.758384  1
  La  La8  1  0.506924  0.501461  0.750041  1
  La  La9  1  0.500942  0.302729  0.741699  1
  Ti  Ti10  1  0.007916  0.799518  0.506239  1
  Ti  Ti11  1  0.012300  0.600793  0.507444  1
  Ti  Ti12  1  0.005282  0.798936  0.007203  1
  Ti  Ti13  1  0.005179  0.402338  0.495818  1
  Ti  Ti14  1  0.011317  0.600282  0.007839  1
  Ti  Ti15  1  0.007679  0.401917  0.997456  1
  Ti  Ti16  1  0.000885  0.203723  0.986800  1
  Ti  Ti17  1  0.997151  0.001715  0.992455  1
  Ti  Ti18  1  0.992445  0.203820  0.482530  1
  Ti  Ti19  1  0.996113  0.001515  0.492268  1
  O  O20  1  0.995695  0.999660  0.749366  1
  O  O21  1  0.044163  0.898512  0.774947  1
  O  O22  1  0.068082  0.698343  0.782077  1
  O  O23  1  0.004835  0.797530  0.257966  1
  O  O24  1  0.498187  0.990878  0.272006  1
  O  O25  1  0.494843  0.809302  0.719638  1
  O  O26  1  0.076978  0.499723  0.781571  1
  O  O27  1  0.003155  0.598548  0.253644  1
  O  O28  1  0.493958  0.615291  0.717728  1
  O  O29  1  0.494611  0.785719  0.290580  1
  O  O30  1  0.983586  0.797189  0.748270  1
  O  O31  1  0.950289  0.898636  0.228390  1
  O  O32  1  0.070905  0.300974  0.778650  1
  O  O33  1  0.004143  0.201862  0.748315  1
  O  O34  1  0.006331  0.399838  0.252584  1
  O  O35  1  0.493345  0.583788  0.287210  1
  O  O36  1  0.496145  0.416218  0.716344  1
  O  O37  1  0.982914  0.598717  0.742797  1
  O  O38  1  0.921398  0.698497  0.207685  1
  O  O39  1  0.045398  0.100591  0.770081  1
  O  O40  1  0.991625  0.201935  0.242073  1
  O  O41  1  0.496112  0.384640  0.286981  1
  O  O42  1  0.497891  0.213862  0.725866  1
  O  O43  1  0.987306  0.400007  0.742667  1
  O  O44  1  0.914168  0.499573  0.199670  1
  O  O45  1  0.497718  0.190065  0.269780  1
  O  O46  1  0.497885  0.008912  0.729245  1
  O  O47  1  0.923513  0.300997  0.204291  1
  O  O48  1  0.951408  0.100617  0.223547  1
  O  O49  1  0.001212  0.999876  0.251490  1
