# generated using pymatgen
data_PuGa6
_symmetry_space_group_name_H-M   'P 1'
_cell_length_a   5.89351661
_cell_length_b   5.89351661
_cell_length_c   7.68764853
_cell_angle_alpha   90.00000000
_cell_angle_beta   90.00000000
_cell_angle_gamma   90.00000000
_symmetry_Int_Tables_number   1
_chemical_formula_structural   PuGa6
_chemical_formula_sum   'Pu2 Ga12'
_cell_volume   267.01923260
_cell_formula_units_Z   2
loop_
 _symmetry_equiv_pos_site_id
 _symmetry_equiv_pos_as_xyz
  1  'x, y, z'
loop_
 _atom_site_type_symbol
 _atom_site_label
 _atom_site_symmetry_multiplicity
 _atom_site_fract_x
 _atom_site_fract_y
 _atom_site_fract_z
 _atom_site_occupancy
  Pu  Pu0  1  0.250000  0.750000  0.000000  1
  Pu  Pu1  1  0.750000  0.250000  0.000000  1
  Ga  Ga2  1  0.066075  0.566075  0.349895  1
  Ga  Ga3  1  0.066075  0.933925  0.650105  1
  Ga  Ga4  1  0.433925  0.933925  0.349895  1
  Ga  Ga5  1  0.933925  0.433925  0.650105  1
  Ga  Ga6  1  0.566075  0.066075  0.650105  1
  Ga  Ga7  1  0.750000  0.750000  0.156988  1
  Ga  Ga8  1  0.250000  0.250000  0.156988  1
  Ga  Ga9  1  0.433925  0.566075  0.650105  1
  Ga  Ga10  1  0.566075  0.433925  0.349895  1
  Ga  Ga11  1  0.250000  0.250000  0.843012  1
  Ga  Ga12  1  0.933925  0.066075  0.349895  1
  Ga  Ga13  1  0.750000  0.750000  0.843012  1
