# generated using pymatgen
data_HPbClO
_symmetry_space_group_name_H-M   'P 1'
_cell_length_a   9.95751722
_cell_length_b   4.06968694
_cell_length_c   7.18535500
_cell_angle_alpha   90.00000000
_cell_angle_beta   90.00000000
_cell_angle_gamma   90.00000000
_symmetry_Int_Tables_number   1
_chemical_formula_structural   HPbClO
_chemical_formula_sum   'H4 Pb4 Cl4 O4'
_cell_volume   291.17916640
_cell_formula_units_Z   4
loop_
 _symmetry_equiv_pos_site_id
 _symmetry_equiv_pos_as_xyz
  1  'x, y, z'
loop_
 _atom_site_type_symbol
 _atom_site_label
 _atom_site_symmetry_multiplicity
 _atom_site_fract_x
 _atom_site_fract_y
 _atom_site_fract_z
 _atom_site_occupancy
  H  H0  1  0.387366  0.250000  0.719408  1
  H  H1  1  0.112634  0.250000  0.219408  1
  H  H2  1  0.612634  0.750000  0.280592  1
  H  H3  1  0.887366  0.750000  0.780592  1
  Pb  Pb4  1  0.410957  0.250000  0.298458  1
  Pb  Pb5  1  0.089043  0.250000  0.798458  1
  Pb  Pb6  1  0.589043  0.750000  0.701542  1
  Pb  Pb7  1  0.910957  0.750000  0.201542  1
  Cl  Cl8  1  0.677965  0.250000  0.058856  1
  Cl  Cl9  1  0.822035  0.250000  0.558856  1
  Cl  Cl10  1  0.322035  0.750000  0.941144  1
  Cl  Cl11  1  0.177965  0.750000  0.441144  1
  O  O12  1  0.461233  0.250000  0.630071  1
  O  O13  1  0.038767  0.250000  0.130071  1
  O  O14  1  0.538767  0.750000  0.369929  1
  O  O15  1  0.961233  0.750000  0.869929  1
