# generated using pymatgen
data_LaAl2Si5N9O
_symmetry_space_group_name_H-M   'P 1'
_cell_length_a   9.16313802
_cell_length_b   9.41431731
_cell_length_c   9.83465780
_cell_angle_alpha   90.00000000
_cell_angle_beta   90.12591880
_cell_angle_gamma   90.00000000
_symmetry_Int_Tables_number   1
_chemical_formula_structural   LaAl2Si5N9O
_chemical_formula_sum   'La4 Al8 Si20 N36 O4'
_cell_volume   848.38164670
_cell_formula_units_Z   4
loop_
 _symmetry_equiv_pos_site_id
 _symmetry_equiv_pos_as_xyz
  1  'x, y, z'
loop_
 _atom_site_type_symbol
 _atom_site_label
 _atom_site_symmetry_multiplicity
 _atom_site_fract_x
 _atom_site_fract_y
 _atom_site_fract_z
 _atom_site_occupancy
  La  La0  1  0.844192  0.627147  0.385547  1
  La  La1  1  0.844192  0.872853  0.885547  1
  La  La2  1  0.646214  0.380653  0.393801  1
  La  La3  1  0.646214  0.119347  0.893801  1
  Al  Al4  1  0.063472  0.082465  0.680677  1
  Al  Al5  1  0.063472  0.417535  0.180677  1
  Al  Al6  1  0.249411  0.498234  0.909891  1
  Al  Al7  1  0.249411  0.001766  0.409891  1
  Al  Al8  1  0.751553  0.997939  0.565763  1
  Al  Al9  1  0.751553  0.502061  0.065763  1
  Al  Al10  1  0.004297  0.731773  0.096299  1
  Al  Al11  1  0.004297  0.768227  0.596299  1
  Si  Si12  1  0.019641  0.234127  0.421220  1
  Si  Si13  1  0.019641  0.265873  0.921220  1
  Si  Si14  1  0.182272  0.791564  0.838462  1
  Si  Si15  1  0.182272  0.708436  0.338462  1
  Si  Si16  1  0.323740  0.205198  0.843471  1
  Si  Si17  1  0.323740  0.294802  0.343471  1
  Si  Si18  1  0.439460  0.923362  0.677225  1
  Si  Si19  1  0.439460  0.576638  0.177225  1
  Si  Si20  1  0.484252  0.766644  0.418321  1
  Si  Si21  1  0.484252  0.733356  0.918321  1
  Si  Si22  1  0.501849  0.220564  0.593076  1
  Si  Si23  1  0.501849  0.279436  0.093076  1
  Si  Si24  1  0.547255  0.067234  0.318397  1
  Si  Si25  1  0.547255  0.432766  0.818397  1
  Si  Si26  1  0.663739  0.696452  0.665231  1
  Si  Si27  1  0.663739  0.803548  0.165231  1
  Si  Si28  1  0.832549  0.206812  0.167039  1
  Si  Si29  1  0.832549  0.293188  0.667039  1
  Si  Si30  1  0.948302  0.560476  0.820246  1
  Si  Si31  1  0.948302  0.939524  0.320246  1
  N  N32  1  0.122862  0.112534  0.509863  1
  N  N33  1  0.122862  0.387466  0.009863  1
  N  N34  1  0.129063  0.878791  0.303555  1
  N  N35  1  0.129063  0.621209  0.803555  1
  N  N36  1  0.143172  0.163828  0.830394  1
  N  N37  1  0.143172  0.336172  0.330394  1
  N  N38  1  0.362070  0.666777  0.316974  1
  N  N39  1  0.362070  0.833223  0.816974  1
  N  N40  1  0.368100  0.118140  0.306133  1
  N  N41  1  0.368100  0.381860  0.806133  1
  N  N42  1  0.374006  0.623152  0.017679  1
  N  N43  1  0.374006  0.876848  0.517679  1
  N  N44  1  0.417897  0.162942  0.988444  1
  N  N45  1  0.417897  0.337058  0.488444  1
  N  N46  1  0.420747  0.106301  0.710421  1
  N  N47  1  0.420747  0.393699  0.210421  1
  N  N48  1  0.575376  0.615664  0.801618  1
  N  N49  1  0.575376  0.884336  0.301618  1
  N  N50  1  0.610453  0.656107  0.501178  1
  N  N51  1  0.610453  0.843893  0.001178  1
  N  N52  1  0.615953  0.118319  0.481133  1
  N  N53  1  0.615953  0.381681  0.981133  1
  N  N54  1  0.630725  0.617966  0.189741  1
  N  N55  1  0.630725  0.882034  0.689741  1
  N  N56  1  0.637710  0.175315  0.189787  1
  N  N57  1  0.637710  0.324685  0.689787  1
  N  N58  1  0.855841  0.666341  0.689955  1
  N  N59  1  0.855841  0.833659  0.189955  1
  N  N60  1  0.857390  0.107999  0.695361  1
  N  N61  1  0.857390  0.392001  0.195361  1
  N  N62  1  0.882799  0.625101  0.977129  1
  N  N63  1  0.882799  0.874899  0.477129  1
  N  N64  1  0.888733  0.159602  0.006007  1
  N  N65  1  0.888733  0.340398  0.506007  1
  N  N66  1  0.920510  0.120685  0.301622  1
  N  N67  1  0.920510  0.379315  0.801622  1
  O  O68  1  0.086800  0.613121  0.216858  1
  O  O69  1  0.086800  0.886879  0.716858  1
  O  O70  1  0.097596  0.656803  0.479281  1
  O  O71  1  0.097596  0.843197  0.979281  1
