# generated using pymatgen
data_Zr9ScO20
_symmetry_space_group_name_H-M   'P 1'
_cell_length_a   18.17443329
_cell_length_b   8.13341421
_cell_length_c   6.36143115
_cell_angle_alpha   59.26648513
_cell_angle_beta   55.15231306
_cell_angle_gamma   26.55867063
_symmetry_Int_Tables_number   1
_chemical_formula_structural   Zr9ScO20
_chemical_formula_sum   'Zr9 Sc1 O20'
_cell_volume   345.04638777
_cell_formula_units_Z   1
loop_
 _symmetry_equiv_pos_site_id
 _symmetry_equiv_pos_as_xyz
  1  'x, y, z'
loop_
 _atom_site_type_symbol
 _atom_site_label
 _atom_site_symmetry_multiplicity
 _atom_site_fract_x
 _atom_site_fract_y
 _atom_site_fract_z
 _atom_site_occupancy
  Zr  Zr0  1  0.997865  0.002021  0.002744  1
  Zr  Zr1  1  0.201954  0.997834  0.997182  1
  Zr  Zr2  1  0.995344  0.510805  0.499034  1
  Zr  Zr3  1  0.402686  0.994067  0.999928  1
  Zr  Zr4  1  0.205406  0.488555  0.498528  1
  Zr  Zr5  1  0.599676  0.000863  0.000102  1
  Zr  Zr6  1  0.399936  0.503329  0.502279  1
  Zr  Zr7  1  0.797789  0.005247  0.000211  1
  Zr  Zr8  1  0.799530  0.496979  0.499337  1
  Sc  Sc9  1  0.599611  0.500982  0.500476  1
  O  O10  1  0.044484  0.996222  0.285511  1
  O  O11  1  0.241785  0.002359  0.285169  1
  O  O12  1  0.057849  0.499028  0.713370  1
  O  O13  1  0.157092  0.499504  0.214375  1
  O  O14  1  0.444162  -0.000288  0.280141  1
  O  O15  1  0.357157  0.500250  0.215500  1
  O  O16  1  0.257041  0.500882  0.714627  1
  O  O17  1  0.642365  0.001126  0.285703  1
  O  O18  1  0.142235  0.001183  0.785869  1
  O  O19  1  0.554749  0.500469  0.216511  1
  O  O20  1  0.455837  0.500695  0.719210  1
  O  O21  1  0.340385  0.007058  0.784901  1
  O  O22  1  0.843329  0.000936  0.281831  1
  O  O23  1  0.758876  0.499972  0.215028  1
  O  O24  1  0.656431  0.499610  0.719644  1
  O  O25  1  0.543540  0.999851  0.782833  1
  O  O26  1  0.956815  0.500180  0.214258  1
  O  O27  1  0.856703  0.499103  0.715241  1
  O  O28  1  0.746363  0.991034  0.785991  1
  O  O29  1  0.943003  0.000143  0.784464  1
