# generated using pymatgen
data_Rb6Pb5Cl16
_symmetry_space_group_name_H-M   'P 1'
_cell_length_a   11.40578616
_cell_length_b   11.96584482
_cell_length_c   11.96584482
_cell_angle_alpha   90.83902665
_cell_angle_beta   90.08606016
_cell_angle_gamma   90.08606016
_symmetry_Int_Tables_number   1
_chemical_formula_structural   Rb6Pb5Cl16
_chemical_formula_sum   'Rb12 Pb10 Cl32'
_cell_volume   1632.91807630
_cell_formula_units_Z   2
loop_
 _symmetry_equiv_pos_site_id
 _symmetry_equiv_pos_as_xyz
  1  'x, y, z'
loop_
 _atom_site_type_symbol
 _atom_site_label
 _atom_site_symmetry_multiplicity
 _atom_site_fract_x
 _atom_site_fract_y
 _atom_site_fract_z
 _atom_site_occupancy
  Rb  Rb0  1  0.000000  0.000000  0.000000  1
  Rb  Rb1  1  0.000000  0.121570  0.378430  1
  Rb  Rb2  1  0.000327  0.373607  0.873607  1
  Rb  Rb3  1  0.265320  0.822523  0.322523  1
  Rb  Rb4  1  0.501897  0.635836  0.135836  1
  Rb  Rb5  1  0.500000  0.863189  0.636811  1
  Rb  Rb6  1  0.500000  0.136811  0.363189  1
  Rb  Rb7  1  0.498103  0.364164  0.864164  1
  Rb  Rb8  1  0.734680  0.177477  0.677477  1
  Rb  Rb9  1  0.000000  0.500000  0.500000  1
  Rb  Rb10  1  -0.000327  0.626393  0.126393  1
  Rb  Rb11  1  0.000000  0.878430  0.621570  1
  Pb  Pb12  1  0.262434  0.175965  0.675965  1
  Pb  Pb13  1  0.256457  0.679095  0.828564  1
  Pb  Pb14  1  0.256457  0.328564  0.179095  1
  Pb  Pb15  1  0.342429  0.002064  0.997343  1
  Pb  Pb16  1  0.342429  0.497343  0.502064  1
  Pb  Pb17  1  0.657571  0.502657  0.497936  1
  Pb  Pb18  1  0.657571  0.997936  0.002657  1
  Pb  Pb19  1  0.743543  0.320905  0.171436  1
  Pb  Pb20  1  0.743543  0.671436  0.820905  1
  Pb  Pb21  1  0.737566  0.824035  0.324035  1
  Cl  Cl22  1  0.000000  0.341213  0.158787  1
  Cl  Cl23  1  0.979973  0.841284  0.341284  1
  Cl  Cl24  1  0.214482  0.080925  0.197573  1
  Cl  Cl25  1  0.214408  0.200350  0.932759  1
  Cl  Cl26  1  0.210825  0.797975  0.051801  1
  Cl  Cl27  1  0.215823  0.927357  0.798030  1
  Cl  Cl28  1  0.215823  0.298030  0.427357  1
  Cl  Cl29  1  0.210825  0.551801  0.297975  1
  Cl  Cl30  1  0.214408  0.432759  0.700350  1
  Cl  Cl31  1  0.214482  0.697573  0.580925  1
  Cl  Cl32  1  0.290191  0.012666  0.512666  1
  Cl  Cl33  1  0.283010  0.499545  0.999545  1
  Cl  Cl34  1  0.502381  0.203971  0.091968  1
  Cl  Cl35  1  0.490557  0.089204  0.805100  1
  Cl  Cl36  1  0.509443  0.910796  0.194900  1
  Cl  Cl37  1  0.497619  0.796029  0.908032  1
  Cl  Cl38  1  0.490557  0.305100  0.589204  1
  Cl  Cl39  1  0.502381  0.591968  0.703971  1
  Cl  Cl40  1  0.497619  0.408032  0.296029  1
  Cl  Cl41  1  0.509443  0.694900  0.410796  1
  Cl  Cl42  1  0.716990  0.500455  0.000455  1
  Cl  Cl43  1  0.709809  0.987334  0.487334  1
  Cl  Cl44  1  0.785518  0.302427  0.419075  1
  Cl  Cl45  1  0.785592  0.567241  0.299650  1
  Cl  Cl46  1  0.784177  0.072643  0.201970  1
  Cl  Cl47  1  0.789175  0.202025  0.948199  1
  Cl  Cl48  1  0.789175  0.448199  0.702025  1
  Cl  Cl49  1  0.784177  0.701970  0.572643  1
  Cl  Cl50  1  0.785592  0.799650  0.067241  1
  Cl  Cl51  1  0.785518  0.919075  0.802427  1
  Cl  Cl52  1  0.020027  0.158716  0.658716  1
  Cl  Cl53  1  0.000000  0.658787  0.841213  1
