# generated using pymatgen
data_CSN2OF2
_symmetry_space_group_name_H-M   'P 1'
_cell_length_a   11.69520177
_cell_length_b   13.64781978
_cell_length_c   17.51069892
_cell_angle_alpha   109.30289032
_cell_angle_beta   105.32894947
_cell_angle_gamma   98.93469853
_symmetry_Int_Tables_number   1
_chemical_formula_structural   CSN2OF2
_chemical_formula_sum   'C24 S24 N48 O24 F48'
_cell_volume   2451.88818164
_cell_formula_units_Z   24
loop_
 _symmetry_equiv_pos_site_id
 _symmetry_equiv_pos_as_xyz
  1  'x, y, z'
loop_
 _atom_site_type_symbol
 _atom_site_label
 _atom_site_symmetry_multiplicity
 _atom_site_fract_x
 _atom_site_fract_y
 _atom_site_fract_z
 _atom_site_occupancy
  C  C0  1  0.721153  0.325093  0.879201  1
  C  C1  1  0.083152  0.205718  0.380487  1
  C  C2  1  0.263597  0.184933  0.135533  1
  C  C3  1  0.222248  0.329986  0.370475  1
  C  C4  1  0.410412  0.306351  0.129428  1
  C  C5  1  0.844716  0.444794  0.380599  1
  C  C6  1  0.155284  0.555206  0.619401  1
  C  C7  1  0.278847  0.674907  0.120799  1
  C  C8  1  0.265510  0.289371  0.487621  1
  C  C9  1  0.589588  0.693649  0.870572  1
  C  C10  1  0.777752  0.670014  0.629525  1
  C  C11  1  0.707160  0.307689  0.377056  1
  C  C12  1  0.860439  0.462051  0.883595  1
  C  C13  1  0.139561  0.537949  0.116405  1
  C  C14  1  0.292840  0.692311  0.622944  1
  C  C15  1  0.781339  0.308505  0.764354  1
  C  C16  1  0.916848  0.794282  0.619513  1
  C  C17  1  0.232985  0.223750  0.017356  1
  C  C18  1  0.772977  0.288943  0.264314  1
  C  C19  1  0.736403  0.815067  0.864467  1
  C  C20  1  0.767015  0.776250  0.982644  1
  C  C21  1  0.218661  0.691495  0.235646  1
  C  C22  1  0.734490  0.710629  0.512379  1
  C  C23  1  0.227023  0.711057  0.735686  1
  S  S24  1  0.173848  0.260772  0.877961  1
  S  S25  1  0.450175  0.837816  0.611077  1
  S  S26  1  0.071809  0.962203  0.634948  1
  S  S27  1  0.332232  0.245956  0.622357  1
  S  S28  1  0.574822  0.172228  0.889776  1
  S  S29  1  0.574312  0.468861  0.146494  1
  S  S30  1  0.425688  0.531139  0.853506  1
  S  S31  1  0.971458  0.369954  0.090609  1
  S  S32  1  0.667768  0.754044  0.377643  1
  S  S33  1  0.299819  0.883751  0.873304  1
  S  S34  1  0.425178  0.827772  0.110224  1
  S  S35  1  0.893694  0.951807  0.845752  1
  S  S36  1  0.700181  0.116249  0.126696  1
  S  S37  1  0.010869  0.608459  0.401855  1
  S  S38  1  0.549825  0.162184  0.388923  1
  S  S39  1  0.106306  0.048193  0.154248  1
  S  S40  1  0.928191  0.037797  0.365052  1
  S  S41  1  0.028542  0.630046  0.909391  1
  S  S42  1  0.367048  0.469505  0.343918  1
  S  S43  1  0.277669  0.864588  0.371347  1
  S  S44  1  0.826152  0.739228  0.122039  1
  S  S45  1  0.989131  0.391541  0.598145  1
  S  S46  1  0.722331  0.135412  0.628653  1
  S  S47  1  0.632952  0.530495  0.656082  1
  N  N48  1  0.648737  0.286165  0.920079  1
  N  N49  1  0.623195  0.746666  0.824556  1
  N  N50  1  0.842977  0.784565  0.542932  1
  N  N51  1  0.297940  0.757042  0.701087  1
  N  N52  1  0.936902  0.565887  0.932173  1
  N  N53  1  0.772741  0.254500  0.678897  1
  N  N54  1  0.208351  0.573827  0.075642  1
  N  N55  1  0.063098  0.434113  0.067827  1
  N  N56  1  0.227259  0.745500  0.321103  1
  N  N57  1  0.702060  0.242958  0.298913  1
  N  N58  1  0.890915  0.738796  0.665979  1
  N  N59  1  0.695738  0.651421  0.552821  1
  N  N60  1  0.153917  0.610196  0.698340  1
  N  N61  1  0.157023  0.215435  0.457068  1
  N  N62  1  0.304262  0.348579  0.447179  1
  N  N63  1  0.225610  0.131676  0.183612  1
  N  N64  1  0.376805  0.253334  0.175444  1
  N  N65  1  0.226431  0.769824  0.817733  1
  N  N66  1  0.343587  0.295532  0.050467  1
  N  N67  1  0.527007  0.379316  0.170687  1
  N  N68  1  0.187612  0.166310  0.056788  1
  N  N69  1  0.774390  0.868324  0.816388  1
  N  N70  1  0.347904  0.308879  0.568477  1
  N  N71  1  0.365065  0.728988  0.581118  1
  N  N72  1  0.652096  0.691121  0.431523  1
  N  N73  1  0.081421  0.450166  0.571977  1
  N  N74  1  0.472993  0.620684  0.829313  1
  N  N75  1  0.634935  0.271012  0.418882  1
  N  N76  1  0.141283  0.592335  0.196404  1
  N  N77  1  0.791649  0.426173  0.924358  1
  N  N78  1  0.032699  0.868509  0.657065  1
  N  N79  1  0.109085  0.261204  0.334021  1
  N  N80  1  0.773569  0.230176  0.182267  1
  N  N81  1  0.846083  0.389804  0.301660  1
  N  N82  1  0.286435  0.738823  0.200127  1
  N  N83  1  0.713565  0.261177  0.799873  1
  N  N84  1  0.656413  0.704468  0.949533  1
  N  N85  1  0.845373  0.795669  0.064582  1
  N  N86  1  0.222743  0.590894  0.578100  1
  N  N87  1  0.967301  0.131491  0.342935  1
  N  N88  1  0.918579  0.549834  0.428023  1
  N  N89  1  0.154627  0.204331  0.935418  1
  N  N90  1  0.253020  0.383243  0.320304  1
  N  N91  1  0.858717  0.407665  0.803596  1
  N  N92  1  0.746980  0.616757  0.679696  1
  N  N93  1  0.777257  0.409106  0.421900  1
  N  N94  1  0.812388  0.833690  0.943212  1
  N  N95  1  0.351263  0.713835  0.079921  1
  O  O96  1  0.078974  0.232386  0.798803  1
  O  O97  1  0.688989  0.543141  0.201953  1
  O  O98  1  0.311011  0.456859  0.798047  1
  O  O99  1  0.480772  0.144597  0.440724  1
  O  O100  1  0.186940  0.037388  0.687763  1
  O  O101  1  0.270270  0.910131  0.454381  1
  O  O102  1  0.100006  0.732680  0.972183  1
  O  O103  1  0.813060  0.962612  0.312237  1
  O  O104  1  0.899994  0.267320  0.027817  1
  O  O105  1  0.519228  0.855403  0.559276  1
  O  O106  1  0.729730  0.089869  0.545619  1
  O  O107  1  0.574268  0.724803  0.297596  1
  O  O108  1  0.712254  0.067035  0.045489  1
  O  O109  1  0.425732  0.275197  0.702404  1
  O  O110  1  0.287746  0.932965  0.954511  1
  O  O111  1  0.916331  0.998116  0.788308  1
  O  O112  1  0.083669  0.001884  0.211692  1
  O  O113  1  0.921026  0.767614  0.201197  1
  O  O114  1  0.378381  0.512476  0.282022  1
  O  O115  1  0.510200  0.147775  0.941673  1
  O  O116  1  0.081980  0.712855  0.460850  1
  O  O117  1  0.918020  0.287145  0.539150  1
  O  O118  1  0.489800  0.852225  0.058327  1
  O  O119  1  0.621619  0.487524  0.717978  1
  F  F120  1  0.933212  0.069970  0.461530  1
  F  F121  1  0.901255  0.460778  0.628033  1
  F  F122  1  0.795772  0.762023  0.362002  1
  F  F123  1  0.913803  0.045038  0.933820  1
  F  F124  1  0.718398  0.037851  0.175478  1
  F  F125  1  0.382496  0.930181  0.631656  1
  F  F126  1  0.481500  0.125463  0.794335  1
  F  F127  1  0.048863  0.386541  0.688145  1
  F  F128  1  0.969855  0.025397  0.625528  1
  F  F129  1  0.489248  0.437496  0.376722  1
  F  F130  1  0.777324  0.070326  0.681967  1
  F  F131  1  0.098745  0.539222  0.371967  1
  F  F132  1  0.701292  0.744652  0.141098  1
  F  F133  1  0.541850  0.879037  0.706349  1
  F  F134  1  0.510752  0.562504  0.623278  1
  F  F135  1  0.787350  0.612915  0.073528  1
  F  F136  1  0.032595  0.356931  0.176921  1
  F  F137  1  0.420985  0.570697  0.947875  1
  F  F138  1  0.281602  0.962149  0.824522  1
  F  F139  1  0.389834  0.565597  0.431008  1
  F  F140  1  0.951137  0.613459  0.311855  1
  F  F141  1  0.030145  0.974603  0.374472  1
  F  F142  1  0.610166  0.434403  0.568992  1
  F  F143  1  0.617504  0.069819  0.368344  1
  F  F144  1  0.524307  0.467011  0.871723  1
  F  F145  1  0.345898  0.911112  0.130615  1
  F  F146  1  0.212650  0.387085  0.926472  1
  F  F147  1  0.558104  0.100498  0.113833  1
  F  F148  1  0.204228  0.237977  0.637998  1
  F  F149  1  0.414249  0.906259  0.375410  1
  F  F150  1  0.518500  0.874537  0.205665  1
  F  F151  1  0.585751  0.093741  0.624590  1
  F  F152  1  0.305383  0.120957  0.570335  1
  F  F153  1  0.298708  0.255348  0.858902  1
  F  F154  1  0.009690  0.912721  0.880165  1
  F  F155  1  0.116860  0.564292  0.875628  1
  F  F156  1  0.990310  0.087279  0.119835  1
  F  F157  1  0.883140  0.435708  0.124372  1
  F  F158  1  0.086197  0.954962  0.066180  1
  F  F159  1  0.441896  0.899502  0.886167  1
  F  F160  1  0.694617  0.879043  0.429665  1
  F  F161  1  0.579015  0.429303  0.052125  1
  F  F162  1  0.458150  0.120963  0.293651  1
  F  F163  1  0.066788  0.930030  0.538470  1
  F  F164  1  0.475693  0.532989  0.128277  1
  F  F165  1  0.222676  0.929674  0.318033  1
  F  F166  1  0.967405  0.643069  0.823079  1
  F  F167  1  0.654102  0.088888  0.869385  1
