# generated using pymatgen
data_Sm4Si3Pd4
_symmetry_space_group_name_H-M   'P 1'
_cell_length_a   5.60624892
_cell_length_b   7.92735243
_cell_length_c   11.02166125
_cell_angle_alpha   108.26007327
_cell_angle_beta   104.71196326
_cell_angle_gamma   89.99452386
_symmetry_Int_Tables_number   1
_chemical_formula_structural   Sm4Si3Pd4
_chemical_formula_sum   'Sm8 Si6 Pd8'
_cell_volume   448.22843256
_cell_formula_units_Z   2
loop_
 _symmetry_equiv_pos_site_id
 _symmetry_equiv_pos_as_xyz
  1  'x, y, z'
loop_
 _atom_site_type_symbol
 _atom_site_label
 _atom_site_symmetry_multiplicity
 _atom_site_fract_x
 _atom_site_fract_y
 _atom_site_fract_z
 _atom_site_occupancy
  Sm  Sm0  1  0.455326  0.103593  0.660648  1
  Sm  Sm1  1  0.207591  0.603207  0.661530  1
  Sm  Sm2  1  0.795061  0.398095  0.338814  1
  Sm  Sm3  1  0.066690  0.329446  0.864982  1
  Sm  Sm4  1  0.800416  0.831349  0.864766  1
  Sm  Sm5  1  0.936565  0.671011  0.134191  1
  Sm  Sm6  1  0.203193  0.169047  0.134544  1
  Sm  Sm7  1  0.547448  0.897295  0.339002  1
  Si  Si8  1  0.708899  0.449667  0.657797  1
  Si  Si9  1  0.293036  0.550851  0.340912  1
  Si  Si10  1  0.051916  0.051416  0.342029  1
  Si  Si11  1  0.348339  0.750484  0.999804  1
  Si  Si12  1  0.950091  0.949264  0.657016  1
  Si  Si13  1  0.655830  0.249303  0.999326  1
  Pd  Pd14  1  0.565426  0.481811  0.867646  1
  Pd  Pd15  1  0.085662  0.805797  0.448742  1
  Pd  Pd16  1  0.304488  0.981584  0.866499  1
  Pd  Pd17  1  0.438485  0.517723  0.131189  1
  Pd  Pd18  1  0.366545  0.306597  0.448539  1
  Pd  Pd19  1  0.634294  0.694486  0.550707  1
  Pd  Pd20  1  0.918303  0.195324  0.551086  1
  Pd  Pd21  1  0.698286  0.018517  0.132474  1
