# generated using pymatgen
data_Rb4CdCl6
_symmetry_space_group_name_H-M   'P 1'
_cell_length_a   7.72868913
_cell_length_b   8.83667097
_cell_length_c   12.96035331
_cell_angle_alpha   85.29766749
_cell_angle_beta   107.34751974
_cell_angle_gamma   105.95867067
_symmetry_Int_Tables_number   1
_chemical_formula_structural   Rb4CdCl6
_chemical_formula_sum   'Rb8 Cd2 Cl12'
_cell_volume   812.31586696
_cell_formula_units_Z   2
loop_
 _symmetry_equiv_pos_site_id
 _symmetry_equiv_pos_as_xyz
  1  'x, y, z'
loop_
 _atom_site_type_symbol
 _atom_site_label
 _atom_site_symmetry_multiplicity
 _atom_site_fract_x
 _atom_site_fract_y
 _atom_site_fract_z
 _atom_site_occupancy
  Rb  Rb0  1  0.526308  0.250000  0.052617  1
  Rb  Rb1  1  0.473692  0.750000  0.947383  1
  Rb  Rb2  1  0.347214  0.107140  0.358372  1
  Rb  Rb3  1  0.357144  0.250000  0.714287  1
  Rb  Rb4  1  0.011158  0.392860  0.358372  1
  Rb  Rb5  1  0.652786  -0.107140  0.641628  1
  Rb  Rb6  1  0.642856  0.750000  0.285713  1
  Rb  Rb7  1  0.988842  0.607140  0.641628  1
  Cd  Cd8  1  0.000000  0.500000  0.000000  1
  Cd  Cd9  1  0.000000  0.000000  0.000000  1
  Cl  Cl10  1  0.825045  0.585107  0.121837  1
  Cl  Cl11  1  0.672291  0.450722  0.427504  1
  Cl  Cl12  1  0.257290  0.450998  0.157863  1
  Cl  Cl13  1  0.174955  0.414893  0.878163  1
  Cl  Cl14  1  0.327709  0.549278  0.572496  1
  Cl  Cl15  1  0.742710  0.549002  0.842137  1
  Cl  Cl16  1  0.244788  0.950722  0.572496  1
  Cl  Cl17  1  0.099426  0.950998  0.842137  1
  Cl  Cl18  1  0.703208  0.085107  0.878163  1
  Cl  Cl19  1  0.755212  0.049278  0.427504  1
  Cl  Cl20  1  -0.099426  0.049002  0.157863  1
  Cl  Cl21  1  0.296792  0.914893  0.121837  1
