# generated using pymatgen
data_La10(ErS3)9
_symmetry_space_group_name_H-M   'P 1'
_cell_length_a   3.94341058
_cell_length_b   15.00534715
_cell_length_c   18.87704684
_cell_angle_alpha   79.25266239
_cell_angle_beta   83.98889742
_cell_angle_gamma   82.45325677
_symmetry_Int_Tables_number   1
_chemical_formula_structural   La10(ErS3)9
_chemical_formula_sum   'La10 Er9 S27'
_cell_volume   1084.20097508
_cell_formula_units_Z   1
loop_
 _symmetry_equiv_pos_site_id
 _symmetry_equiv_pos_as_xyz
  1  'x, y, z'
loop_
 _atom_site_type_symbol
 _atom_site_label
 _atom_site_symmetry_multiplicity
 _atom_site_fract_x
 _atom_site_fract_y
 _atom_site_fract_z
 _atom_site_occupancy
  La  La0  1  0.127452  0.953621  0.791017  1
  La  La1  1  0.039642  0.607244  0.307056  1
  La  La2  1  0.115767  0.158685  0.608252  1
  La  La3  1  0.957881  0.392829  0.693163  1
  La  La4  1  0.869267  0.045885  0.209880  1
  La  La5  1  0.819497  0.464366  0.897195  1
  La  La6  1  0.796715  0.677808  0.720643  1
  La  La7  1  0.876802  0.840677  0.392245  1
  La  La8  1  0.198438  0.320791  0.280047  1
  La  La9  1  0.180952  0.534423  0.103230  1
  Er  Er10  1  0.178514  0.716213  0.923960  1
  Er  Er11  1  0.821535  0.283433  0.076576  1
  Er  Er12  1  0.571446  0.380360  0.471338  1
  Er  Er13  1  0.999266  0.000824  0.000134  1
  Er  Er14  1  0.746457  0.907314  0.587679  1
  Er  Er15  1  0.241995  0.091209  0.413103  1
  Er  Er16  1  0.423802  0.617926  0.528522  1
  Er  Er17  1  0.531372  0.806023  0.140758  1
  Er  Er18  1  0.471439  0.193987  0.859695  1
  S  S19  1  0.676746  0.803291  0.840782  1
  S  S20  1  0.322304  0.195745  0.159324  1
  S  S21  1  0.294640  0.912424  0.485498  1
  S  S22  1  0.605873  0.454615  0.332268  1
  S  S23  1  0.453583  0.993315  0.101784  1
  S  S24  1  0.453382  0.697094  0.385914  1
  S  S25  1  0.241374  0.826961  0.680288  1
  S  S26  1  0.542391  0.302315  0.614624  1
  S  S27  1  0.856424  0.727585  0.552778  1
  S  S28  1  0.749998  0.171523  0.320258  1
  S  S29  1  0.595284  0.624368  0.185883  1
  S  S30  1  0.138865  0.271170  0.446127  1
  S  S31  1  0.081369  0.812781  0.036846  1
  S  S32  1  0.545958  0.006739  0.899035  1
  S  S33  1  0.715316  0.399701  0.169160  1
  S  S34  1  0.392717  0.545290  0.667998  1
  S  S35  1  0.282154  0.600131  0.831310  1
  S  S36  1  0.694307  0.086354  0.515570  1
  S  S37  1  0.300439  0.393075  0.007689  1
  S  S38  1  0.922616  0.188585  0.963096  1
  S  S39  1  0.700611  0.605266  0.992239  1
  S  S40  1  0.025218  0.181599  0.765571  1
  S  S41  1  0.643290  0.025825  0.685228  1
  S  S42  1  0.406587  0.375613  0.813997  1
  S  S43  1  0.997427  0.498702  0.500501  1
  S  S44  1  0.976566  0.815753  0.235773  1
  S  S45  1  0.350897  0.973178  0.315159  1
