# generated using pymatgen
data_P2CN3Cl5
_symmetry_space_group_name_H-M   'P 1'
_cell_length_a   7.93950062
_cell_length_b   17.14337683
_cell_length_c   29.86245166
_cell_angle_alpha   90.00000000
_cell_angle_beta   90.00000000
_cell_angle_gamma   90.00000000
_symmetry_Int_Tables_number   1
_chemical_formula_structural   P2CN3Cl5
_chemical_formula_sum   'P32 C16 N48 Cl80'
_cell_volume   4064.57384506
_cell_formula_units_Z   16
loop_
 _symmetry_equiv_pos_site_id
 _symmetry_equiv_pos_as_xyz
  1  'x, y, z'
loop_
 _atom_site_type_symbol
 _atom_site_label
 _atom_site_symmetry_multiplicity
 _atom_site_fract_x
 _atom_site_fract_y
 _atom_site_fract_z
 _atom_site_occupancy
  P  P0  1  0.734365  0.613294  0.773507  1
  P  P1  1  0.258683  0.335192  0.539732  1
  P  P2  1  0.233637  0.527944  0.685446  1
  P  P3  1  0.234365  0.386706  0.726493  1
  P  P4  1  0.765635  0.613294  0.273507  1
  P  P5  1  0.758683  0.664808  0.960268  1
  P  P6  1  0.719872  0.666465  0.550840  1
  P  P7  1  0.241317  0.335192  0.039732  1
  P  P8  1  0.733637  0.972056  0.685446  1
  P  P9  1  0.766363  0.972056  0.185446  1
  P  P10  1  0.780128  0.666465  0.050840  1
  P  P11  1  0.258683  0.835192  0.960268  1
  P  P12  1  0.219872  0.333535  0.949160  1
  P  P13  1  0.266363  0.027944  0.314554  1
  P  P14  1  0.266363  0.527944  0.185446  1
  P  P15  1  0.758683  0.164808  0.539732  1
  P  P16  1  0.265635  0.386706  0.226493  1
  P  P17  1  0.733637  0.472056  0.814554  1
  P  P18  1  0.280128  0.333535  0.449160  1
  P  P19  1  0.719872  0.166465  0.949160  1
  P  P20  1  0.241317  0.835192  0.460267  1
  P  P21  1  0.765635  0.113294  0.226493  1
  P  P22  1  0.780128  0.166465  0.449160  1
  P  P23  1  0.734365  0.113294  0.726493  1
  P  P24  1  0.280128  0.833535  0.050840  1
  P  P25  1  0.741317  0.664808  0.460267  1
  P  P26  1  0.265635  0.886706  0.273507  1
  P  P27  1  0.233637  0.027944  0.814554  1
  P  P28  1  0.741317  0.164808  0.039732  1
  P  P29  1  0.234365  0.886706  0.773507  1
  P  P30  1  0.766363  0.472056  0.314554  1
  P  P31  1  0.219872  0.833535  0.550840  1
  C  C32  1  0.483921  0.065054  0.681238  1
  C  C33  1  0.984733  0.886260  0.501696  1
  C  C34  1  0.983921  0.934946  0.818762  1
  C  C35  1  0.484733  0.113740  0.998304  1
  C  C36  1  0.515267  0.386260  0.498304  1
  C  C37  1  0.984733  0.386260  0.998304  1
  C  C38  1  0.983921  0.434946  0.681238  1
  C  C39  1  0.016079  0.065054  0.181238  1
  C  C40  1  0.015267  0.613740  0.001696  1
  C  C41  1  0.483921  0.565054  0.818762  1
  C  C42  1  0.516079  0.934946  0.318762  1
  C  C43  1  0.516079  0.434946  0.181238  1
  C  C44  1  0.015267  0.113740  0.498304  1
  C  C45  1  0.484733  0.613740  0.501696  1
  C  C46  1  0.515267  0.886260  0.001696  1
  C  C47  1  0.016079  0.565054  0.318762  1
  N  N48  1  0.036687  0.872902  0.543074  1
  N  N49  1  0.556132  0.625360  0.461864  1
  N  N50  1  0.443868  0.874640  0.961864  1
  N  N51  1  0.828799  0.532053  0.782014  1
  N  N52  1  0.536687  0.127098  0.956926  1
  N  N53  1  0.463313  0.372902  0.456926  1
  N  N54  1  0.036687  0.372902  0.956926  1
  N  N55  1  0.056132  0.874640  0.461864  1
  N  N56  1  0.556132  0.125360  0.038136  1
  N  N57  1  0.954350  0.496225  0.330706  1
  N  N58  1  0.454350  0.003775  0.330706  1
  N  N59  1  0.963313  0.127098  0.456926  1
  N  N60  1  0.045650  0.003775  0.830706  1
  N  N61  1  0.951745  0.623536  0.295146  1
  N  N62  1  0.328799  0.967947  0.782014  1
  N  N63  1  0.828799  0.032053  0.717986  1
  N  N64  1  0.451745  0.876464  0.295146  1
  N  N65  1  0.322000  0.307890  0.993164  1
  N  N66  1  0.328799  0.467947  0.717986  1
  N  N67  1  0.678000  0.692110  0.006836  1
  N  N68  1  0.822000  0.692110  0.506836  1
  N  N69  1  0.943868  0.125360  0.538136  1
  N  N70  1  0.963313  0.627098  0.043074  1
  N  N71  1  0.954350  0.996225  0.169294  1
  N  N72  1  0.678000  0.192110  0.493164  1
  N  N73  1  0.548255  0.123536  0.704854  1
  N  N74  1  0.056132  0.374640  0.038136  1
  N  N75  1  0.822000  0.192110  0.993164  1
  N  N76  1  0.943868  0.625360  0.961864  1
  N  N77  1  0.048255  0.376464  0.704854  1
  N  N78  1  0.171201  0.967947  0.282014  1
  N  N79  1  0.451745  0.376464  0.204854  1
  N  N80  1  0.548255  0.623536  0.795146  1
  N  N81  1  0.045650  0.503775  0.669294  1
  N  N82  1  0.463313  0.872902  0.043074  1
  N  N83  1  0.536687  0.627098  0.543074  1
  N  N84  1  0.671201  0.032053  0.217986  1
  N  N85  1  0.048255  0.876464  0.795146  1
  N  N86  1  0.178000  0.307890  0.493164  1
  N  N87  1  0.443868  0.374640  0.538136  1
  N  N88  1  0.951745  0.123536  0.204854  1
  N  N89  1  0.671201  0.532053  0.282014  1
  N  N90  1  0.322000  0.807890  0.506836  1
  N  N91  1  0.178000  0.807890  0.006836  1
  N  N92  1  0.545650  0.996225  0.669294  1
  N  N93  1  0.171201  0.467947  0.217986  1
  N  N94  1  0.545650  0.496225  0.830706  1
  N  N95  1  0.454350  0.503775  0.169294  1
  Cl  Cl96  1  0.282592  0.573045  0.498667  1
  Cl  Cl97  1  0.719167  0.366599  0.785571  1
  Cl  Cl98  1  0.857327  0.093483  0.911113  1
  Cl  Cl99  1  0.721224  0.917708  0.338360  1
  Cl  Cl100  1  0.375511  0.796358  0.794202  1
  Cl  Cl101  1  0.219167  0.633401  0.714429  1
  Cl  Cl102  1  0.217299  0.866616  0.707390  1
  Cl  Cl103  1  0.642673  0.093483  0.411113  1
  Cl  Cl104  1  0.372795  0.050262  0.869179  1
  Cl  Cl105  1  0.875511  0.703642  0.794202  1
  Cl  Cl106  1  0.282701  0.366616  0.292610  1
  Cl  Cl107  1  0.601036  0.589995  0.929517  1
  Cl  Cl108  1  0.721224  0.417708  0.161640  1
  Cl  Cl109  1  0.693104  0.258576  0.908342  1
  Cl  Cl110  1  0.101036  0.410005  0.570483  1
  Cl  Cl111  1  0.782701  0.133384  0.292610  1
  Cl  Cl112  1  0.398964  0.410005  0.070483  1
  Cl  Cl113  1  0.221224  0.582292  0.338360  1
  Cl  Cl114  1  0.280833  0.633401  0.214429  1
  Cl  Cl115  1  0.778776  0.917708  0.838360  1
  Cl  Cl116  1  0.765400  0.754436  0.917325  1
  Cl  Cl117  1  0.719167  0.866599  0.714429  1
  Cl  Cl118  1  0.898964  0.089995  0.070483  1
  Cl  Cl119  1  0.872795  0.949738  0.630821  1
  Cl  Cl120  1  0.717299  0.633384  0.707390  1
  Cl  Cl121  1  0.219167  0.133401  0.785571  1
  Cl  Cl122  1  0.357327  0.906517  0.588887  1
  Cl  Cl123  1  0.782592  0.926955  0.498667  1
  Cl  Cl124  1  0.778776  0.417708  0.661640  1
  Cl  Cl125  1  0.780833  0.866599  0.214429  1
  Cl  Cl126  1  0.601036  0.089995  0.570483  1
  Cl  Cl127  1  0.306896  0.241424  0.408342  1
  Cl  Cl128  1  0.642673  0.593483  0.088887  1
  Cl  Cl129  1  0.375511  0.296358  0.705798  1
  Cl  Cl130  1  0.782592  0.426955  0.001333  1
  Cl  Cl131  1  0.124489  0.296358  0.205798  1
  Cl  Cl132  1  0.372795  0.550262  0.630821  1
  Cl  Cl133  1  0.234600  0.745564  0.417325  1
  Cl  Cl134  1  0.398964  0.910005  0.429517  1
  Cl  Cl135  1  0.734600  0.754436  0.417325  1
  Cl  Cl136  1  0.875511  0.203642  0.705798  1
  Cl  Cl137  1  0.627205  0.449738  0.369179  1
  Cl  Cl138  1  0.234600  0.245564  0.082675  1
  Cl  Cl139  1  0.142673  0.906517  0.088887  1
  Cl  Cl140  1  0.624489  0.203642  0.205798  1
  Cl  Cl141  1  0.217299  0.366616  0.792610  1
  Cl  Cl142  1  0.357327  0.406517  0.911113  1
  Cl  Cl143  1  0.282592  0.073045  0.001333  1
  Cl  Cl144  1  0.734600  0.254436  0.082675  1
  Cl  Cl145  1  0.282701  0.866616  0.207390  1
  Cl  Cl146  1  0.142673  0.406517  0.411113  1
  Cl  Cl147  1  0.806896  0.758576  0.091659  1
  Cl  Cl148  1  0.717299  0.133384  0.792610  1
  Cl  Cl149  1  0.217408  0.073045  0.501333  1
  Cl  Cl150  1  0.193104  0.741424  0.591658  1
  Cl  Cl151  1  0.872795  0.449738  0.869179  1
  Cl  Cl152  1  0.217408  0.573045  0.998667  1
  Cl  Cl153  1  0.124489  0.796358  0.294202  1
  Cl  Cl154  1  0.806896  0.258576  0.408342  1
  Cl  Cl155  1  0.278776  0.082292  0.661640  1
  Cl  Cl156  1  0.221224  0.082292  0.161640  1
  Cl  Cl157  1  0.278776  0.582292  0.838360  1
  Cl  Cl158  1  0.857327  0.593483  0.588887  1
  Cl  Cl159  1  0.765400  0.254436  0.582675  1
  Cl  Cl160  1  0.780833  0.366599  0.285571  1
  Cl  Cl161  1  0.898964  0.589995  0.429517  1
  Cl  Cl162  1  0.693104  0.758576  0.591658  1
  Cl  Cl163  1  0.265400  0.745564  0.917325  1
  Cl  Cl164  1  0.265400  0.245564  0.582675  1
  Cl  Cl165  1  0.306896  0.741424  0.091659  1
  Cl  Cl166  1  0.193104  0.241424  0.908342  1
  Cl  Cl167  1  0.627205  0.949738  0.130821  1
  Cl  Cl168  1  0.127205  0.050262  0.369179  1
  Cl  Cl169  1  0.280833  0.133401  0.285571  1
  Cl  Cl170  1  0.624489  0.703642  0.294202  1
  Cl  Cl171  1  0.782701  0.633384  0.207390  1
  Cl  Cl172  1  0.127205  0.550262  0.130821  1
  Cl  Cl173  1  0.101036  0.910005  0.929517  1
  Cl  Cl174  1  0.717408  0.426955  0.501333  1
  Cl  Cl175  1  0.717408  0.926955  0.998667  1
