# generated using pymatgen
data_Cu3BiS3
_symmetry_space_group_name_H-M   'P 1'
_cell_length_a   6.74474772
_cell_length_b   7.69965835
_cell_length_c   10.41058351
_cell_angle_alpha   90.00000000
_cell_angle_beta   90.00000000
_cell_angle_gamma   90.00000000
_symmetry_Int_Tables_number   1
_chemical_formula_structural   Cu3BiS3
_chemical_formula_sum   'Cu12 Bi4 S12'
_cell_volume   540.64505777
_cell_formula_units_Z   4
loop_
 _symmetry_equiv_pos_site_id
 _symmetry_equiv_pos_as_xyz
  1  'x, y, z'
loop_
 _atom_site_type_symbol
 _atom_site_label
 _atom_site_symmetry_multiplicity
 _atom_site_fract_x
 _atom_site_fract_y
 _atom_site_fract_z
 _atom_site_occupancy
  Cu  Cu0  1  0.639829  0.351124  0.097517  1
  Cu  Cu1  1  0.860171  0.648876  0.597517  1
  Cu  Cu2  1  0.076102  0.311843  0.603458  1
  Cu  Cu3  1  0.026376  0.941662  0.535738  1
  Cu  Cu4  1  0.423898  0.688157  0.103458  1
  Cu  Cu5  1  0.139829  0.148876  0.902483  1
  Cu  Cu6  1  0.360171  0.851124  0.402483  1
  Cu  Cu7  1  0.923898  0.811843  0.896542  1
  Cu  Cu8  1  0.526376  0.558338  0.464262  1
  Cu  Cu9  1  0.576102  0.188157  0.396542  1
  Cu  Cu10  1  0.973624  0.441662  0.964262  1
  Cu  Cu11  1  0.473624  0.058338  0.035738  1
  Bi  Bi12  1  0.869803  0.807304  0.243944  1
  Bi  Bi13  1  0.630197  0.192696  0.743944  1
  Bi  Bi14  1  0.369803  0.692696  0.756056  1
  Bi  Bi15  1  0.130197  0.307304  0.256056  1
  S  S16  1  0.404636  0.321299  0.561860  1
  S  S17  1  0.095364  0.678701  0.061860  1
  S  S18  1  0.595364  0.821299  0.938140  1
  S  S19  1  0.107575  0.946850  0.747480  1
  S  S20  1  0.413565  0.320452  0.931086  1
  S  S21  1  0.086435  0.679548  0.431086  1
  S  S22  1  0.913565  0.179548  0.068914  1
  S  S23  1  0.586435  0.820452  0.568914  1
  S  S24  1  0.392425  0.053150  0.247480  1
  S  S25  1  0.904636  0.178701  0.438140  1
  S  S26  1  0.892425  0.446850  0.752520  1
  S  S27  1  0.607575  0.553150  0.252520  1
