# generated using pymatgen
data_Dy2O3
_symmetry_space_group_name_H-M   'P 1'
_cell_length_a   6.36045418
_cell_length_b   6.36045421
_cell_length_c   7.78993378
_cell_angle_alpha   35.26438868
_cell_angle_beta   35.26438824
_cell_angle_gamma   59.99999968
_symmetry_Int_Tables_number   1
_chemical_formula_structural   Dy2O3
_chemical_formula_sum   'Dy4 O6'
_cell_volume   90.97443208
_cell_formula_units_Z   2
loop_
 _symmetry_equiv_pos_site_id
 _symmetry_equiv_pos_as_xyz
  1  'x, y, z'
loop_
 _atom_site_type_symbol
 _atom_site_label
 _atom_site_symmetry_multiplicity
 _atom_site_fract_x
 _atom_site_fract_y
 _atom_site_fract_z
 _atom_site_occupancy
  Dy  Dy0  1  0.000000  0.000000  0.000000  1
  Dy  Dy1  1  0.000000  0.500000  0.000000  1
  Dy  Dy2  1  0.500000  0.000000  0.000000  1
  Dy  Dy3  1  0.500000  0.500000  0.000000  1
  O  O4  1  0.500000  0.000000  0.250000  1
  O  O5  1  0.500000  0.500000  0.250000  1
  O  O6  1  0.000000  0.500000  0.750000  1
  O  O7  1  0.000000  0.500000  0.250000  1
  O  O8  1  0.500000  0.500000  0.750000  1
  O  O9  1  0.500000  0.000000  0.750000  1
