# generated using pymatgen
data_Sr5La5Mn9CuO30
_symmetry_space_group_name_H-M   'P 1'
_cell_length_a   5.47795963
_cell_length_b   27.40244735
_cell_length_c   5.53506891
_cell_angle_alpha   119.71127946
_cell_angle_beta   119.65073815
_cell_angle_gamma   90.05541821
_symmetry_Int_Tables_number   1
_chemical_formula_structural   Sr5La5Mn9CuO30
_chemical_formula_sum   'Sr5 La5 Mn9 Cu1 O30'
_cell_volume   592.85470593
_cell_formula_units_Z   1
loop_
 _symmetry_equiv_pos_site_id
 _symmetry_equiv_pos_as_xyz
  1  'x, y, z'
loop_
 _atom_site_type_symbol
 _atom_site_label
 _atom_site_symmetry_multiplicity
 _atom_site_fract_x
 _atom_site_fract_y
 _atom_site_fract_z
 _atom_site_occupancy
  Sr  Sr0  1  0.246300  0.348736  0.496387  1
  Sr  Sr1  1  0.248760  0.549771  0.498979  1
  Sr  Sr2  1  0.251800  0.952624  0.507982  1
  Sr  Sr3  1  0.752920  0.050401  0.501389  1
  Sr  Sr4  1  0.752848  0.250297  0.500648  1
  La  La5  1  0.256554  0.150609  0.501856  1
  La  La6  1  0.249473  0.748661  0.495281  1
  La  La7  1  0.741350  0.447923  0.492772  1
  La  La8  1  0.751398  0.648696  0.496470  1
  La  La9  1  0.750207  0.852321  0.507881  1
  Mn  Mn10  1  0.001673  0.000869  0.003552  1
  Mn  Mn11  1  0.001257  0.200507  0.001946  1
  Mn  Mn12  1  0.998568  0.399328  0.996929  1
  Mn  Mn13  1  0.001674  0.599059  0.996296  1
  Mn  Mn14  1  0.997828  0.800585  0.002761  1
  Mn  Mn15  1  0.500320  0.099931  0.999807  1
  Mn  Mn16  1  0.499639  0.299823  0.999270  1
  Mn  Mn17  1  0.496579  0.499138  0.996095  1
  Mn  Mn18  1  0.504308  0.901501  0.006300  1
  Cu  Cu19  1  0.499495  0.699427  0.997824  1
  O  O20  1  0.252021  0.052022  0.502833  1
  O  O21  1  0.249113  0.247708  0.497055  1
  O  O22  1  0.249070  0.450508  0.502336  1
  O  O23  1  0.235595  0.649957  0.482773  1
  O  O24  1  0.247895  0.848074  0.501459  1
  O  O25  1  0.221312  0.144344  0.013069  1
  O  O26  1  0.225707  0.345466  0.006389  1
  O  O27  1  0.197588  0.538934  0.981133  1
  O  O28  1  0.193693  0.742343  0.003331  1
  O  O29  1  0.208923  0.940824  0.987238  1
  O  O30  1  0.280678  0.045135  0.005071  1
  O  O31  1  0.296983  0.443770  0.014326  1
  O  O32  1  0.279066  0.241689  0.988375  1
  O  O33  1  0.300770  0.641575  0.021470  1
  O  O34  1  0.296464  0.840731  0.000750  1
  O  O35  1  0.755763  0.150142  0.501154  1
  O  O36  1  0.751270  0.352780  0.502719  1
  O  O37  1  0.745020  0.549624  0.494679  1
  O  O38  1  0.763211  0.752276  0.518838  1
  O  O39  1  0.746181  0.946901  0.495939  1
  O  O40  1  0.708616  0.155901  0.987477  1
  O  O41  1  0.722347  0.358888  0.013401  1
  O  O42  1  0.713932  0.558494  0.010652  1
  O  O43  1  0.705596  0.762431  0.004928  1
  O  O44  1  0.715541  0.954860  0.991697  1
  O  O45  1  0.791492  0.058610  0.012528  1
  O  O46  1  0.774244  0.254658  0.993566  1
  O  O47  1  0.780801  0.456761  0.987795  1
  O  O48  1  0.801809  0.657033  0.989260  1
  O  O49  1  0.786348  0.857351  0.987331  1
