# generated using pymatgen
data_CsInI4
_symmetry_space_group_name_H-M   'P 1'
_cell_length_a   7.81948249
_cell_length_b   9.03297692
_cell_length_c   19.57743173
_cell_angle_alpha   89.99987908
_cell_angle_beta   90.00009983
_cell_angle_gamma   106.25828438
_symmetry_Int_Tables_number   1
_chemical_formula_structural   CsInI4
_chemical_formula_sum   'Cs4 In4 I16'
_cell_volume   1327.51705123
_cell_formula_units_Z   4
loop_
 _symmetry_equiv_pos_site_id
 _symmetry_equiv_pos_as_xyz
  1  'x, y, z'
loop_
 _atom_site_type_symbol
 _atom_site_label
 _atom_site_symmetry_multiplicity
 _atom_site_fract_x
 _atom_site_fract_y
 _atom_site_fract_z
 _atom_site_occupancy
  Cs  Cs0  1  0.813077  0.210181  0.869471  1
  Cs  Cs1  1  0.813068  0.710174  0.630525  1
  Cs  Cs2  1  0.186929  0.289816  0.369473  1
  Cs  Cs3  1  0.186927  0.789821  0.130529  1
  In  In4  1  0.190051  0.796065  0.872534  1
  In  In5  1  0.809953  0.703945  0.372536  1
  In  In6  1  0.190052  0.296065  0.627466  1
  In  In7  1  0.809948  0.203934  0.127465  1
  I  I8  1  0.636103  0.140609  0.250145  1
  I  I9  1  0.728842  0.933416  0.052576  1
  I  I10  1  0.363893  0.859388  0.749854  1
  I  I11  1  0.271160  0.566582  0.552577  1
  I  I12  1  0.828621  0.208956  0.657234  1
  I  I13  1  0.828621  0.708954  0.842767  1
  I  I14  1  0.728840  0.433418  0.447425  1
  I  I15  1  0.636100  0.640612  0.249856  1
  I  I16  1  0.363899  0.359389  0.750145  1
  I  I17  1  0.271163  0.066579  0.947425  1
  I  I18  1  0.728431  0.930284  0.448454  1
  I  I19  1  0.271570  0.569718  0.948452  1
  I  I20  1  0.171378  0.791050  0.342767  1
  I  I21  1  0.171378  0.291046  0.157231  1
  I  I22  1  0.271568  0.069717  0.551545  1
  I  I23  1  0.728430  0.430281  0.051547  1
