# generated using pymatgen
data_KBiN(ClO)3
_symmetry_space_group_name_H-M   'P 1'
_cell_length_a   8.53140068
_cell_length_b   10.02237903
_cell_length_c   10.45207721
_cell_angle_alpha   112.47516227
_cell_angle_beta   90.00000000
_cell_angle_gamma   90.00000000
_symmetry_Int_Tables_number   1
_chemical_formula_structural   KBiN(ClO)3
_chemical_formula_sum   'K4 Bi4 N4 Cl12 O12'
_cell_volume   825.82314841
_cell_formula_units_Z   4
loop_
 _symmetry_equiv_pos_site_id
 _symmetry_equiv_pos_as_xyz
  1  'x, y, z'
loop_
 _atom_site_type_symbol
 _atom_site_label
 _atom_site_symmetry_multiplicity
 _atom_site_fract_x
 _atom_site_fract_y
 _atom_site_fract_z
 _atom_site_occupancy
  K  K0  1  0.584988  0.357128  0.194526  1
  K  K1  1  0.415012  0.642872  0.805474  1
  K  K2  1  0.915012  0.357128  0.694526  1
  K  K3  1  0.084988  0.642872  0.305474  1
  Bi  Bi4  1  0.080304  0.136266  0.223011  1
  Bi  Bi5  1  0.580304  0.863734  0.276989  1
  Bi  Bi6  1  0.919696  0.863734  0.776989  1
  Bi  Bi7  1  0.419696  0.136266  0.723011  1
  N  N8  1  0.779708  0.675100  0.942792  1
  N  N9  1  0.720292  0.675100  0.442792  1
  N  N10  1  0.220292  0.324900  0.057208  1
  N  N11  1  0.279708  0.324900  0.557208  1
  Cl  Cl12  1  0.592113  0.350920  0.871468  1
  Cl  Cl13  1  0.871549  0.135657  0.033091  1
  Cl  Cl14  1  0.092113  0.649080  0.628532  1
  Cl  Cl15  1  0.628451  0.135657  0.533091  1
  Cl  Cl16  1  0.438855  0.041432  0.190954  1
  Cl  Cl17  1  0.128451  0.864343  0.966909  1
  Cl  Cl18  1  0.561145  0.958569  0.809046  1
  Cl  Cl19  1  0.371549  0.864343  0.466909  1
  Cl  Cl20  1  0.907887  0.350920  0.371468  1
  Cl  Cl21  1  0.938855  0.958569  0.309046  1
  Cl  Cl22  1  0.061145  0.041432  0.690954  1
  Cl  Cl23  1  0.407887  0.649080  0.128532  1
  O  O24  1  0.266918  0.349818  0.688779  1
  O  O25  1  0.205377  0.216258  0.474294  1
  O  O26  1  0.766918  0.650182  0.811221  1
  O  O27  1  0.137595  0.405160  0.019203  1
  O  O28  1  0.294623  0.216258  0.974294  1
  O  O29  1  0.794623  0.783742  0.525706  1
  O  O30  1  0.362405  0.405160  0.519203  1
  O  O31  1  0.862405  0.594840  0.980797  1
  O  O32  1  0.705377  0.783742  0.025706  1
  O  O33  1  0.233082  0.349818  0.188779  1
  O  O34  1  0.637595  0.594840  0.480797  1
  O  O35  1  0.733082  0.650182  0.311221  1
