# generated using pymatgen
data_Mg(Mo3Se4)2
_symmetry_space_group_name_H-M   'P 1'
_cell_length_a   6.83772678
_cell_length_b   6.85580000
_cell_length_c   13.66240275
_cell_angle_alpha   90.79340254
_cell_angle_beta   94.33811997
_cell_angle_gamma   94.47281332
_symmetry_Int_Tables_number   1
_chemical_formula_structural   Mg(Mo3Se4)2
_chemical_formula_sum   'Mg2 Mo12 Se16'
_cell_volume   636.56178525
_cell_formula_units_Z   2
loop_
 _symmetry_equiv_pos_site_id
 _symmetry_equiv_pos_as_xyz
  1  'x, y, z'
loop_
 _atom_site_type_symbol
 _atom_site_label
 _atom_site_symmetry_multiplicity
 _atom_site_fract_x
 _atom_site_fract_y
 _atom_site_fract_z
 _atom_site_occupancy
  Mg  Mg0  1  0.116669  0.916753  0.998418  1
  Mg  Mg1  1  0.883331  0.083247  0.501582  1
  Mo  Mo2  1  0.230744  0.411233  0.771464  1
  Mo  Mo3  1  0.236191  0.413260  0.273393  1
  Mo  Mo4  1  0.412955  0.551600  0.618422  1
  Mo  Mo5  1  0.456340  0.765885  0.790572  1
  Mo  Mo6  1  0.417229  0.552074  0.117065  1
  Mo  Mo7  1  0.457048  0.766465  0.289854  1
  Mo  Mo8  1  0.543660  0.234115  0.709428  1
  Mo  Mo9  1  0.587045  0.448400  0.881578  1
  Mo  Mo10  1  0.542952  0.233535  0.210146  1
  Mo  Mo11  1  0.582771  0.447926  0.382935  1
  Mo  Mo12  1  0.769256  0.588767  0.728536  1
  Mo  Mo13  1  0.763809  0.586740  0.226607  1
  Se  Se14  1  0.131661  0.733999  0.685061  1
  Se  Se15  1  0.128614  0.738428  0.183575  1
  Se  Se16  1  0.268604  0.609136  0.931704  1
  Se  Se17  1  0.211352  0.215629  0.608894  1
  Se  Se18  1  0.271673  0.619425  0.432564  1
  Se  Se19  1  0.207921  0.226903  0.108198  1
  Se  Se20  1  0.370521  0.119853  0.868492  1
  Se  Se21  1  0.374938  0.118858  0.368267  1
  Se  Se22  1  0.629479  0.880147  0.631508  1
  Se  Se23  1  0.625062  0.881142  0.131733  1
  Se  Se24  1  0.788648  0.784371  0.891106  1
  Se  Se25  1  0.731396  0.390864  0.568296  1
  Se  Se26  1  0.792079  0.773097  0.391802  1
  Se  Se27  1  0.728327  0.380575  0.067436  1
  Se  Se28  1  0.868339  0.266001  0.814939  1
  Se  Se29  1  0.871386  0.261572  0.316425  1
