# generated using pymatgen
data_GdBi2IO4
_symmetry_space_group_name_H-M   'P 1'
_cell_length_a   3.97400500
_cell_length_b   3.97402082
_cell_length_c   9.70676597
_cell_angle_alpha   90.00059935
_cell_angle_beta   89.99972974
_cell_angle_gamma   90.00002047
_symmetry_Int_Tables_number   1
_chemical_formula_structural   GdBi2IO4
_chemical_formula_sum   'Gd1 Bi2 I1 O4'
_cell_volume   153.29680597
_cell_formula_units_Z   1
loop_
 _symmetry_equiv_pos_site_id
 _symmetry_equiv_pos_as_xyz
  1  'x, y, z'
loop_
 _atom_site_type_symbol
 _atom_site_label
 _atom_site_symmetry_multiplicity
 _atom_site_fract_x
 _atom_site_fract_y
 _atom_site_fract_z
 _atom_site_occupancy
  Gd  Gd0  1  0.999995  0.999995  -0.000000  1
  Bi  Bi1  1  0.500001  0.500001  0.741852  1
  Bi  Bi2  1  0.500002  0.500000  0.258148  1
  I  I3  1  1.000000  -0.000001  0.500000  1
  O  O4  1  0.500003  1.000000  0.145849  1
  O  O5  1  0.000001  0.500002  0.145850  1
  O  O6  1  0.000000  0.500001  0.854150  1
  O  O7  1  0.499997  0.000002  0.854151  1
