# generated using pymatgen
data_TbCoSn
_symmetry_space_group_name_H-M   'P 1'
_cell_length_a   4.58095607
_cell_length_b   7.39420163
_cell_length_c   7.29047964
_cell_angle_alpha   90.02379331
_cell_angle_beta   90.00040153
_cell_angle_gamma   89.99996112
_symmetry_Int_Tables_number   1
_chemical_formula_structural   TbCoSn
_chemical_formula_sum   'Tb4 Co4 Sn4'
_cell_volume   246.94684380
_cell_formula_units_Z   4
loop_
 _symmetry_equiv_pos_site_id
 _symmetry_equiv_pos_as_xyz
  1  'x, y, z'
loop_
 _atom_site_type_symbol
 _atom_site_label
 _atom_site_symmetry_multiplicity
 _atom_site_fract_x
 _atom_site_fract_y
 _atom_site_fract_z
 _atom_site_occupancy
  Tb  Tb0  1  0.249999  0.973711  0.199850  1
  Tb  Tb1  1  0.750000  0.526430  0.699056  1
  Tb  Tb2  1  0.250000  0.473819  0.300876  1
  Tb  Tb3  1  0.750000  0.026109  0.800129  1
  Co  Co4  1  0.250001  0.150408  0.561020  1
  Co  Co5  1  0.250000  0.650458  0.939027  1
  Co  Co6  1  0.750000  0.349533  0.061012  1
  Co  Co7  1  0.749999  0.849505  0.438990  1
  Sn  Sn8  1  0.750000  0.702165  0.108107  1
  Sn  Sn9  1  0.250000  0.798277  0.607638  1
  Sn  Sn10  1  0.750000  0.201589  0.392388  1
  Sn  Sn11  1  0.250000  0.297994  0.891908  1
