# generated using pymatgen
data_Fe8H10O17
_symmetry_space_group_name_H-M   'P 1'
_cell_length_a   10.51725688
_cell_length_b   6.13080994
_cell_length_c   11.04037396
_cell_angle_alpha   90.77585057
_cell_angle_beta   89.08117126
_cell_angle_gamma   87.39918520
_symmetry_Int_Tables_number   1
_chemical_formula_structural   Fe8H10O17
_chemical_formula_sum   'Fe16 H20 O34'
_cell_volume   710.97833906
_cell_formula_units_Z   2
loop_
 _symmetry_equiv_pos_site_id
 _symmetry_equiv_pos_as_xyz
  1  'x, y, z'
loop_
 _atom_site_type_symbol
 _atom_site_label
 _atom_site_symmetry_multiplicity
 _atom_site_fract_x
 _atom_site_fract_y
 _atom_site_fract_z
 _atom_site_occupancy
  Fe  Fe0  1  0.324789  0.014715  0.080899  1
  Fe  Fe1  1  0.141899  0.027858  0.625042  1
  Fe  Fe2  1  0.822149  0.285926  0.581812  1
  Fe  Fe3  1  0.727196  0.237029  0.075917  1
  Fe  Fe4  1  0.695575  0.997677  0.795862  1
  Fe  Fe5  1  0.879460  0.993905  0.251947  1
  Fe  Fe6  1  0.169878  0.264893  0.333068  1
  Fe  Fe7  1  0.337548  0.270151  0.795227  1
  Fe  Fe8  1  0.317719  0.500627  0.081157  1
  Fe  Fe9  1  0.143566  0.533825  0.625600  1
  Fe  Fe10  1  0.817850  0.779927  0.533710  1
  Fe  Fe11  1  0.872853  0.699145  0.960156  1
  Fe  Fe12  1  0.674959  0.480332  0.803927  1
  Fe  Fe13  1  0.868586  0.510696  0.259409  1
  Fe  Fe14  1  0.167328  0.764760  0.339752  1
  Fe  Fe15  1  0.339963  0.769004  0.794831  1
  H  H16  1  0.378333  0.011532  0.298818  1
  H  H17  1  0.378186  0.018761  0.582185  1
  H  H18  1  0.531855  0.237084  0.909194  1
  H  H19  1  0.721400  0.252016  0.368301  1
  H  H20  1  0.607765  0.051274  0.554325  1
  H  H21  1  0.982876  0.030636  0.472977  1
  H  H22  1  0.651304  0.912818  0.218478  1
  H  H23  1  0.514466  0.248636  0.162748  1
  H  H24  1  0.085914  0.348410  0.833570  1
  H  H25  1  0.382186  0.521061  0.303118  1
  H  H26  1  0.386452  0.518087  0.585319  1
  H  H27  1  0.548363  0.768912  0.906294  1
  H  H28  1  0.763927  0.638468  0.684983  1
  H  H29  1  0.988714  0.515737  0.472317  1
  H  H30  1  0.121069  0.786237  0.076487  1
  H  H31  1  0.523750  0.702541  0.140043  1
  H  H32  1  0.080000  0.846892  0.847263  1
  H  H33  1  -0.000062  0.369114  0.010058  1
  H  H34  1  0.996540  0.052891  0.925726  1
  H  H35  1  0.692894  0.601201  0.128916  1
  O  O36  1  0.299999  0.008113  0.345953  1
  O  O37  1  0.045810  0.019965  0.330137  1
  O  O38  1  0.347667  0.021526  0.666180  1
  O  O39  1  0.328717  0.021807  0.906904  1
  O  O40  1  0.800584  0.245539  0.755898  1
  O  O41  1  0.542217  0.245357  0.819943  1
  O  O42  1  0.894876  0.249057  0.146346  1
  O  O43  1  0.807945  0.279853  0.394369  1
  O  O44  1  0.688287  0.021997  0.594065  1
  O  O45  1  0.948639  0.022504  0.560361  1
  O  O46  1  0.677695  0.062719  0.223919  1
  O  O47  1  0.730556  0.985432  0.965016  1
  O  O48  1  0.222162  0.261398  0.141467  1
  O  O49  1  0.466724  0.249303  0.086776  1
  O  O50  1  0.144079  0.293635  0.758856  1
  O  O51  1  0.167499  0.273254  0.519525  1
  O  O52  1  0.298601  0.512688  0.340619  1
  O  O53  1  0.044684  0.517839  0.330805  1
  O  O54  1  0.348274  0.516157  0.666408  1
  O  O55  1  0.328990  0.519520  0.907041  1
  O  O56  1  0.807193  0.732468  0.771423  1
  O  O57  1  0.545625  0.755015  0.817612  1
  O  O58  1  0.893118  0.742829  0.137303  1
  O  O59  1  0.815331  0.771518  0.368537  1
  O  O60  1  0.704192  0.549425  0.606529  1
  O  O61  1  0.953756  0.530229  0.559144  1
  O  O62  1  0.721986  0.496834  0.967842  1
  O  O63  1  0.200455  0.770497  0.123185  1
  O  O64  1  0.433945  0.744106  0.128267  1
  O  O65  1  0.152366  0.788511  0.751366  1
  O  O66  1  0.170424  0.774854  0.517267  1
  O  O67  1  0.000442  0.451687  0.934227  1
  O  O68  1  0.020229  0.897040  0.927863  1
  O  O69  1  0.676658  0.503889  0.197397  1
