# generated using pymatgen
data_LaMg2NiH7
_symmetry_space_group_name_H-M   'P 1'
_cell_length_a   13.96806556
_cell_length_b   4.67481553
_cell_length_c   16.01520242
_cell_angle_alpha   90.00000000
_cell_angle_beta   125.41016252
_cell_angle_gamma   90.00000000
_symmetry_Int_Tables_number   1
_chemical_formula_structural   LaMg2NiH7
_chemical_formula_sum   'La8 Mg16 Ni8 H56'
_cell_volume   852.32283675
_cell_formula_units_Z   8
loop_
 _symmetry_equiv_pos_site_id
 _symmetry_equiv_pos_as_xyz
  1  'x, y, z'
loop_
 _atom_site_type_symbol
 _atom_site_label
 _atom_site_symmetry_multiplicity
 _atom_site_fract_x
 _atom_site_fract_y
 _atom_site_fract_z
 _atom_site_occupancy
  La  La0  1  0.219652  0.232511  0.507001  1
  La  La1  1  0.780348  0.732511  0.992999  1
  La  La2  1  0.780348  0.767489  0.492999  1
  La  La3  1  0.219652  0.267489  0.007001  1
  La  La4  1  0.280899  0.241251  0.787977  1
  La  La5  1  0.719101  0.741251  0.712023  1
  La  La6  1  0.719101  0.758749  0.212023  1
  La  La7  1  0.280899  0.258749  0.287977  1
  Mg  Mg8  1  0.093429  0.741231  0.590373  1
  Mg  Mg9  1  0.906571  0.241231  0.909627  1
  Mg  Mg10  1  0.906571  0.258769  0.409627  1
  Mg  Mg11  1  0.093429  0.758769  0.090373  1
  Mg  Mg12  1  0.100125  0.746922  0.788424  1
  Mg  Mg13  1  0.899875  0.246922  0.711576  1
  Mg  Mg14  1  0.899875  0.253078  0.211576  1
  Mg  Mg15  1  0.100125  0.753078  0.288424  1
  Mg  Mg16  1  0.407124  0.763772  0.498937  1
  Mg  Mg17  1  0.592876  0.263772  0.001063  1
  Mg  Mg18  1  0.592876  0.236228  0.501063  1
  Mg  Mg19  1  0.407124  0.736228  0.998937  1
  Mg  Mg20  1  0.400459  0.739369  0.691049  1
  Mg  Mg21  1  0.599541  0.239369  0.808951  1
  Mg  Mg22  1  0.599541  0.260631  0.308951  1
  Mg  Mg23  1  0.400459  0.760631  0.191049  1
  Ni  Ni24  1  0.004640  0.221891  0.613635  1
  Ni  Ni25  1  0.995360  0.721891  0.886365  1
  Ni  Ni26  1  0.995360  0.778109  0.386365  1
  Ni  Ni27  1  0.004640  0.278109  0.113635  1
  Ni  Ni28  1  0.495191  0.275137  0.608428  1
  Ni  Ni29  1  0.504809  0.775137  0.891572  1
  Ni  Ni30  1  0.504809  0.724863  0.391572  1
  Ni  Ni31  1  0.495191  0.224863  0.108428  1
  H  H32  1  0.105497  0.273791  0.598388  1
  H  H33  1  0.894503  0.773791  0.901612  1
  H  H34  1  0.894503  0.726209  0.401612  1
  H  H35  1  0.105497  0.226209  0.098388  1
  H  H36  1  0.877770  0.302759  0.518239  1
  H  H37  1  0.122230  0.802759  0.981761  1
  H  H38  1  0.122230  0.697241  0.481761  1
  H  H39  1  0.877770  0.197241  0.018239  1
  H  H40  1  0.985028  0.900551  0.631980  1
  H  H41  1  0.014972  0.400551  0.868020  1
  H  H42  1  0.014972  0.099449  0.368020  1
  H  H43  1  0.985028  0.599449  0.131980  1
  H  H44  1  0.043749  0.368839  0.717641  1
  H  H45  1  0.956251  0.868839  0.782359  1
  H  H46  1  0.956251  0.631161  0.282359  1
  H  H47  1  0.043749  0.131161  0.217641  1
  H  H48  1  0.395412  0.272869  0.488878  1
  H  H49  1  0.604588  0.772869  0.011122  1
  H  H50  1  0.604588  0.727131  0.511122  1
  H  H51  1  0.395412  0.227131  0.988878  1
  H  H52  1  0.623270  0.217407  0.642084  1
  H  H53  1  0.376730  0.717407  0.857916  1
  H  H54  1  0.376730  0.782593  0.357916  1
  H  H55  1  0.623270  0.282593  0.142084  1
  H  H56  1  0.519551  0.592467  0.653860  1
  H  H57  1  0.480449  0.092467  0.846140  1
  H  H58  1  0.480449  0.407533  0.346140  1
  H  H59  1  0.519551  0.907533  0.153860  1
  H  H60  1  0.441998  0.131735  0.662060  1
  H  H61  1  0.558002  0.631735  0.837940  1
  H  H62  1  0.558002  0.868265  0.337940  1
  H  H63  1  0.441998  0.368265  0.162060  1
  H  H64  1  0.299550  0.737924  0.539517  1
  H  H65  1  0.700450  0.237924  0.960483  1
  H  H66  1  0.700450  0.262076  0.460483  1
  H  H67  1  0.299550  0.762076  0.039517  1
  H  H68  1  0.265432  0.986560  0.652272  1
  H  H69  1  0.734568  0.486560  0.847728  1
  H  H70  1  0.734568  0.013440  0.347728  1
  H  H71  1  0.265432  0.513440  0.152272  1
  H  H72  1  0.201403  0.730679  0.739132  1
  H  H73  1  0.798597  0.230679  0.760868  1
  H  H74  1  0.798597  0.269321  0.260868  1
  H  H75  1  0.201403  0.769321  0.239132  1
  H  H76  1  0.238338  0.505685  0.887704  1
  H  H77  1  0.761662  0.005685  0.612296  1
  H  H78  1  0.761662  0.494315  0.112296  1
  H  H79  1  0.238338  0.994315  0.387704  1
  H  H80  1  0.284006  0.461924  0.659347  1
  H  H81  1  0.715994  0.961924  0.840653  1
  H  H82  1  0.715994  0.538076  0.340653  1
  H  H83  1  0.284006  0.038076  0.159347  1
  H  H84  1  0.210912  0.032426  0.873166  1
  H  H85  1  0.789088  0.532426  0.626834  1
  H  H86  1  0.789088  0.967574  0.126834  1
  H  H87  1  0.210912  0.467574  0.373166  1
