# generated using pymatgen
data_Sm6Br13
_symmetry_space_group_name_H-M   'P 1'
_cell_length_a   7.33995448
_cell_length_b   7.33248204
_cell_length_c   22.06357603
_cell_angle_alpha   101.48292215
_cell_angle_beta   99.49859560
_cell_angle_gamma   90.11600525
_symmetry_Int_Tables_number   1
_chemical_formula_structural   Sm6Br13
_chemical_formula_sum   'Sm12 Br26'
_cell_volume   1146.99323086
_cell_formula_units_Z   2
loop_
 _symmetry_equiv_pos_site_id
 _symmetry_equiv_pos_as_xyz
  1  'x, y, z'
loop_
 _atom_site_type_symbol
 _atom_site_label
 _atom_site_symmetry_multiplicity
 _atom_site_fract_x
 _atom_site_fract_y
 _atom_site_fract_z
 _atom_site_occupancy
  Sm  Sm0  1  0.343564  0.713208  0.758068  1
  Sm  Sm1  1  0.595569  0.924190  0.099918  1
  Sm  Sm2  1  0.277782  0.993301  0.578654  1
  Sm  Sm3  1  0.799081  0.493359  0.578938  1
  Sm  Sm4  1  0.914099  0.213477  0.757939  1
  Sm  Sm5  1  0.199115  0.509071  0.421067  1
  Sm  Sm6  1  0.656270  0.290791  0.241953  1
  Sm  Sm7  1  0.401957  0.078468  0.900033  1
  Sm  Sm8  1  0.997785  0.579130  0.900291  1
  Sm  Sm9  1  0.001792  0.422977  0.100218  1
  Sm  Sm10  1  0.088250  0.788497  0.242485  1
  Sm  Sm11  1  0.720934  0.009200  0.421058  1
  Br  Br12  1  0.124926  0.342609  0.662014  1
  Br  Br13  1  0.275288  0.865418  0.984654  1
  Br  Br14  1  0.791678  0.637036  0.015855  1
  Br  Br15  1  0.051425  0.251064  0.499826  1
  Br  Br16  1  0.474260  0.006723  0.296448  1
  Br  Br17  1  0.270726  0.733527  0.135408  1
  Br  Br18  1  0.339681  0.893410  0.437837  1
  Br  Br19  1  0.324156  0.506840  0.296953  1
  Br  Br20  1  0.948582  0.104635  0.175403  1
  Br  Br21  1  0.728721  0.268536  0.864111  1
  Br  Br22  1  0.947004  0.751473  0.499765  1
  Br  Br23  1  0.273318  0.396259  0.824377  1
  Br  Br24  1  0.402127  0.609919  0.561675  1
  Br  Br25  1  0.873038  0.659038  0.337673  1
  Br  Br26  1  0.049145  0.895789  0.824128  1
  Br  Br27  1  0.963352  0.160093  0.337574  1
  Br  Br28  1  0.364068  0.234680  0.135577  1
  Br  Br29  1  0.724664  0.135639  0.015403  1
  Br  Br30  1  0.676116  0.495555  0.703413  1
  Br  Br31  1  0.727140  0.608400  0.175719  1
  Br  Br32  1  0.657966  0.109864  0.561896  1
  Br  Br33  1  0.634372  0.767863  0.864753  1
  Br  Br34  1  0.597232  0.392982  0.438153  1
  Br  Br35  1  0.525586  0.995132  0.702958  1
  Br  Br36  1  0.207798  0.365709  0.984728  1
  Br  Br37  1  0.035870  0.841934  0.661888  1
