# generated using pymatgen
data_K2Hg(CN)4
_symmetry_space_group_name_H-M   'P 1'
_cell_length_a   9.21104937
_cell_length_b   9.21104937
_cell_length_c   9.21104937
_cell_angle_alpha   60.00000004
_cell_angle_beta   60.00000003
_cell_angle_gamma   60.00000001
_symmetry_Int_Tables_number   1
_chemical_formula_structural   K2Hg(CN)4
_chemical_formula_sum   'K4 Hg2 C8 N8'
_cell_volume   552.60184748
_cell_formula_units_Z   2
loop_
 _symmetry_equiv_pos_site_id
 _symmetry_equiv_pos_as_xyz
  1  'x, y, z'
loop_
 _atom_site_type_symbol
 _atom_site_label
 _atom_site_symmetry_multiplicity
 _atom_site_fract_x
 _atom_site_fract_y
 _atom_site_fract_z
 _atom_site_occupancy
  C  C0  1  0.222858  0.831425  0.222858  1
  C  C1  1  0.777142  0.777142  0.777142  1
  C  C2  1  0.222858  0.222858  0.831425  1
  C  C3  1  0.831425  0.222858  0.222858  1
  C  C4  1  0.777142  0.168575  0.777142  1
  C  C5  1  0.168575  0.777142  0.777142  1
  C  C6  1  0.222858  0.222858  0.222858  1
  C  C7  1  0.777142  0.777142  0.168575  1
  N  N8  1  0.324636  0.725121  0.725121  1
  N  N9  1  0.725121  0.324636  0.725121  1
  N  N10  1  0.675364  0.274879  0.274879  1
  N  N11  1  0.725121  0.725121  0.725121  1
  N  N12  1  0.274879  0.675364  0.274879  1
  N  N13  1  0.274879  0.274879  0.675364  1
  N  N14  1  0.274879  0.274879  0.274879  1
  N  N15  1  0.725121  0.725121  0.324636  1
  K  K16  1  0.500000  0.500000  0.500000  1
  K  K17  1  0.500000  0.500000  0.000000  1
  K  K18  1  0.500000  0.000000  0.500000  1
  K  K19  1  0.000000  0.500000  0.500000  1
  Hg  Hg20  1  0.875000  0.875000  0.875000  1
  Hg  Hg21  1  0.125000  0.125000  0.125000  1
