# generated using pymatgen
data_CdI2
_symmetry_space_group_name_H-M   'P 1'
_cell_length_a   4.34447696
_cell_length_b   4.34447723
_cell_length_c   110.42495819
_cell_angle_alpha   90.00000000
_cell_angle_beta   90.00000000
_cell_angle_gamma   119.99999798
_symmetry_Int_Tables_number   1
_chemical_formula_structural   CdI2
_chemical_formula_sum   'Cd15 I30'
_cell_volume   1804.98213307
_cell_formula_units_Z   15
loop_
 _symmetry_equiv_pos_site_id
 _symmetry_equiv_pos_as_xyz
  1  'x, y, z'
loop_
 _atom_site_type_symbol
 _atom_site_label
 _atom_site_symmetry_multiplicity
 _atom_site_fract_x
 _atom_site_fract_y
 _atom_site_fract_z
 _atom_site_occupancy
  Cd  Cd0  1  0.333333  0.666667  0.216676  1
  Cd  Cd1  1  0.333333  0.666667  0.816669  1
  Cd  Cd2  1  0.000000  0.000000  0.483339  1
  Cd  Cd3  1  0.333333  0.666667  0.016666  1
  Cd  Cd4  1  0.333333  0.666667  0.350004  1
  Cd  Cd5  1  0.333333  0.666667  0.616665  1
  Cd  Cd6  1  0.333333  0.666667  0.883341  1
  Cd  Cd7  1  0.000000  0.000000  0.683316  1
  Cd  Cd8  1  0.333333  0.666667  0.550012  1
  Cd  Cd9  1  0.333333  0.666667  0.416658  1
  Cd  Cd10  1  0.000000  0.000000  0.083321  1
  Cd  Cd11  1  0.000000  0.000000  0.283332  1
  Cd  Cd12  1  0.333333  0.666667  0.149995  1
  Cd  Cd13  1  0.000000  0.000000  0.949993  1
  Cd  Cd14  1  0.333333  0.666667  0.749992  1
  I  I15  1  0.000000  0.000000  0.734329  1
  I  I16  1  0.666667  0.333333  0.432319  1
  I  I17  1  0.000000  0.000000  0.201015  1
  I  I18  1  0.333333  0.666667  0.667649  1
  I  I19  1  0.333333  0.666667  0.267661  1
  I  I20  1  0.666667  0.333333  0.565676  1
  I  I21  1  0.000000  0.000000  0.867682  1
  I  I22  1  0.666667  0.333333  0.232340  1
  I  I23  1  0.000000  0.000000  0.534349  1
  I  I24  1  0.666667  0.333333  0.899007  1
  I  I25  1  0.000000  0.000000  0.601008  1
  I  I26  1  0.666667  0.333333  0.965660  1
  I  I27  1  0.666667  0.333333  0.698982  1
  I  I28  1  0.000000  0.000000  0.400998  1
  I  I29  1  0.000000  0.000000  0.801013  1
  I  I30  1  0.666667  0.333333  0.765653  1
  I  I31  1  0.333333  0.666667  0.067662  1
  I  I32  1  0.333333  0.666667  0.467674  1
  I  I33  1  0.666667  0.333333  0.098990  1
  I  I34  1  0.666667  0.333333  0.632330  1
  I  I35  1  0.666667  0.333333  0.298996  1
  I  I36  1  0.000000  0.000000  0.001010  1
  I  I37  1  0.000000  0.000000  0.134341  1
  I  I38  1  0.666667  0.333333  0.832337  1
  I  I39  1  0.666667  0.333333  0.365667  1
  I  I40  1  0.666667  0.333333  0.032331  1
  I  I41  1  0.000000  0.000000  0.334343  1
  I  I42  1  0.666667  0.333333  0.499006  1
  I  I43  1  0.333333  0.666667  0.934324  1
  I  I44  1  0.666667  0.333333  0.165665  1
