# generated using pymatgen
data_MnSbSe2Br
_symmetry_space_group_name_H-M   'P 1'
_cell_length_a   3.93760185
_cell_length_b   10.72351621
_cell_length_c   27.55305009
_cell_angle_alpha   90.06891152
_cell_angle_beta   89.99254352
_cell_angle_gamma   89.99909814
_symmetry_Int_Tables_number   1
_chemical_formula_structural   MnSbSe2Br
_chemical_formula_sum   'Mn8 Sb8 Se16 Br8'
_cell_volume   1163.42495990
_cell_formula_units_Z   8
loop_
 _symmetry_equiv_pos_site_id
 _symmetry_equiv_pos_as_xyz
  1  'x, y, z'
loop_
 _atom_site_type_symbol
 _atom_site_label
 _atom_site_symmetry_multiplicity
 _atom_site_fract_x
 _atom_site_fract_y
 _atom_site_fract_z
 _atom_site_occupancy
  Mn  Mn0  1  0.999944  0.999444  0.500034  1
  Mn  Mn1  1  0.999934  0.069152  0.243787  1
  Mn  Mn2  1  0.000133  0.568174  0.256337  1
  Mn  Mn3  1  0.000122  0.431100  0.743437  1
  Mn  Mn4  1  0.999906  0.002692  0.000152  1
  Mn  Mn5  1  0.000233  0.933885  0.756698  1
  Mn  Mn6  1  0.999055  0.497917  0.500671  1
  Mn  Mn7  1  0.000008  0.499413  0.999926  1
  Sb  Sb8  1  0.999971  0.647462  0.144313  1
  Sb  Sb9  1  0.500046  0.823089  0.396937  1
  Sb  Sb10  1  0.999891  0.852515  0.644612  1
  Sb  Sb11  1  0.499926  0.177271  0.602911  1
  Sb  Sb12  1  0.500099  0.676048  0.896968  1
  Sb  Sb13  1  0.999971  0.147341  0.355782  1
  Sb  Sb14  1  0.499947  0.323196  0.103173  1
  Sb  Sb15  1  0.000061  0.352156  0.855479  1
  Se  Se16  1  0.000040  0.265366  0.034613  1
  Se  Se17  1  0.500101  0.280412  0.789635  1
  Se  Se18  1  0.499661  0.780539  0.710048  1
  Se  Se19  1  0.999842  0.765797  0.465216  1
  Se  Se20  1  0.999868  0.235823  0.534606  1
  Se  Se21  1  0.000082  0.580753  0.819464  1
  Se  Se22  1  0.499957  0.052062  0.433913  1
  Se  Se23  1  0.499909  0.948085  0.566179  1
  Se  Se24  1  0.999935  0.418516  0.180172  1
  Se  Se25  1  0.500022  0.447044  0.933680  1
  Se  Se26  1  0.000051  0.733759  0.965219  1
  Se  Se27  1  0.500040  0.219248  0.289971  1
  Se  Se28  1  0.999871  0.081798  0.680336  1
  Se  Se29  1  0.000010  0.918694  0.319531  1
  Se  Se30  1  0.499845  0.719028  0.210077  1
  Se  Se31  1  0.499990  0.551738  0.066098  1
  Br  Br32  1  0.000375  0.583606  0.580048  1
  Br  Br33  1  0.499925  0.055875  0.181804  1
  Br  Br34  1  0.500245  0.944620  0.818384  1
  Br  Br35  1  0.000353  0.417529  0.420361  1
  Br  Br36  1  0.500170  0.443673  0.681679  1
  Br  Br37  1  0.000133  0.917246  0.079607  1
  Br  Br38  1  0.000175  0.082305  0.920062  1
  Br  Br39  1  0.500149  0.555629  0.318079  1
