# generated using pymatgen
data_Na11Zr8Si7P5O48
_symmetry_space_group_name_H-M   'P 1'
_cell_length_a   9.14653014
_cell_length_b   9.16047091
_cell_length_c   18.58518568
_cell_angle_alpha   60.91382870
_cell_angle_beta   60.74267776
_cell_angle_gamma   60.23518050
_symmetry_Int_Tables_number   1
_chemical_formula_structural   Na11Zr8Si7P5O48
_chemical_formula_sum   'Na11 Zr8 Si7 P5 O48'
_cell_volume   1116.69326035
_cell_formula_units_Z   1
loop_
 _symmetry_equiv_pos_site_id
 _symmetry_equiv_pos_as_xyz
  1  'x, y, z'
loop_
 _atom_site_type_symbol
 _atom_site_label
 _atom_site_symmetry_multiplicity
 _atom_site_fract_x
 _atom_site_fract_y
 _atom_site_fract_z
 _atom_site_occupancy
  Na  Na0  1  0.241770  0.094201  0.156159  1
  Na  Na1  1  0.516652  0.004453  0.261446  1
  Na  Na2  1  0.615931  0.403352  0.119955  1
  Na  Na3  1  0.248576  0.082390  0.659342  1
  Na  Na4  1  0.382142  0.611215  0.377496  1
  Na  Na5  1  0.517865  0.001620  0.757296  1
  Na  Na6  1  0.927322  0.723521  0.072720  1
  Na  Na7  1  0.598925  0.401905  0.623978  1
  Na  Na8  1  0.370266  0.610183  0.882947  1
  Na  Na9  1  0.006865  0.480461  0.487549  1
  Na  Na10  1  0.918485  0.754060  0.588762  1
  Zr  Zr11  1  0.147638  0.648602  0.281174  1
  Zr  Zr12  1  0.652720  0.147443  0.026319  1
  Zr  Zr13  1  0.144215  0.646914  0.783972  1
  Zr  Zr14  1  0.349169  0.855794  0.469696  1
  Zr  Zr15  1  0.647222  0.150973  0.523871  1
  Zr  Zr16  1  0.848393  0.346115  0.224592  1
  Zr  Zr17  1  0.347266  0.852702  0.972261  1
  Zr  Zr18  1  0.851983  0.351310  0.723179  1
  Si  Si19  1  0.253726  0.462860  0.122968  1
  Si  Si20  1  0.048535  0.950044  0.375432  1
  Si  Si21  1  0.459854  0.252370  0.367598  1
  Si  Si22  1  0.530885  0.753219  0.130959  1
  Si  Si23  1  0.252441  0.463757  0.621417  1
  Si  Si24  1  0.053463  0.956850  0.872826  1
  Si  Si25  1  0.536138  0.748081  0.629234  1
  P  P26  1  0.955004  0.039542  0.126610  1
  P  P27  1  0.746548  0.535101  0.381842  1
  P  P28  1  0.467904  0.248260  0.867621  1
  P  P29  1  0.955890  0.041849  0.626919  1
  P  P30  1  0.743325  0.539953  0.879312  1
  O  O31  1  0.111308  0.001689  0.044071  1
  O  O32  1  0.005064  0.113551  0.288760  1
  O  O33  1  0.071051  0.429874  0.149313  1
  O  O34  1  0.268838  0.630738  0.030164  1
  O  O35  1  0.110436  0.003559  0.544613  1
  O  O36  1  0.423906  0.278903  0.113350  1
  O  O37  1  0.253642  0.515519  0.195196  1
  O  O38  1  0.062394  0.761042  0.378562  1
  O  O39  1  0.009556  0.123238  0.786659  1
  O  O40  1  0.274324  0.423650  0.367512  1
  O  O41  1  0.434421  0.070526  0.389295  1
  O  O42  1  0.069901  0.432477  0.642924  1
  O  O43  1  0.482299  0.762662  0.054317  1
  O  O44  1  0.776306  0.068495  0.121821  1
  O  O45  1  0.357167  0.747874  0.220314  1
  O  O46  1  0.616923  0.289907  0.273922  1
  O  O47  1  0.241326  0.923317  0.374452  1
  O  O48  1  0.515679  0.240090  0.443474  1
  O  O49  1  0.267747  0.629087  0.529544  1
  O  O50  1  0.564119  0.936187  0.105328  1
  O  O51  1  0.712828  0.584904  0.141856  1
  O  O52  1  0.420795  0.275704  0.617716  1
  O  O53  1  0.941364  0.210207  0.131394  1
  O  O54  1  0.239166  0.519850  0.695965  1
  O  O55  1  0.758943  0.477498  0.312591  1
  O  O56  1  0.074460  0.770155  0.871072  1
  O  O57  1  0.583721  0.708936  0.383818  1
  O  O58  1  0.298184  0.413408  0.860941  1
  O  O59  1  0.439432  0.078638  0.888527  1
  O  O60  1  0.713451  0.388584  0.472485  1
  O  O61  1  0.484375  0.757782  0.554044  1
  O  O62  1  0.777116  0.062170  0.626124  1
  O  O63  1  0.367872  0.731691  0.720457  1
  O  O64  1  0.620725  0.275907  0.778771  1
  O  O65  1  0.244392  0.932780  0.872802  1
  O  O66  1  0.519327  0.237598  0.939094  1
  O  O67  1  0.916679  0.563737  0.360845  1
  O  O68  1  0.568591  0.928826  0.608204  1
  O  O69  1  0.723532  0.579186  0.634612  1
  O  O70  1  0.988444  0.879484  0.207532  1
  O  O71  1  0.939589  0.220316  0.627009  1
  O  O72  1  0.747467  0.487596  0.809295  1
  O  O73  1  0.582624  0.715441  0.882760  1
  O  O74  1  0.887079  0.997430  0.463159  1
  O  O75  1  0.710383  0.391780  0.967886  1
  O  O76  1  0.917119  0.566535  0.852734  1
  O  O77  1  0.995759  0.888502  0.708539  1
  O  O78  1  0.889058  0.997871  0.960725  1
