# generated using pymatgen
data_As(IF3)2
_symmetry_space_group_name_H-M   'P 1'
_cell_length_a   6.88865855
_cell_length_b   8.96308280
_cell_length_c   8.96308393
_cell_angle_alpha   76.06723897
_cell_angle_beta   79.14251635
_cell_angle_gamma   79.14250897
_symmetry_Int_Tables_number   1
_chemical_formula_structural   As(IF3)2
_chemical_formula_sum   'As2 I4 F12'
_cell_volume   521.54502217
_cell_formula_units_Z   2
loop_
 _symmetry_equiv_pos_site_id
 _symmetry_equiv_pos_as_xyz
  1  'x, y, z'
loop_
 _atom_site_type_symbol
 _atom_site_label
 _atom_site_symmetry_multiplicity
 _atom_site_fract_x
 _atom_site_fract_y
 _atom_site_fract_z
 _atom_site_occupancy
  As  As0  1  0.338016  0.466875  0.466875  1
  As  As1  1  0.661984  0.533125  0.533125  1
  I  I2  1  0.748539  0.975639  0.369098  1
  I  I3  1  0.748539  0.369098  0.975639  1
  I  I4  1  0.251461  0.024361  0.630902  1
  I  I5  1  0.251461  0.630902  0.024361  1
  F  F6  1  0.750305  0.597013  0.334712  1
  F  F7  1  0.786682  0.984196  0.575389  1
  F  F8  1  0.500799  0.348084  0.348084  1
  F  F9  1  0.786682  0.575389  0.984196  1
  F  F10  1  0.139037  0.410542  0.410542  1
  F  F11  1  0.750305  0.334712  0.597013  1
  F  F12  1  0.213318  0.015804  0.424611  1
  F  F13  1  0.213318  0.424611  0.015804  1
  F  F14  1  0.249695  0.665288  0.402987  1
  F  F15  1  0.860963  0.589458  0.589458  1
  F  F16  1  0.499201  0.651916  0.651916  1
  F  F17  1  0.249695  0.402987  0.665288  1
