# generated using pymatgen
data_Na2CeO3
_symmetry_space_group_name_H-M   'P 1'
_cell_length_a   7.14929308
_cell_length_b   7.14929353
_cell_length_c   19.00275744
_cell_angle_alpha   98.31588271
_cell_angle_beta   98.31588270
_cell_angle_gamma   98.71774260
_symmetry_Int_Tables_number   1
_chemical_formula_structural   Na2CeO3
_chemical_formula_sum   'Na24 Ce12 O36'
_cell_volume   936.08605996
_cell_formula_units_Z   12
loop_
 _symmetry_equiv_pos_site_id
 _symmetry_equiv_pos_as_xyz
  1  'x, y, z'
loop_
 _atom_site_type_symbol
 _atom_site_label
 _atom_site_symmetry_multiplicity
 _atom_site_fract_x
 _atom_site_fract_y
 _atom_site_fract_z
 _atom_site_occupancy
  Na  Na0  1  0.184059  0.824310  0.837723  1
  Na  Na1  1  0.223715  0.833522  0.490590  1
  Na  Na2  1  0.078521  0.421479  0.750000  1
  Na  Na3  1  0.146181  0.840031  0.166739  1
  Na  Na4  1  0.340031  0.646181  0.666739  1
  Na  Na5  1  0.982868  0.033560  0.673737  1
  Na  Na6  1  0.324310  0.684059  0.337723  1
  Na  Na7  1  0.600174  0.926737  0.912979  1
  Na  Na8  1  0.017132  0.966440  0.326263  1
  Na  Na9  1  0.333522  0.723715  0.990591  1
  Na  Na10  1  0.573263  0.899826  0.587021  1
  Na  Na11  1  0.000000  0.000000  0.000000  1
  Na  Na12  1  0.466440  0.517132  0.826263  1
  Na  Na13  1  0.500000  0.500000  0.500000  1
  Na  Na14  1  0.533560  0.482868  0.173737  1
  Na  Na15  1  0.426737  0.100174  0.412979  1
  Na  Na16  1  0.666478  0.276285  0.009409  1
  Na  Na17  1  0.399826  0.073263  0.087021  1
  Na  Na18  1  0.675690  0.315941  0.662277  1
  Na  Na19  1  0.659969  0.353819  0.333261  1
  Na  Na20  1  0.853819  0.159969  0.833261  1
  Na  Na21  1  0.921479  0.578521  0.250000  1
  Na  Na22  1  0.776285  0.166478  0.509409  1
  Na  Na23  1  0.815941  0.175690  0.162277  1
  Ce  Ce24  1  0.058101  0.384824  0.412762  1
  Ce  Ce25  1  0.115176  0.441899  0.087238  1
  Ce  Ce26  1  0.284690  0.270445  0.920580  1
  Ce  Ce27  1  0.229555  0.215310  0.579420  1
  Ce  Ce28  1  0.244287  0.255713  0.250000  1
  Ce  Ce29  1  0.581884  0.918116  0.250000  1
  Ce  Ce30  1  0.418116  0.081884  0.750000  1
  Ce  Ce31  1  0.755713  0.744287  0.750000  1
  Ce  Ce32  1  0.770445  0.784690  0.420580  1
  Ce  Ce33  1  0.715310  0.729555  0.079420  1
  Ce  Ce34  1  0.884824  0.558101  0.912762  1
  Ce  Ce35  1  0.941899  0.615176  0.587238  1
  O  O36  1  0.301989  0.011219  0.956003  1
  O  O37  1  0.279171  0.951622  0.633021  1
  O  O38  1  0.981636  0.301947  0.965455  1
  O  O39  1  0.298245  0.969659  0.284186  1
  O  O40  1  -0.032947  0.322988  0.618526  1
  O  O41  1  0.177012  0.532947  0.881474  1
  O  O42  1  0.972645  0.280289  0.292235  1
  O  O43  1  0.198053  0.518364  0.534545  1
  O  O44  1  0.160620  0.133545  0.801729  1
  O  O45  1  0.469659  0.798245  0.784186  1
  O  O46  1  0.219711  0.527355  0.207765  1
  O  O47  1  0.098736  0.121996  0.457116  1
  O  O48  1  0.511219  0.801989  0.456003  1
  O  O49  1  0.124586  0.163593  0.129634  1
  O  O50  1  0.366455  0.339380  0.698271  1
  O  O51  1  0.621996  0.598736  0.957116  1
  O  O52  1  0.451622  0.779171  0.133021  1
  O  O53  1  0.336407  0.375414  0.370366  1
  O  O54  1  0.663593  0.624586  0.629634  1
  O  O55  1  0.548378  0.220829  0.866979  1
  O  O56  1  0.378004  0.401264  0.042884  1
  O  O57  1  0.633545  0.660620  0.301729  1
  O  O58  1  0.875414  0.836407  0.870366  1
  O  O59  1  0.488781  0.198011  0.543997  1
  O  O60  1  0.901264  0.878004  0.542884  1
  O  O61  1  0.780289  0.472645  0.792235  1
  O  O62  1  0.530341  0.201755  0.215814  1
  O  O63  1  0.839380  0.866455  0.198271  1
  O  O64  1  0.801947  0.481636  0.465455  1
  O  O65  1  0.027355  0.719711  0.707765  1
  O  O66  1  0.822988  0.467053  0.118526  1
  O  O67  1  0.032947  0.677012  0.381474  1
  O  O68  1  0.701755  0.030341  0.715814  1
  O  O69  1  0.018364  0.698053  0.034545  1
  O  O70  1  0.720829  0.048378  0.366979  1
  O  O71  1  0.698011  -0.011219  0.043997  1
