# generated using pymatgen
data_Pr2PbS4
_symmetry_space_group_name_H-M   'P 1'
_cell_length_a   7.57115285
_cell_length_b   7.57115246
_cell_length_c   7.57115223
_cell_angle_alpha   109.41295072
_cell_angle_beta   109.41294963
_cell_angle_gamma   109.58782764
_symmetry_Int_Tables_number   1
_chemical_formula_structural   Pr2PbS4
_chemical_formula_sum   'Pr4 Pb2 S8'
_cell_volume   334.08942326
_cell_formula_units_Z   2
loop_
 _symmetry_equiv_pos_site_id
 _symmetry_equiv_pos_as_xyz
  1  'x, y, z'
loop_
 _atom_site_type_symbol
 _atom_site_label
 _atom_site_symmetry_multiplicity
 _atom_site_fract_x
 _atom_site_fract_y
 _atom_site_fract_z
 _atom_site_occupancy
  Pr  Pr0  1  0.117524  0.750000  0.867524  1
  Pr  Pr1  1  0.250000  0.617524  0.367524  1
  Pr  Pr2  1  0.382476  0.250000  0.632476  1
  Pr  Pr3  1  0.750000  0.882476  0.132476  1
  Pb  Pb4  1  0.625000  0.375000  0.250000  1
  Pb  Pb5  1  0.875000  0.125000  0.750000  1
  S  S6  1  0.009029  0.855887  0.497947  1
  S  S7  1  0.011082  0.357940  0.502053  1
  S  S8  1  0.488918  0.990971  0.346858  1
  S  S9  1  0.144113  0.142060  0.153142  1
  S  S10  1  0.355887  0.509029  0.997947  1
  S  S11  1  0.642060  0.644113  0.653142  1
  S  S12  1  0.490971  0.988918  0.846858  1
  S  S13  1  0.857940  0.511082  0.002053  1
