# generated using pymatgen
data_Nb3ZnFe3(O6F)2
_symmetry_space_group_name_H-M   'P 1'
_cell_length_a   4.72739352
_cell_length_b   5.16571111
_cell_length_c   11.03187637
_cell_angle_alpha   87.21230119
_cell_angle_beta   90.31525008
_cell_angle_gamma   89.38473632
_symmetry_Int_Tables_number   1
_chemical_formula_structural   Nb3ZnFe3(O6F)2
_chemical_formula_sum   'Nb3 Zn1 Fe3 O12 F2'
_cell_volume   269.06305451
_cell_formula_units_Z   1
loop_
 _symmetry_equiv_pos_site_id
 _symmetry_equiv_pos_as_xyz
  1  'x, y, z'
loop_
 _atom_site_type_symbol
 _atom_site_label
 _atom_site_symmetry_multiplicity
 _atom_site_fract_x
 _atom_site_fract_y
 _atom_site_fract_z
 _atom_site_occupancy
  Nb  Nb0  1  0.491106  0.715153  0.160898  1
  Nb  Nb1  1  0.489473  0.769575  0.662336  1
  Nb  Nb2  1  0.918639  0.808962  0.379615  1
  Zn  Zn3  1  0.502400  0.250814  0.819892  1
  Fe  Fe4  1  0.981313  0.267153  0.599183  1
  Fe  Fe5  1  0.962085  0.240078  0.117034  1
  Fe  Fe6  1  0.966094  0.782305  0.906568  1
  O  O7  1  0.237009  0.929174  0.066231  1
  O  O8  1  0.234242  0.964506  0.557867  1
  O  O9  1  0.288086  0.797691  0.326155  1
  O  O10  1  0.275758  0.913133  0.814962  1
  O  O11  1  0.294100  0.403917  0.160014  1
  O  O12  1  0.270878  0.447829  0.682866  1
  O  O13  1  0.780602  0.536367  0.297189  1
  O  O14  1  0.766920  0.011643  0.226143  1
  O  O15  1  0.731652  0.580013  0.807531  1
  O  O16  1  0.743554  0.066214  0.700571  1
  O  O17  1  0.788731  0.581800  0.051987  1
  O  O18  1  0.779362  0.625038  0.543082  1
  F  F19  1  0.774122  0.104214  0.961971  1
  F  F20  1  0.773873  0.146422  0.452905  1
