# generated using pymatgen
data_Mn7SbAsO12
_symmetry_space_group_name_H-M   'P 1'
_cell_length_a   6.21991697
_cell_length_b   8.96180107
_cell_length_c   11.09484161
_cell_angle_alpha   113.82048596
_cell_angle_beta   106.27851303
_cell_angle_gamma   90.00000125
_symmetry_Int_Tables_number   1
_chemical_formula_structural   Mn7SbAsO12
_chemical_formula_sum   'Mn14 Sb2 As2 O24'
_cell_volume   538.54980625
_cell_formula_units_Z   2
loop_
 _symmetry_equiv_pos_site_id
 _symmetry_equiv_pos_as_xyz
  1  'x, y, z'
loop_
 _atom_site_type_symbol
 _atom_site_label
 _atom_site_symmetry_multiplicity
 _atom_site_fract_x
 _atom_site_fract_y
 _atom_site_fract_z
 _atom_site_occupancy
  Mn  Mn0  1  0.925697  0.794926  0.351394  1
  Mn  Mn1  1  0.658394  0.158394  0.316788  1
  Mn  Mn2  1  0.333894  0.810415  0.167787  1
  Mn  Mn3  1  0.158394  0.158394  0.316788  1
  Mn  Mn4  1  0.166106  0.642627  0.832213  1
  Mn  Mn5  1  0.841606  0.841606  0.683212  1
  Mn  Mn6  1  0.425697  0.556468  0.351394  1
  Mn  Mn7  1  0.500000  0.000000  0.000000  1
  Mn  Mn8  1  0.833894  0.357373  0.167787  1
  Mn  Mn9  1  0.341606  0.841606  0.683212  1
  Mn  Mn10  1  0.666106  0.189585  0.832213  1
  Mn  Mn11  1  0.074303  0.205074  0.648606  1
  Mn  Mn12  1  0.574303  0.443532  0.648606  1
  Mn  Mn13  1  0.000000  0.000000  0.000000  1
  Sb  Sb14  1  0.000000  0.500000  0.500000  1
  Sb  Sb15  1  0.500000  0.000000  0.500000  1
  As  As16  1  0.250000  0.370470  0.000000  1
  As  As17  1  0.750000  0.629530  1.000000  1
  O  O18  1  0.990885  0.266543  0.481770  1
  O  O19  1  0.829021  0.111065  0.158042  1
  O  O20  1  0.982176  0.738680  1.000000  1
  O  O21  1  0.509115  0.784772  0.518230  1
  O  O22  1  0.517824  0.738680  0.000000  1
  O  O23  1  0.175981  0.405675  0.851963  1
  O  O24  1  0.675981  0.446288  0.851963  1
  O  O25  1  0.324019  0.553712  0.148037  1
  O  O26  1  0.009115  0.733457  0.518230  1
  O  O27  1  0.645327  0.919733  0.346285  1
  O  O28  1  0.017824  0.261320  0.000000  1
  O  O29  1  0.670979  0.953023  0.841958  1
  O  O30  1  0.824019  0.594325  0.148037  1
  O  O31  1  0.854673  0.573448  0.653715  1
  O  O32  1  0.799042  0.080267  0.653715  1
  O  O33  1  0.170979  0.888935  0.841958  1
  O  O34  1  0.490885  0.215228  0.481770  1
  O  O35  1  0.200958  0.919733  0.346285  1
  O  O36  1  0.329021  0.046977  0.158042  1
  O  O37  1  0.145327  0.426552  0.346285  1
  O  O38  1  0.299042  0.573448  0.653715  1
  O  O39  1  0.482176  0.261320  1.000000  1
  O  O40  1  0.700958  0.426552  0.346285  1
  O  O41  1  0.354673  0.080267  0.653715  1
