# generated using pymatgen
data_MnC6S2NO5F6
_symmetry_space_group_name_H-M   'P 1'
_cell_length_a   10.31317618
_cell_length_b   10.49274332
_cell_length_c   12.13586582
_cell_angle_alpha   90.00000000
_cell_angle_beta   90.00000000
_cell_angle_gamma   90.00000000
_symmetry_Int_Tables_number   1
_chemical_formula_structural   MnC6S2NO5F6
_chemical_formula_sum   'Mn4 C24 S8 N4 O20 F24'
_cell_volume   1313.26464298
_cell_formula_units_Z   4
loop_
 _symmetry_equiv_pos_site_id
 _symmetry_equiv_pos_as_xyz
  1  'x, y, z'
loop_
 _atom_site_type_symbol
 _atom_site_label
 _atom_site_symmetry_multiplicity
 _atom_site_fract_x
 _atom_site_fract_y
 _atom_site_fract_z
 _atom_site_occupancy
  Mn  Mn0  1  0.750000  0.941684  0.147059  1
  Mn  Mn1  1  0.250000  0.058316  0.852941  1
  Mn  Mn2  1  0.750000  0.558316  0.647059  1
  Mn  Mn3  1  0.250000  0.441684  0.352941  1
  C  C4  1  0.881148  0.054578  0.195230  1
  C  C5  1  0.381148  0.945422  0.804771  1
  C  C6  1  0.377997  0.164381  0.911794  1
  C  C7  1  0.750000  0.646499  0.777487  1
  C  C8  1  0.250000  0.146499  0.722513  1
  C  C9  1  0.250000  0.353501  0.222513  1
  C  C10  1  0.750000  0.853501  0.277487  1
  C  C11  1  0.122003  0.335619  0.411794  1
  C  C12  1  0.118852  0.945422  0.804771  1
  C  C13  1  0.122003  0.164381  0.911794  1
  C  C14  1  0.750000  0.203550  0.987203  1
  C  C15  1  0.881148  0.445422  0.695229  1
  C  C16  1  0.618852  0.445422  0.695229  1
  C  C17  1  0.622003  0.835619  0.088206  1
  C  C18  1  0.877997  0.835619  0.088206  1
  C  C19  1  0.618852  0.054578  0.195230  1
  C  C20  1  0.250000  0.703550  0.512797  1
  C  C21  1  0.750000  0.296450  0.487203  1
  C  C22  1  0.377997  0.335619  0.411794  1
  C  C23  1  0.622003  0.664381  0.588206  1
  C  C24  1  0.118852  0.554578  0.304770  1
  C  C25  1  0.877997  0.664381  0.588206  1
  C  C26  1  0.381148  0.554578  0.304770  1
  C  C27  1  0.250000  0.796450  0.012797  1
  S  S28  1  0.250000  0.580431  0.901351  1
  S  S29  1  0.250000  0.919569  0.401351  1
  S  S30  1  0.250000  0.541997  0.531867  1
  S  S31  1  0.750000  0.041997  0.968133  1
  S  S32  1  0.250000  0.958003  0.031867  1
  S  S33  1  0.750000  0.419569  0.098649  1
  S  S34  1  0.750000  0.458003  0.468133  1
  S  S35  1  0.750000  0.080431  0.598649  1
  N  N36  1  0.750000  0.261123  0.080831  1
  N  N37  1  0.750000  0.238877  0.580831  1
  N  N38  1  0.250000  0.761123  0.419169  1
  N  N39  1  0.250000  0.738877  0.919169  1
  O  O40  1  0.750000  0.703475  0.859136  1
  O  O41  1  0.543262  0.729357  0.550951  1
  O  O42  1  0.250000  0.296525  0.140864  1
  O  O43  1  0.964217  0.119687  0.224473  1
  O  O44  1  0.043262  0.270643  0.449049  1
  O  O45  1  0.456738  0.229357  0.949049  1
  O  O46  1  0.956738  0.770643  0.050951  1
  O  O47  1  0.543262  0.770643  0.050951  1
  O  O48  1  0.750000  0.796525  0.359136  1
  O  O49  1  0.535783  0.380313  0.724473  1
  O  O50  1  0.964217  0.380313  0.724473  1
  O  O51  1  0.250000  0.203475  0.640864  1
  O  O52  1  0.043262  0.229357  0.949049  1
  O  O53  1  0.464217  0.619687  0.275527  1
  O  O54  1  0.035783  0.880313  0.775527  1
  O  O55  1  0.464217  0.880313  0.775527  1
  O  O56  1  0.456738  0.270643  0.449049  1
  O  O57  1  0.535783  0.119687  0.224473  1
  O  O58  1  0.956738  0.729357  0.550951  1
  O  O59  1  0.035783  0.619687  0.275527  1
  F  F60  1  0.361964  0.550805  0.992635  1
  F  F61  1  0.360773  0.594704  0.807601  1
  F  F62  1  0.250000  0.427380  0.874536  1
  F  F63  1  0.638036  0.449195  0.007365  1
  F  F64  1  0.861964  0.449195  0.007365  1
  F  F65  1  0.139227  0.905296  0.307601  1
  F  F66  1  0.250000  0.733438  0.111417  1
  F  F67  1  0.138036  0.550805  0.992635  1
  F  F68  1  0.250000  0.072620  0.374536  1
  F  F69  1  0.138036  0.949195  0.492635  1
  F  F70  1  0.750000  0.927380  0.625464  1
  F  F71  1  0.860773  0.405296  0.192399  1
  F  F72  1  0.639227  0.094704  0.692399  1
  F  F73  1  0.360773  0.905296  0.307601  1
  F  F74  1  0.750000  0.233438  0.388583  1
  F  F75  1  0.860773  0.094704  0.692399  1
  F  F76  1  0.750000  0.572620  0.125464  1
  F  F77  1  0.638036  0.050805  0.507365  1
  F  F78  1  0.639227  0.405296  0.192399  1
  F  F79  1  0.361964  0.949195  0.492635  1
  F  F80  1  0.861964  0.050805  0.507365  1
  F  F81  1  0.139227  0.594704  0.807601  1
  F  F82  1  0.750000  0.266562  0.888583  1
  F  F83  1  0.250000  0.766562  0.611417  1
