# generated using pymatgen
data_H3ClO5
_symmetry_space_group_name_H-M   'P 1'
_cell_length_a   9.27154712
_cell_length_b   5.75670323
_cell_length_c   6.90884477
_cell_angle_alpha   90.00000000
_cell_angle_beta   90.00000000
_cell_angle_gamma   90.00000000
_symmetry_Int_Tables_number   1
_chemical_formula_structural   H3ClO5
_chemical_formula_sum   'H12 Cl4 O20'
_cell_volume   368.74953898
_cell_formula_units_Z   4
loop_
 _symmetry_equiv_pos_site_id
 _symmetry_equiv_pos_as_xyz
  1  'x, y, z'
loop_
 _atom_site_type_symbol
 _atom_site_label
 _atom_site_symmetry_multiplicity
 _atom_site_fract_x
 _atom_site_fract_y
 _atom_site_fract_z
 _atom_site_occupancy
  H  H0  1  0.083714  0.750000  0.111536  1
  H  H1  1  0.263895  0.750000  0.094799  1
  H  H2  1  0.181848  0.750000  0.326232  1
  H  H3  1  0.583714  0.750000  0.388464  1
  H  H4  1  0.681848  0.750000  0.173768  1
  H  H5  1  0.763895  0.750000  0.405201  1
  H  H6  1  0.916286  0.250000  0.888464  1
  H  H7  1  0.818152  0.250000  0.673768  1
  H  H8  1  0.736105  0.250000  0.905201  1
  H  H9  1  0.416286  0.250000  0.611536  1
  H  H10  1  0.236105  0.250000  0.594799  1
  H  H11  1  0.318152  0.250000  0.826232  1
  Cl  Cl12  1  0.927416  0.250000  0.313462  1
  Cl  Cl13  1  0.427416  0.250000  0.186538  1
  Cl  Cl14  1  0.072584  0.750000  0.686538  1
  Cl  Cl15  1  0.572584  0.750000  0.813462  1
  O  O16  1  0.810249  0.250000  0.460403  1
  O  O17  1  0.310249  0.250000  0.039597  1
  O  O18  1  0.189751  0.750000  0.539597  1
  O  O19  1  0.689751  0.750000  0.960403  1
  O  O20  1  0.066907  0.250000  0.409096  1
  O  O21  1  0.566907  0.250000  0.090904  1
  O  O22  1  0.933093  0.750000  0.590904  1
  O  O23  1  0.433093  0.750000  0.909096  1
  O  O24  1  0.910740  0.044482  0.192741  1
  O  O25  1  0.410740  0.455518  0.307259  1
  O  O26  1  0.089260  0.544482  0.807259  1
  O  O27  1  0.589260  0.955518  0.692741  1
  O  O28  1  0.089260  0.955518  0.807259  1
  O  O29  1  0.589260  0.544482  0.692741  1
  O  O30  1  0.910740  0.455518  0.192741  1
  O  O31  1  0.410740  0.044482  0.307259  1
  O  O32  1  0.177382  0.750000  0.175944  1
  O  O33  1  0.677382  0.750000  0.324056  1
  O  O34  1  0.822618  0.250000  0.824056  1
  O  O35  1  0.322618  0.250000  0.675944  1
