# generated using pymatgen
data_Cu9S5
_symmetry_space_group_name_H-M   'P 1'
_cell_length_a   19.64590018
_cell_length_b   10.54102073
_cell_length_c   6.57911587
_cell_angle_alpha   29.38612812
_cell_angle_beta   29.46097074
_cell_angle_gamma   18.06485980
_symmetry_Int_Tables_number   1
_chemical_formula_structural   Cu9S5
_chemical_formula_sum   'Cu9 S5'
_cell_volume   199.13638728
_cell_formula_units_Z   1
loop_
 _symmetry_equiv_pos_site_id
 _symmetry_equiv_pos_as_xyz
  1  'x, y, z'
loop_
 _atom_site_type_symbol
 _atom_site_label
 _atom_site_symmetry_multiplicity
 _atom_site_fract_x
 _atom_site_fract_y
 _atom_site_fract_z
 _atom_site_occupancy
  Cu  Cu0  1  0.022608  0.302690  0.327231  1
  Cu  Cu1  1  0.974283  0.519921  0.519316  1
  Cu  Cu2  1  0.302083  0.251193  0.240746  1
  Cu  Cu3  1  0.183227  0.541136  0.514803  1
  Cu  Cu4  1  0.580758  0.030711  0.331844  1
  Cu  Cu5  1  0.415668  0.519512  0.413276  1
  Cu  Cu6  1  0.726191  0.323604  0.054536  1
  Cu  Cu7  1  0.625238  0.432395  0.536389  1
  Cu  Cu8  1  0.872771  0.330014  0.312973  1
  S  S9  1  0.996964  0.999002  0.047603  1
  S  S10  1  0.237553  0.930761  0.998221  1
  S  S11  1  0.360304  0.045759  0.030835  1
  S  S12  1  0.607496  0.018818  0.929426  1
  S  S13  1  0.797639  0.000686  0.007333  1
