# generated using pymatgen
data_Pr4NiI5
_symmetry_space_group_name_H-M   'P 1'
_cell_length_a   4.22540944
_cell_length_b   9.13763709
_cell_length_c   19.13484258
_cell_angle_alpha   90.00410988
_cell_angle_beta   89.99999635
_cell_angle_gamma   89.99992039
_symmetry_Int_Tables_number   1
_chemical_formula_structural   Pr4NiI5
_chemical_formula_sum   'Pr8 Ni2 I10'
_cell_volume   738.80120703
_cell_formula_units_Z   2
loop_
 _symmetry_equiv_pos_site_id
 _symmetry_equiv_pos_as_xyz
  1  'x, y, z'
loop_
 _atom_site_type_symbol
 _atom_site_label
 _atom_site_symmetry_multiplicity
 _atom_site_fract_x
 _atom_site_fract_y
 _atom_site_fract_z
 _atom_site_occupancy
  Pr  Pr0  1  0.250000  0.130586  0.103219  1
  Pr  Pr1  1  0.750000  0.918460  0.249996  1
  Pr  Pr2  1  0.250000  0.130590  0.396792  1
  Pr  Pr3  1  0.250001  0.662069  0.750001  1
  Pr  Pr4  1  0.749999  0.869410  0.603214  1
  Pr  Pr5  1  0.250000  0.081533  0.750003  1
  Pr  Pr6  1  0.750000  0.869415  0.896774  1
  Pr  Pr7  1  0.750000  0.337937  0.249998  1
  Ni  Ni8  1  0.750001  0.874057  0.750033  1
  Ni  Ni9  1  0.250000  0.125947  0.249973  1
  I  I10  1  0.750000  0.394045  0.420349  1
  I  I11  1  0.250001  0.140075  0.923923  1
  I  I12  1  0.250000  0.628860  0.250004  1
  I  I13  1  0.250000  0.605956  0.579652  1
  I  I14  1  0.750000  0.394046  0.079653  1
  I  I15  1  0.750000  0.859923  0.076074  1
  I  I16  1  0.250000  0.605955  0.920344  1
  I  I17  1  0.250000  0.140074  0.576075  1
  I  I18  1  0.750000  0.859923  0.423927  1
  I  I19  1  0.750000  0.371139  0.749995  1
