# generated using pymatgen
data_Cu2H10C6S3N4
_symmetry_space_group_name_H-M   'P 1'
_cell_length_a   5.79854294
_cell_length_b   7.63740791
_cell_length_c   30.63518040
_cell_angle_alpha   89.98339192
_cell_angle_beta   90.04989186
_cell_angle_gamma   112.26149106
_symmetry_Int_Tables_number   1
_chemical_formula_structural   Cu2H10C6S3N4
_chemical_formula_sum   'Cu8 H40 C24 S12 N16'
_cell_volume   1255.58155325
_cell_formula_units_Z   4
loop_
 _symmetry_equiv_pos_site_id
 _symmetry_equiv_pos_as_xyz
  1  'x, y, z'
loop_
 _atom_site_type_symbol
 _atom_site_label
 _atom_site_symmetry_multiplicity
 _atom_site_fract_x
 _atom_site_fract_y
 _atom_site_fract_z
 _atom_site_occupancy
  Cu  Cu0  1  0.075782  0.417715  0.040686  1
  Cu  Cu1  1  0.680437  0.487162  0.214102  1
  Cu  Cu2  1  0.316346  0.011139  0.714378  1
  Cu  Cu3  1  0.925599  0.084258  0.540033  1
  Cu  Cu4  1  0.926847  0.580419  0.960287  1
  Cu  Cu5  1  0.079689  0.919273  0.459715  1
  Cu  Cu6  1  0.315996  0.513148  0.786595  1
  Cu  Cu7  1  0.678787  0.986054  0.286969  1
  H  H8  1  0.082282  0.287843  0.362696  1
  H  H9  1  0.297920  0.930506  0.096972  1
  H  H10  1  0.041131  0.018392  0.948405  1
  H  H11  1  0.139571  0.670826  0.391542  1
  H  H12  1  0.296763  0.991756  0.846556  1
  H  H13  1  0.709676  0.506259  0.418375  1
  H  H14  1  0.083103  0.788344  0.137408  1
  H  H15  1  0.230106  0.206045  0.912377  1
  H  H16  1  0.951587  0.978944  0.051315  1
  H  H17  1  0.292932  0.427459  0.403551  1
  H  H18  1  0.325487  0.504648  0.346911  1
  H  H19  1  0.022885  0.801792  0.828836  1
  H  H20  1  0.927649  0.463344  0.314878  1
  H  H21  1  0.859549  0.327607  0.608749  1
  H  H22  1  0.076209  0.541600  0.684453  1
  H  H23  1  0.953673  0.473264  0.448064  1
  H  H24  1  0.979389  0.703203  0.329448  1
  H  H25  1  0.917727  0.214426  0.862776  1
  H  H26  1  0.855762  0.829294  0.890878  1
  H  H27  1  0.287445  0.493199  0.580504  1
  H  H28  1  0.967073  0.201087  0.170453  1
  H  H29  1  0.700829  0.073538  0.902606  1
  H  H30  1  0.071364  0.040739  0.814651  1
  H  H31  1  0.031715  0.302554  0.670103  1
  H  H32  1  0.228788  0.706722  0.587013  1
  H  H33  1  0.677687  0.495361  0.653816  1
  H  H34  1  0.764509  0.291446  0.410919  1
  H  H35  1  0.698462  0.566784  0.596866  1
  H  H36  1  0.916028  0.711076  0.636244  1
  H  H37  1  0.325243  0.007734  0.153623  1
  H  H38  1  0.302636  0.495786  0.652012  1
  H  H39  1  0.286523  0.991079  0.917691  1
  H  H40  1  0.709240  0.008188  0.082036  1
  H  H41  1  0.138522  0.171827  0.109138  1
  H  H42  1  0.764605  0.793916  0.088073  1
  H  H43  1  0.675978  0.999842  0.845875  1
  H  H44  1  0.929173  0.963595  0.185409  1
  H  H45  1  0.698147  0.002735  0.153503  1
  H  H46  1  0.040669  0.522417  0.550565  1
  H  H47  1  0.702217  0.512879  0.346493  1
  C  C48  1  0.726476  0.437549  0.113250  1
  C  C49  1  0.850237  0.946091  0.082219  1
  C  C50  1  0.145082  0.554390  0.581261  1
  C  C51  1  0.104953  0.450121  0.659400  1
  C  C52  1  0.228530  0.105143  0.263470  1
  C  C53  1  0.230549  0.605850  0.236601  1
  C  C54  1  0.482877  0.778593  0.488921  1
  C  C55  1  0.476851  0.282132  0.010709  1
  C  C56  1  0.849790  0.443110  0.417474  1
  C  C57  1  0.098895  0.948767  0.839612  1
  C  C58  1  0.767510  0.894081  0.736644  1
  C  C59  1  0.517335  0.218035  0.511801  1
  C  C60  1  0.277717  0.063517  0.612933  1
  C  C61  1  0.144939  0.053178  0.917653  1
  C  C62  1  0.900869  0.555200  0.340020  1
  C  C63  1  0.801002  0.566495  0.626831  1
  C  C64  1  0.801252  0.070649  0.872600  1
  C  C65  1  0.519906  0.716171  0.989311  1
  C  C66  1  0.196951  0.431308  0.373102  1
  C  C67  1  0.897130  0.052641  0.160149  1
  C  C68  1  0.272961  0.559909  0.887251  1
  C  C69  1  0.198226  0.932663  0.127212  1
  C  C70  1  0.720809  0.937460  0.388188  1
  C  C71  1  0.766793  0.394556  0.763784  1
  S  S72  1  0.510112  0.158419  0.243543  1
  S  S73  1  0.274663  0.235954  0.487185  1
  S  S74  1  0.484517  0.339605  0.743796  1
  S  S75  1  0.490683  0.038721  0.644960  1
  S  S76  1  0.510676  0.658741  0.256599  1
  S  S77  1  0.485530  0.533290  0.855586  1
  S  S78  1  0.490392  0.843483  0.757978  1
  S  S79  1  0.726576  0.761438  0.512983  1
  S  S80  1  0.719318  0.262389  0.986991  1
  S  S81  1  0.508212  0.966817  0.356687  1
  S  S82  1  0.276511  0.735507  0.012965  1
  S  S83  1  0.509947  0.461335  0.144417  1
  N  N84  1  0.029227  0.534848  0.381471  1
  N  N85  1  0.688006  0.198462  0.529377  1
  N  N86  1  0.122374  0.076500  0.589515  1
  N  N87  1  0.692337  0.697607  0.972337  1
  N  N88  1  0.310532  0.797672  0.471878  1
  N  N89  1  0.967360  0.965238  0.880922  1
  N  N90  1  0.875755  0.920803  0.411035  1
  N  N91  1  0.970542  0.464352  0.618203  1
  N  N92  1  0.028081  0.035220  0.118705  1
  N  N93  1  0.025302  0.062381  0.277847  1
  N  N94  1  0.968127  0.932632  0.721622  1
  N  N95  1  0.027511  0.565828  0.222379  1
  N  N96  1  0.969767  0.437633  0.778174  1
  N  N97  1  0.118806  0.574481  0.910668  1
  N  N98  1  0.881982  0.423544  0.090117  1
  N  N99  1  0.306239  0.302014  0.028153  1
