# generated using pymatgen
data_ZnS
_symmetry_space_group_name_H-M   'P 1'
_cell_length_a   37.78446740
_cell_length_b   37.78446736
_cell_length_c   37.78446787
_cell_angle_alpha   5.88244202
_cell_angle_beta   5.88244263
_cell_angle_gamma   5.88244202
_symmetry_Int_Tables_number   1
_chemical_formula_structural   ZnS
_chemical_formula_sum   'Zn12 S12'
_cell_volume   491.12888683
_cell_formula_units_Z   12
loop_
 _symmetry_equiv_pos_site_id
 _symmetry_equiv_pos_as_xyz
  1  'x, y, z'
loop_
 _atom_site_type_symbol
 _atom_site_label
 _atom_site_symmetry_multiplicity
 _atom_site_fract_x
 _atom_site_fract_y
 _atom_site_fract_z
 _atom_site_occupancy
  Zn  Zn0  1  0.083354  0.083354  0.083354  1
  Zn  Zn1  1  0.527805  0.527805  0.527805  1
  Zn  Zn2  1  0.166686  0.166686  0.166686  1
  Zn  Zn3  1  0.388898  0.388898  0.388898  1
  Zn  Zn4  1  0.583359  0.583359  0.583359  1
  Zn  Zn5  1  0.777807  0.777807  0.777807  1
  Zn  Zn6  1  0.277813  0.277813  0.277813  1
  Zn  Zn7  1  0.000022  0.000022  0.000022  1
  Zn  Zn8  1  0.888890  0.888890  0.888890  1
  Zn  Zn9  1  0.638913  0.638913  0.638913  1
  Zn  Zn10  1  0.472231  0.472231  0.472231  1
  Zn  Zn11  1  0.694477  0.694477  0.694477  1
  S  S12  1  0.298606  0.298606  0.298606  1
  S  S13  1  0.798590  0.798590  0.798590  1
  S  S14  1  0.548576  0.548576  0.548576  1
  S  S15  1  0.409699  0.409699  0.409699  1
  S  S16  1  0.659689  0.659689  0.659689  1
  S  S17  1  0.604134  0.604134  0.604134  1
  S  S18  1  0.020825  0.020825  0.020825  1
  S  S19  1  0.493018  0.493018  0.493018  1
  S  S20  1  0.909711  0.909711  0.909711  1
  S  S21  1  0.104148  0.104148  0.104148  1
  S  S22  1  0.187492  0.187492  0.187492  1
  S  S23  1  0.715259  0.715259  0.715259  1
