# generated using pymatgen
data_La3O2F5
_symmetry_space_group_name_H-M   'P 1'
_cell_length_a   4.13788237
_cell_length_b   4.18361276
_cell_length_c   17.60809532
_cell_angle_alpha   89.62650005
_cell_angle_beta   90.29839133
_cell_angle_gamma   91.33371688
_symmetry_Int_Tables_number   1
_chemical_formula_structural   La3O2F5
_chemical_formula_sum   'La6 O4 F10'
_cell_volume   304.72602415
_cell_formula_units_Z   2
loop_
 _symmetry_equiv_pos_site_id
 _symmetry_equiv_pos_as_xyz
  1  'x, y, z'
loop_
 _atom_site_type_symbol
 _atom_site_label
 _atom_site_symmetry_multiplicity
 _atom_site_fract_x
 _atom_site_fract_y
 _atom_site_fract_z
 _atom_site_occupancy
  La  La0  1  0.225552  0.269958  0.085149  1
  La  La1  1  0.252075  0.265881  0.400291  1
  La  La2  1  0.255729  0.164898  0.746587  1
  La  La3  1  0.756238  0.743420  0.262644  1
  La  La4  1  0.748202  0.766872  0.589243  1
  La  La5  1  0.761264  0.757646  0.927011  1
  O  O6  1  0.278583  0.745645  -0.005339  1
  O  O7  1  0.250927  0.777017  0.336285  1
  O  O8  1  0.251223  0.777191  0.655983  1
  O  O9  1  0.750514  0.263423  0.337174  1
  F  F10  1  0.224420  0.414821  0.217348  1
  F  F11  1  0.249100  0.766735  0.499047  1
  F  F12  1  0.259386  0.749742  0.841030  1
  F  F13  1  0.750160  0.255676  0.001737  1
  F  F14  1  0.693239  0.201224  0.160373  1
  F  F15  1  0.750500  0.277149  0.662609  1
  F  F16  1  0.749060  0.268508  0.509759  1
  F  F17  1  0.754983  0.270961  0.849579  1
  F  F18  1  0.756315  0.825928  0.754554  1
  F  F19  1  0.934529  0.741306  0.114602  1
