# generated using pymatgen
data_Sc20O19
_symmetry_space_group_name_H-M   'P 1'
_cell_length_a   31.67680403
_cell_length_b   8.37658737
_cell_length_c   16.45670652
_cell_angle_alpha   29.21248191
_cell_angle_beta   15.79335483
_cell_angle_gamma   40.88929645
_symmetry_Int_Tables_number   1
_chemical_formula_structural   Sc20O19
_chemical_formula_sum   'Sc20 O19'
_cell_volume   449.71785161
_cell_formula_units_Z   1
loop_
 _symmetry_equiv_pos_site_id
 _symmetry_equiv_pos_as_xyz
  1  'x, y, z'
loop_
 _atom_site_type_symbol
 _atom_site_label
 _atom_site_symmetry_multiplicity
 _atom_site_fract_x
 _atom_site_fract_y
 _atom_site_fract_z
 _atom_site_occupancy
  Sc  Sc0  1  0.998350  0.995063  0.006603  1
  Sc  Sc1  1  0.048669  0.498621  0.002852  1
  Sc  Sc2  1  0.150140  0.503038  0.997318  1
  Sc  Sc3  1  0.099961  0.001736  0.998924  1
  Sc  Sc4  1  0.246531  0.492845  0.008986  1
  Sc  Sc5  1  0.199529  0.004780  0.997839  1
  Sc  Sc6  1  0.350442  0.502087  0.998062  1
  Sc  Sc7  1  0.303280  0.005223  0.991499  1
  Sc  Sc8  1  0.451265  0.506718  0.994739  1
  Sc  Sc9  1  0.395356  0.992412  0.010773  1
  Sc  Sc10  1  0.549057  0.496390  0.004231  1
  Sc  Sc11  1  0.501380  0.996276  0.000291  1
  Sc  Sc12  1  0.650187  0.500961  0.998508  1
  Sc  Sc13  1  0.600098  0.000579  -0.000709  1
  Sc  Sc14  1  0.749633  0.498844  0.000757  1
  Sc  Sc15  1  0.701119  0.003496  0.994768  1
  Sc  Sc16  1  0.850107  0.503638  0.997628  1
  Sc  Sc17  1  0.800935  0.004039  0.996843  1
  Sc  Sc18  1  0.948627  0.499484  0.002862  1
  Sc  Sc19  1  0.898897  -0.004200  0.002722  1
  O  O20  1  0.051168  0.002890  0.495375  1
  O  O21  1  0.001706  0.499555  0.497568  1
  O  O22  1  0.152756  0.008505  0.491513  1
  O  O23  1  0.098955  0.498150  0.502751  1
  O  O24  1  0.251945  0.004078  0.494553  1
  O  O25  1  0.200759  0.502633  0.495318  1
  O  O26  1  0.350017  0.000841  0.499444  1
  O  O27  1  0.304697  0.509594  0.487358  1
  O  O28  1  0.447737  0.994481  0.505709  1
  O  O29  1  0.394998  0.492165  0.512551  1
  O  O30  1  0.496544  0.496449  0.509158  1
  O  O31  1  0.598113  0.496878  0.504295  1
  O  O32  1  0.548466  0.992930  0.505233  1
  O  O33  1  0.696807  0.503400  0.503656  1
  O  O34  1  0.649256  0.996705  0.503783  1
  O  O35  1  0.799502  0.509039  0.497256  1
  O  O36  1  0.950610  0.000316  0.499585  1
  O  O37  1  0.750020  0.003086  0.496168  1
  O  O38  1  0.899774  0.491898  0.503403  1
