# generated using pymatgen
data_Ba8Bi2F17
_symmetry_space_group_name_H-M   'P 1'
_cell_length_a   4.39242268
_cell_length_b   4.39242224
_cell_length_c   44.48082495
_cell_angle_alpha   60.41307339
_cell_angle_beta   60.41307689
_cell_angle_gamma   59.99999434
_symmetry_Int_Tables_number   1
_chemical_formula_structural   Ba8Bi2F17
_chemical_formula_sum   'Ba8 Bi2 F17'
_cell_volume   610.58982944
_cell_formula_units_Z   1
loop_
 _symmetry_equiv_pos_site_id
 _symmetry_equiv_pos_as_xyz
  1  'x, y, z'
loop_
 _atom_site_type_symbol
 _atom_site_label
 _atom_site_symmetry_multiplicity
 _atom_site_fract_x
 _atom_site_fract_y
 _atom_site_fract_z
 _atom_site_occupancy
  Ba  Ba0  1  0.008858  0.008858  0.997343  1
  Ba  Ba1  1  0.998095  0.998095  0.300571  1
  Ba  Ba2  1  0.999304  0.999304  0.100209  1
  Ba  Ba3  1  0.000619  0.000619  0.199814  1
  Ba  Ba4  1  0.981522  0.981522  0.505543  1
  Ba  Ba5  1  0.998766  0.998766  0.400370  1
  Ba  Ba6  1  -0.000477  -0.000477  0.700143  1
  Ba  Ba7  1  0.013454  0.013454  0.895964  1
  Bi  Bi8  1  0.989775  0.989775  0.603068  1
  Bi  Bi9  1  0.008164  0.008164  0.797551  1
  F  F10  1  0.247816  0.247816  0.125655  1
  F  F11  1  0.753664  0.753664  0.073901  1
  F  F12  1  0.247474  0.247474  0.325758  1
  F  F13  1  0.749184  0.749184  0.175245  1
  F  F14  1  0.752231  0.752231  0.274331  1
  F  F15  1  0.256884  0.256884  0.522935  1
  F  F16  1  0.745929  0.745929  0.376221  1
  F  F17  1  0.251861  0.251861  0.624442  1
  F  F18  1  0.761982  0.761982  0.471405  1
  F  F19  1  0.242966  0.242966  0.727110  1
  F  F20  1  0.742717  0.742717  0.577185  1
  F  F21  1  0.257375  0.257375  0.822788  1
  F  F22  1  0.748629  0.748629  0.675411  1
  F  F23  1  0.248977  0.248977  0.925307  1
  F  F24  1  0.746033  0.746033  0.776190  1
  F  F25  1  0.751530  0.751530  0.874541  1
  F  F26  1  0.746668  0.746668  0.976000  1
