# generated using pymatgen
data_KAlSi3O8
_symmetry_space_group_name_H-M   'P 1'
_cell_length_a   8.00889875
_cell_length_b   7.72143668
_cell_length_c   7.32094592
_cell_angle_alpha   76.32046997
_cell_angle_beta   104.37137837
_cell_angle_gamma   67.12534224
_symmetry_Int_Tables_number   1
_chemical_formula_structural   KAlSi3O8
_chemical_formula_sum   'K2 Al2 Si6 O16'
_cell_volume   374.89966446
_cell_formula_units_Z   2
loop_
 _symmetry_equiv_pos_site_id
 _symmetry_equiv_pos_as_xyz
  1  'x, y, z'
loop_
 _atom_site_type_symbol
 _atom_site_label
 _atom_site_symmetry_multiplicity
 _atom_site_fract_x
 _atom_site_fract_y
 _atom_site_fract_z
 _atom_site_occupancy
  K  K0  1  0.723577  0.290683  0.863196  1
  K  K1  1  0.276423  0.709317  0.136804  1
  Al  Al2  1  0.801645  0.821699  0.782989  1
  Al  Al3  1  0.198355  0.178301  0.217011  1
  Si  Si4  1  0.171492  0.191152  0.768762  1
  Si  Si5  1  0.828508  0.808848  0.231238  1
  Si  Si6  1  0.167036  0.590347  0.660200  1
  Si  Si7  1  0.832964  0.409653  0.339800  1
  Si  Si8  1  0.407476  0.822369  0.649192  1
  Si  Si9  1  0.592524  0.177631  0.350808  1
  O  O10  1  0.854945  0.856117  0.016597  1
  O  O11  1  0.145055  0.143883  0.983403  1
  O  O12  1  0.354757  0.634330  0.712857  1
  O  O13  1  0.645243  0.365670  0.287143  1
  O  O14  1  0.029996  0.671600  0.780257  1
  O  O15  1  0.970004  0.328400  0.219743  1
  O  O16  1  0.312062  0.976086  0.760852  1
  O  O17  1  0.687938  0.023914  0.239148  1
  O  O18  1  0.644165  0.714646  0.749272  1
  O  O19  1  0.355835  0.285354  0.250728  1
  O  O20  1  0.269617  0.341951  0.734050  1
  O  O21  1  0.730383  0.658049  0.265950  1
  O  O22  1  0.686786  0.066013  0.594802  1
  O  O23  1  0.313214  0.933987  0.405198  1
  O  O24  1  0.951378  0.305373  0.588235  1
  O  O25  1  0.048622  0.694627  0.411765  1
