# generated using pymatgen
data_DyGe2Pt
_symmetry_space_group_name_H-M   'P 1'
_cell_length_a   4.35084494
_cell_length_b   8.80624200
_cell_length_c   9.54992143
_cell_angle_alpha   117.45576246
_cell_angle_beta   103.16727255
_cell_angle_gamma   90.00000357
_symmetry_Int_Tables_number   1
_chemical_formula_structural   DyGe2Pt
_chemical_formula_sum   'Dy4 Ge8 Pt4'
_cell_volume   313.80812387
_cell_formula_units_Z   4
loop_
 _symmetry_equiv_pos_site_id
 _symmetry_equiv_pos_as_xyz
  1  'x, y, z'
loop_
 _atom_site_type_symbol
 _atom_site_label
 _atom_site_symmetry_multiplicity
 _atom_site_fract_x
 _atom_site_fract_y
 _atom_site_fract_z
 _atom_site_occupancy
  Dy  Dy0  1  0.797260  0.297260  0.594519  1
  Dy  Dy1  1  1.000000  0.719989  1.000000  1
  Dy  Dy2  1  0.000000  0.280011  0.000000  1
  Dy  Dy3  1  0.202740  0.702740  0.405481  1
  Ge  Ge4  1  0.425429  0.925429  0.850859  1
  Ge  Ge5  1  0.574571  0.074571  0.149141  1
  Ge  Ge6  1  0.574981  0.574981  0.149962  1
  Ge  Ge7  1  0.800853  0.649332  0.601706  1
  Ge  Ge8  1  0.425019  0.425019  0.850038  1
  Ge  Ge9  1  0.800853  0.952374  0.601706  1
  Ge  Ge10  1  0.199147  0.350668  0.398294  1
  Ge  Ge11  1  0.199147  0.047626  0.398294  1
  Pt  Pt12  1  0.352062  0.603338  0.704125  1
  Pt  Pt13  1  0.647938  0.396662  0.295875  1
  Pt  Pt14  1  0.352062  0.100786  0.704125  1
  Pt  Pt15  1  0.647938  0.899214  0.295875  1
