# generated using pymatgen
data_Rb2CeO3
_symmetry_space_group_name_H-M   'P 1'
_cell_length_a   6.98663618
_cell_length_b   20.93348571
_cell_length_c   13.45370615
_cell_angle_alpha   15.44784886
_cell_angle_beta   27.09545395
_cell_angle_gamma   30.90454061
_symmetry_Int_Tables_number   1
_chemical_formula_structural   Rb2CeO3
_chemical_formula_sum   'Rb4 Ce2 O6'
_cell_volume   238.71862673
_cell_formula_units_Z   2
loop_
 _symmetry_equiv_pos_site_id
 _symmetry_equiv_pos_as_xyz
  1  'x, y, z'
loop_
 _atom_site_type_symbol
 _atom_site_label
 _atom_site_symmetry_multiplicity
 _atom_site_fract_x
 _atom_site_fract_y
 _atom_site_fract_z
 _atom_site_occupancy
  Rb  Rb0  1  0.996977  0.002903  0.997771  1
  Rb  Rb1  1  0.499839  0.999697  0.501943  1
  Rb  Rb2  1  0.005057  0.318294  0.020848  1
  Rb  Rb3  1  0.006134  0.684050  0.971812  1
  Ce  Ce4  1  0.500377  0.333516  0.499452  1
  Ce  Ce5  1  0.500622  0.665931  0.500650  1
  O  O6  1  0.359461  0.999552  0.162440  1
  O  O7  1  0.163127  0.401773  0.158878  1
  O  O8  1  0.163363  0.597734  0.364456  1
  O  O9  1  0.836877  0.399179  0.639695  1
  O  O10  1  0.835593  0.599654  0.839644  1
  O  O11  1  0.642601  0.998480  0.838591  1
