# generated using pymatgen
data_La(HO)3
_symmetry_space_group_name_H-M   'P 1'
_cell_length_a   6.52606016
_cell_length_b   6.52600513
_cell_length_c   3.87328767
_cell_angle_alpha   90.00000000
_cell_angle_beta   90.00000000
_cell_angle_gamma   119.99776313
_symmetry_Int_Tables_number   1
_chemical_formula_structural   La(HO)3
_chemical_formula_sum   'La2 H6 O6'
_cell_volume   142.86263555
_cell_formula_units_Z   2
loop_
 _symmetry_equiv_pos_site_id
 _symmetry_equiv_pos_as_xyz
  1  'x, y, z'
loop_
 _atom_site_type_symbol
 _atom_site_label
 _atom_site_symmetry_multiplicity
 _atom_site_fract_x
 _atom_site_fract_y
 _atom_site_fract_z
 _atom_site_occupancy
  La  La0  1  0.333356  0.666715  0.309087  1
  La  La1  1  0.666644  0.333285  0.809087  1
  H  H2  1  0.872585  0.724768  0.371245  1
  H  H3  1  0.852194  0.127429  0.371264  1
  H  H4  1  0.275232  0.147829  0.371234  1
  H  H5  1  0.127415  0.275232  0.871245  1
  H  H6  1  0.147806  0.872571  0.871264  1
  H  H7  1  0.724768  0.852171  0.871234  1
  O  O8  1  0.922190  0.614908  0.286903  1
  O  O9  1  0.692732  0.077814  0.286930  1
  O  O10  1  0.385094  0.307281  0.286911  1
  O  O11  1  0.077810  0.385092  0.786903  1
  O  O12  1  0.307268  0.922186  0.786930  1
  O  O13  1  0.614906  0.692719  0.786911  1
