# generated using pymatgen
data_MgSiO3
_symmetry_space_group_name_H-M   'P 1'
_cell_length_a   4.89144096
_cell_length_b   8.46628743
_cell_length_c   9.44283505
_cell_angle_alpha   90.00000000
_cell_angle_beta   98.55011949
_cell_angle_gamma   90.00000000
_symmetry_Int_Tables_number   1
_chemical_formula_structural   MgSiO3
_chemical_formula_sum   'Mg8 Si8 O24'
_cell_volume   386.70388839
_cell_formula_units_Z   8
loop_
 _symmetry_equiv_pos_site_id
 _symmetry_equiv_pos_as_xyz
  1  'x, y, z'
loop_
 _atom_site_type_symbol
 _atom_site_label
 _atom_site_symmetry_multiplicity
 _atom_site_fract_x
 _atom_site_fract_y
 _atom_site_fract_z
 _atom_site_occupancy
  Mg  Mg0  1  0.920947  0.968226  0.775080  1
  Mg  Mg1  1  0.592401  0.840560  0.269329  1
  Mg  Mg2  1  0.579053  0.468226  0.224920  1
  Mg  Mg3  1  0.079053  0.031774  0.224920  1
  Mg  Mg4  1  0.407599  0.159440  0.730671  1
  Mg  Mg5  1  0.092401  0.659440  0.269329  1
  Mg  Mg6  1  0.907599  0.340560  0.730671  1
  Mg  Mg7  1  0.420947  0.531774  0.775080  1
  Si  Si8  1  0.187204  0.343084  0.448470  1
  Si  Si9  1  0.491234  0.834246  0.989544  1
  Si  Si10  1  0.508766  0.165754  0.010456  1
  Si  Si11  1  0.312796  0.843084  0.551531  1
  Si  Si12  1  0.812796  0.656916  0.551531  1
  Si  Si13  1  0.687204  0.156916  0.448470  1
  Si  Si14  1  -0.008766  0.665754  0.989544  1
  Si  Si15  1  0.008766  0.334246  0.010456  1
  O  O16  1  0.299412  0.485871  0.364512  1
  O  O17  1  0.651438  0.817198  0.604452  1
  O  O18  1  0.729969  0.151839  0.623934  1
  O  O19  1  0.348562  0.182802  0.395548  1
  O  O20  1  0.151438  0.682802  0.604452  1
  O  O21  1  0.343834  0.306131  0.104595  1
  O  O22  1  0.404770  0.996188  0.106422  1
  O  O23  1  0.848562  0.317198  0.395548  1
  O  O24  1  0.656166  0.693869  0.895405  1
  O  O25  1  0.351986  0.685684  0.114463  1
  O  O26  1  0.799412  0.014129  0.364512  1
  O  O27  1  0.156166  0.806131  0.895405  1
  O  O28  1  0.700588  0.514129  0.635488  1
  O  O29  1  0.904770  0.503812  0.106422  1
  O  O30  1  0.770031  0.651839  0.376066  1
  O  O31  1  0.843834  0.193869  0.104595  1
  O  O32  1  0.229969  0.348161  0.623934  1
  O  O33  1  0.148014  0.185684  0.885537  1
  O  O34  1  0.595230  0.003812  0.893578  1
  O  O35  1  0.200588  0.985871  0.635488  1
  O  O36  1  0.648014  0.314316  0.885537  1
  O  O37  1  0.270031  0.848161  0.376066  1
  O  O38  1  0.095230  0.496188  0.893578  1
  O  O39  1  0.851986  0.814316  0.114463  1
