# generated using pymatgen
data_Ba2Ca2Zn5Fe3O14
_symmetry_space_group_name_H-M   'P 1'
_cell_length_a   8.73233646
_cell_length_b   15.67122759
_cell_length_c   7.40678853
_cell_angle_alpha   90.00000000
_cell_angle_beta   90.00000000
_cell_angle_gamma   125.57589485
_symmetry_Int_Tables_number   1
_chemical_formula_structural   Ba2Ca2Zn5Fe3O14
_chemical_formula_sum   'Ba4 Ca4 Zn10 Fe6 O28'
_cell_volume   824.40106382
_cell_formula_units_Z   2
loop_
 _symmetry_equiv_pos_site_id
 _symmetry_equiv_pos_as_xyz
  1  'x, y, z'
loop_
 _atom_site_type_symbol
 _atom_site_label
 _atom_site_symmetry_multiplicity
 _atom_site_fract_x
 _atom_site_fract_y
 _atom_site_fract_z
 _atom_site_occupancy
  Ba  Ba0  1  0.319404  0.747481  0.866394  1
  Ba  Ba1  1  0.559669  0.678608  0.499272  1
  Ba  Ba2  1  0.440331  0.321392  0.999272  1
  Ba  Ba3  1  0.680596  0.252519  0.366394  1
  Ca  Ca4  1  0.444686  0.940794  0.384536  1
  Ca  Ca5  1  0.218326  0.287654  0.521787  1
  Ca  Ca6  1  0.781674  0.712346  0.021787  1
  Ca  Ca7  1  0.555314  0.059206  0.884536  1
  Zn  Zn8  1  0.185790  0.704970  0.316420  1
  Zn  Zn9  1  0.705181  0.902983  0.148545  1
  Zn  Zn10  1  0.404444  0.539849  0.906689  1
  Zn  Zn11  1  0.166232  0.415007  0.280952  1
  Zn  Zn12  1  0.850838  0.968412  0.631360  1
  Zn  Zn13  1  0.595556  0.460151  0.406689  1
  Zn  Zn14  1  0.833768  0.584993  0.780952  1
  Zn  Zn15  1  0.294819  0.097017  0.648545  1
  Zn  Zn16  1  0.814210  0.295030  0.816420  1
  Zn  Zn17  1  0.149162  0.031588  0.131360  1
  Fe  Fe18  1  0.129037  0.879907  0.760583  1
  Fe  Fe19  1  0.011844  0.512617  0.556863  1
  Fe  Fe20  1  0.988156  0.487383  0.056863  1
  Fe  Fe21  1  0.963817  0.114765  0.882027  1
  Fe  Fe22  1  0.036183  0.885235  0.382027  1
  Fe  Fe23  1  0.870963  0.120093  0.260584  1
  O  O24  1  0.228811  0.001600  0.912532  1
  O  O25  1  0.771189  0.998400  0.412532  1
  O  O26  1  0.875461  0.862257  0.183935  1
  O  O27  1  0.997983  0.740875  0.838509  1
  O  O28  1  0.041820  0.617367  0.111928  1
  O  O29  1  0.011164  0.540597  0.810546  1
  O  O30  1  0.988836  0.459403  0.310546  1
  O  O31  1  0.367302  0.919193  0.689030  1
  O  O32  1  0.545863  0.683471  0.839032  1
  O  O33  1  0.240656  0.647088  0.519864  1
  O  O34  1  0.175826  0.454926  0.026056  1
  O  O35  1  0.749480  0.969185  0.879342  1
  O  O36  1  0.884696  0.198235  0.857307  1
  O  O37  1  0.446391  0.814908  0.209968  1
  O  O38  1  0.073165  0.127376  0.115287  1
  O  O39  1  0.609152  0.523047  0.935237  1
  O  O40  1  0.390848  0.476953  0.435237  1
  O  O41  1  0.926835  0.872624  0.615287  1
  O  O42  1  0.553609  0.185092  0.709968  1
  O  O43  1  0.115304  0.801765  0.357307  1
  O  O44  1  0.250520  0.030815  0.379342  1
  O  O45  1  0.824174  0.545074  0.526056  1
  O  O46  1  0.759344  0.352912  0.019864  1
  O  O47  1  0.454137  0.316529  0.339032  1
  O  O48  1  0.632698  0.080807  0.189030  1
  O  O49  1  0.958180  0.382633  0.611928  1
  O  O50  1  0.002017  0.259125  0.338509  1
  O  O51  1  0.124539  0.137743  0.683935  1
