# generated using pymatgen
data_RbW3Br7
_symmetry_space_group_name_H-M   'P 1'
_cell_length_a   10.00432481
_cell_length_b   13.69982483
_cell_length_c   13.69982487
_cell_angle_alpha   72.38200935
_cell_angle_beta   68.01009334
_cell_angle_gamma   68.01009250
_symmetry_Int_Tables_number   1
_chemical_formula_structural   RbW3Br7
_chemical_formula_sum   'Rb4 W12 Br28'
_cell_volume   1585.31870225
_cell_formula_units_Z   4
loop_
 _symmetry_equiv_pos_site_id
 _symmetry_equiv_pos_as_xyz
  1  'x, y, z'
loop_
 _atom_site_type_symbol
 _atom_site_label
 _atom_site_symmetry_multiplicity
 _atom_site_fract_x
 _atom_site_fract_y
 _atom_site_fract_z
 _atom_site_occupancy
  Rb  Rb0  1  0.750000  0.472720  0.527280  1
  Rb  Rb1  1  0.000000  0.000000  0.000000  1
  Rb  Rb2  1  0.500000  0.000000  0.000000  1
  Rb  Rb3  1  0.250000  0.527280  0.472720  1
  W  W4  1  0.664608  0.874969  0.485932  1
  W  W5  1  0.946241  0.649054  0.956279  1
  W  W6  1  0.122023  0.507900  0.071573  1
  W  W7  1  0.164608  0.485932  0.874969  1
  W  W8  1  0.446241  0.956279  0.649054  1
  W  W9  1  0.835392  0.514068  0.125031  1
  W  W10  1  0.053759  0.350946  0.043721  1
  W  W11  1  0.335392  0.125031  0.514068  1
  W  W12  1  0.877977  0.492100  0.928427  1
  W  W13  1  0.553759  0.043721  0.350946  1
  W  W14  1  0.377977  0.928427  0.492100  1
  W  W15  1  0.622023  0.071573  0.507900  1
  Br  Br16  1  0.341720  0.345007  0.990104  1
  Br  Br17  1  0.403663  0.151160  0.672927  1
  Br  Br18  1  0.596337  0.848840  0.327073  1
  Br  Br19  1  0.788465  0.171131  0.520793  1
  Br  Br20  1  0.893538  0.695963  0.462906  1
  Br  Br21  1  0.869840  0.861614  0.896131  1
  Br  Br22  1  0.011978  0.371343  0.240089  1
  Br  Br23  1  0.267109  0.098371  0.357072  1
  Br  Br24  1  0.106462  0.304037  0.537094  1
  Br  Br25  1  0.288465  0.520793  0.171131  1
  Br  Br26  1  0.158280  0.009896  0.654993  1
  Br  Br27  1  0.211535  0.828869  0.479207  1
  Br  Br28  1  0.232891  0.642928  0.901629  1
  Br  Br29  1  0.096337  0.327073  0.848840  1
  Br  Br30  1  0.488022  0.759911  0.628657  1
  Br  Br31  1  0.130160  0.138386  0.103869  1
  Br  Br32  1  0.903663  0.672927  0.151160  1
  Br  Br33  1  0.841720  0.990104  0.345007  1
  Br  Br34  1  0.658280  0.654993  0.009896  1
  Br  Br35  1  0.393538  0.462906  0.695963  1
  Br  Br36  1  0.711535  0.479207  0.828869  1
  Br  Br37  1  0.630160  0.103869  0.138386  1
  Br  Br38  1  0.511978  0.240089  0.371343  1
  Br  Br39  1  0.369840  0.896131  0.861614  1
  Br  Br40  1  0.606462  0.537094  0.304037  1
  Br  Br41  1  0.732891  0.901629  0.642928  1
  Br  Br42  1  0.767109  0.357072  0.098371  1
  Br  Br43  1  0.988022  0.628657  0.759911  1
