# generated using pymatgen
data_NiH14C3NCl3O2
_symmetry_space_group_name_H-M   'P 1'
_cell_length_a   7.22142919
_cell_length_b   8.28795738
_cell_length_c   16.91159169
_cell_angle_alpha   90.00002371
_cell_angle_beta   89.99999865
_cell_angle_gamma   90.00001272
_symmetry_Int_Tables_number   1
_chemical_formula_structural   NiH14C3NCl3O2
_chemical_formula_sum   'Ni4 H56 C12 N4 Cl12 O8'
_cell_volume   1012.17393825
_cell_formula_units_Z   4
loop_
 _symmetry_equiv_pos_site_id
 _symmetry_equiv_pos_as_xyz
  1  'x, y, z'
loop_
 _atom_site_type_symbol
 _atom_site_label
 _atom_site_symmetry_multiplicity
 _atom_site_fract_x
 _atom_site_fract_y
 _atom_site_fract_z
 _atom_site_occupancy
  Ni  Ni0  1  0.499976  0.000020  0.000004  1
  Ni  Ni1  1  0.999978  0.000001  0.999998  1
  Ni  Ni2  1  0.500045  0.500026  0.500005  1
  Ni  Ni3  1  0.000004  0.499997  0.499995  1
  H  H4  1  0.426765  0.698726  0.958571  1
  H  H5  1  0.125708  0.514922  0.134583  1
  H  H6  1  0.374291  0.514922  0.134583  1
  H  H7  1  0.250000  0.249691  0.128601  1
  H  H8  1  0.098116  0.192725  0.483708  1
  H  H9  1  0.874291  0.485077  0.865417  1
  H  H10  1  0.422744  0.313662  0.284473  1
  H  H11  1  0.625709  0.014922  0.365416  1
  H  H12  1  0.086596  0.123444  0.232886  1
  H  H13  1  0.577256  0.686337  0.715527  1
  H  H14  1  0.540579  0.212168  0.690917  1
  H  H15  1  0.625709  0.485077  0.865417  1
  H  H16  1  0.959420  0.212168  0.690917  1
  H  H17  1  0.913404  0.623444  0.267114  1
  H  H18  1  0.125709  0.985076  0.634583  1
  H  H19  1  0.901884  0.807273  0.516292  1
  H  H20  1  0.926763  0.198724  0.541429  1
  H  H21  1  0.040580  0.712168  0.809083  1
  H  H22  1  0.098116  0.307273  0.983708  1
  H  H23  1  0.750000  0.451752  0.774832  1
  H  H24  1  0.422743  0.186337  0.784473  1
  H  H25  1  0.922744  0.686337  0.715527  1
  H  H26  1  0.573237  0.301275  0.041430  1
  H  H27  1  0.250000  0.548246  0.225168  1
  H  H28  1  0.750000  0.749691  0.371399  1
  H  H29  1  0.250000  0.951752  0.725168  1
  H  H30  1  0.577256  0.813662  0.215526  1
  H  H31  1  0.874291  0.014922  0.365416  1
  H  H32  1  0.426762  0.801274  0.458571  1
  H  H33  1  0.077256  0.186337  0.784473  1
  H  H34  1  0.749999  0.750307  0.871399  1
  H  H35  1  0.586596  0.623444  0.267114  1
  H  H36  1  0.073236  0.698725  0.958571  1
  H  H37  1  0.750000  0.048246  0.274832  1
  H  H38  1  0.040580  0.787830  0.309083  1
  H  H39  1  0.401885  0.192729  0.483708  1
  H  H40  1  0.413404  0.123444  0.232886  1
  H  H41  1  0.922743  0.813662  0.215526  1
  H  H42  1  0.598115  0.692727  0.016292  1
  H  H43  1  0.086596  0.376554  0.732886  1
  H  H44  1  0.913404  0.876554  0.767114  1
  H  H45  1  0.250000  0.250308  0.628600  1
  H  H46  1  0.459420  0.787830  0.309083  1
  H  H47  1  0.901883  0.692725  0.016292  1
  H  H48  1  0.413404  0.376554  0.732886  1
  H  H49  1  0.926764  0.301274  0.041429  1
  H  H50  1  0.459420  0.712168  0.809083  1
  H  H51  1  0.077256  0.313662  0.284473  1
  H  H52  1  0.959420  0.287830  0.190916  1
  H  H53  1  0.401883  0.307275  0.983708  1
  H  H54  1  0.374291  0.985077  0.634583  1
  H  H55  1  0.573235  0.198724  0.541429  1
  H  H56  1  0.540580  0.287830  0.190916  1
  H  H57  1  0.586596  0.876554  0.767114  1
  H  H58  1  0.073236  0.801274  0.458571  1
  H  H59  1  0.598117  0.807277  0.516292  1
  C  C60  1  0.079977  0.254422  0.226422  1
  C  C61  1  0.579977  0.754422  0.273578  1
  C  C62  1  0.250000  0.015603  0.668301  1
  C  C63  1  0.420023  0.245576  0.726421  1
  C  C64  1  0.920023  0.745576  0.773578  1
  C  C65  1  0.579977  0.745576  0.773578  1
  C  C66  1  0.750000  0.984396  0.331699  1
  C  C67  1  0.750000  0.515603  0.831699  1
  C  C68  1  0.420023  0.254423  0.226422  1
  C  C69  1  0.250000  0.484396  0.168301  1
  C  C70  1  0.920023  0.754422  0.273578  1
  C  C71  1  0.079977  0.245576  0.726421  1
  N  N72  1  0.250000  0.307018  0.183562  1
  N  N73  1  0.250000  0.192980  0.683562  1
  N  N74  1  0.750000  0.692980  0.816438  1
  N  N75  1  0.750000  0.807019  0.316438  1
  Cl  Cl76  1  0.750000  0.502199  0.084913  1
  Cl  Cl77  1  0.750006  0.507184  0.594855  1
  Cl  Cl78  1  0.250001  0.567932  0.593508  1
  Cl  Cl79  1  0.249998  0.932067  0.093508  1
  Cl  Cl80  1  0.750002  0.432066  0.406491  1
  Cl  Cl81  1  0.250005  0.492816  0.405148  1
  Cl  Cl82  1  0.249997  0.007184  0.905147  1
  Cl  Cl83  1  0.749998  0.067932  0.906492  1
  Cl  Cl84  1  0.250000  0.002198  0.415088  1
  Cl  Cl85  1  0.750000  0.997798  0.584912  1
  Cl  Cl86  1  0.749997  0.992816  0.094854  1
  Cl  Cl87  1  0.250000  0.497798  0.915087  1
  O  O88  1  0.458966  0.242814  0.026694  1
  O  O89  1  0.458971  0.257195  0.526694  1
  O  O90  1  0.541036  0.742815  0.473306  1
  O  O91  1  0.041032  0.257189  0.526694  1
  O  O92  1  0.958967  0.757189  0.973306  1
  O  O93  1  0.041031  0.242808  0.026694  1
  O  O94  1  0.541030  0.757194  0.973307  1
  O  O95  1  0.958968  0.742809  0.473306  1
