# generated using pymatgen
data_Li5TiP3
_symmetry_space_group_name_H-M   'P 1'
_cell_length_a   8.23731187
_cell_length_b   12.42568523
_cell_length_c   10.12237703
_cell_angle_alpha   35.18693719
_cell_angle_beta   35.52076248
_cell_angle_gamma   60.15919217
_symmetry_Int_Tables_number   1
_chemical_formula_structural   Li5TiP3
_chemical_formula_sum   'Li10 Ti2 P6'
_cell_volume   300.28463417
_cell_formula_units_Z   2
loop_
 _symmetry_equiv_pos_site_id
 _symmetry_equiv_pos_as_xyz
  1  'x, y, z'
loop_
 _atom_site_type_symbol
 _atom_site_label
 _atom_site_symmetry_multiplicity
 _atom_site_fract_x
 _atom_site_fract_y
 _atom_site_fract_z
 _atom_site_occupancy
  Li  Li0  1  0.523492  0.344596  0.226863  1
  Li  Li1  1  0.487490  0.656335  0.257902  1
  Li  Li2  1  0.991366  0.344437  0.238365  1
  Li  Li3  1  0.513677  0.344101  0.738031  1
  Li  Li4  1  0.480987  0.999856  0.267198  1
  Li  Li5  1  0.997238  0.656780  0.269538  1
  Li  Li6  1  0.476063  0.656930  0.768783  1
  Li  Li7  1  0.000946  0.343265  0.728639  1
  Li  Li8  1  0.519310  0.001228  0.728194  1
  Li  Li9  1  0.009567  0.656538  0.757175  1
  Ti  Ti10  1  0.015499  0.001150  0.232133  1
  Ti  Ti11  1  0.985816  0.000031  0.762685  1
  P  P12  1  0.000279  0.000596  0.997854  1
  P  P13  1  0.500305  0.000583  0.997606  1
  P  P14  1  0.449743  0.308899  0.066616  1
  P  P15  1  0.551166  0.692553  0.928214  1
  P  P16  1  0.012711  0.309521  0.003112  1
  P  P17  1  0.988050  0.692033  0.992028  1
