# generated using pymatgen
data_Na8Al6Si6O25
_symmetry_space_group_name_H-M   'P 1'
_cell_length_a   9.01059510
_cell_length_b   9.01173490
_cell_length_c   9.01874235
_cell_angle_alpha   90.13934888
_cell_angle_beta   89.82773618
_cell_angle_gamma   89.90065880
_symmetry_Int_Tables_number   1
_chemical_formula_structural   Na8Al6Si6O25
_chemical_formula_sum   'Na8 Al6 Si6 O25'
_cell_volume   732.32516236
_cell_formula_units_Z   1
loop_
 _symmetry_equiv_pos_site_id
 _symmetry_equiv_pos_as_xyz
  1  'x, y, z'
loop_
 _atom_site_type_symbol
 _atom_site_label
 _atom_site_symmetry_multiplicity
 _atom_site_fract_x
 _atom_site_fract_y
 _atom_site_fract_z
 _atom_site_occupancy
  Na  Na0  1  0.141208  0.155336  0.156327  1
  Na  Na1  1  0.145029  0.854913  0.856465  1
  Na  Na2  1  0.295161  0.292529  0.705743  1
  Na  Na3  1  0.294962  0.706043  0.292045  1
  Na  Na4  1  0.707755  0.703996  0.706034  1
  Na  Na5  1  0.743905  0.256135  0.257997  1
  Na  Na6  1  0.846309  0.153814  0.864281  1
  Na  Na7  1  0.845584  0.858705  0.156317  1
  Al  Al8  1  0.999112  0.251273  0.505394  1
  Al  Al9  1  0.247849  0.500184  0.001231  1
  Al  Al10  1  0.499856  0.000133  0.753886  1
  Al  Al11  1  0.496258  0.000731  0.252962  1
  Al  Al12  1  0.749133  0.504153  0.002429  1
  Al  Al13  1  0.000389  0.752446  0.502126  1
  Si  Si14  1  0.000469  0.502443  0.252661  1
  Si  Si15  1  0.248003  0.001249  0.503824  1
  Si  Si16  1  0.498249  0.752025  0.001768  1
  Si  Si17  1  0.497804  0.250884  0.001317  1
  Si  Si18  1  0.749322  0.999354  0.503854  1
  Si  Si19  1  0.999643  0.501968  0.753423  1
  O  O20  1  0.060897  0.642453  0.352328  1
  O  O21  1  0.059993  0.361393  0.654837  1
  O  O22  1  0.140283  0.442546  0.152865  1
  O  O23  1  0.138103  0.563159  0.853506  1
  O  O24  1  0.150561  0.142686  0.446525  1
  O  O25  1  0.147797  0.862865  0.565120  1
  O  O26  1  0.352585  0.059029  0.640934  1
  O  O27  1  0.346865  0.940185  0.362898  1
  O  O28  1  0.357501  0.349846  0.940977  1
  O  O29  1  0.361002  0.647701  0.059463  1
  O  O30  1  0.441711  0.151058  0.142324  1
  O  O31  1  0.436913  0.852322  0.863927  1
  O  O32  1  0.558419  0.151100  0.862017  1
  O  O33  1  0.554818  0.849546  0.144175  1
  O  O34  1  0.636664  0.354375  0.057876  1
  O  O35  1  0.639395  0.653638  0.941432  1
  O  O36  1  0.646098  0.055863  0.364680  1
  O  O37  1  0.649364  0.939039  0.643811  1
  O  O38  1  0.848860  0.139972  0.559344  1
  O  O39  1  0.848853  0.859422  0.443687  1
  O  O40  1  0.860030  0.558866  0.152506  1
  O  O41  1  0.857901  0.444816  0.851440  1
  O  O42  1  0.943747  0.363743  0.355754  1
  O  O43  1  0.941686  0.639706  0.649962  1
  O  O44  1  0.985852  0.014458  0.017630  1
