# generated using pymatgen
data_YZr9O20
_symmetry_space_group_name_H-M   'P 1'
_cell_length_a   18.30243931
_cell_length_b   8.18803824
_cell_length_c   6.39956150
_cell_angle_alpha   59.22752568
_cell_angle_beta   55.11533870
_cell_angle_gamma   26.56186752
_symmetry_Int_Tables_number   1
_chemical_formula_structural   YZr9O20
_chemical_formula_sum   'Y1 Zr9 O20'
_cell_volume   351.78810050
_cell_formula_units_Z   1
loop_
 _symmetry_equiv_pos_site_id
 _symmetry_equiv_pos_as_xyz
  1  'x, y, z'
loop_
 _atom_site_type_symbol
 _atom_site_label
 _atom_site_symmetry_multiplicity
 _atom_site_fract_x
 _atom_site_fract_y
 _atom_site_fract_z
 _atom_site_occupancy
  Y  Y0  1  0.599807  0.499909  0.501322  1
  Zr  Zr1  1  0.000337  0.997695  -0.000782  1
  Zr  Zr2  1  0.200541  0.997339  0.000432  1
  Zr  Zr3  1  0.998501  0.502333  0.500574  1
  Zr  Zr4  1  0.401998  0.997705  0.000104  1
  Zr  Zr5  1  0.200600  0.498668  0.500885  1
  Zr  Zr6  1  0.596735  0.006435  0.000650  1
  Zr  Zr7  1  0.399966  0.500862  0.500539  1
  Zr  Zr8  1  0.800481  0.001203  0.999410  1
  Zr  Zr9  1  0.800787  0.498926  0.496604  1
  O  O10  1  0.046185  0.992070  0.286493  1
  O  O11  1  0.239577  0.005785  0.290819  1
  O  O12  1  0.057929  0.501344  0.708746  1
  O  O13  1  0.157118  0.500988  0.212671  1
  O  O14  1  0.437155  0.024188  0.269924  1
  O  O15  1  0.357434  0.504288  0.219179  1
  O  O16  1  0.258220  0.499163  0.714776  1
  O  O17  1  0.641639  0.001039  0.289220  1
  O  O18  1  0.136950  0.011260  0.789332  1
  O  O19  1  0.552771  0.501377  0.215604  1
  O  O20  1  0.447971  0.501571  0.732516  1
  O  O21  1  0.853909  0.976989  0.270480  1
  O  O22  1  0.336276  0.013465  0.792099  1
  O  O23  1  0.762313  0.497320  0.207426  1
  O  O24  1  0.660822  0.496248  0.728609  1
  O  O25  1  0.545147  0.996757  0.780898  1
  O  O26  1  0.957229  0.496050  0.209766  1
  O  O27  1  0.856762  0.500792  0.709055  1
  O  O28  1  0.747256  0.985880  0.791177  1
  O  O29  1  0.947582  -0.007652  0.781473  1
