# generated using pymatgen
data_KBa2DyBi2O9
_symmetry_space_group_name_H-M   'P 1'
_cell_length_a   28.41631739
_cell_length_b   6.80394282
_cell_length_c   6.80394182
_cell_angle_alpha   59.99999827
_cell_angle_beta   44.08457817
_cell_angle_gamma   44.08457516
_symmetry_Int_Tables_number   1
_chemical_formula_structural   KBa2DyBi2O9
_chemical_formula_sum   'K2 Ba4 Dy2 Bi4 O18'
_cell_volume   636.38611495
_cell_formula_units_Z   2
loop_
 _symmetry_equiv_pos_site_id
 _symmetry_equiv_pos_as_xyz
  1  'x, y, z'
loop_
 _atom_site_type_symbol
 _atom_site_label
 _atom_site_symmetry_multiplicity
 _atom_site_fract_x
 _atom_site_fract_y
 _atom_site_fract_z
 _atom_site_occupancy
  K  K0  1  0.425910  0.148181  0.148181  1
  K  K1  1  0.740757  -0.148181  -0.148181  1
  Ba  Ba2  1  -0.055783  0.111565  0.111565  1
  Ba  Ba3  1  0.222450  -0.111565  -0.111565  1
  Ba  Ba4  1  0.303238  0.060190  0.060190  1
  Ba  Ba5  1  0.863428  -0.060190  -0.060190  1
  Dy  Dy6  1  0.173418  0.653164  0.653164  1
  Dy  Dy7  1  0.993249  0.346836  0.346836  1
  Bi  Bi8  1  0.083333  0.500000  0.500000  1
  Bi  Bi9  1  0.525051  0.283232  0.283232  1
  Bi  Bi10  1  0.583333  0.500000  0.500000  1
  Bi  Bi11  1  0.641616  0.716768  0.716768  1
  O  O12  1  0.083333  0.000000  0.000000  1
  O  O13  1  0.083333  0.000000  0.500000  1
  O  O14  1  0.083333  0.500000  0.000000  1
  O  O15  1  0.168313  0.194207  0.194207  1
  O  O16  1  0.168313  0.194207  0.601705  1
  O  O17  1  0.168313  0.601705  0.194207  1
  O  O18  1  0.287350  0.309567  0.309567  1
  O  O19  1  0.287350  0.656771  0.309567  1
  O  O20  1  0.287350  0.309567  0.656771  1
  O  O21  1  0.583333  0.000000  0.000000  1
  O  O22  1  0.583333  0.000000  0.500000  1
  O  O23  1  0.583333  0.500000  0.000000  1
  O  O24  1  0.879317  0.690433  0.690433  1
  O  O25  1  0.879317  0.690433  0.343229  1
  O  O26  1  0.879317  0.343229  0.690433  1
  O  O27  1  -0.001646  0.805793  0.805793  1
  O  O28  1  -0.001646  0.398295  0.805793  1
  O  O29  1  -0.001646  0.805793  0.398295  1
