# generated using pymatgen
data_CuH20C2S3(NO)8
_symmetry_space_group_name_H-M   'P 1'
_cell_length_a   13.41218803
_cell_length_b   8.38860844
_cell_length_c   17.13851711
_cell_angle_alpha   90.00000000
_cell_angle_beta   122.27885472
_cell_angle_gamma   90.00000000
_symmetry_Int_Tables_number   1
_chemical_formula_structural   CuH20C2S3(NO)8
_chemical_formula_sum   'Cu4 H80 C8 S12 N32 O32'
_cell_volume   1630.25424870
_cell_formula_units_Z   4
loop_
 _symmetry_equiv_pos_site_id
 _symmetry_equiv_pos_as_xyz
  1  'x, y, z'
loop_
 _atom_site_type_symbol
 _atom_site_label
 _atom_site_symmetry_multiplicity
 _atom_site_fract_x
 _atom_site_fract_y
 _atom_site_fract_z
 _atom_site_occupancy
  Cu  Cu0  1  0.129763  0.460955  0.644593  1
  Cu  Cu1  1  0.870237  0.960955  0.855407  1
  Cu  Cu2  1  0.870237  0.539045  0.355407  1
  Cu  Cu3  1  0.129763  0.039045  0.144593  1
  H  H4  1  0.818680  0.287121  0.556465  1
  H  H5  1  0.181320  0.787121  0.943535  1
  H  H6  1  0.181320  0.712879  0.443535  1
  H  H7  1  0.818680  0.212879  0.056465  1
  H  H8  1  0.317047  0.757013  0.843404  1
  H  H9  1  0.682953  0.257013  0.656596  1
  H  H10  1  0.682953  0.242987  0.156596  1
  H  H11  1  0.317047  0.742987  0.343404  1
  H  H12  1  0.937462  0.498826  0.641625  1
  H  H13  1  0.062538  0.998826  0.858375  1
  H  H14  1  0.062538  0.501174  0.358375  1
  H  H15  1  0.937462  0.001174  0.141625  1
  H  H16  1  0.112117  0.719827  0.720359  1
  H  H17  1  0.887883  0.219827  0.779641  1
  H  H18  1  0.887883  0.280173  0.279641  1
  H  H19  1  0.112117  0.780173  0.220359  1
  H  H20  1  0.009461  0.333084  0.702842  1
  H  H21  1  0.990539  0.833084  0.797158  1
  H  H22  1  0.990539  0.666916  0.297158  1
  H  H23  1  0.009461  0.166916  0.202842  1
  H  H24  1  0.167857  0.564505  0.795396  1
  H  H25  1  0.832143  0.064505  0.704604  1
  H  H26  1  0.832143  0.435495  0.204604  1
  H  H27  1  0.167857  0.935495  0.295396  1
  H  H28  1  0.895889  0.090502  0.404874  1
  H  H29  1  0.104111  0.590502  0.095126  1
  H  H30  1  0.104111  0.909498  0.595126  1
  H  H31  1  0.895889  0.409498  0.904874  1
  H  H32  1  0.519835  0.672173  0.773155  1
  H  H33  1  0.480165  0.172173  0.726845  1
  H  H34  1  0.480165  0.327827  0.226845  1
  H  H35  1  0.519835  0.827827  0.273155  1
  H  H36  1  0.706922  0.171233  0.418861  1
  H  H37  1  0.293078  0.671233  0.081139  1
  H  H38  1  0.293078  0.828767  0.581139  1
  H  H39  1  0.706922  0.328767  0.918861  1
  H  H40  1  0.588053  0.778232  0.922743  1
  H  H41  1  0.411947  0.278232  0.577257  1
  H  H42  1  0.411947  0.221768  0.077257  1
  H  H43  1  0.588053  0.721768  0.422743  1
  H  H44  1  0.771832  0.011054  0.486631  1
  H  H45  1  0.228168  0.511054  0.013369  1
  H  H46  1  0.228168  0.988946  0.513369  1
  H  H47  1  0.771832  0.488946  0.986631  1
  H  H48  1  0.490386  0.916324  0.851710  1
  H  H49  1  0.509614  0.416324  0.648290  1
  H  H50  1  0.509614  0.083676  0.148290  1
  H  H51  1  0.490386  0.583676  0.351710  1
  H  H52  1  0.977446  0.930876  0.649152  1
  H  H53  1  0.022554  0.430876  0.850848  1
  H  H54  1  0.022554  0.069124  0.350848  1
  H  H55  1  0.977446  0.569124  0.149152  1
  H  H56  1  0.087549  0.029875  0.721436  1
  H  H57  1  0.912451  0.529875  0.778564  1
  H  H58  1  0.912451  0.970125  0.278564  1
  H  H59  1  0.087549  0.470125  0.221436  1
  H  H60  1  0.328111  0.151486  0.764303  1
  H  H61  1  0.671889  0.651486  0.735697  1
  H  H62  1  0.671889  0.848514  0.235697  1
  H  H63  1  0.328111  0.348514  0.264303  1
  H  H64  1  0.318214  0.041002  0.685233  1
  H  H65  1  0.681786  0.541002  0.814767  1
  H  H66  1  0.681786  0.958998  0.314767  1
  H  H67  1  0.318214  0.458998  0.185233  1
  H  H68  1  0.382432  0.792142  0.995733  1
  H  H69  1  0.617568  0.292142  0.504267  1
  H  H70  1  0.617568  0.207858  0.004267  1
  H  H71  1  0.382432  0.707858  0.495733  1
  H  H72  1  0.311815  0.954445  0.946077  1
  H  H73  1  0.688185  0.454445  0.553923  1
  H  H74  1  0.688185  0.045555  0.053923  1
  H  H75  1  0.311815  0.545555  0.446077  1
  H  H76  1  0.494682  0.354124  0.997732  1
  H  H77  1  0.505318  0.854124  0.502268  1
  H  H78  1  0.505318  0.645876  0.002268  1
  H  H79  1  0.494682  0.145876  0.497732  1
  H  H80  1  0.423156  0.332574  0.892586  1
  H  H81  1  0.576844  0.832574  0.607414  1
  H  H82  1  0.576844  0.667426  0.107414  1
  H  H83  1  0.423156  0.167426  0.392586  1
  C  C84  1  0.939046  0.232053  0.515699  1
  C  C85  1  0.060954  0.732053  0.984301  1
  C  C86  1  0.060954  0.767947  0.484301  1
  C  C87  1  0.939046  0.267947  0.015699  1
  C  C88  1  0.353647  0.646294  0.752096  1
  C  C89  1  0.646353  0.146294  0.747904  1
  C  C90  1  0.646353  0.353706  0.247904  1
  C  C91  1  0.353647  0.853706  0.252096  1
  S  S92  1  0.071694  0.283399  0.529345  1
  S  S93  1  0.928306  0.783399  0.970655  1
  S  S94  1  0.928306  0.716601  0.470655  1
  S  S95  1  0.071694  0.216601  0.029345  1
  S  S96  1  0.301738  0.526171  0.656450  1
  S  S97  1  0.698262  0.026171  0.843550  1
  S  S98  1  0.698262  0.473829  0.343550  1
  S  S99  1  0.301738  0.973829  0.156450  1
  S  S100  1  0.203449  0.260197  0.863061  1
  S  S101  1  0.796551  0.760197  0.636939  1
  S  S102  1  0.796551  0.739803  0.136939  1
  S  S103  1  0.203449  0.239803  0.363061  1
  N  N104  1  0.903421  0.295856  0.568331  1
  N  N105  1  0.096579  0.795856  0.931669  1
  N  N106  1  0.096579  0.704144  0.431669  1
  N  N107  1  0.903421  0.204144  0.068331  1
  N  N108  1  0.285698  0.689362  0.784043  1
  N  N109  1  0.714302  0.189362  0.715957  1
  N  N110  1  0.714302  0.310638  0.215957  1
  N  N111  1  0.285698  0.810638  0.284043  1
  N  N112  1  0.981027  0.396035  0.642210  1
  N  N113  1  0.018973  0.896035  0.857790  1
  N  N114  1  0.018973  0.603965  0.357790  1
  N  N115  1  0.981027  0.103965  0.142210  1
  N  N116  1  0.171609  0.625489  0.744479  1
  N  N117  1  0.828391  0.125489  0.755521  1
  N  N118  1  0.828391  0.374511  0.255521  1
  N  N119  1  0.171609  0.874511  0.244479  1
  N  N120  1  0.870782  0.126842  0.449657  1
  N  N121  1  0.129218  0.626842  0.050343  1
  N  N122  1  0.129218  0.873158  0.550343  1
  N  N123  1  0.870782  0.373158  0.949657  1
  N  N124  1  0.463881  0.702029  0.795737  1
  N  N125  1  0.536119  0.202029  0.704263  1
  N  N126  1  0.536119  0.297971  0.204263  1
  N  N127  1  0.463881  0.797971  0.295737  1
  N  N128  1  0.760133  0.074632  0.430743  1
  N  N129  1  0.239867  0.574632  0.069257  1
  N  N130  1  0.239867  0.925368  0.569257  1
  N  N131  1  0.760133  0.425368  0.930743  1
  N  N132  1  0.501264  0.799371  0.873328  1
  N  N133  1  0.498736  0.299371  0.626672  1
  N  N134  1  0.498736  0.200629  0.126672  1
  N  N135  1  0.501264  0.700629  0.373328  1
  O  O136  1  0.172475  0.419497  0.884744  1
  O  O137  1  0.827525  0.919497  0.615256  1
  O  O138  1  0.827525  0.580503  0.115256  1
  O  O139  1  0.172475  0.080503  0.384744  1
  O  O140  1  0.089754  0.172775  0.798424  1
  O  O141  1  0.910246  0.672775  0.701576  1
  O  O142  1  0.910246  0.827225  0.201576  1
  O  O143  1  0.089754  0.327225  0.298424  1
  O  O144  1  0.266459  0.287525  0.813892  1
  O  O145  1  0.733541  0.787525  0.686108  1
  O  O146  1  0.733541  0.712475  0.186108  1
  O  O147  1  0.266459  0.212475  0.313892  1
  O  O148  1  0.276064  0.165820  0.948325  1
  O  O149  1  0.723936  0.665820  0.551675  1
  O  O150  1  0.723936  0.834180  0.051675  1
  O  O151  1  0.276064  0.334180  0.448325  1
  O  O152  1  0.064260  0.939376  0.677804  1
  O  O153  1  0.935740  0.439376  0.822196  1
  O  O154  1  0.935740  0.060624  0.322196  1
  O  O155  1  0.064260  0.560624  0.177804  1
  O  O156  1  0.374344  0.083378  0.748062  1
  O  O157  1  0.625656  0.583378  0.751938  1
  O  O158  1  0.625656  0.916622  0.251938  1
  O  O159  1  0.374344  0.416622  0.248062  1
  O  O160  1  0.309353  0.836619  0.941212  1
  O  O161  1  0.690647  0.336619  0.558788  1
  O  O162  1  0.690647  0.163381  0.058788  1
  O  O163  1  0.309353  0.663381  0.441212  1
  O  O164  1  0.504752  0.350955  0.945273  1
  O  O165  1  0.495248  0.850955  0.554727  1
  O  O166  1  0.495248  0.649045  0.054727  1
  O  O167  1  0.504752  0.149045  0.445273  1
