# generated using pymatgen
data_SbP3C(NCl5)3
_symmetry_space_group_name_H-M   'P 1'
_cell_length_a   9.71481599
_cell_length_b   12.33214428
_cell_length_c   13.81391001
_cell_angle_alpha   83.20150226
_cell_angle_beta   87.98282366
_cell_angle_gamma   70.97246822
_symmetry_Int_Tables_number   1
_chemical_formula_structural   SbP3C(NCl5)3
_chemical_formula_sum   'Sb2 P6 C2 N6 Cl30'
_cell_volume   1553.53353347
_cell_formula_units_Z   2
loop_
 _symmetry_equiv_pos_site_id
 _symmetry_equiv_pos_as_xyz
  1  'x, y, z'
loop_
 _atom_site_type_symbol
 _atom_site_label
 _atom_site_symmetry_multiplicity
 _atom_site_fract_x
 _atom_site_fract_y
 _atom_site_fract_z
 _atom_site_occupancy
  Sb  Sb0  1  0.708451  0.764921  0.708610  1
  Sb  Sb1  1  0.291549  0.235079  0.291390  1
  P  P2  1  0.871621  0.202158  0.662207  1
  P  P3  1  0.595055  0.720529  0.212410  1
  P  P4  1  0.219956  0.788564  0.013308  1
  P  P5  1  0.404945  0.279471  0.787590  1
  P  P6  1  0.128379  0.797842  0.337793  1
  P  P7  1  0.780044  0.211436  0.986692  1
  C  C8  1  0.310220  0.766759  0.190956  1
  C  C9  1  0.689780  0.233241  0.809044  1
  N  N10  1  0.198696  0.788992  0.127950  1
  N  N11  1  0.715482  0.225087  0.711069  1
  N  N12  1  0.448259  0.737769  0.157617  1
  N  N13  1  0.284518  0.774913  0.288931  1
  N  N14  1  0.801304  0.211008  0.872050  1
  N  N15  1  0.551741  0.262231  0.842383  1
  Cl  Cl16  1  0.971740  0.687219  0.695633  1
  Cl  Cl17  1  0.976387  0.167726  0.045886  1
  Cl  Cl18  1  0.596350  0.840641  0.296840  1
  Cl  Cl19  1  0.332386  0.638540  0.967072  1
  Cl  Cl20  1  0.315267  0.385769  0.457388  1
  Cl  Cl21  1  0.259199  0.275883  0.891889  1
  Cl  Cl22  1  0.678100  0.568391  0.291158  1
  Cl  Cl23  1  0.310356  0.902907  0.948799  1
  Cl  Cl24  1  0.831025  0.194054  0.521934  1
  Cl  Cl25  1  0.302592  0.106222  0.170305  1
  Cl  Cl26  1  0.645560  0.328435  0.287958  1
  Cl  Cl27  1  0.697408  0.893778  0.829695  1
  Cl  Cl28  1  0.643621  0.468012  0.588659  1
  Cl  Cl29  1  0.689644  0.097093  0.051201  1
  Cl  Cl30  1  0.409731  0.857988  0.687964  1
  Cl  Cl31  1  0.028260  0.312781  0.304367  1
  Cl  Cl32  1  0.168975  0.805946  0.478066  1
  Cl  Cl33  1  0.403650  0.159359  0.703160  1
  Cl  Cl34  1  0.667614  0.361460  0.032928  1
  Cl  Cl35  1  0.709790  0.592915  0.826073  1
  Cl  Cl36  1  0.023613  0.832274  0.954114  1
  Cl  Cl37  1  0.290210  0.407085  0.173927  1
  Cl  Cl38  1  0.356379  0.531988  0.411341  1
  Cl  Cl39  1  0.354440  0.671565  0.712042  1
  Cl  Cl40  1  0.684733  0.614231  0.542612  1
  Cl  Cl41  1  0.590269  0.142012  0.312036  1
  Cl  Cl42  1  0.297499  0.095343  0.439357  1
  Cl  Cl43  1  0.740801  0.724117  0.108111  1
  Cl  Cl44  1  0.321900  0.431609  0.708842  1
  Cl  Cl45  1  0.702501  0.904657  0.560643  1
