# generated using pymatgen
data_Na9Sr2La9Ti20O60
_symmetry_space_group_name_H-M   'P 1'
_cell_length_a   5.52198137
_cell_length_b   5.52080521
_cell_length_c   55.20974822
_cell_angle_alpha   60.09111154
_cell_angle_beta   60.05716681
_cell_angle_gamma   60.11486556
_symmetry_Int_Tables_number   1
_chemical_formula_structural   Na9Sr2La9Ti20O60
_chemical_formula_sum   'Na9 Sr2 La9 Ti20 O60'
_cell_volume   1192.50513710
_cell_formula_units_Z   1
loop_
 _symmetry_equiv_pos_site_id
 _symmetry_equiv_pos_as_xyz
  1  'x, y, z'
loop_
 _atom_site_type_symbol
 _atom_site_label
 _atom_site_symmetry_multiplicity
 _atom_site_fract_x
 _atom_site_fract_y
 _atom_site_fract_z
 _atom_site_occupancy
  Na  Na0  1  0.248093  0.247066  0.125863  1
  Na  Na1  1  0.250919  0.251806  0.224484  1
  Na  Na2  1  0.251805  0.252569  0.324306  1
  Na  Na3  1  0.250467  0.250629  0.424854  1
  Na  Na4  1  0.250255  0.250366  0.524933  1
  Na  Na5  1  0.250278  0.250667  0.624863  1
  Na  Na6  1  0.249896  0.250295  0.724954  1
  Na  Na7  1  0.250944  0.251870  0.824535  1
  Na  Na8  1  0.248854  0.249025  0.925366  1
  Sr  Sr9  1  0.248086  0.246568  0.025900  1
  Sr  Sr10  1  0.747953  0.742360  0.076772  1
  La  La11  1  0.753252  0.747450  0.174850  1
  La  La12  1  0.752231  0.750426  0.274457  1
  La  La13  1  0.753328  0.750996  0.374347  1
  La  La14  1  0.752018  0.749731  0.474809  1
  La  La15  1  0.752360  0.750183  0.574638  1
  La  La16  1  0.750911  0.750056  0.674837  1
  La  La17  1  0.750449  0.749578  0.774913  1
  La  La18  1  0.751802  0.749797  0.875011  1
  La  La19  1  0.751520  0.749482  0.974769  1
  Ti  Ti20  1  0.998399  0.996406  0.000674  1
  Ti  Ti21  1  0.004007  0.986888  0.101553  1
  Ti  Ti22  1  0.496660  0.485198  0.052781  1
  Ti  Ti23  1  0.002280  0.998093  0.199773  1
  Ti  Ti24  1  0.501399  0.497249  0.150488  1
  Ti  Ti25  1  0.503132  0.500368  0.249637  1
  Ti  Ti26  1  0.002414  0.000368  0.399379  1
  Ti  Ti27  1  0.002221  0.001116  0.299248  1
  Ti  Ti28  1  0.504081  0.500979  0.349419  1
  Ti  Ti29  1  0.504349  0.500557  0.449469  1
  Ti  Ti30  1  0.002291  0.000360  0.499419  1
  Ti  Ti31  1  0.503490  0.500021  0.549672  1
  Ti  Ti32  1  0.000870  0.000094  0.699647  1
  Ti  Ti33  1  0.001760  0.999715  0.599583  1
  Ti  Ti34  1  0.502914  0.500421  0.649688  1
  Ti  Ti35  1  0.000661  -0.000150  0.799753  1
  Ti  Ti36  1  0.502435  0.500307  0.749782  1
  Ti  Ti37  1  0.000733  0.001268  0.899595  1
  Ti  Ti38  1  0.502771  0.500329  0.849842  1
  Ti  Ti39  1  0.502654  0.502413  0.949468  1
  O  O40  1  0.212702  0.284087  0.074679  1
  O  O41  1  0.296358  0.754753  0.019917  1
  O  O42  1  0.747788  0.216323  0.028517  1
  O  O43  1  0.246763  0.785625  0.071629  1
  O  O44  1  0.715964  0.249494  0.078638  1
  O  O45  1  0.197675  0.299230  0.175525  1
  O  O46  1  0.783508  0.717353  0.024219  1
  O  O47  1  0.280385  0.748712  0.122309  1
  O  O48  1  0.746373  0.201429  0.130363  1
  O  O49  1  0.247641  0.793605  0.171060  1
  O  O50  1  0.704628  0.249979  0.179678  1
  O  O51  1  0.198447  0.303734  0.274677  1
  O  O52  1  0.787085  0.708011  0.126391  1
  O  O53  1  0.302309  0.749161  0.219782  1
  O  O54  1  0.750577  0.198051  0.230166  1
  O  O55  1  0.250435  0.794664  0.270366  1
  O  O56  1  0.707841  0.252222  0.278950  1
  O  O57  1  0.198542  0.303389  0.374710  1
  O  O58  1  0.793235  0.707027  0.224961  1
  O  O59  1  0.302166  0.751760  0.319470  1
  O  O60  1  0.750540  0.200020  0.329807  1
  O  O61  1  0.251169  0.792942  0.370532  1
  O  O62  1  0.709252  0.250922  0.378836  1
  O  O63  1  0.197080  0.303568  0.474917  1
  O  O64  1  0.792830  0.709642  0.324600  1
  O  O65  1  0.301759  0.751616  0.419628  1
  O  O66  1  0.749228  0.199198  0.430006  1
  O  O67  1  0.250718  0.792856  0.470701  1
  O  O68  1  0.707785  0.250053  0.479068  1
  O  O69  1  0.196794  0.303427  0.574964  1
  O  O70  1  0.792432  0.708681  0.424767  1
  O  O71  1  0.300531  0.751527  0.519823  1
  O  O72  1  0.748525  0.199692  0.530058  1
  O  O73  1  0.250394  0.793211  0.570727  1
  O  O74  1  0.707432  0.249970  0.579144  1
  O  O75  1  0.196464  0.302879  0.675105  1
  O  O76  1  0.792177  0.708116  0.524883  1
  O  O77  1  0.301096  0.751125  0.619829  1
  O  O78  1  0.748502  0.198955  0.630191  1
  O  O79  1  0.250088  0.792605  0.670863  1
  O  O80  1  0.707223  0.249375  0.679283  1
  O  O81  1  0.196555  0.302408  0.775164  1
  O  O82  1  0.792048  0.707825  0.624986  1
  O  O83  1  0.300972  0.750402  0.719961  1
  O  O84  1  0.748399  0.198033  0.730318  1
  O  O85  1  0.250426  0.791510  0.770978  1
  O  O86  1  0.707738  0.248668  0.779294  1
  O  O87  1  0.195575  0.302920  0.875171  1
  O  O88  1  0.791873  0.707150  0.725132  1
  O  O89  1  0.300421  0.750631  0.820020  1
  O  O90  1  0.747997  0.198479  0.830316  1
  O  O91  1  0.249617  0.792027  0.870990  1
  O  O92  1  0.706302  0.247680  0.879402  1
  O  O93  1  0.198218  0.303375  0.975381  1
  O  O94  1  0.791472  0.707015  0.825202  1
  O  O95  1  0.299109  0.751395  0.920078  1
  O  O96  1  0.747791  0.200453  0.930071  1
  O  O97  1  0.250358  0.789066  0.971268  1
  O  O98  1  0.705954  0.251213  0.979040  1
  O  O99  1  0.791787  0.707837  0.925158  1
