# generated using pymatgen
data_U12O19
_symmetry_space_group_name_H-M   'P 1'
_cell_length_a   3.85025321
_cell_length_b   3.85009408
_cell_length_c   45.63447802
_cell_angle_alpha   59.58825710
_cell_angle_beta   59.59185102
_cell_angle_gamma   59.99834325
_symmetry_Int_Tables_number   1
_chemical_formula_structural   U12O19
_chemical_formula_sum   'U12 O19'
_cell_volume   475.35092556
_cell_formula_units_Z   1
loop_
 _symmetry_equiv_pos_site_id
 _symmetry_equiv_pos_as_xyz
  1  'x, y, z'
loop_
 _atom_site_type_symbol
 _atom_site_label
 _atom_site_symmetry_multiplicity
 _atom_site_fract_x
 _atom_site_fract_y
 _atom_site_fract_z
 _atom_site_occupancy
  U  U0  1  0.001682  0.001707  0.999574  1
  U  U1  1  0.995788  0.995874  0.084365  1
  U  U2  1  0.000717  0.000738  0.166485  1
  U  U3  1  0.005806  0.005782  0.248549  1
  U  U4  1  0.997025  0.997068  0.334075  1
  U  U5  1  0.995834  0.995983  0.501031  1
  U  U6  1  0.003048  0.002980  0.415926  1
  U  U7  1  0.999644  0.999606  0.583416  1
  U  U8  1  0.004304  0.004309  0.665579  1
  U  U9  1  0.998007  0.997994  0.750498  1
  U  U10  1  0.995321  0.995314  0.917852  1
  U  U11  1  0.003761  0.003707  0.832407  1
  O  O12  1  0.234157  0.234180  0.024793  1
  O  O13  1  0.269901  0.269856  0.099201  1
  O  O14  1  0.249904  0.249901  0.187523  1
  O  O15  1  0.750704  0.750704  0.145654  1
  O  O16  1  0.248982  0.248980  0.354416  1
  O  O17  1  0.730501  0.730523  0.234038  1
  O  O18  1  0.233981  0.233991  0.441510  1
  O  O19  1  0.764547  0.764517  0.308861  1
  O  O20  1  0.270395  0.270300  0.515742  1
  O  O21  1  0.751084  0.751070  0.395572  1
  O  O22  1  0.249772  0.249734  0.604223  1
  O  O23  1  0.750831  0.750887  0.562278  1
  O  O24  1  0.730031  0.730043  0.650830  1
  O  O25  1  0.250578  0.250583  0.770685  1
  O  O26  1  0.766574  0.766574  0.725023  1
  O  O27  1  0.733879  0.733922  0.816522  1
  O  O28  1  0.248292  0.248247  0.937935  1
  O  O29  1  0.764944  0.764909  0.892106  1
  O  O30  1  0.750005  0.750016  0.979165  1
