# generated using pymatgen
data_Cd2SnO4
_symmetry_space_group_name_H-M   'P 1'
_cell_length_a   6.65816762
_cell_length_b   6.65816701
_cell_length_c   6.56178191
_cell_angle_alpha   60.47773068
_cell_angle_beta   60.47773357
_cell_angle_gamma   59.27498724
_symmetry_Int_Tables_number   1
_chemical_formula_structural   Cd2SnO4
_chemical_formula_sum   'Cd4 Sn2 O8'
_cell_volume   205.98958878
_cell_formula_units_Z   2
loop_
 _symmetry_equiv_pos_site_id
 _symmetry_equiv_pos_as_xyz
  1  'x, y, z'
loop_
 _atom_site_type_symbol
 _atom_site_label
 _atom_site_symmetry_multiplicity
 _atom_site_fract_x
 _atom_site_fract_y
 _atom_site_fract_z
 _atom_site_occupancy
  Cd  Cd0  1  0.109644  0.109644  0.140356  1
  Cd  Cd1  1  0.500000  0.500000  0.000000  1
  Cd  Cd2  1  0.500000  0.500000  0.500000  1
  Cd  Cd3  1  0.890356  0.890356  0.859644  1
  Sn  Sn4  1  0.500000  0.000000  0.500000  1
  Sn  Sn5  1  0.000000  0.500000  0.500000  1
  O  O6  1  0.248543  0.248543  0.286122  1
  O  O7  1  0.248543  0.248543  0.716792  1
  O  O8  1  0.229455  0.703446  0.283550  1
  O  O9  1  0.703446  0.229455  0.283550  1
  O  O10  1  0.296554  0.770545  0.716450  1
  O  O11  1  0.770545  0.296554  0.716450  1
  O  O12  1  0.751457  0.751457  0.283208  1
  O  O13  1  0.751457  0.751457  0.713878  1
