# generated using pymatgen
data_Na7AlSn11(PO4)18
_symmetry_space_group_name_H-M   'P 1'
_cell_length_a   9.06037960
_cell_length_b   9.05622050
_cell_length_c   27.17313546
_cell_angle_alpha   57.14136012
_cell_angle_beta   57.22871362
_cell_angle_gamma   57.14170836
_symmetry_Int_Tables_number   1
_chemical_formula_structural   Na7AlSn11(PO4)18
_chemical_formula_sum   'Na7 Al1 Sn11 P18 O72'
_cell_volume   1473.81670635
_cell_formula_units_Z   1
loop_
 _symmetry_equiv_pos_site_id
 _symmetry_equiv_pos_as_xyz
  1  'x, y, z'
loop_
 _atom_site_type_symbol
 _atom_site_label
 _atom_site_symmetry_multiplicity
 _atom_site_fract_x
 _atom_site_fract_y
 _atom_site_fract_z
 _atom_site_occupancy
  Na  Na0  1  0.995195  0.001576  0.002065  1
  Na  Na1  1  0.500818  0.499778  0.166269  1
  Na  Na2  1  0.000149  0.000211  0.333188  1
  Na  Na3  1  0.500154  0.500166  0.499871  1
  Na  Na4  1  0.000074  0.999410  0.666831  1
  Na  Na5  1  0.505380  0.495556  0.833895  1
  Na  Na6  1  0.242762  0.902386  0.869227  1
  Al  Al7  1  0.654861  0.643628  0.883224  1
  Sn  Sn8  1  0.144936  0.147952  0.047358  1
  Sn  Sn9  1  0.353235  0.353136  0.117002  1
  Sn  Sn10  1  0.145672  0.145755  0.381754  1
  Sn  Sn11  1  0.352260  0.352342  0.450635  1
  Sn  Sn12  1  0.647971  0.647591  0.215883  1
  Sn  Sn13  1  0.145132  0.144515  0.715564  1
  Sn  Sn14  1  0.854439  0.854697  0.284704  1
  Sn  Sn15  1  0.351731  0.353699  0.784402  1
  Sn  Sn16  1  0.647828  0.647761  0.549143  1
  Sn  Sn17  1  0.855480  0.854348  0.617673  1
  Sn  Sn18  1  0.846298  0.851801  0.952911  1
  P  P19  1  0.041702  0.750748  0.152449  1
  P  P20  1  0.457289  0.041676  0.250201  1
  P  P21  1  0.747948  0.459762  0.011013  1
  P  P22  1  0.249549  0.542804  0.319335  1
  P  P23  1  0.541804  0.958604  0.083206  1
  P  P24  1  0.041880  0.750447  0.485674  1
  P  P25  1  0.959155  0.249468  0.180639  1
  P  P26  1  0.457476  0.041638  0.583501  1
  P  P27  1  0.750455  0.457444  0.347284  1
  P  P28  1  0.249834  0.542147  0.652845  1
  P  P29  1  0.542745  0.958270  0.416416  1
  P  P30  1  0.032675  0.749247  0.820539  1
  P  P31  1  0.958527  0.249443  0.514138  1
  P  P32  1  0.459259  0.033144  0.915958  1
  P  P33  1  0.750435  0.457758  0.680513  1
  P  P34  1  0.257457  0.542473  0.984574  1
  P  P35  1  0.549168  0.953648  0.750616  1
  P  P36  1  0.948961  0.259965  0.847975  1
  O  O37  1  0.135969  0.254854  0.174333  1
  O  O38  1  0.254233  0.523182  0.045019  1
  O  O39  1  0.094436  0.902246  0.087604  1
  O  O40  1  0.523753  0.135136  0.084830  1
  O  O41  1  0.207066  0.560734  0.155022  1
  O  O42  1  0.011227  0.797837  0.204432  1
  O  O43  1  0.263062  0.094427  0.300616  1
  O  O44  1  0.464532  0.207244  0.186981  1
  O  O45  1  0.561558  0.463751  0.068139  1
  O  O46  1  0.202103  0.386971  0.329548  1
  O  O47  1  0.098063  0.737285  0.301763  1
  O  O48  1  0.386447  0.989225  0.067151  1
  O  O49  1  0.612845  0.011182  0.266133  1
  O  O50  1  0.900979  0.264850  0.029428  1
  O  O51  1  0.135388  0.254490  0.507889  1
  O  O52  1  0.797991  0.609787  0.004201  1
  O  O53  1  0.254264  0.523808  0.378436  1
  O  O54  1  0.439126  0.535392  0.264321  1
  O  O55  1  0.535342  0.792594  0.146346  1
  O  O56  1  0.094703  0.901798  0.420951  1
  O  O57  1  0.523655  0.135268  0.418186  1
  O  O58  1  0.736912  0.905607  0.032758  1
  O  O59  1  0.207237  0.560491  0.488279  1
  O  O60  1  0.989422  0.201752  0.128724  1
  O  O61  1  0.011740  0.797689  0.537585  1
  O  O62  1  0.792944  0.439086  0.178450  1
  O  O63  1  0.263067  0.094455  0.634007  1
  O  O64  1  0.476477  0.864329  0.248590  1
  O  O65  1  0.905581  0.098499  0.245604  1
  O  O66  1  0.464698  0.207218  0.520275  1
  O  O67  1  0.560944  0.464571  0.402417  1
  O  O68  1  0.745402  0.476290  0.288298  1
  O  O69  1  0.202281  0.386247  0.662963  1
  O  O70  1  0.864613  0.745722  0.158777  1
  O  O71  1  0.098636  0.736795  0.635026  1
  O  O72  1  0.386770  0.988710  0.400718  1
  O  O73  1  0.612762  0.011129  0.599579  1
  O  O74  1  0.901718  0.262741  0.364996  1
  O  O75  1  0.136918  0.249146  0.841040  1
  O  O76  1  0.797882  0.613176  0.337142  1
  O  O77  1  0.254529  0.523145  0.711917  1
  O  O78  1  0.439190  0.535231  0.597666  1
  O  O79  1  0.535207  0.792772  0.479741  1
  O  O80  1  0.088704  0.901313  0.755374  1
  O  O81  1  0.522471  0.135426  0.751688  1
  O  O82  1  0.736945  0.905202  0.366117  1
  O  O83  1  0.204300  0.562146  0.821602  1
  O  O84  1  0.988896  0.201950  0.462262  1
  O  O85  1  0.014779  0.800096  0.870513  1
  O  O86  1  0.792829  0.439173  0.511756  1
  O  O87  1  0.264971  0.088502  0.966773  1
  O  O88  1  0.476552  0.864455  0.581882  1
  O  O89  1  0.905458  0.098277  0.578965  1
  O  O90  1  0.463708  0.205308  0.853677  1
  O  O91  1  0.561020  0.465413  0.735658  1
  O  O92  1  0.745539  0.476598  0.621480  1
  O  O93  1  0.207794  0.387409  0.994884  1
  O  O94  1  0.864615  0.745600  0.492157  1
  O  O95  1  0.099537  0.737400  0.967233  1
  O  O96  1  0.384951  0.983769  0.737854  1
  O  O97  1  0.610713  0.011130  0.932287  1
  O  O98  1  0.901678  0.262975  0.698179  1
  O  O99  1  0.798296  0.613366  0.670311  1
  O  O100  1  0.441516  0.552707  0.928668  1
  O  O101  1  0.549682  0.789714  0.813814  1
  O  O102  1  0.739256  0.905132  0.698689  1
  O  O103  1  0.986044  0.206575  0.796040  1
  O  O104  1  0.788442  0.447031  0.848713  1
  O  O105  1  0.487913  0.858095  0.910767  1
  O  O106  1  0.909837  0.095029  0.911361  1
  O  O107  1  0.735360  0.492510  0.951927  1
  O  O108  1  0.855828  0.735845  0.831678  1
