# generated using pymatgen
data_Li13(Mn3As4)2
_symmetry_space_group_name_H-M   'P 1'
_cell_length_a   6.03869468
_cell_length_b   12.08580346
_cell_length_c   8.61995652
_cell_angle_alpha   45.38442622
_cell_angle_beta   89.95989687
_cell_angle_gamma   89.99091475
_symmetry_Int_Tables_number   1
_chemical_formula_structural   Li13(Mn3As4)2
_chemical_formula_sum   'Li13 Mn6 As8'
_cell_volume   447.81945678
_cell_formula_units_Z   1
loop_
 _symmetry_equiv_pos_site_id
 _symmetry_equiv_pos_as_xyz
  1  'x, y, z'
loop_
 _atom_site_type_symbol
 _atom_site_label
 _atom_site_symmetry_multiplicity
 _atom_site_fract_x
 _atom_site_fract_y
 _atom_site_fract_z
 _atom_site_occupancy
  Li  Li0  1  0.016181  0.997254  0.017484  1
  Li  Li1  1  0.012390  0.752026  0.508169  1
  Li  Li2  1  0.983407  0.997546  0.493611  1
  Li  Li3  1  0.247486  0.006692  0.748860  1
  Li  Li4  1  0.472019  0.498289  0.502348  1
  Li  Li5  1  0.517210  0.998813  0.493246  1
  Li  Li6  1  0.499888  0.262098  0.477453  1
  Li  Li7  1  0.488600  0.752266  0.508529  1
  Li  Li8  1  0.483100  0.996902  0.016145  1
  Li  Li9  1  0.749722  0.239947  0.756504  1
  Li  Li10  1  0.750330  0.753888  0.253645  1
  Li  Li11  1  0.998184  0.262374  0.476398  1
  Li  Li12  1  0.026110  0.497839  0.502594  1
  Mn  Mn13  1  0.490588  0.247331  0.009348  1
  Mn  Mn14  1  0.499979  0.741647  0.000819  1
  Mn  Mn15  1  0.501983  0.500175  0.000272  1
  Mn  Mn16  1  0.005748  0.247566  0.010228  1
  Mn  Mn17  1  0.996380  0.500415  0.999360  1
  Mn  Mn18  1  -0.000191  0.740342  0.001712  1
  As  As19  1  0.248776  0.243820  0.757146  1
  As  As20  1  0.249442  0.740749  0.768863  1
  As  As21  1  0.249650  0.255145  0.244206  1
  As  As22  1  0.249294  0.751779  0.235014  1
  As  As23  1  0.749081  0.004718  0.235250  1
  As  As24  1  0.749366  0.502919  0.243135  1
  As  As25  1  0.749924  0.991215  0.769926  1
  As  As26  1  0.748156  0.493530  0.760092  1
