# generated using pymatgen
data_U2Se3
_symmetry_space_group_name_H-M   'P 1'
_cell_length_a   3.98649010
_cell_length_b   11.06962258
_cell_length_c   10.99466783
_cell_angle_alpha   89.98555729
_cell_angle_beta   90.00118776
_cell_angle_gamma   89.99900654
_symmetry_Int_Tables_number   1
_chemical_formula_structural   U2Se3
_chemical_formula_sum   'U8 Se12'
_cell_volume   485.18303036
_cell_formula_units_Z   4
loop_
 _symmetry_equiv_pos_site_id
 _symmetry_equiv_pos_as_xyz
  1  'x, y, z'
loop_
 _atom_site_type_symbol
 _atom_site_label
 _atom_site_symmetry_multiplicity
 _atom_site_fract_x
 _atom_site_fract_y
 _atom_site_fract_z
 _atom_site_occupancy
  U  U0  1  0.750020  0.013171  0.684022  1
  U  U1  1  0.750008  0.189746  0.009374  1
  U  U2  1  0.250014  0.310161  0.509374  1
  U  U3  1  0.749979  0.689848  0.490660  1
  U  U4  1  0.250043  0.486877  0.183915  1
  U  U5  1  0.749998  0.513155  0.816019  1
  U  U6  1  0.249986  0.810274  0.990636  1
  U  U7  1  0.249998  0.986859  0.316022  1
  Se  Se8  1  0.250000  0.375079  0.945100  1
  Se  Se9  1  0.749993  0.948438  0.128630  1
  Se  Se10  1  0.249996  0.051589  0.871410  1
  Se  Se11  1  0.249992  0.225352  0.204871  1
  Se  Se12  1  0.250005  0.725429  0.295104  1
  Se  Se13  1  0.749995  0.448342  0.371519  1
  Se  Se14  1  0.749994  0.774621  0.795136  1
  Se  Se15  1  0.250003  0.551582  0.628527  1
  Se  Se16  1  0.749985  0.274583  0.704824  1
  Se  Se17  1  0.749995  0.124839  0.445241  1
  Se  Se18  1  0.749995  0.624884  0.054779  1
  Se  Se19  1  0.250001  0.875171  0.554836  1
