# generated using pymatgen
data_K4W11O35
_symmetry_space_group_name_H-M   'P 1'
_cell_length_a   7.35737352
_cell_length_b   7.53156435
_cell_length_c   17.46185343
_cell_angle_alpha   88.60221221
_cell_angle_beta   95.07304812
_cell_angle_gamma   120.05817245
_symmetry_Int_Tables_number   1
_chemical_formula_structural   K4W11O35
_chemical_formula_sum   'K4 W11 O35'
_cell_volume   833.97652725
_cell_formula_units_Z   1
loop_
 _symmetry_equiv_pos_site_id
 _symmetry_equiv_pos_as_xyz
  1  'x, y, z'
loop_
 _atom_site_type_symbol
 _atom_site_label
 _atom_site_symmetry_multiplicity
 _atom_site_fract_x
 _atom_site_fract_y
 _atom_site_fract_z
 _atom_site_occupancy
  K  K0  1  0.065496  0.118496  0.013582  1
  K  K1  1  0.999035  0.979567  0.243451  1
  K  K2  1  0.093056  0.070357  0.748947  1
  K  K3  1  0.938982  0.820661  0.493849  1
  W  W4  1  0.985147  0.524311  0.863035  1
  W  W5  1  0.036885  0.535795  0.152683  1
  W  W6  1  0.015593  0.511780  0.636221  1
  W  W7  1  0.453231  0.488874  0.343171  1
  W  W8  1  0.504332  0.535627  0.908713  1
  W  W9  1  0.539193  0.551059  0.130975  1
  W  W10  1  0.502065  0.506127  0.633704  1
  W  W11  1  0.513861  0.038162  0.140700  1
  W  W12  1  0.541698  0.032830  0.667533  1
  W  W13  1  0.516908  0.035792  0.383136  1
  W  W14  1  0.541702  0.952452  0.837504  1
  O  O15  1  0.992839  0.546126  0.762184  1
  O  O16  1  0.236515  0.893747  0.374049  1
  O  O17  1  0.261233  0.840666  0.856800  1
  O  O18  1  0.247874  0.813584  0.182467  1
  O  O19  1  0.015692  0.504957  0.535620  1
  O  O20  1  0.248521  0.460391  0.133758  1
  O  O21  1  0.233591  0.433239  0.670499  1
  O  O22  1  0.179238  0.346337  0.319493  1
  O  O23  1  0.193029  0.481903  0.918945  1
  O  O24  1  0.524500  0.720849  0.397150  1
  O  O25  1  0.473795  0.654192  0.816485  1
  O  O26  1  0.613407  0.829480  0.137071  1
  O  O27  1  0.574986  0.790587  0.645991  1
  O  O28  1  0.430148  0.439988  0.535371  1
  O  O29  1  0.519758  0.533056  0.019421  1
  O  O30  1  0.554761  0.318341  0.384672  1
  O  O31  1  0.407320  0.278982  0.879051  1
  O  O32  1  0.449929  0.265441  0.142771  1
  O  O33  1  0.480704  0.266437  0.685870  1
  O  O34  1  0.676655  -0.000015  0.305541  1
  O  O35  1  0.702061  0.876836  0.931760  1
  O  O36  1  0.600451  0.126328  0.261420  1
  O  O37  1  0.823275  0.958138  0.862775  1
  O  O38  1  0.827928  0.629795  0.143880  1
  O  O39  1  0.799027  0.605431  0.635019  1
  O  O40  1  0.571678  0.571914  0.252288  1
  O  O41  1  0.809143  0.605519  0.905507  1
  O  O42  1  0.536397  0.073725  0.026644  1
  O  O43  1  0.321929  0.922705  0.043470  1
  O  O44  1  0.272236  0.923928  0.596637  1
  O  O45  1  0.210236  0.825741  0.672651  1
  O  O46  1  0.618277  0.058689  0.479532  1
  O  O47  1  0.763627  0.257219  0.858854  1
  O  O48  1  0.825687  0.256515  0.141074  1
  O  O49  1  0.826368  0.215739  0.662576  1
