# generated using pymatgen
data_Yb2EuS4
_symmetry_space_group_name_H-M   'P 1'
_cell_length_a   7.18034945
_cell_length_b   7.18034959
_cell_length_c   7.18034996
_cell_angle_alpha   109.52123915
_cell_angle_beta   109.52123953
_cell_angle_gamma   109.37123007
_symmetry_Int_Tables_number   1
_chemical_formula_structural   Yb2EuS4
_chemical_formula_sum   'Yb4 Eu2 S8'
_cell_volume   284.97968093
_cell_formula_units_Z   2
loop_
 _symmetry_equiv_pos_site_id
 _symmetry_equiv_pos_as_xyz
  1  'x, y, z'
loop_
 _atom_site_type_symbol
 _atom_site_label
 _atom_site_symmetry_multiplicity
 _atom_site_fract_x
 _atom_site_fract_y
 _atom_site_fract_z
 _atom_site_occupancy
  Eu  Eu0  1  0.625000  0.375000  0.250000  1
  Eu  Eu1  1  0.875000  0.125000  0.750000  1
  Yb  Yb2  1  0.125036  0.750000  0.875036  1
  Yb  Yb3  1  0.250000  0.625036  0.375036  1
  Yb  Yb4  1  0.374964  0.250000  0.624964  1
  Yb  Yb5  1  0.750000  0.874964  0.124964  1
  S  S6  1  0.165448  0.165471  0.165240  1
  S  S7  1  0.334552  0.499792  0.000023  1
  S  S8  1  0.665471  0.665448  0.665240  1
  S  S9  1  0.500208  0.000231  0.834760  1
  S  S10  1  0.500231  0.000208  0.334760  1
  S  S11  1  0.999792  0.834552  0.500023  1
  S  S12  1  0.834529  0.499769  0.999977  1
  S  S13  1  0.999769  0.334529  0.499977  1
