# generated using pymatgen
data_NaBrO3
_symmetry_space_group_name_H-M   'P 1'
_cell_length_a   7.49163159
_cell_length_b   7.71430797
_cell_length_c   7.37299384
_cell_angle_alpha   89.94890409
_cell_angle_beta   89.68948771
_cell_angle_gamma   89.80407584
_symmetry_Int_Tables_number   1
_chemical_formula_structural   NaBrO3
_chemical_formula_sum   'Na4 Br4 O12'
_cell_volume   426.09670288
_cell_formula_units_Z   4
loop_
 _symmetry_equiv_pos_site_id
 _symmetry_equiv_pos_as_xyz
  1  'x, y, z'
loop_
 _atom_site_type_symbol
 _atom_site_label
 _atom_site_symmetry_multiplicity
 _atom_site_fract_x
 _atom_site_fract_y
 _atom_site_fract_z
 _atom_site_occupancy
  Na  Na0  1  0.628266  0.460545  0.899246  1
  Na  Na1  1  0.370466  0.961348  0.601621  1
  Na  Na2  1  0.871165  0.539943  0.397362  1
  Na  Na3  1  0.128805  0.039367  0.102282  1
  Br  Br4  1  0.135723  0.645431  0.881413  1
  Br  Br5  1  0.366821  0.353416  0.382003  1
  Br  Br6  1  0.867648  0.146609  0.616875  1
  Br  Br7  1  0.633460  0.854867  0.119024  1
  O  O8  1  0.281470  0.137410  0.362595  1
  O  O9  1  0.973550  0.330867  0.160518  1
  O  O10  1  0.895779  0.290808  0.013162  1
  O  O11  1  0.400097  0.205912  0.989883  1
  O  O12  1  0.101150  0.794801  0.489827  1
  O  O13  1  0.593980  0.699996  0.506912  1
  O  O14  1  0.218257  0.862460  0.863437  1
  O  O15  1  0.782672  0.363147  0.637195  1
  O  O16  1  0.025728  0.829904  0.338723  1
  O  O17  1  0.530987  0.674623  0.665262  1
  O  O18  1  0.473928  0.170021  0.837551  1
  O  O19  1  0.720052  0.638527  0.135108  1
