# generated using pymatgen
data_V3(HO2)4
_symmetry_space_group_name_H-M   'P 1'
_cell_length_a   9.04041936
_cell_length_b   9.04041936
_cell_length_c   5.82338528
_cell_angle_alpha   83.31957481
_cell_angle_beta   96.68042519
_cell_angle_gamma   156.00041227
_symmetry_Int_Tables_number   1
_chemical_formula_structural   V3(HO2)4
_chemical_formula_sum   'V3 H4 O8'
_cell_volume   192.20541206
_cell_formula_units_Z   1
loop_
 _symmetry_equiv_pos_site_id
 _symmetry_equiv_pos_as_xyz
  1  'x, y, z'
loop_
 _atom_site_type_symbol
 _atom_site_label
 _atom_site_symmetry_multiplicity
 _atom_site_fract_x
 _atom_site_fract_y
 _atom_site_fract_z
 _atom_site_occupancy
  V  V0  1  0.010288  0.989712  0.517611  1
  V  V1  1  0.810852  0.189148  0.640978  1
  V  V2  1  0.199618  0.800382  0.345497  1
  H  H3  1  0.914249  0.085751  0.105897  1
  H  H4  1  0.001679  0.998321  0.041641  1
  H  H5  1  0.794500  0.205500  0.079731  1
  H  H6  1  0.215115  0.784885  0.904429  1
  O  O7  1  0.969951  0.030049  0.178013  1
  O  O8  1  0.030386  0.969614  0.804154  1
  O  O9  1  0.897272  0.102728  0.539838  1
  O  O10  1  0.106115  0.893885  0.427347  1
  O  O11  1  0.833026  0.166974  0.971913  1
  O  O12  1  0.185994  0.814006  0.038855  1
  O  O13  1  0.731583  0.268417  0.374381  1
  O  O14  1  0.268778  0.731222  0.635778  1
