# generated using pymatgen
data_Ca3Be2Si3(HO6)2
_symmetry_space_group_name_H-M   'P 1'
_cell_length_a   9.88508774
_cell_length_b   9.88508774
_cell_length_c   9.98653953
_cell_angle_alpha   90.00000000
_cell_angle_beta   90.00000000
_cell_angle_gamma   90.00000000
_symmetry_Int_Tables_number   1
_chemical_formula_structural   Ca3Be2Si3(HO6)2
_chemical_formula_sum   'Ca12 Be8 Si12 H8 O48'
_cell_volume   975.83430699
_cell_formula_units_Z   4
loop_
 _symmetry_equiv_pos_site_id
 _symmetry_equiv_pos_as_xyz
  1  'x, y, z'
loop_
 _atom_site_type_symbol
 _atom_site_label
 _atom_site_symmetry_multiplicity
 _atom_site_fract_x
 _atom_site_fract_y
 _atom_site_fract_z
 _atom_site_occupancy
  Ca  Ca0  1  0.438126  0.041864  0.260844  1
  Ca  Ca1  1  0.061874  0.458136  0.260844  1
  Ca  Ca2  1  0.541864  0.561874  0.760844  1
  Ca  Ca3  1  0.958136  0.938126  0.760844  1
  Ca  Ca4  1  0.561874  0.958136  0.739156  1
  Ca  Ca5  1  0.938126  0.541864  0.739156  1
  Ca  Ca6  1  0.458136  0.438126  0.239156  1
  Ca  Ca7  1  0.041864  0.061874  0.239156  1
  Ca  Ca8  1  0.750000  0.250000  0.243778  1
  Ca  Ca9  1  0.750000  0.250000  0.743778  1
  Ca  Ca10  1  0.250000  0.750000  0.756222  1
  Ca  Ca11  1  0.250000  0.750000  0.256222  1
  Be  Be12  1  0.767633  0.036253  0.975161  1
  Be  Be13  1  0.732367  0.463747  0.975161  1
  Be  Be14  1  0.536253  0.232367  0.475161  1
  Be  Be15  1  0.963747  0.267633  0.475161  1
  Be  Be16  1  0.232367  0.963747  0.024839  1
  Be  Be17  1  0.267633  0.536253  0.024839  1
  Be  Be18  1  0.463747  0.767633  0.524839  1
  Be  Be19  1  0.036253  0.732367  0.524839  1
  Si  Si20  1  0.765375  0.039125  0.473779  1
  Si  Si21  1  0.734625  0.460875  0.473779  1
  Si  Si22  1  0.539125  0.234625  0.973779  1
  Si  Si23  1  0.960875  0.265375  0.973779  1
  Si  Si24  1  0.234625  0.960875  0.526221  1
  Si  Si25  1  0.265375  0.539125  0.526221  1
  Si  Si26  1  0.460875  0.765375  0.026221  1
  Si  Si27  1  0.039125  0.734625  0.026221  1
  Si  Si28  1  0.250000  0.250000  0.485535  1
  Si  Si29  1  0.750000  0.750000  0.985535  1
  Si  Si30  1  0.750000  0.750000  0.514465  1
  Si  Si31  1  0.250000  0.250000  0.014465  1
  H  H32  1  0.551799  0.759427  0.322116  1
  H  H33  1  0.948201  0.740573  0.322116  1
  H  H34  1  0.259427  0.448201  0.822116  1
  H  H35  1  0.240573  0.051799  0.822116  1
  H  H36  1  0.448201  0.240573  0.677884  1
  H  H37  1  0.051799  0.259427  0.677884  1
  H  H38  1  0.740573  0.551799  0.177884  1
  H  H39  1  0.759427  0.948201  0.177884  1
  O  O40  1  0.372218  0.892064  0.590522  1
  O  O41  1  0.127782  0.607936  0.590522  1
  O  O42  1  0.392064  0.627782  0.090522  1
  O  O43  1  0.107936  0.872218  0.090522  1
  O  O44  1  0.627782  0.107936  0.409478  1
  O  O45  1  0.872218  0.392064  0.409478  1
  O  O46  1  0.607936  0.372218  0.909478  1
  O  O47  1  0.892064  0.127782  0.909478  1
  O  O48  1  0.894667  0.125132  0.415580  1
  O  O49  1  0.605333  0.374868  0.415580  1
  O  O50  1  0.625132  0.105333  0.915580  1
  O  O51  1  0.874868  0.394667  0.915580  1
  O  O52  1  0.105333  0.874868  0.584420  1
  O  O53  1  0.394667  0.625132  0.584420  1
  O  O54  1  0.374868  0.894667  0.084420  1
  O  O55  1  0.125132  0.605333  0.084420  1
  O  O56  1  0.112352  0.269587  0.397138  1
  O  O57  1  0.387648  0.230413  0.397138  1
  O  O58  1  0.769587  0.887648  0.897138  1
  O  O59  1  0.730413  0.612352  0.897138  1
  O  O60  1  0.887648  0.730413  0.602862  1
  O  O61  1  0.612352  0.769587  0.602862  1
  O  O62  1  0.230413  0.112352  0.102862  1
  O  O63  1  0.269587  0.387648  0.102862  1
  O  O64  1  0.726202  0.618229  0.414038  1
  O  O65  1  0.773798  0.881771  0.414038  1
  O  O66  1  0.118229  0.273798  0.914038  1
  O  O67  1  0.381771  0.226202  0.914038  1
  O  O68  1  0.273798  0.381771  0.585962  1
  O  O69  1  0.226202  0.118229  0.585962  1
  O  O70  1  0.881771  0.726202  0.085962  1
  O  O71  1  0.618229  0.773798  0.085962  1
  O  O72  1  0.031293  0.707484  0.363898  1
  O  O73  1  0.468707  0.792516  0.363898  1
  O  O74  1  0.207484  0.968707  0.863898  1
  O  O75  1  0.292516  0.531293  0.863898  1
  O  O76  1  0.968707  0.292516  0.636102  1
  O  O77  1  0.531293  0.207484  0.636102  1
  O  O78  1  0.792516  0.031293  0.136102  1
  O  O79  1  0.707484  0.468707  0.136102  1
  O  O80  1  0.232801  0.964332  0.362902  1
  O  O81  1  0.267199  0.535668  0.362902  1
  O  O82  1  0.464332  0.767199  0.862902  1
  O  O83  1  0.035668  0.732801  0.862902  1
  O  O84  1  0.767199  0.035668  0.637098  1
  O  O85  1  0.732801  0.464332  0.637098  1
  O  O86  1  0.535668  0.232801  0.137098  1
  O  O87  1  0.964332  0.267199  0.137098  1
