# generated using pymatgen
data_Sr3Nb2CoO9
_symmetry_space_group_name_H-M   'P 1'
_cell_length_a   5.54593352
_cell_length_b   11.52748204
_cell_length_c   15.46938913
_cell_angle_alpha   75.33595551
_cell_angle_beta   90.00000000
_cell_angle_gamma   90.00000000
_symmetry_Int_Tables_number   1
_chemical_formula_structural   Sr3Nb2CoO9
_chemical_formula_sum   'Sr12 Nb8 Co4 O36'
_cell_volume   956.75423813
_cell_formula_units_Z   4
loop_
 _symmetry_equiv_pos_site_id
 _symmetry_equiv_pos_as_xyz
  1  'x, y, z'
loop_
 _atom_site_type_symbol
 _atom_site_label
 _atom_site_symmetry_multiplicity
 _atom_site_fract_x
 _atom_site_fract_y
 _atom_site_fract_z
 _atom_site_occupancy
  Sr  Sr0  1  0.995660  0.044237  0.290122  1
  Sr  Sr1  1  0.491623  0.112842  0.564262  1
  Sr  Sr2  1  0.990720  0.305084  0.438712  1
  Sr  Sr3  1  0.495660  0.455763  0.209878  1
  Sr  Sr4  1  0.004340  0.955763  0.709878  1
  Sr  Sr5  1  0.490720  0.194916  0.061288  1
  Sr  Sr6  1  0.008377  0.612842  0.064262  1
  Sr  Sr7  1  0.508377  0.887158  0.435738  1
  Sr  Sr8  1  0.509280  0.805084  0.938712  1
  Sr  Sr9  1  0.991623  0.387158  0.935738  1
  Sr  Sr10  1  0.009280  0.694916  0.561288  1
  Sr  Sr11  1  0.504340  0.544237  0.790122  1
  Nb  Nb12  1  0.507465  0.669659  0.326288  1
  Nb  Nb13  1  0.007465  0.830341  0.173712  1
  Nb  Nb14  1  0.992535  0.169659  0.826288  1
  Nb  Nb15  1  0.996904  0.677032  0.837946  1
  Nb  Nb16  1  0.496904  0.822968  0.662054  1
  Nb  Nb17  1  0.003096  0.322968  0.162054  1
  Nb  Nb18  1  0.492535  0.330341  0.673712  1
  Nb  Nb19  1  0.503096  0.177032  0.337946  1
  Co  Co20  1  0.000000  0.000000  0.000000  1
  Co  Co21  1  0.500000  0.500000  0.500000  1
  Co  Co22  1  0.000000  0.000000  0.500000  1
  Co  Co23  1  0.500000  0.500000  0.000000  1
  O  O24  1  0.255357  0.893521  0.568437  1
  O  O25  1  0.949440  0.532157  0.790068  1
  O  O26  1  0.736527  0.209079  0.733431  1
  O  O27  1  0.444397  0.319720  0.391204  1
  O  O28  1  0.792368  0.261105  0.269004  1
  O  O29  1  0.555603  0.680280  0.608796  1
  O  O30  1  0.744643  0.106479  0.431563  1
  O  O31  1  0.754343  0.910872  0.584215  1
  O  O32  1  0.705385  0.380189  0.569069  1
  O  O33  1  0.745657  0.410872  0.084215  1
  O  O34  1  0.271556  0.422035  0.584621  1
  O  O35  1  0.763473  0.709079  0.233431  1
  O  O36  1  0.205385  0.119811  0.930931  1
  O  O37  1  0.460880  0.622750  0.069268  1
  O  O38  1  0.236527  0.290921  0.766569  1
  O  O39  1  0.728444  0.577965  0.415379  1
  O  O40  1  0.263473  0.790921  0.266569  1
  O  O41  1  0.245657  0.089128  0.415785  1
  O  O42  1  0.055603  0.819720  0.891204  1
  O  O43  1  0.050560  0.467843  0.209932  1
  O  O44  1  0.755357  0.606479  0.931563  1
  O  O45  1  0.707632  0.761105  0.769004  1
  O  O46  1  0.254343  0.589128  0.915785  1
  O  O47  1  0.771556  0.077965  0.915379  1
  O  O48  1  0.292368  0.238895  0.230996  1
  O  O49  1  0.550560  0.032157  0.290068  1
  O  O50  1  0.228444  0.922035  0.084621  1
  O  O51  1  0.039120  0.122750  0.569268  1
  O  O52  1  0.960880  0.877250  0.430732  1
  O  O53  1  0.244643  0.393521  0.068437  1
  O  O54  1  0.944397  0.180280  0.108796  1
  O  O55  1  0.539120  0.377250  0.930732  1
  O  O56  1  0.294615  0.619811  0.430931  1
  O  O57  1  0.207632  0.738895  0.730996  1
  O  O58  1  0.794615  0.880189  0.069069  1
  O  O59  1  0.449440  0.967843  0.709932  1
