# generated using pymatgen
data_Os2C6SeO6
_symmetry_space_group_name_H-M   'P 1'
_cell_length_a   9.64502092
_cell_length_b   14.18969097
_cell_length_c   16.60150203
_cell_angle_alpha   81.69348017
_cell_angle_beta   73.98483841
_cell_angle_gamma   89.64998619
_symmetry_Int_Tables_number   1
_chemical_formula_structural   Os2C6SeO6
_chemical_formula_sum   'Os16 C48 Se8 O48'
_cell_volume   2159.62567851
_cell_formula_units_Z   8
loop_
 _symmetry_equiv_pos_site_id
 _symmetry_equiv_pos_as_xyz
  1  'x, y, z'
loop_
 _atom_site_type_symbol
 _atom_site_label
 _atom_site_symmetry_multiplicity
 _atom_site_fract_x
 _atom_site_fract_y
 _atom_site_fract_z
 _atom_site_occupancy
  Os  Os0  1  0.033565  0.341692  0.144029  1
  Os  Os1  1  0.966435  0.658308  0.855971  1
  Os  Os2  1  0.456968  0.866286  0.300037  1
  Os  Os3  1  0.853095  0.439709  0.293302  1
  Os  Os4  1  0.155927  0.509335  0.193682  1
  Os  Os5  1  0.104274  0.354076  0.349827  1
  Os  Os6  1  0.844073  0.490665  0.806318  1
  Os  Os7  1  0.543032  0.133714  0.699963  1
  Os  Os8  1  0.741103  0.920015  0.332034  1
  Os  Os9  1  0.282616  0.076325  0.846723  1
  Os  Os10  1  0.146905  0.560291  0.706698  1
  Os  Os11  1  0.258897  0.079985  0.667966  1
  Os  Os12  1  0.504395  0.075402  0.234973  1
  Os  Os13  1  0.495605  0.924598  0.765027  1
  Os  Os14  1  0.895726  0.645924  0.650173  1
  Os  Os15  1  0.717384  0.923675  0.153277  1
  C  C16  1  0.707841  0.398674  0.394937  1
  C  C17  1  0.492487  0.807001  0.723892  1
  C  C18  1  0.501162  0.737303  0.326085  1
  C  C19  1  0.124276  0.420549  0.039276  1
  C  C20  1  0.310908  0.188456  0.581812  1
  C  C21  1  0.906727  0.774348  0.896168  1
  C  C22  1  0.292159  0.601326  0.605062  1
  C  C23  1  0.171115  0.010388  0.604116  1
  C  C24  1  0.708222  0.470130  0.237293  1
  C  C25  1  0.851591  0.768136  0.602283  1
  C  C26  1  0.319881  0.030940  0.951376  1
  C  C27  1  0.258830  0.421653  0.371049  1
  C  C28  1  0.199931  0.593547  0.261776  1
  C  C29  1  0.915587  0.862054  0.279830  1
  C  C30  1  0.670681  0.451240  0.892434  1
  C  C31  1  0.475402  0.868348  0.879900  1
  C  C32  1  0.269872  0.849615  0.376991  1
  C  C33  1  0.085241  0.085695  0.902271  1
  C  C34  1  0.146652  0.664242  0.882428  1
  C  C35  1  0.392028  0.841184  0.207021  1
  C  C36  1  0.301000  0.060117  0.252594  1
  C  C37  1  0.507513  0.192999  0.276108  1
  C  C38  1  0.138868  0.434411  0.681458  1
  C  C39  1  0.323343  0.204672  0.857348  1
  C  C40  1  0.093273  0.225652  0.103832  1
  C  C41  1  0.853348  0.335758  0.117572  1
  C  C42  1  0.498838  0.262697  0.673915  1
  C  C43  1  0.699000  0.939883  0.747406  1
  C  C44  1  0.800069  0.406453  0.738224  1
  C  C45  1  0.023866  0.616454  0.547366  1
  C  C46  1  0.043128  0.601234  0.148313  1
  C  C47  1  0.741170  0.578347  0.628951  1
  C  C48  1  0.329319  0.548760  0.107566  1
  C  C49  1  0.828885  0.989612  0.395884  1
  C  C50  1  0.148409  0.231864  0.397717  1
  C  C51  1  0.875724  0.579451  0.960724  1
  C  C52  1  0.976134  0.383546  0.452634  1
  C  C53  1  0.730128  0.150385  0.623009  1
  C  C54  1  0.676657  0.795328  0.142652  1
  C  C55  1  0.524598  0.131652  0.120100  1
  C  C56  1  0.689092  0.811544  0.418188  1
  C  C57  1  0.291778  0.529870  0.762707  1
  C  C58  1  0.607972  0.158816  0.792979  1
  C  C59  1  0.914759  0.914305  0.097729  1
  C  C60  1  0.956872  0.398766  0.851687  1
  C  C61  1  0.861132  0.565589  0.318542  1
  C  C62  1  0.084413  0.137946  0.720170  1
  C  C63  1  0.680119  0.969060  0.048624  1
  Se  Se64  1  0.086398  0.735765  0.700608  1
  Se  Se65  1  0.218255  0.932691  0.787139  1
  Se  Se66  1  0.491759  0.992889  0.388151  1
  Se  Se67  1  0.736532  0.655231  0.802852  1
  Se  Se68  1  0.263468  0.344769  0.197148  1
  Se  Se69  1  0.508241  0.007111  0.611849  1
  Se  Se70  1  0.913602  0.264235  0.299392  1
  Se  Se71  1  0.781745  0.067309  0.212861  1
  O  O72  1  0.511772  0.263323  0.303731  1
  O  O73  1  0.532050  0.172383  0.053042  1
  O  O74  1  0.746597  0.325134  0.099858  1
  O  O75  1  0.904465  0.401215  0.517094  1
  O  O76  1  0.655575  0.174964  0.846928  1
  O  O77  1  0.177035  0.054951  0.261619  1
  O  O78  1  0.035134  0.907383  0.061348  1
  O  O79  1  0.829388  0.844132  0.573140  1
  O  O80  1  0.015467  0.340027  0.885356  1
  O  O81  1  0.647011  0.540800  0.613971  1
  O  O82  1  0.527569  0.657726  0.340650  1
  O  O83  1  0.866182  0.844216  0.922113  1
  O  O84  1  0.884286  0.031235  0.434329  1
  O  O85  1  0.472431  0.342274  0.659350  1
  O  O86  1  0.154384  0.838315  0.423419  1
  O  O87  1  0.858415  0.639234  0.341941  1
  O  O88  1  0.775287  0.351171  0.698282  1
  O  O89  1  0.344425  0.825036  0.153072  1
  O  O90  1  0.381336  0.625683  0.542518  1
  O  O91  1  0.656619  0.994144  0.984090  1
  O  O92  1  0.141585  0.360766  0.658059  1
  O  O93  1  0.565226  0.422608  0.943449  1
  O  O94  1  0.434774  0.577392  0.056551  1
  O  O95  1  0.822965  0.945049  0.738381  1
  O  O96  1  0.467950  0.827617  0.946958  1
  O  O97  1  0.822094  0.536281  0.027062  1
  O  O98  1  0.133818  0.155784  0.077887  1
  O  O99  1  0.984533  0.659973  0.114644  1
  O  O100  1  0.170612  0.155868  0.426860  1
  O  O101  1  0.095535  0.598785  0.482906  1
  O  O102  1  0.343381  0.005856  0.015910  1
  O  O103  1  0.177906  0.463719  0.972938  1
  O  O104  1  0.661842  0.746794  0.472074  1
  O  O105  1  0.352989  0.459200  0.386029  1
  O  O106  1  0.337862  0.282743  0.868314  1
  O  O107  1  0.616139  0.490141  0.205971  1
  O  O108  1  0.383861  0.509859  0.794029  1
  O  O109  1  0.488228  0.736677  0.696269  1
  O  O110  1  0.253403  0.674866  0.900142  1
  O  O111  1  0.845616  0.161685  0.576581  1
  O  O112  1  0.338158  0.253206  0.527926  1
  O  O113  1  0.964866  0.092617  0.938652  1
  O  O114  1  0.618664  0.374317  0.457482  1
  O  O115  1  0.974276  0.172090  0.746350  1
  O  O116  1  0.662138  0.717257  0.131686  1
  O  O117  1  0.224713  0.648829  0.301718  1
  O  O118  1  0.025724  0.827910  0.253650  1
  O  O119  1  0.115714  0.968765  0.565671  1
