# generated using pymatgen
data_CeCu4Sn
_symmetry_space_group_name_H-M   'P 1'
_cell_length_a   5.09871637
_cell_length_b   8.51256134
_cell_length_c   10.60032174
_cell_angle_alpha   90.00000000
_cell_angle_beta   90.00000000
_cell_angle_gamma   90.00000000
_symmetry_Int_Tables_number   1
_chemical_formula_structural   CeCu4Sn
_chemical_formula_sum   'Ce4 Cu16 Sn4'
_cell_volume   460.08720459
_cell_formula_units_Z   4
loop_
 _symmetry_equiv_pos_site_id
 _symmetry_equiv_pos_as_xyz
  1  'x, y, z'
loop_
 _atom_site_type_symbol
 _atom_site_label
 _atom_site_symmetry_multiplicity
 _atom_site_fract_x
 _atom_site_fract_y
 _atom_site_fract_z
 _atom_site_occupancy
  Ce  Ce0  1  0.229143  0.743769  0.937358  1
  Ce  Ce1  1  0.729143  0.256231  0.562642  1
  Ce  Ce2  1  0.270857  0.243769  0.062642  1
  Ce  Ce3  1  0.770857  0.756231  0.437358  1
  Cu  Cu4  1  0.049475  0.082249  0.817054  1
  Cu  Cu5  1  0.950525  0.417751  0.317054  1
  Cu  Cu6  1  0.549475  0.917751  0.682946  1
  Cu  Cu7  1  0.759646  0.657712  0.743044  1
  Cu  Cu8  1  0.737553  0.885370  0.887894  1
  Cu  Cu9  1  0.779333  0.117126  0.010964  1
  Cu  Cu10  1  0.259646  0.342288  0.756956  1
  Cu  Cu11  1  0.220667  0.382874  0.510964  1
  Cu  Cu12  1  0.262447  0.614630  0.387894  1
  Cu  Cu13  1  0.720667  0.617126  0.989036  1
  Cu  Cu14  1  0.740354  0.157712  0.256956  1
  Cu  Cu15  1  0.240354  0.842288  0.243044  1
  Cu  Cu16  1  0.279333  0.882874  0.489036  1
  Cu  Cu17  1  0.450525  0.582249  0.182946  1
  Cu  Cu18  1  0.762447  0.385370  0.112106  1
  Cu  Cu19  1  0.237553  0.114630  0.612106  1
  Sn  Sn20  1  0.742150  0.867098  0.144491  1
  Sn  Sn21  1  0.257850  0.632902  0.644491  1
  Sn  Sn22  1  0.242150  0.132902  0.355509  1
  Sn  Sn23  1  0.757850  0.367098  0.855509  1
