# generated using pymatgen
data_KBaIn2(PO4)3
_symmetry_space_group_name_H-M   'P 1'
_cell_length_a   10.33923016
_cell_length_b   10.33603503
_cell_length_c   20.67359097
_cell_angle_alpha   89.97704227
_cell_angle_beta   89.97384773
_cell_angle_gamma   89.97752902
_symmetry_Int_Tables_number   1
_chemical_formula_structural   KBaIn2(PO4)3
_chemical_formula_sum   'K8 Ba8 In16 P24 O96'
_cell_volume   2209.31673129
_cell_formula_units_Z   8
loop_
 _symmetry_equiv_pos_site_id
 _symmetry_equiv_pos_as_xyz
  1  'x, y, z'
loop_
 _atom_site_type_symbol
 _atom_site_label
 _atom_site_symmetry_multiplicity
 _atom_site_fract_x
 _atom_site_fract_y
 _atom_site_fract_z
 _atom_site_occupancy
  K  K0  1  0.049394  0.048736  0.025578  1
  K  K1  1  0.050093  0.050599  0.524120  1
  K  K2  1  0.187522  0.312862  0.343628  1
  K  K3  1  0.313158  0.687562  0.093780  1
  K  K4  1  0.450005  0.950211  0.774405  1
  K  K5  1  0.548103  0.449187  0.474976  1
  K  K6  1  0.686762  0.186724  0.156843  1
  K  K7  1  0.950799  0.549580  0.724637  1
  Ba  Ba8  1  0.186199  0.312041  0.843457  1
  Ba  Ba9  1  0.311305  0.686225  0.592958  1
  Ba  Ba10  1  0.450961  0.956886  0.272444  1
  Ba  Ba11  1  0.546344  0.452549  0.978571  1
  Ba  Ba12  1  0.687894  0.187484  0.655149  1
  Ba  Ba13  1  0.815492  0.814118  0.407123  1
  Ba  Ba14  1  0.813543  0.814950  0.907335  1
  Ba  Ba15  1  0.955754  0.543531  0.226155  1
  In  In16  1  0.094934  0.907673  0.201474  1
  In  In17  1  0.093520  0.906753  0.703077  1
  In  In18  1  0.171007  0.668546  0.414201  1
  In  In19  1  0.171388  0.671420  0.915814  1
  In  In20  1  0.330202  0.329095  0.165638  1
  In  In21  1  0.328032  0.329005  0.663529  1
  In  In22  1  0.403702  0.097886  0.453359  1
  In  In23  1  0.405507  0.090969  0.953865  1
  In  In24  1  0.591591  0.590464  0.297366  1
  In  In25  1  0.593470  0.594912  0.795230  1
  In  In26  1  0.668949  0.830628  0.085747  1
  In  In27  1  0.670977  0.829452  0.585421  1
  In  In28  1  0.830629  0.172152  0.334438  1
  In  In29  1  0.829315  0.170091  0.835471  1
  In  In30  1  0.906987  0.402980  0.047744  1
  In  In31  1  0.907635  0.406312  0.546469  1
  P  P32  1  0.012686  0.218811  0.187651  1
  P  P33  1  0.012176  0.219097  0.687683  1
  P  P34  1  0.124847  0.987372  0.359955  1
  P  P35  1  0.125144  0.987517  0.859419  1
  P  P36  1  0.219126  0.375044  0.006457  1
  P  P37  1  0.218794  0.375639  0.505976  1
  P  P38  1  0.280148  0.625408  0.256073  1
  P  P39  1  0.280568  0.624761  0.756372  1
  P  P40  1  0.375454  0.012716  0.109453  1
  P  P41  1  0.375193  0.012088  0.609506  1
  P  P42  1  0.487727  0.780686  0.937315  1
  P  P43  1  0.487524  0.780908  0.437415  1
  P  P44  1  0.512693  0.280305  0.312545  1
  P  P45  1  0.512281  0.280291  0.812568  1
  P  P46  1  0.625028  0.512701  0.140052  1
  P  P47  1  0.625150  0.512242  0.640317  1
  P  P48  1  0.718921  0.124940  0.493606  1
  P  P49  1  0.719735  0.125095  0.993813  1
  P  P50  1  0.780473  0.874321  0.243725  1
  P  P51  1  0.781212  0.875202  0.743853  1
  P  P52  1  0.874679  0.487548  0.390609  1
  P  P53  1  0.874763  0.487642  0.890162  1
  P  P54  1  0.987075  0.719679  0.062533  1
  P  P55  1  0.987678  0.719034  0.562454  1
  O  O56  1  0.002214  0.070582  0.363837  1
  O  O57  1  0.004712  0.074912  0.864352  1
  O  O58  1  0.012288  0.079989  0.159299  1
  O  O59  1  0.012463  0.079756  0.659655  1
  O  O60  1  0.047060  0.812326  0.112188  1
  O  O61  1  0.050985  0.811585  0.611829  1
  O  O62  1  0.070876  0.727851  0.001408  1
  O  O63  1  0.074486  0.728550  0.502048  1
  O  O64  1  0.080115  0.318854  0.005339  1
  O  O65  1  0.079627  0.319127  0.507047  1
  O  O66  1  0.085524  0.847532  0.380678  1
  O  O67  1  0.085618  0.848945  0.880958  1
  O  O68  1  0.151013  0.262657  0.205964  1
  O  O69  1  0.150828  0.261928  0.707534  1
  O  O70  1  0.183858  0.984442  0.290032  1
  O  O71  1  0.181196  0.987382  0.789756  1
  O  O72  1  0.183442  0.723105  0.226100  1
  O  O73  1  0.188301  0.723532  0.724632  1
  O  O74  1  0.224453  0.046649  0.406281  1
  O  O75  1  0.223637  0.051409  0.905675  1
  O  O76  1  0.229198  0.498611  0.464667  1
  O  O77  1  0.230679  0.493665  0.960996  1
  O  O78  1  0.238016  0.587958  0.325391  1
  O  O79  1  0.237921  0.585513  0.825882  1
  O  O80  1  0.263137  0.412139  0.075058  1
  O  O81  1  0.261415  0.415155  0.575909  1
  O  O82  1  0.271814  0.503976  0.712924  1
  O  O83  1  0.270306  0.504944  0.213005  1
  O  O84  1  0.279106  0.951665  0.158351  1
  O  O85  1  0.276651  0.948895  0.656000  1
  O  O86  1  0.313214  0.277549  0.476333  1
  O  O87  1  0.315173  0.278217  0.974063  1
  O  O88  1  0.318475  0.012383  0.039968  1
  O  O89  1  0.319445  0.012411  0.539882  1
  O  O90  1  0.349312  0.738551  0.457302  1
  O  O91  1  0.350133  0.736960  0.956077  1
  O  O92  1  0.412140  0.151318  0.130911  1
  O  O93  1  0.414855  0.150641  0.631337  1
  O  O94  1  0.419458  0.684644  0.257015  1
  O  O95  1  0.419950  0.681235  0.756487  1
  O  O96  1  0.426895  0.268584  0.252106  1
  O  O97  1  0.424943  0.273277  0.752514  1
  O  O98  1  0.449140  0.188647  0.862431  1
  O  O99  1  0.452346  0.182770  0.360889  1
  O  O100  1  0.488544  0.919757  0.909094  1
  O  O101  1  0.486383  0.920194  0.407983  1
  O  O102  1  0.495996  0.926168  0.115556  1
  O  O103  1  0.495924  0.924946  0.614473  1
  O  O104  1  0.504501  0.426692  0.134939  1
  O  O105  1  0.504639  0.425005  0.636080  1
  O  O106  1  0.512793  0.419442  0.340892  1
  O  O107  1  0.514035  0.419876  0.842139  1
  O  O108  1  0.551299  0.684471  0.888791  1
  O  O109  1  0.551249  0.688738  0.387891  1
  O  O110  1  0.575102  0.772585  0.497457  1
  O  O111  1  0.577298  0.769172  0.996774  1
  O  O112  1  0.579527  0.180770  0.493847  1
  O  O113  1  0.580126  0.184345  0.992094  1
  O  O114  1  0.588098  0.651425  0.118843  1
  O  O115  1  0.585582  0.651061  0.619080  1
  O  O116  1  0.651612  0.237349  0.294037  1
  O  O117  1  0.650908  0.238517  0.792819  1
  O  O118  1  0.684737  0.514315  0.209581  1
  O  O119  1  0.681240  0.512543  0.710126  1
  O  O120  1  0.685147  0.776445  0.275541  1
  O  O121  1  0.688311  0.776991  0.775755  1
  O  O122  1  0.722452  0.452458  0.091549  1
  O  O123  1  0.724172  0.448857  0.594272  1
  O  O124  1  0.727687  0.002492  0.035220  1
  O  O125  1  0.728676  0.004451  0.537576  1
  O  O126  1  0.737659  0.912138  0.175016  1
  O  O127  1  0.738034  0.914588  0.674606  1
  O  O128  1  0.761175  0.085720  0.923912  1
  O  O129  1  0.762066  0.085416  0.424381  1
  O  O130  1  0.770769  0.992827  0.288713  1
  O  O131  1  0.771235  0.995694  0.787467  1
  O  O132  1  0.778071  0.551910  0.342325  1
  O  O133  1  0.775192  0.550555  0.844322  1
  O  O134  1  0.812569  0.224566  0.023375  1
  O  O135  1  0.811251  0.223544  0.525696  1
  O  O136  1  0.818182  0.488890  0.460061  1
  O  O137  1  0.816022  0.486002  0.959939  1
  O  O138  1  0.847578  0.761171  0.042757  1
  O  O139  1  0.848922  0.762076  0.542805  1
  O  O140  1  0.912265  0.350274  0.368642  1
  O  O141  1  0.914432  0.349061  0.869131  1
  O  O142  1  0.919574  0.815269  0.243651  1
  O  O143  1  0.920443  0.818911  0.743775  1
  O  O144  1  0.926019  0.231640  0.247832  1
  O  O145  1  0.925183  0.228622  0.748158  1
  O  O146  1  0.951859  0.316933  0.139393  1
  O  O147  1  0.948611  0.311760  0.638513  1
  O  O148  1  0.984787  0.579791  0.091874  1
  O  O149  1  0.986945  0.579762  0.590688  1
  O  O150  1  0.993231  0.577708  0.384645  1
  O  O151  1  0.995217  0.574658  0.886290  1
