# generated using pymatgen
data_ZnP2
_symmetry_space_group_name_H-M   'P 1'
_cell_length_a   7.37101960
_cell_length_b   7.64726089
_cell_length_c   8.93119676
_cell_angle_alpha   103.17597020
_cell_angle_beta   90.00000000
_cell_angle_gamma   90.00000000
_symmetry_Int_Tables_number   1
_chemical_formula_structural   ZnP2
_chemical_formula_sum   'Zn8 P16'
_cell_volume   490.18155508
_cell_formula_units_Z   8
loop_
 _symmetry_equiv_pos_site_id
 _symmetry_equiv_pos_as_xyz
  1  'x, y, z'
loop_
 _atom_site_type_symbol
 _atom_site_label
 _atom_site_symmetry_multiplicity
 _atom_site_fract_x
 _atom_site_fract_y
 _atom_site_fract_z
 _atom_site_occupancy
  Zn  Zn0  1  0.086281  0.473319  0.385966  1
  Zn  Zn1  1  0.413719  0.973319  0.385966  1
  Zn  Zn2  1  0.913719  0.526681  0.614034  1
  Zn  Zn3  1  0.740154  0.144182  0.078815  1
  Zn  Zn4  1  0.586281  0.026681  0.614034  1
  Zn  Zn5  1  0.759846  0.644182  0.078815  1
  Zn  Zn6  1  0.240154  0.355818  0.921185  1
  Zn  Zn7  1  0.259846  0.855818  0.921185  1
  P  P8  1  0.918607  0.024954  0.618472  1
  P  P9  1  0.512424  0.320737  0.766413  1
  P  P10  1  0.482060  0.193269  0.242216  1
  P  P11  1  0.487576  0.679263  0.233587  1
  P  P12  1  0.751885  0.351771  0.918085  1
  P  P13  1  0.418607  0.475046  0.381528  1
  P  P14  1  0.581393  0.524954  0.618472  1
  P  P15  1  0.748115  0.851771  0.918085  1
  P  P16  1  0.081393  0.975046  0.381528  1
  P  P17  1  0.982060  0.306731  0.757784  1
  P  P18  1  0.251885  0.148229  0.081915  1
  P  P19  1  0.248115  0.648229  0.081915  1
  P  P20  1  0.012424  0.179263  0.233587  1
  P  P21  1  0.017940  0.693269  0.242216  1
  P  P22  1  0.987576  0.820737  0.766413  1
  P  P23  1  0.517940  0.806731  0.757784  1
