# generated using pymatgen
data_LuH24C4N4Cl7
_symmetry_space_group_name_H-M   'P 1'
_cell_length_a   7.72655208
_cell_length_b   9.92435905
_cell_length_c   13.22024804
_cell_angle_alpha   90.86965251
_cell_angle_beta   90.00000000
_cell_angle_gamma   90.00000000
_symmetry_Int_Tables_number   1
_chemical_formula_structural   LuH24C4N4Cl7
_chemical_formula_sum   'Lu2 H48 C8 N8 Cl14'
_cell_volume   1013.62608739
_cell_formula_units_Z   2
loop_
 _symmetry_equiv_pos_site_id
 _symmetry_equiv_pos_as_xyz
  1  'x, y, z'
loop_
 _atom_site_type_symbol
 _atom_site_label
 _atom_site_symmetry_multiplicity
 _atom_site_fract_x
 _atom_site_fract_y
 _atom_site_fract_z
 _atom_site_occupancy
  Lu  Lu0  1  0.999909  0.500000  0.500000  1
  Lu  Lu1  1  0.009533  0.000000  0.000000  1
  H  H2  1  0.508376  0.105917  0.054290  1
  H  H3  1  0.139782  0.900764  0.720214  1
  H  H4  1  0.118106  0.321173  0.874336  1
  H  H5  1  0.118106  0.678827  0.125664  1
  H  H6  1  0.127527  0.503330  0.887260  1
  H  H7  1  0.651743  0.731008  0.299960  1
  H  H8  1  0.373721  0.693496  0.453231  1
  H  H9  1  0.821070  0.061141  0.405830  1
  H  H10  1  0.556149  0.215647  0.530715  1
  H  H11  1  0.130541  0.158093  0.408575  1
  H  H12  1  0.127527  0.496670  0.112740  1
  H  H13  1  0.403046  0.249264  0.038798  1
  H  H14  1  0.514043  0.338328  0.200225  1
  H  H15  1  0.635953  0.185092  0.210424  1
  H  H16  1  0.829077  0.426519  0.918117  1
  H  H17  1  0.839812  0.508877  0.809849  1
  H  H18  1  0.130541  0.841907  0.591425  1
  H  H19  1  0.514043  0.661672  0.799775  1
  H  H20  1  0.508376  0.894083  0.945710  1
  H  H21  1  0.860380  0.812756  0.673441  1
  H  H22  1  0.857951  0.026888  0.282686  1
  H  H23  1  0.556149  0.784353  0.469285  1
  H  H24  1  0.445231  0.348631  0.723270  1
  H  H25  1  0.616345  0.749334  0.963459  1
  H  H26  1  0.445231  0.651369  0.276730  1
  H  H27  1  0.857951  0.973112  0.717314  1
  H  H28  1  0.839812  0.491123  0.190151  1
  H  H29  1  0.860380  0.187244  0.326559  1
  H  H30  1  0.821070  0.938859  0.594170  1
  H  H31  1  0.116936  0.425052  0.764521  1
  H  H32  1  0.116936  0.574948  0.235479  1
  H  H33  1  0.635953  0.814908  0.789576  1
  H  H34  1  0.139782  0.099236  0.279786  1
  H  H35  1  0.458603  0.828896  0.303683  1
  H  H36  1  0.832559  0.340783  0.809790  1
  H  H37  1  0.403046  0.750736  0.961202  1
  H  H38  1  0.564284  0.616216  0.448029  1
  H  H39  1  0.829077  0.573481  0.081883  1
  H  H40  1  0.832559  0.659217  0.190210  1
  H  H41  1  0.404907  0.818904  0.783130  1
  H  H42  1  0.373721  0.306504  0.546769  1
  H  H43  1  0.616345  0.250666  0.036541  1
  H  H44  1  0.404907  0.181096  0.216870  1
  H  H45  1  0.651743  0.268992  0.700040  1
  H  H46  1  0.121024  0.020819  0.620780  1
  H  H47  1  0.564284  0.383784  0.551971  1
  H  H48  1  0.458603  0.171104  0.696317  1
  H  H49  1  0.121024  0.979181  0.379220  1
  C  C50  1  0.086430  0.080685  0.354905  1
  C  C51  1  0.513839  0.730297  0.319270  1
  C  C52  1  0.076696  0.417750  0.843372  1
  C  C53  1  0.076696  0.582250  0.156628  1
  C  C54  1  0.086430  0.919315  0.645095  1
  C  C55  1  0.515803  0.770210  0.816802  1
  C  C56  1  0.515803  0.229790  0.183198  1
  C  C57  1  0.513839  0.269703  0.680730  1
  N  N58  1  0.500255  0.296162  0.570944  1
  N  N59  1  0.895441  0.911007  0.657169  1
  N  N60  1  0.500255  0.703838  0.429056  1
  N  N61  1  0.511026  0.792675  0.928627  1
  N  N62  1  0.895441  0.088993  0.342831  1
  N  N63  1  0.884058  0.424072  0.845903  1
  N  N64  1  0.884058  0.575928  0.154097  1
  N  N65  1  0.511026  0.207325  0.071373  1
  Cl  Cl66  1  0.751401  0.582901  0.624672  1
  Cl  Cl67  1  0.613291  0.000000  0.500000  1
  Cl  Cl68  1  0.978683  0.229676  0.094555  1
  Cl  Cl69  1  0.239876  0.412451  0.382783  1
  Cl  Cl70  1  0.978683  0.770324  0.905445  1
  Cl  Cl71  1  0.239876  0.587549  0.617217  1
  Cl  Cl72  1  0.994981  0.727868  0.408015  1
  Cl  Cl73  1  0.255702  0.916949  0.115269  1
  Cl  Cl74  1  0.255702  0.083051  0.884731  1
  Cl  Cl75  1  0.587967  0.500000  0.000000  1
  Cl  Cl76  1  0.751401  0.417099  0.375328  1
  Cl  Cl77  1  0.994981  0.272132  0.591985  1
  Cl  Cl78  1  0.772064  0.087446  0.871823  1
  Cl  Cl79  1  0.772064  0.912554  0.128177  1
