# generated using pymatgen
data_LiCr2(PO4)3
_symmetry_space_group_name_H-M   'P 1'
_cell_length_a   8.50664535
_cell_length_b   8.60979886
_cell_length_c   8.50931619
_cell_angle_alpha   60.99221823
_cell_angle_beta   60.01038488
_cell_angle_gamma   89.99999857
_symmetry_Int_Tables_number   1
_chemical_formula_structural   LiCr2(PO4)3
_chemical_formula_sum   'Li2 Cr4 P6 O24'
_cell_volume   447.24984765
_cell_formula_units_Z   2
loop_
 _symmetry_equiv_pos_site_id
 _symmetry_equiv_pos_as_xyz
  1  'x, y, z'
loop_
 _atom_site_type_symbol
 _atom_site_label
 _atom_site_symmetry_multiplicity
 _atom_site_fract_x
 _atom_site_fract_y
 _atom_site_fract_z
 _atom_site_occupancy
  Li  Li0  1  0.354216  0.555637  0.614668  1
  Li  Li1  1  0.031116  0.055637  0.614668  1
  Cr  Cr2  1  0.849128  0.575545  0.790635  1
  Cr  Cr3  1  0.360237  0.075545  0.790635  1
  Cr  Cr4  1  0.648691  0.931277  0.200692  1
  Cr  Cr5  1  0.150618  0.431277  0.200692  1
  P  P6  1  0.751472  0.242884  0.719729  1
  P  P7  1  0.528798  0.742884  0.719729  1
  P  P8  1  0.473750  0.259309  0.277350  1
  P  P9  1  0.248900  0.759309  0.277350  1
  P  P10  1  0.038377  0.253072  0.000218  1
  P  P11  1  0.961405  0.753072  0.000218  1
  O  O12  1  0.945327  0.766067  0.820012  1
  O  O13  1  0.586390  0.237934  0.690933  1
  O  O14  1  0.057258  0.249618  0.174353  1
  O  O15  1  0.938608  0.279235  0.515114  1
  O  O16  1  0.011274  0.440167  0.867626  1
  O  O17  1  0.879284  0.076488  0.121575  1
  O  O18  1  0.241285  0.604307  0.236850  1
  O  O19  1  0.999141  0.576488  0.121575  1
  O  O20  1  0.722677  0.737934  0.690933  1
  O  O21  1  0.757789  0.393869  0.762515  1
  O  O22  1  0.768390  0.749618  0.174353  1
  O  O23  1  0.407048  0.758583  0.317986  1
  O  O24  1  0.274967  0.258583  0.317986  1
  O  O25  1  0.061048  0.712363  0.485125  1
  O  O26  1  0.282921  0.951711  0.088344  1
  O  O27  1  0.628736  0.451711  0.088344  1
  O  O28  1  0.234662  0.266067  0.820012  1
  O  O29  1  0.546279  0.779235  0.515114  1
  O  O30  1  0.726781  0.050331  0.902952  1
  O  O31  1  0.370267  0.550331  0.902952  1
  O  O32  1  0.453827  0.212363  0.485125  1
  O  O33  1  0.521865  0.104307  0.236850  1
  O  O34  1  0.479697  0.893869  0.762515  1
  O  O35  1  0.121099  0.940167  0.867626  1
