# generated using pymatgen
data_MgSiO3
_symmetry_space_group_name_H-M   'P 1'
_cell_length_a   5.23956664
_cell_length_b   9.18958593
_cell_length_c   18.54654255
_cell_angle_alpha   90.00000000
_cell_angle_beta   90.00000000
_cell_angle_gamma   90.00000000
_symmetry_Int_Tables_number   1
_chemical_formula_structural   MgSiO3
_chemical_formula_sum   'Mg16 Si16 O48'
_cell_volume   893.00578376
_cell_formula_units_Z   16
loop_
 _symmetry_equiv_pos_site_id
 _symmetry_equiv_pos_as_xyz
  1  'x, y, z'
loop_
 _atom_site_type_symbol
 _atom_site_label
 _atom_site_symmetry_multiplicity
 _atom_site_fract_x
 _atom_site_fract_y
 _atom_site_fract_z
 _atom_site_occupancy
  Mg  Mg0  1  0.935303  0.493816  0.146923  1
  Mg  Mg1  1  0.915823  0.165694  0.106586  1
  Mg  Mg2  1  0.584177  0.665694  0.893414  1
  Mg  Mg3  1  0.084177  0.334306  0.606586  1
  Mg  Mg4  1  0.415823  0.334306  0.106586  1
  Mg  Mg5  1  0.564697  -0.006184  0.853077  1
  Mg  Mg6  1  0.915823  0.665694  0.393414  1
  Mg  Mg7  1  0.935303  -0.006184  0.353077  1
  Mg  Mg8  1  0.584177  0.165694  0.606586  1
  Mg  Mg9  1  0.435303  0.006184  0.146923  1
  Mg  Mg10  1  0.564697  0.493816  0.646923  1
  Mg  Mg11  1  0.064697  0.006184  0.646923  1
  Mg  Mg12  1  0.084177  0.834306  0.893414  1
  Mg  Mg13  1  0.064697  0.506184  0.853077  1
  Mg  Mg14  1  0.435303  0.506184  0.353077  1
  Mg  Mg15  1  0.415823  0.834306  0.393414  1
  Si  Si16  1  0.074646  0.233232  0.777497  1
  Si  Si17  1  0.425354  0.233232  0.277497  1
  Si  Si18  1  0.275075  0.656099  0.529720  1
  Si  Si19  1  0.224925  0.156099  0.470280  1
  Si  Si20  1  0.574646  0.266768  0.777497  1
  Si  Si21  1  0.925354  0.766768  0.222503  1
  Si  Si22  1  0.724925  0.843901  0.029720  1
  Si  Si23  1  0.724925  0.343901  0.470280  1
  Si  Si24  1  0.775075  0.843901  0.529720  1
  Si  Si25  1  0.224925  0.656099  0.029720  1
  Si  Si26  1  0.775075  0.343901  0.970280  1
  Si  Si27  1  0.074646  0.733232  0.722503  1
  Si  Si28  1  0.574646  0.766768  0.722503  1
  Si  Si29  1  0.275075  0.156099  0.970280  1
  Si  Si30  1  0.425354  0.733232  0.222503  1
  Si  Si31  1  0.925354  0.266768  0.277497  1
  O  O32  1  0.244442  0.650917  0.940981  1
  O  O33  1  0.255558  0.650917  0.440981  1
  O  O34  1  0.047493  0.768571  0.555158  1
  O  O35  1  0.951355  0.292519  0.188691  1
  O  O36  1  0.755558  0.849083  0.440981  1
  O  O37  1  0.342977  0.625568  0.706640  1
  O  O38  1  0.342977  0.125568  0.793360  1
  O  O39  1  0.451355  0.707481  0.311309  1
  O  O40  1  0.685652  0.628731  0.193756  1
  O  O41  1  0.157023  0.625568  0.206640  1
  O  O42  1  0.842977  0.874432  0.706640  1
  O  O43  1  0.255558  0.150917  0.059019  1
  O  O44  1  0.157023  0.125568  0.293360  1
  O  O45  1  0.314348  0.371269  0.806244  1
  O  O46  1  0.732688  0.498757  0.429524  1
  O  O47  1  0.244442  0.150917  0.559019  1
  O  O48  1  0.452507  0.768571  0.055158  1
  O  O49  1  0.547493  0.231429  0.944842  1
  O  O50  1  0.814348  0.128731  0.806244  1
  O  O51  1  0.314348  0.871269  0.693756  1
  O  O52  1  0.185652  0.871269  0.193756  1
  O  O53  1  0.814348  0.628731  0.693756  1
  O  O54  1  0.952507  0.231429  0.444842  1
  O  O55  1  0.767312  0.498757  0.929524  1
  O  O56  1  0.685652  0.128731  0.306244  1
  O  O57  1  0.744442  0.349083  0.559019  1
  O  O58  1  0.047493  0.268571  0.944842  1
  O  O59  1  0.048645  0.207481  0.688691  1
  O  O60  1  0.548645  0.792519  0.811309  1
  O  O61  1  0.547493  0.731429  0.555158  1
  O  O62  1  0.657023  0.874432  0.206640  1
  O  O63  1  0.232688  0.001243  0.429524  1
  O  O64  1  0.267312  0.501243  0.570476  1
  O  O65  1  0.755558  0.349083  0.059019  1
  O  O66  1  0.232688  0.501243  0.070476  1
  O  O67  1  0.267312  0.001243  0.929524  1
  O  O68  1  0.548645  0.292519  0.688691  1
  O  O69  1  0.952507  0.731429  0.055158  1
  O  O70  1  0.744442  0.849083  0.940981  1
  O  O71  1  0.451355  0.207481  0.188691  1
  O  O72  1  0.452507  0.268571  0.444842  1
  O  O73  1  0.767312  -0.001243  0.570476  1
  O  O74  1  0.048645  0.707481  0.811309  1
  O  O75  1  0.657023  0.374432  0.293360  1
  O  O76  1  0.951355  0.792519  0.311309  1
  O  O77  1  0.732688  -0.001243  0.070476  1
  O  O78  1  0.185652  0.371269  0.306244  1
  O  O79  1  0.842977  0.374432  0.793360  1
