# generated using pymatgen
data_YbTiCdSbO7
_symmetry_space_group_name_H-M   'P 1'
_cell_length_a   7.29686514
_cell_length_b   14.60381993
_cell_length_c   12.65204257
_cell_angle_alpha   30.01777863
_cell_angle_beta   54.78314013
_cell_angle_gamma   60.01474863
_symmetry_Int_Tables_number   1
_chemical_formula_structural   YbTiCdSbO7
_chemical_formula_sum   'Yb4 Ti4 Cd4 Sb4 O28'
_cell_volume   551.03018956
_cell_formula_units_Z   4
loop_
 _symmetry_equiv_pos_site_id
 _symmetry_equiv_pos_as_xyz
  1  'x, y, z'
loop_
 _atom_site_type_symbol
 _atom_site_label
 _atom_site_symmetry_multiplicity
 _atom_site_fract_x
 _atom_site_fract_y
 _atom_site_fract_z
 _atom_site_occupancy
  Yb  Yb0  1  0.999432  0.994031  0.006137  1
  Yb  Yb1  1  0.998741  0.251149  0.499098  1
  Yb  Yb2  1  0.500950  0.503962  0.994380  1
  Yb  Yb3  1  0.003849  0.249694  0.999422  1
  Ti  Ti4  1  0.516043  0.250469  0.997415  1
  Ti  Ti5  1  0.502440  0.016046  0.483136  1
  Ti  Ti6  1  0.001745  0.485748  0.512146  1
  Ti  Ti7  1  0.491094  0.247535  0.502593  1
  Cd  Cd8  1  0.997540  0.498055  0.002961  1
  Cd  Cd9  1  0.500439  0.001899  0.996997  1
  Cd  Cd10  1  0.002963  0.752600  0.995152  1
  Cd  Cd11  1  0.998659  0.747966  0.500689  1
  Sb  Sb12  1  0.496441  0.748221  0.000276  1
  Sb  Sb13  1  0.002369  0.004942  0.493745  1
  Sb  Sb14  1  0.499811  0.495450  0.504231  1
  Sb  Sb15  1  0.506083  0.749886  0.499272  1
  O  O16  1  0.130159  0.993087  0.131492  1
  O  O17  1  0.178330  0.202785  0.168665  1
  O  O18  1  0.181832  0.003990  0.567587  1
  O  O19  1  0.119414  0.505190  0.120041  1
  O  O20  1  0.578512  0.002151  0.174888  1
  O  O21  1  0.573690  0.198190  0.176089  1
  O  O22  1  0.181352  0.303237  0.571044  1
  O  O23  1  0.428744  0.197183  0.427501  1
  O  O24  1  0.171510  0.699039  0.178227  1
  O  O25  1  0.174217  0.496224  0.577720  1
  O  O26  1  0.823623  0.007687  0.417566  1
  O  O27  1  0.420934  0.000043  0.822100  1
  O  O28  1  0.572299  0.496271  0.178245  1
  O  O29  1  0.580408  0.300010  0.570549  1
  O  O30  1  0.824042  0.197963  0.432179  1
  O  O31  1  0.577800  0.699948  0.173558  1
  O  O32  1  0.175520  0.799166  0.574427  1
  O  O33  1  0.420121  0.298730  0.829589  1
  O  O34  1  0.426670  0.701579  0.422019  1
  O  O35  1  0.434898  0.498219  0.823673  1
  O  O36  1  0.824408  0.491240  0.436511  1
  O  O37  1  0.825439  0.300736  0.823337  1
  O  O38  1  0.575414  0.798613  0.578800  1
  O  O39  1  0.831799  0.701663  0.417950  1
  O  O40  1  0.431297  0.797123  0.821414  1
  O  O41  1  0.880856  0.505143  0.869366  1
  O  O42  1  0.827357  0.798925  0.824382  1
  O  O43  1  0.870841  0.996161  0.878611  1
