# generated using pymatgen
data_Ba7SiB3NO13
_symmetry_space_group_name_H-M   'P 1'
_cell_length_a   11.33753379
_cell_length_b   11.33753376
_cell_length_c   7.47907987
_cell_angle_alpha   90.00000000
_cell_angle_beta   90.00000000
_cell_angle_gamma   120.00000010
_symmetry_Int_Tables_number   1
_chemical_formula_structural   Ba7SiB3NO13
_chemical_formula_sum   'Ba14 Si2 B6 N2 O26'
_cell_volume   832.56085966
_cell_formula_units_Z   2
loop_
 _symmetry_equiv_pos_site_id
 _symmetry_equiv_pos_as_xyz
  1  'x, y, z'
loop_
 _atom_site_type_symbol
 _atom_site_label
 _atom_site_symmetry_multiplicity
 _atom_site_fract_x
 _atom_site_fract_y
 _atom_site_fract_z
 _atom_site_occupancy
  Ba  Ba0  1  0.124358  0.861654  0.194608  1
  Ba  Ba1  1  0.046758  0.524282  0.852158  1
  Ba  Ba2  1  0.477523  0.953242  0.852158  1
  Ba  Ba3  1  0.138346  0.262704  0.194608  1
  Ba  Ba4  1  0.333333  0.666667  0.490480  1
  Ba  Ba5  1  0.475718  0.522477  0.852158  1
  Ba  Ba6  1  0.262704  0.124358  0.694608  1
  Ba  Ba7  1  0.737296  0.875642  0.194608  1
  Ba  Ba8  1  0.524282  0.477523  0.352158  1
  Ba  Ba9  1  0.861654  0.737296  0.694608  1
  Ba  Ba10  1  0.522477  0.046758  0.352158  1
  Ba  Ba11  1  0.666667  0.333333  0.990480  1
  Ba  Ba12  1  0.953242  0.475718  0.352158  1
  Ba  Ba13  1  0.875642  0.138346  0.694608  1
  Si  Si14  1  0.333333  0.666667  0.082704  1
  Si  Si15  1  0.666667  0.333333  0.582704  1
  B  B16  1  0.174652  0.814203  0.639957  1
  B  B17  1  0.185797  0.360450  0.639957  1
  B  B18  1  0.639550  0.825348  0.639957  1
  B  B19  1  0.360450  0.174652  0.139957  1
  B  B20  1  0.814203  0.639550  0.139957  1
  B  B21  1  0.825348  0.185797  0.139957  1
  N  N22  1  0.000000  0.000000  0.479573  1
  N  N23  1  0.000000  0.000000  0.979573  1
  O  O24  1  0.149832  0.855757  0.803393  1
  O  O25  1  0.079020  0.688804  0.566252  1
  O  O26  1  0.294686  0.896011  0.544528  1
  O  O27  1  0.186813  0.643218  0.161168  1
  O  O28  1  0.103989  0.398675  0.544528  1
  O  O29  1  0.144243  0.294076  0.803393  1
  O  O30  1  0.333333  0.666667  0.859579  1
  O  O31  1  0.456405  0.813187  0.161168  1
  O  O32  1  0.356782  0.543595  0.161168  1
  O  O33  1  0.311196  0.390217  0.566252  1
  O  O34  1  0.609783  0.920980  0.566252  1
  O  O35  1  0.294076  0.149832  0.303393  1
  O  O36  1  0.398675  0.294686  0.044528  1
  O  O37  1  0.601325  0.705314  0.544528  1
  O  O38  1  0.705924  0.850168  0.803393  1
  O  O39  1  0.390217  0.079020  0.066252  1
  O  O40  1  0.688804  0.609783  0.066252  1
  O  O41  1  0.643218  0.456405  0.661169  1
  O  O42  1  0.543595  0.186813  0.661169  1
  O  O43  1  0.855757  0.705924  0.303393  1
  O  O44  1  0.666667  0.333333  0.359579  1
  O  O45  1  0.896011  0.601325  0.044528  1
  O  O46  1  0.813187  0.356782  0.661169  1
  O  O47  1  0.705314  0.103989  0.044528  1
  O  O48  1  0.920980  0.311196  0.066252  1
  O  O49  1  0.850168  0.144243  0.303393  1
