# generated using pymatgen
data_La(In2Ni)3
_symmetry_space_group_name_H-M   'P 1'
_cell_length_a   4.42332221
_cell_length_b   7.64971063
_cell_length_c   11.96897593
_cell_angle_alpha   90.18130531
_cell_angle_beta   89.78442285
_cell_angle_gamma   90.05080652
_symmetry_Int_Tables_number   1
_chemical_formula_structural   La(In2Ni)3
_chemical_formula_sum   'La2 In12 Ni6'
_cell_volume   404.99080403
_cell_formula_units_Z   2
loop_
 _symmetry_equiv_pos_site_id
 _symmetry_equiv_pos_as_xyz
  1  'x, y, z'
loop_
 _atom_site_type_symbol
 _atom_site_label
 _atom_site_symmetry_multiplicity
 _atom_site_fract_x
 _atom_site_fract_y
 _atom_site_fract_z
 _atom_site_occupancy
  La  La0  1  0.750186  0.749818  0.677450  1
  La  La1  1  0.249366  0.249778  0.322897  1
  In  In2  1  0.250068  0.956785  0.837718  1
  In  In3  1  0.250014  0.051433  0.584151  1
  In  In4  1  0.249707  0.750128  0.251812  1
  In  In5  1  0.750191  0.457126  0.162292  1
  In  In6  1  0.249647  0.249893  0.011839  1
  In  In7  1  0.250195  0.543179  0.837635  1
  In  In8  1  0.749879  0.749816  0.988009  1
  In  In9  1  0.750358  0.043083  0.162376  1
  In  In10  1  0.749794  0.551547  0.415892  1
  In  In11  1  0.250148  0.448642  0.584048  1
  In  In12  1  0.749939  0.948431  0.415759  1
  In  In13  1  0.749879  0.250028  0.748096  1
  Ni  Ni14  1  0.750195  0.250154  0.533174  1
  Ni  Ni15  1  0.249952  0.749994  0.466873  1
  Ni  Ni16  1  0.250074  0.577662  0.064492  1
  Ni  Ni17  1  0.250142  0.922307  0.064597  1
  Ni  Ni18  1  0.750027  0.422357  0.935401  1
  Ni  Ni19  1  0.750238  0.077840  0.935489  1
