# generated using pymatgen
data_Eu2MgH6
_symmetry_space_group_name_H-M   'P 1'
_cell_length_a   5.65886435
_cell_length_b   5.66081400
_cell_length_c   4.21887073
_cell_angle_alpha   90.00000000
_cell_angle_beta   89.76244034
_cell_angle_gamma   120.01139690
_symmetry_Int_Tables_number   1
_chemical_formula_structural   Eu2MgH6
_chemical_formula_sum   'Eu2 Mg1 H6'
_cell_volume   117.02540506
_cell_formula_units_Z   1
loop_
 _symmetry_equiv_pos_site_id
 _symmetry_equiv_pos_as_xyz
  1  'x, y, z'
loop_
 _atom_site_type_symbol
 _atom_site_label
 _atom_site_symmetry_multiplicity
 _atom_site_fract_x
 _atom_site_fract_y
 _atom_site_fract_z
 _atom_site_occupancy
  Eu  Eu0  1  0.662639  0.331319  0.740804  1
  Eu  Eu1  1  0.337361  0.668681  0.259196  1
  Mg  Mg2  1  0.000000  0.000000  0.000000  1
  H  H3  1  0.642618  0.821309  0.760400  1
  H  H4  1  0.179469  0.357291  0.760008  1
  H  H5  1  0.179469  0.822178  0.760008  1
  H  H6  1  0.357382  0.178691  0.239600  1
  H  H7  1  0.820531  0.642709  0.239992  1
  H  H8  1  0.820531  0.177822  0.239992  1
