# generated using pymatgen
data_Ag15(BiI4)16
_symmetry_space_group_name_H-M   'P 1'
_cell_length_a   9.02881548
_cell_length_b   9.05671933
_cell_length_c   71.78075387
_cell_angle_alpha   60.26932260
_cell_angle_beta   60.29754182
_cell_angle_gamma   58.29666106
_symmetry_Int_Tables_number   1
_chemical_formula_structural   Ag15(BiI4)16
_chemical_formula_sum   'Ag15 Bi16 I64'
_cell_volume   4111.42062254
_cell_formula_units_Z   1
loop_
 _symmetry_equiv_pos_site_id
 _symmetry_equiv_pos_as_xyz
  1  'x, y, z'
loop_
 _atom_site_type_symbol
 _atom_site_label
 _atom_site_symmetry_multiplicity
 _atom_site_fract_x
 _atom_site_fract_y
 _atom_site_fract_z
 _atom_site_occupancy
  Ag  Ag0  1  0.500000  0.000000  0.000000  1
  Ag  Ag1  1  0.503851  0.999519  0.124283  1
  Ag  Ag2  1  0.001513  0.504422  0.124048  1
  Ag  Ag3  1  0.500904  0.000235  0.374866  1
  Ag  Ag4  1  0.501411  0.000566  0.249763  1
  Ag  Ag5  1  0.000783  0.501516  0.249742  1
  Ag  Ag6  1  0.000261  0.500806  0.374875  1
  Ag  Ag7  1  0.999739  0.499194  0.625125  1
  Ag  Ag8  1  0.500000  0.000000  0.500000  1
  Ag  Ag9  1  0.499096  0.999765  0.625134  1
  Ag  Ag10  1  0.000000  0.500000  0.500000  1
  Ag  Ag11  1  0.498589  0.999434  0.750237  1
  Ag  Ag12  1  0.496149  0.000481  0.875717  1
  Ag  Ag13  1  0.999217  0.498484  0.750258  1
  Ag  Ag14  1  0.998487  0.495578  0.875952  1
  Bi  Bi15  1  0.000000  0.000000  0.000000  1
  Bi  Bi16  1  0.002451  0.008383  0.060929  1
  Bi  Bi17  1  0.999439  0.000506  0.187224  1
  Bi  Bi18  1  0.000590  0.998960  0.124674  1
  Bi  Bi19  1  -0.000023  0.000097  0.312322  1
  Bi  Bi20  1  0.999833  0.999779  0.374931  1
  Bi  Bi21  1  0.000089  0.999060  0.249896  1
  Bi  Bi22  1  0.000167  0.000221  0.625069  1
  Bi  Bi23  1  0.000030  0.999969  0.437440  1
  Bi  Bi24  1  0.000023  0.999903  0.687678  1
  Bi  Bi25  1  0.000000  0.000000  0.500000  1
  Bi  Bi26  1  0.999970  0.000031  0.562560  1
  Bi  Bi27  1  0.997549  0.991617  0.939071  1
  Bi  Bi28  1  0.999911  0.000940  0.750104  1
  Bi  Bi29  1  0.000561  0.999494  0.812776  1
  Bi  Bi30  1  0.999410  0.001040  0.875326  1
  I  I31  1  0.248641  0.224196  0.031341  1
  I  I32  1  0.239004  0.237028  0.097727  1
  I  I33  1  0.236180  0.740087  0.032866  1
  I  I34  1  0.751339  0.245096  0.031789  1
  I  I35  1  0.237834  0.237413  0.154942  1
  I  I36  1  0.254190  0.754110  0.093778  1
  I  I37  1  0.759932  0.255901  0.092802  1
  I  I38  1  0.238345  0.238111  0.222674  1
  I  I39  1  0.745206  0.780909  0.027122  1
  I  I40  1  0.241266  0.744241  0.157412  1
  I  I41  1  0.760101  0.760570  0.095241  1
  I  I42  1  0.744259  0.242431  0.157382  1
  I  I43  1  0.238110  0.238132  0.280279  1
  I  I44  1  0.254980  0.756620  0.218359  1
  I  I45  1  0.756678  0.255253  0.218183  1
  I  I46  1  0.760297  0.762458  0.152788  1
  I  I47  1  0.242198  0.744697  0.282304  1
  I  I48  1  0.238424  0.238277  0.347625  1
  I  I49  1  0.760685  0.760651  0.219879  1
  I  I50  1  0.744660  0.242244  0.282214  1
  I  I51  1  0.238292  0.238362  0.405272  1
  I  I52  1  0.255064  0.757240  0.343155  1
  I  I53  1  0.757317  0.255011  0.343052  1
  I  I54  1  0.761176  0.761490  0.277534  1
  I  I55  1  0.238508  0.238330  0.472558  1
  I  I56  1  0.242202  0.744896  0.407177  1
  I  I57  1  0.744787  0.242242  0.407079  1
  I  I58  1  0.761197  0.761252  0.344800  1
  I  I59  1  0.238474  0.238524  0.530245  1
  I  I60  1  0.255044  0.757490  0.468040  1
  I  I61  1  0.757573  0.254960  0.467935  1
  I  I62  1  0.761443  0.761566  0.402485  1
  I  I63  1  0.242427  0.745040  0.532065  1
  I  I64  1  0.238557  0.238434  0.597515  1
  I  I65  1  0.744956  0.242510  0.531960  1
  I  I66  1  0.761526  0.761476  0.469755  1
  I  I67  1  0.238803  0.238748  0.655200  1
  I  I68  1  0.255213  0.757758  0.592921  1
  I  I69  1  0.757798  0.255104  0.592823  1
  I  I70  1  0.761492  0.761670  0.527442  1
  I  I71  1  0.238824  0.238510  0.722466  1
  I  I72  1  0.242683  0.744989  0.656948  1
  I  I73  1  0.761708  0.761638  0.594728  1
  I  I74  1  0.744936  0.242760  0.656845  1
  I  I75  1  0.239315  0.239349  0.780121  1
  I  I76  1  0.255340  0.757756  0.717786  1
  I  I77  1  0.239703  0.237542  0.847212  1
  I  I78  1  0.243322  0.744747  0.781817  1
  I  I79  1  0.757802  0.255303  0.717696  1
  I  I80  1  0.761576  0.761723  0.652375  1
  I  I81  1  0.745020  0.243380  0.781641  1
  I  I82  1  0.761890  0.761868  0.719721  1
  I  I83  1  0.239899  0.239430  0.904759  1
  I  I84  1  0.255741  0.757569  0.842618  1
  I  I85  1  0.761655  0.761889  0.777326  1
  I  I86  1  0.240068  0.744099  0.907198  1
  I  I87  1  0.758734  0.255759  0.842588  1
  I  I88  1  0.254794  0.219091  0.972878  1
  I  I89  1  0.745810  0.245890  0.906222  1
  I  I90  1  0.762166  0.762587  0.845058  1
  I  I91  1  0.248661  0.754904  0.968211  1
  I  I92  1  0.763820  0.259913  0.967134  1
  I  I93  1  0.760996  0.762972  0.902273  1
  I  I94  1  0.751359  0.775804  0.968659  1
