# generated using pymatgen
data_In10(Pb2S7)3
_symmetry_space_group_name_H-M   'P 1'
_cell_length_a   3.89257934
_cell_length_b   14.15125324
_cell_length_c   15.97614287
_cell_angle_alpha   95.23670802
_cell_angle_beta   90.01571588
_cell_angle_gamma   97.83310927
_symmetry_Int_Tables_number   1
_chemical_formula_structural   In10(Pb2S7)3
_chemical_formula_sum   'In10 Pb6 S21'
_cell_volume   868.12136758
_cell_formula_units_Z   1
loop_
 _symmetry_equiv_pos_site_id
 _symmetry_equiv_pos_as_xyz
  1  'x, y, z'
loop_
 _atom_site_type_symbol
 _atom_site_label
 _atom_site_symmetry_multiplicity
 _atom_site_fract_x
 _atom_site_fract_y
 _atom_site_fract_z
 _atom_site_occupancy
  In  In0  1  0.687325  0.377444  0.485352  1
  In  In1  1  0.509010  0.026422  0.128690  1
  In  In2  1  0.220250  0.429362  0.692433  1
  In  In3  1  0.786798  0.570679  0.305960  1
  In  In4  1  0.903629  0.799345  0.017635  1
  In  In5  1  0.731739  0.468735  0.892490  1
  In  In6  1  0.311435  0.624523  0.513784  1
  In  In7  1  0.262064  0.528006  0.106533  1
  In  In8  1  0.096477  0.197147  0.981106  1
  In  In9  1  0.481412  0.973144  0.870769  1
  Pb  Pb10  1  0.070107  0.147872  0.705609  1
  Pb  Pb11  1  0.130333  0.273146  0.241335  1
  Pb  Pb12  1  0.932286  0.850861  0.295704  1
  Pb  Pb13  1  0.865577  0.722634  0.756629  1
  Pb  Pb14  1  0.041484  0.100702  0.430150  1
  Pb  Pb15  1  0.952111  0.901976  0.568520  1
  S  S16  1  0.471862  0.930344  0.407669  1
  S  S17  1  0.598644  0.203587  0.095689  1
  S  S18  1  0.533826  0.070795  0.592210  1
  S  S19  1  0.327456  0.654954  0.236467  1
  S  S20  1  0.278911  0.561437  0.812303  1
  S  S21  1  0.227863  0.472743  0.401761  1
  S  S22  1  0.717401  0.437228  0.187168  1
  S  S23  1  0.578724  0.157317  0.873506  1
  S  S24  1  0.614581  0.238145  0.367784  1
  S  S25  1  0.801602  0.607262  0.022447  1
  S  S26  1  0.022944  0.051837  0.236324  1
  S  S27  1  0.676488  0.344279  0.761225  1
  S  S28  1  0.192708  0.389849  0.976360  1
  S  S29  1  0.397426  0.795817  0.903284  1
  S  S30  1  0.005695  0.000432  0.999899  1
  S  S31  1  0.848013  0.698203  0.433088  1
  S  S32  1  0.382037  0.762630  0.631524  1
  S  S33  1  0.969754  0.948149  0.763576  1
  S  S34  1  0.427113  0.842315  0.124949  1
  S  S35  1  0.150274  0.302706  0.564921  1
  S  S36  1  0.756888  0.529007  0.598018  1
