# generated using pymatgen
data_CeBiS2O
_symmetry_space_group_name_H-M   'P 1'
_cell_length_a   4.01552823
_cell_length_b   4.01555307
_cell_length_c   13.61461531
_cell_angle_alpha   89.99952244
_cell_angle_beta   90.00007078
_cell_angle_gamma   90.00149919
_symmetry_Int_Tables_number   1
_chemical_formula_structural   CeBiS2O
_chemical_formula_sum   'Ce2 Bi2 S4 O2'
_cell_volume   219.52977278
_cell_formula_units_Z   2
loop_
 _symmetry_equiv_pos_site_id
 _symmetry_equiv_pos_as_xyz
  1  'x, y, z'
loop_
 _atom_site_type_symbol
 _atom_site_label
 _atom_site_symmetry_multiplicity
 _atom_site_fract_x
 _atom_site_fract_y
 _atom_site_fract_z
 _atom_site_occupancy
  Ce  Ce0  1  0.249999  0.250001  0.590749  1
  Ce  Ce1  1  0.750002  0.749998  0.409130  1
  Bi  Bi2  1  0.250002  0.249998  0.124338  1
  Bi  Bi3  1  0.750000  0.750000  0.875687  1
  S  S4  1  0.249997  0.250002  0.314870  1
  S  S5  1  0.250005  0.249997  0.880980  1
  S  S6  1  0.749998  0.750002  0.685195  1
  S  S7  1  0.749998  0.750001  0.119076  1
  O  O8  1  0.750000  0.250000  0.499988  1
  O  O9  1  0.249999  0.750001  0.499987  1
