# generated using pymatgen
data_Na17Zr7Sc5Si6(PO6)12
_symmetry_space_group_name_H-M   'P 1'
_cell_length_a   9.24451877
_cell_length_b   9.27767535
_cell_length_c   27.81113005
_cell_angle_alpha   58.95547847
_cell_angle_beta   59.31089699
_cell_angle_gamma   59.28346762
_symmetry_Int_Tables_number   1
_chemical_formula_structural   Na17Zr7Sc5Si6(PO6)12
_chemical_formula_sum   'Na17 Zr7 Sc5 Si6 P12 O72'
_cell_volume   1655.22983062
_cell_formula_units_Z   1
loop_
 _symmetry_equiv_pos_site_id
 _symmetry_equiv_pos_as_xyz
  1  'x, y, z'
loop_
 _atom_site_type_symbol
 _atom_site_label
 _atom_site_symmetry_multiplicity
 _atom_site_fract_x
 _atom_site_fract_y
 _atom_site_fract_z
 _atom_site_occupancy
  Na  Na0  1  0.017935  0.994516  0.329014  1
  Na  Na1  1  0.378233  0.754032  0.035310  1
  Na  Na2  1  0.754908  0.108497  0.127222  1
  Na  Na3  1  0.481990  0.505295  0.169828  1
  Na  Na4  1  0.011740  0.997560  0.665430  1
  Na  Na5  1  0.617370  0.240555  0.294566  1
  Na  Na6  1  0.887668  0.628838  0.080046  1
  Na  Na7  1  0.749572  0.108180  0.463780  1
  Na  Na8  1  0.487750  0.504536  0.501109  1
  Na  Na9  1  0.249928  0.879450  0.540285  1
  Na  Na10  1  0.617419  0.247839  0.626943  1
  Na  Na11  1  0.881470  0.620915  0.417415  1
  Na  Na12  1  0.750835  0.109905  0.796703  1
  Na  Na13  1  0.488234  0.504917  0.834068  1
  Na  Na14  1  0.244839  0.884004  0.876506  1
  Na  Na15  1  0.628714  0.242993  0.960778  1
  Na  Na16  1  0.882554  0.618980  0.750689  1
  Zr  Zr17  1  0.147337  0.145093  0.045228  1
  Zr  Zr18  1  0.344964  0.350402  0.121328  1
  Zr  Zr19  1  0.152797  0.140269  0.379707  1
  Zr  Zr20  1  0.345727  0.362400  0.453386  1
  Zr  Zr21  1  0.642310  0.658949  0.216604  1
  Zr  Zr22  1  0.153424  0.140376  0.712662  1
  Zr  Zr23  1  0.344417  0.363671  0.786376  1
  Sc  Sc24  1  0.858022  0.849052  0.280282  1
  Sc  Sc25  1  0.650914  0.656687  0.550762  1
  Sc  Sc26  1  0.848540  0.847565  0.614681  1
  Sc  Sc27  1  0.653121  0.655692  0.883045  1
  Sc  Sc28  1  0.853792  0.853403  0.947467  1
  Si  Si29  1  0.045066  0.746638  0.153665  1
  Si  Si30  1  0.459681  0.045599  0.251043  1
  Si  Si31  1  0.042298  0.750496  0.486265  1
  Si  Si32  1  0.457411  0.041383  0.583238  1
  Si  Si33  1  0.042225  0.750730  0.819827  1
  Si  Si34  1  0.461932  0.042580  0.915492  1
  P  P35  1  0.748489  0.460451  0.014062  1
  P  P36  1  0.247812  0.543967  0.319171  1
  P  P37  1  0.542669  0.954225  0.083211  1
  P  P38  1  0.951782  0.246719  0.182288  1
  P  P39  1  0.750560  0.458927  0.347839  1
  P  P40  1  0.250082  0.544369  0.651647  1
  P  P41  1  0.546987  0.955528  0.417053  1
  P  P42  1  0.952805  0.249330  0.514776  1
  P  P43  1  0.749666  0.456755  0.681090  1
  P  P44  1  0.251827  0.543157  0.984987  1
  P  P45  1  0.546556  0.956063  0.750341  1
  P  P46  1  0.952965  0.250000  0.847163  1
  O  O47  1  0.117253  0.285215  0.168732  1
  O  O48  1  0.284969  0.512136  0.039875  1
  O  O49  1  0.067513  0.925920  0.094287  1
  O  O50  1  0.512181  0.118132  0.094079  1
  O  O51  1  0.009436  0.774647  0.211504  1
  O  O52  1  0.232909  0.582986  0.138680  1
  O  O53  1  0.272059  0.073650  0.306202  1
  O  O54  1  0.443755  0.220826  0.189470  1
  O  O55  1  0.582537  0.431576  0.072089  1
  O  O56  1  0.219419  0.376767  0.330443  1
  O  O57  1  0.082731  0.713267  0.314055  1
  O  O58  1  0.375916  0.987705  0.073575  1
  O  O59  1  0.631041  0.021894  0.260079  1
  O  O60  1  0.122393  0.280229  0.501422  1
  O  O61  1  0.907523  0.288007  0.026768  1
  O  O62  1  0.772664  0.624771  0.006029  1
  O  O63  1  0.417689  0.558032  0.262313  1
  O  O64  1  0.283196  0.506637  0.374039  1
  O  O65  1  0.571386  0.776983  0.137526  1
  O  O66  1  0.057236  0.932492  0.426269  1
  O  O67  1  0.516277  0.120592  0.426922  1
  O  O68  1  0.712386  0.929482  0.028983  1
  O  O69  1  0.017741  0.785574  0.542096  1
  O  O70  1  0.227676  0.581747  0.475309  1
  O  O71  1  0.779377  0.414715  0.189549  1
  O  O72  1  0.980627  0.220603  0.127008  1
  O  O73  1  0.272316  0.073994  0.639415  1
  O  O74  1  0.493595  0.872288  0.239509  1
  O  O75  1  0.926572  0.090603  0.241473  1
  O  O76  1  0.443011  0.221301  0.522502  1
  O  O77  1  0.716680  0.486707  0.293686  1
  O  O78  1  0.589426  0.424366  0.405920  1
  O  O79  1  0.218897  0.377871  0.663886  1
  O  O80  1  0.085784  0.717747  0.645058  1
  O  O81  1  0.870530  0.718278  0.161573  1
  O  O82  1  0.377184  0.995844  0.406605  1
  O  O83  1  0.630009  0.018302  0.592568  1
  O  O84  1  0.122620  0.280307  0.834231  1
  O  O85  1  0.910670  0.282147  0.357927  1
  O  O86  1  0.782117  0.618546  0.339215  1
  O  O87  1  0.414332  0.564664  0.593923  1
  O  O88  1  0.281994  0.507886  0.707108  1
  O  O89  1  0.564154  0.779901  0.471754  1
  O  O90  1  0.057002  0.932232  0.759629  1
  O  O91  1  0.517124  0.120461  0.760123  1
  O  O92  1  0.719275  0.931137  0.362791  1
  O  O93  1  0.017532  0.784454  0.875698  1
  O  O94  1  0.227387  0.581595  0.808715  1
  O  O95  1  0.780313  0.413000  0.522772  1
  O  O96  1  0.983005  0.219921  0.459766  1
  O  O97  1  0.285982  0.065471  0.974969  1
  O  O98  1  0.482330  0.873995  0.571454  1
  O  O99  1  0.935271  0.085305  0.573272  1
  O  O100  1  0.442956  0.221549  0.855718  1
  O  O101  1  0.717192  0.482579  0.627597  1
  O  O102  1  0.588999  0.423796  0.739741  1
  O  O103  1  0.223456  0.372615  0.999001  1
  O  O104  1  0.085634  0.709717  0.978205  1
  O  O105  1  0.870297  0.722082  0.493824  1
  O  O106  1  0.377647  0.995689  0.739828  1
  O  O107  1  0.634351  0.016469  0.925084  1
  O  O108  1  0.910520  0.280801  0.691880  1
  O  O109  1  0.782373  0.616938  0.672520  1
  O  O110  1  0.416154  0.563433  0.927338  1
  O  O111  1  0.564383  0.780681  0.805080  1
  O  O112  1  0.719376  0.931116  0.695742  1
  O  O113  1  0.780933  0.414603  0.855639  1
  O  O114  1  0.983117  0.224854  0.791299  1
  O  O115  1  0.483773  0.869022  0.907505  1
  O  O116  1  0.933550  0.085757  0.904044  1
  O  O117  1  0.716195  0.484572  0.960929  1
  O  O118  1  0.870552  0.722127  0.826935  1
