# generated using pymatgen
data_Zn2GaP3H8(NO6)2
_symmetry_space_group_name_H-M   'P 1'
_cell_length_a   11.88093640
_cell_length_b   12.10770726
_cell_length_c   11.72682114
_cell_angle_alpha   108.53162197
_cell_angle_beta   107.39646338
_cell_angle_gamma   110.06506596
_symmetry_Int_Tables_number   1
_chemical_formula_structural   Zn2GaP3H8(NO6)2
_chemical_formula_sum   'Zn8 Ga4 P12 H32 N8 O48'
_cell_volume   1335.41671504
_cell_formula_units_Z   4
loop_
 _symmetry_equiv_pos_site_id
 _symmetry_equiv_pos_as_xyz
  1  'x, y, z'
loop_
 _atom_site_type_symbol
 _atom_site_label
 _atom_site_symmetry_multiplicity
 _atom_site_fract_x
 _atom_site_fract_y
 _atom_site_fract_z
 _atom_site_occupancy
  Zn  Zn0  1  0.025541  0.423104  0.286235  1
  Zn  Zn1  1  0.736739  0.202637  0.647305  1
  Zn  Zn2  1  0.422355  0.474023  0.724174  1
  Zn  Zn3  1  0.445274  0.252832  0.022425  1
  Zn  Zn4  1  0.046091  0.083902  0.796105  1
  Zn  Zn5  1  0.247223  0.704405  0.786405  1
  Zn  Zn6  1  0.505385  0.720520  0.419491  1
  Zn  Zn7  1  0.688936  0.775722  0.241723  1
  Ga  Ga8  1  0.068475  0.834019  0.052890  1
  Ga  Ga9  1  0.759985  0.347868  0.524097  1
  Ga  Ga10  1  0.915249  0.177088  0.163465  1
  Ga  Ga11  1  0.224407  0.948825  0.332152  1
  P  P12  1  0.229257  0.962196  0.922040  1
  P  P13  1  0.264159  0.712610  0.374472  1
  P  P14  1  0.302287  0.573844  0.537151  1
  P  P15  1  0.535330  0.759722  0.970672  1
  P  P16  1  0.274011  0.216779  0.728011  1
  P  P17  1  0.472205  0.246065  0.625911  1
  P  P18  1  0.783268  0.963243  0.546714  1
  P  P19  1  0.564232  0.516378  0.281745  1
  P  P20  1  0.894524  0.184405  0.918064  1
  P  P21  1  0.979423  0.584837  0.775574  1
  P  P22  1  0.727951  0.389760  0.261350  1
  P  P23  1  0.825157  0.876989  0.092576  1
  H  H24  1  0.062707  0.777883  0.599780  1
  H  H25  1  0.042752  0.729452  0.437235  1
  H  H26  1  0.172996  0.402870  0.972481  1
  H  H27  1  0.207676  0.536290  0.944837  1
  H  H28  1  0.096876  0.263535  0.559319  1
  H  H29  1  0.464846  0.911703  0.684884  1
  H  H30  1  0.403005  0.975258  0.166708  1
  H  H31  1  0.232492  0.320717  0.298887  1
  H  H32  1  0.276671  0.559698  0.105616  1
  H  H33  1  0.180264  0.167815  0.172216  1
  H  H34  1  0.304870  0.229184  0.332013  1
  H  H35  1  0.532008  0.937895  0.196562  1
  H  H36  1  0.334418  0.297152  0.229807  1
  H  H37  1  0.330817  0.495602  0.995118  1
  H  H38  1  0.725837  0.782415  0.817332  1
  H  H39  1  0.453448  0.050637  0.719702  1
  H  H40  1  0.487040  0.001972  0.840636  1
  H  H41  1  0.660156  0.663531  0.658250  1
  H  H42  1  0.684944  0.465121  0.904372  1
  H  H43  1  0.785407  0.819555  0.712415  1
  H  H44  1  0.606340  0.062402  0.789194  1
  H  H45  1  0.819812  0.717439  0.773130  1
  H  H46  1  0.496259  0.005677  0.323768  1
  H  H47  1  0.564030  0.101740  0.259252  1
  H  H48  1  0.908843  0.678487  0.465132  1
  H  H49  1  0.993936  0.839749  0.504479  1
  H  H50  1  0.723484  0.446235  0.046311  1
  H  H51  1  0.784867  0.603124  0.060123  1
  H  H52  1  0.933219  0.195750  0.535813  1
  H  H53  1  0.844974  0.503581  0.001049  1
  H  H54  1  0.996714  0.323175  0.497641  1
  H  H55  1  0.962416  0.168173  0.399890  1
  N  N56  1  0.500178  0.005716  0.237313  1
  N  N57  1  0.261162  0.251417  0.256801  1
  N  N58  1  0.248082  0.498391  0.004733  1
  N  N59  1  0.747140  0.744778  0.738722  1
  N  N60  1  0.503132  0.006539  0.760202  1
  N  N61  1  0.002763  0.757372  0.502285  1
  N  N62  1  0.759742  0.504680  0.002897  1
  N  N63  1  0.997579  0.238547  0.497483  1
  O  O64  1  0.186299  0.838826  0.790636  1
  O  O65  1  0.024355  0.240513  0.902178  1
  O  O66  1  0.119809  0.596666  0.842530  1
  O  O67  1  0.925506  0.880590  0.034054  1
  O  O68  1  0.809909  0.895674  0.429021  1
  O  O69  1  0.902840  0.309745  0.039298  1
  O  O70  1  0.118331  0.619569  0.329860  1
  O  O71  1  0.043515  0.810102  0.274326  1
  O  O72  1  0.785467  0.223907  0.053786  1
  O  O73  1  0.130318  0.018179  0.905870  1
  O  O74  1  0.213512  0.588441  0.605858  1
  O  O75  1  0.310484  0.860795  0.429772  1
  O  O76  1  0.217758  0.453667  0.395715  1
  O  O77  1  0.230248  0.922357  0.039837  1
  O  O78  1  0.252177  0.314530  0.675807  1
  O  O79  1  0.359887  0.708095  0.514629  1
  O  O80  1  0.323963  0.665500  0.279381  1
  O  O81  1  0.362922  0.292579  0.882241  1
  O  O82  1  0.481619  0.609389  0.907593  1
  O  O83  1  0.348678  0.152375  0.653199  1
  O  O84  1  0.680417  0.828893  0.965173  1
  O  O85  1  0.447249  0.803819  0.892659  1
  O  O86  1  0.554054  0.584857  0.411145  1
  O  O87  1  0.742678  0.453832  0.689887  1
  O  O88  1  0.629475  0.903654  0.506296  1
  O  O89  1  0.406189  0.234145  0.487833  1
  O  O90  1  0.533654  0.387055  0.745404  1
  O  O91  1  0.564520  0.816020  0.120727  1
  O  O92  1  0.447075  0.372541  0.189087  1
  O  O93  1  0.857163  0.944694  0.667761  1
  O  O94  1  0.573913  0.594293  0.202246  1
  O  O95  1  0.561572  0.180858  0.642086  1
  O  O96  1  0.430721  0.577374  0.622656  1
  O  O97  1  0.705166  0.514989  0.340372  1
  O  O98  1  0.139303  0.098461  0.683100  1
  O  O99  1  0.051008  0.736250  0.150132  1
  O  O100  1  0.765368  0.138563  0.794050  1
  O  O101  1  0.970669  0.705171  0.863400  1
  O  O102  1  0.670855  0.287896  0.309476  1
  O  O103  1  0.644305  0.342896  0.110149  1
  O  O104  1  0.792641  0.771284  0.138697  1
  O  O105  1  0.931873  0.550062  0.625981  1
  O  O106  1  0.836793  0.113240  0.584699  1
  O  O107  1  0.879014  0.457544  0.315725  1
  O  O108  1  0.376380  0.066576  0.971980  1
  O  O109  1  0.869116  0.457782  0.777572  1
  O  O110  1  0.863305  0.016991  0.196046  1
  O  O111  1  0.896564  0.085731  0.974938  1
