# generated using pymatgen
data_V2Bi7O15
_symmetry_space_group_name_H-M   'P 1'
_cell_length_a   11.65392807
_cell_length_b   11.65392807
_cell_length_c   26.78238882
_cell_angle_alpha   96.50729408
_cell_angle_beta   96.29059146
_cell_angle_gamma   119.19229561
_symmetry_Int_Tables_number   1
_chemical_formula_structural   V2Bi7O15
_chemical_formula_sum   'V16 Bi56 O120'
_cell_volume   3097.46454206
_cell_formula_units_Z   8
loop_
 _symmetry_equiv_pos_site_id
 _symmetry_equiv_pos_as_xyz
  1  'x, y, z'
loop_
 _atom_site_type_symbol
 _atom_site_label
 _atom_site_symmetry_multiplicity
 _atom_site_fract_x
 _atom_site_fract_y
 _atom_site_fract_z
 _atom_site_occupancy
  V  V0  1  0.644466  0.252380  0.187896  1
  V  V1  1  0.308837  0.060043  0.060103  1
  V  V2  1  0.164297  0.566576  0.435931  1
  V  V3  1  0.756693  0.225995  0.694254  1
  V  V4  1  0.835703  0.433424  0.564069  1
  V  V5  1  0.435515  0.543429  0.687896  1
  V  V6  1  0.968259  0.937561  0.194254  1
  V  V7  1  0.355534  0.747620  0.812104  1
  V  V8  1  0.369355  0.271634  0.935931  1
  V  V9  1  0.564485  0.456571  0.312104  1
  V  V10  1  0.031741  0.062439  0.805746  1
  V  V11  1  0.630645  0.728366  0.064069  1
  V  V12  1  0.499941  0.248734  0.439897  1
  V  V13  1  0.691163  0.939957  0.939897  1
  V  V14  1  0.500059  0.751266  0.560103  1
  V  V15  1  0.243307  0.774005  0.305746  1
  Bi  Bi16  1  0.300042  0.270264  0.179069  1
  Bi  Bi17  1  0.302256  0.930117  0.187063  1
  Bi  Bi18  1  0.833468  0.582656  0.439191  1
  Bi  Bi19  1  0.699958  0.729736  0.820931  1
  Bi  Bi20  1  0.843507  0.114030  0.559334  1
  Bi  Bi21  1  0.488104  0.397497  0.556445  1
  Bi  Bi22  1  0.356535  0.605723  0.939191  1
  Bi  Bi23  1  0.815691  0.768706  0.562189  1
  Bi  Bi24  1  0.293483  0.746498  0.062189  1
  Bi  Bi25  1  0.581094  0.811338  0.316474  1
  Bi  Bi26  1  0.097302  0.210377  0.685972  1
  Bi  Bi27  1  0.024405  0.411330  0.814028  1
  Bi  Bi28  1  0.643465  0.394277  0.060809  1
  Bi  Bi29  1  0.029551  0.599676  0.939519  1
  Bi  Bi30  1  0.470323  0.072042  0.562922  1
  Bi  Bi31  1  0.658948  0.068342  0.056445  1
  Bi  Bi32  1  0.757103  0.553105  0.690124  1
  Bi  Bi33  1  0.864012  0.259693  0.453031  1
  Bi  Bi34  1  0.299839  0.608997  0.177834  1
  Bi  Bi35  1  0.005136  0.735380  0.816474  1
  Bi  Bi36  1  0.511896  0.602503  0.443555  1
  Bi  Bi37  1  0.697744  0.069883  0.812937  1
  Bi  Bi38  1  0.839844  0.909968  0.439519  1
  Bi  Bi39  1  0.706517  0.253502  0.937811  1
  Bi  Bi40  1  0.184309  0.231294  0.437811  1
  Bi  Bi41  1  0.591195  0.120973  0.320931  1
  Bi  Bi42  1  0.931163  0.122005  0.322166  1
  Bi  Bi43  1  0.068837  0.877995  0.677834  1
  Bi  Bi44  1  0.242897  0.446895  0.309876  1
  Bi  Bi45  1  0.970449  0.400324  0.060481  1
  Bi  Bi46  1  0.756946  0.884806  0.687063  1
  Bi  Bi47  1  0.380266  0.411219  0.815754  1
  Bi  Bi48  1  0.243054  0.115194  0.312937  1
  Bi  Bi49  1  0.341052  0.931658  0.943555  1
  Bi  Bi50  1  0.135988  0.740307  0.546969  1
  Bi  Bi51  1  0.637019  0.933021  0.190124  1
  Bi  Bi52  1  0.994864  0.264620  0.183526  1
  Bi  Bi53  1  0.054695  0.284172  0.940666  1
  Bi  Bi54  1  0.904534  0.435487  0.315754  1
  Bi  Bi55  1  0.529677  0.927958  0.437078  1
  Bi  Bi56  1  0.619734  0.588781  0.184246  1
  Bi  Bi57  1  0.095466  0.564513  0.684246  1
  Bi  Bi58  1  0.362981  0.066979  0.809876  1
  Bi  Bi59  1  0.156493  0.885970  0.440666  1
  Bi  Bi60  1  0.700161  0.391003  0.822166  1
  Bi  Bi61  1  0.160156  0.090032  0.560481  1
  Bi  Bi62  1  0.693338  0.589020  0.953031  1
  Bi  Bi63  1  0.990880  0.092598  0.062922  1
  Bi  Bi64  1  0.166532  0.417344  0.560809  1
  Bi  Bi65  1  0.408805  0.879027  0.679069  1
  Bi  Bi66  1  0.975595  0.588670  0.185972  1
  Bi  Bi67  1  0.418906  0.188662  0.683526  1
  Bi  Bi68  1  0.902698  0.789623  0.314028  1
  Bi  Bi69  1  0.306662  0.410980  0.046969  1
  Bi  Bi70  1  0.009120  0.907402  0.937078  1
  Bi  Bi71  1  0.945305  0.715828  0.059334  1
  O  O72  1  0.788542  0.887161  0.342846  1
  O  O73  1  0.220220  0.472417  0.983855  1
  O  O74  1  0.806715  0.244924  0.338442  1
  O  O75  1  0.669635  0.201403  0.634393  1
  O  O76  1  0.406438  0.637463  0.829709  1
  O  O77  1  0.623671  0.596658  0.098866  1
  O  O78  1  0.290816  0.196327  0.088140  1
  O  O79  1  0.969964  0.650562  0.701214  1
  O  O80  1  0.002209  0.475195  0.598866  1
  O  O81  1  0.044315  0.445696  0.157154  1
  O  O82  1  0.358267  0.019021  0.726693  1
  O  O83  1  0.096387  0.777423  0.310591  1
  O  O84  1  0.879087  0.181270  0.093606  1
  O  O85  1  0.230275  0.734728  0.471156  1
  O  O86  1  0.125196  0.463973  0.892368  1
  O  O87  1  0.792329  0.631574  0.773307  1
  O  O88  1  0.271306  0.925529  0.099832  1
  O  O89  1  0.307754  0.576729  0.670291  1
  O  O90  1  0.441764  0.576910  0.538675  1
  O  O91  1  0.900416  0.959327  0.535102  1
  O  O92  1  0.805068  0.341438  0.226242  1
  O  O93  1  0.175424  0.957612  0.005051  1
  O  O94  1  0.608187  0.202676  0.411860  1
  O  O95  1  0.343475  0.900560  0.273207  1
  O  O96  1  0.872648  0.929733  0.773207  1
  O  O97  1  0.406481  0.468273  0.161558  1
  O  O98  1  0.550652  0.731250  0.201214  1
  O  O99  1  0.527000  0.373094  0.983321  1
  O  O100  1  0.211458  0.112839  0.657154  1
  O  O101  1  0.071605  0.232828  0.607632  1
  O  O102  1  0.154599  0.071939  0.771352  1
  O  O103  1  0.822483  0.747835  0.664252  1
  O  O104  1  0.470938  0.477032  0.633927  1
  O  O105  1  0.449348  0.268750  0.798786  1
  O  O106  1  0.674304  0.828527  0.599832  1
  O  O107  1  0.452561  0.170373  0.494949  1
  O  O108  1  0.461764  0.096911  0.038675  1
  O  O109  1  0.751881  0.049256  0.469893  1
  O  O110  1  0.769725  0.265272  0.528844  1
  O  O111  1  0.011438  0.763635  0.483855  1
  O  O112  1  0.932989  0.964758  0.134393  1
  O  O113  1  0.473000  0.626906  0.016679  1
  O  O114  1  0.741455  0.706013  0.469685  1
  O  O115  1  0.120913  0.818730  0.906394  1
  O  O116  1  0.924225  0.365313  0.964898  1
  O  O117  1  0.384804  0.421174  0.726242  1
  O  O118  1  0.272037  0.524540  0.405232  1
  O  O119  1  0.709184  0.803673  0.911860  1
  O  O120  1  0.120591  0.244173  0.133780  1
  O  O121  1  0.558236  0.423090  0.461325  1
  O  O122  1  0.529062  0.522968  0.366073  1
  O  O123  1  0.030036  0.349438  0.298786  1
  O  O124  1  0.193285  0.755076  0.661558  1
  O  O125  1  0.736328  0.271770  0.030315  1
  O  O126  1  0.800587  0.383246  0.728648  1
  O  O127  1  0.325696  0.171473  0.400168  1
  O  O128  1  0.692246  0.423271  0.329709  1
  O  O129  1  0.966832  0.785795  0.189409  1
  O  O130  1  0.610393  0.986812  0.366220  1
  O  O131  1  0.177517  0.252165  0.335748  1
  O  O132  1  0.530675  0.134353  0.218326  1
  O  O133  1  0.259835  0.562489  0.093980  1
  O  O134  1  0.836974  0.288286  0.835235  1
  O  O135  1  0.824576  0.042388  0.994949  1
  O  O136  1  0.928395  0.767172  0.392368  1
  O  O137  1  0.236428  0.240881  0.971156  1
  O  O138  1  0.889773  0.543679  0.516679  1
  O  O139  1  0.033168  0.214205  0.810591  1
  O  O140  1  0.127352  0.070267  0.226793  1
  O  O141  1  0.593562  0.362537  0.170291  1
  O  O142  1  0.740165  0.437511  0.906020  1
  O  O143  1  0.389607  0.013188  0.633780  1
  O  O144  1  0.656895  0.162988  0.133927  1
  O  O145  1  0.656525  0.099440  0.726793  1
  O  O146  1  0.248119  0.950744  0.530107  1
  O  O147  1  0.110227  0.456321  0.483321  1
  O  O148  1  0.641733  0.980979  0.273307  1
  O  O149  1  0.583583  0.158231  0.835748  1
  O  O150  1  0.874804  0.536027  0.107632  1
  O  O151  1  0.079363  0.281988  0.030107  1
  O  O152  1  0.376329  0.403342  0.901134  1
  O  O153  1  0.469325  0.865647  0.781674  1
  O  O154  1  0.593519  0.531727  0.838442  1
  O  O155  1  0.615196  0.578826  0.273758  1
  O  O156  1  0.779780  0.527583  0.016145  1
  O  O157  1  0.547439  0.829627  0.505051  1
  O  O158  1  0.587664  0.785481  0.406394  1
  O  O159  1  0.763572  0.759119  0.028844  1
  O  O160  1  0.728694  0.074471  0.900168  1
  O  O161  1  0.263672  0.728230  0.969685  1
  O  O162  1  0.416417  0.841769  0.164252  1
  O  O163  1  0.920637  0.718012  0.969893  1
  O  O164  1  0.380692  0.133195  0.905232  1
  O  O165  1  0.046949  0.998261  0.335235  1
  O  O166  1  0.258545  0.293987  0.530315  1
  O  O167  1  0.845401  0.928061  0.228648  1
  O  O168  1  0.163026  0.711714  0.164765  1
  O  O169  1  0.583974  0.687651  0.718326  1
  O  O170  1  0.968509  0.165855  0.406020  1
  O  O171  1  0.953051  0.001739  0.664765  1
  O  O172  1  0.619308  0.866805  0.094768  1
  O  O173  1  0.727963  0.475460  0.594768  1
  O  O174  1  0.412336  0.214519  0.593606  1
  O  O175  1  0.391813  0.797324  0.588140  1
  O  O176  1  0.955685  0.554304  0.842846  1
  O  O177  1  0.031491  0.834145  0.593980  1
  O  O178  1  0.416026  0.312349  0.281674  1
  O  O179  1  0.988562  0.236365  0.516145  1
  O  O180  1  0.199413  0.616754  0.271352  1
  O  O181  1  0.207671  0.368426  0.226693  1
  O  O182  1  0.067011  0.035242  0.865607  1
  O  O183  1  0.879409  0.755827  0.866220  1
  O  O184  1  0.538236  0.903089  0.961325  1
  O  O185  1  0.330365  0.798597  0.365607  1
  O  O186  1  0.997791  0.524805  0.401134  1
  O  O187  1  0.903613  0.222577  0.689409  1
  O  O188  1  0.194932  0.658562  0.773758  1
  O  O189  1  0.343105  0.837012  0.866073  1
  O  O190  1  0.075775  0.634687  0.035102  1
  O  O191  1  0.099584  0.040673  0.464898  1
