# generated using pymatgen
data_CaPr2Ti2ZnO9
_symmetry_space_group_name_H-M   'P 1'
_cell_length_a   5.50055694
_cell_length_b   5.72497521
_cell_length_c   23.41610841
_cell_angle_alpha   90.05243529
_cell_angle_beta   89.84813414
_cell_angle_gamma   90.29977687
_symmetry_Int_Tables_number   1
_chemical_formula_structural   CaPr2Ti2ZnO9
_chemical_formula_sum   'Ca4 Pr8 Ti8 Zn4 O36'
_cell_volume   737.37320067
_cell_formula_units_Z   4
loop_
 _symmetry_equiv_pos_site_id
 _symmetry_equiv_pos_as_xyz
  1  'x, y, z'
loop_
 _atom_site_type_symbol
 _atom_site_label
 _atom_site_symmetry_multiplicity
 _atom_site_fract_x
 _atom_site_fract_y
 _atom_site_fract_z
 _atom_site_occupancy
  Ca  Ca0  1  0.492196  0.449507  0.588266  1
  Ca  Ca1  1  0.492870  0.449645  0.919535  1
  Ca  Ca2  1  -0.005118  0.060158  0.413601  1
  Ca  Ca3  1  0.991065  0.058594  0.744605  1
  Pr  Pr4  1  0.017173  0.940598  0.252302  1
  Pr  Pr5  1  0.015372  0.931910  0.586760  1
  Pr  Pr6  1  0.013106  0.932397  0.917113  1
  Pr  Pr7  1  0.483060  0.442972  0.250757  1
  Pr  Pr8  1  0.514116  0.557630  0.081894  1
  Pr  Pr9  1  0.515925  0.559472  0.416483  1
  Pr  Pr10  1  0.515516  0.560452  0.746867  1
  Pr  Pr11  1  0.981817  0.057445  0.081999  1
  Ti  Ti12  1  0.029923  0.482028  0.503275  1
  Ti  Ti13  1  0.030044  0.481786  0.834171  1
  Ti  Ti14  1  0.525809  0.012158  0.498729  1
  Ti  Ti15  1  0.491468  0.003110  -0.000762  1
  Ti  Ti16  1  0.509180  0.003315  0.334575  1
  Ti  Ti17  1  0.526156  0.013330  0.830525  1
  Ti  Ti18  1  0.499147  0.007231  0.666858  1
  Ti  Ti19  1  0.997888  0.500308  0.166757  1
  Zn  Zn20  1  0.498377  0.999675  0.166769  1
  Zn  Zn21  1  0.000637  0.494877  0.997032  1
  Zn  Zn22  1  0.001493  0.495866  0.335555  1
  Zn  Zn23  1  0.002420  0.491101  0.666039  1
  O  O24  1  0.090749  0.472623  0.085828  1
  O  O25  1  0.085521  0.472130  0.422606  1
  O  O26  1  0.083917  0.473095  0.754062  1
  O  O27  1  0.206366  0.186729  0.653192  1
  O  O28  1  0.188539  0.212642  0.184019  1
  O  O29  1  0.204130  0.206103  0.517964  1
  O  O30  1  0.212317  0.192030  0.319398  1
  O  O31  1  0.203892  0.205772  0.849136  1
  O  O32  1  0.205196  0.187530  0.984700  1
  O  O33  1  0.287193  0.694845  0.182645  1
  O  O34  1  0.309636  0.712256  0.319649  1
  O  O35  1  0.290828  0.698198  0.516708  1
  O  O36  1  0.305845  0.714338  0.651883  1
  O  O37  1  0.306433  0.714825  0.981550  1
  O  O38  1  0.290488  0.698211  0.847939  1
  O  O39  1  0.407503  0.973164  0.079128  1
  O  O40  1  0.407761  0.977855  0.420419  1
  O  O41  1  0.408063  0.979089  0.751395  1
  O  O42  1  0.581763  0.027910  0.582236  1
  O  O43  1  0.592259  0.026289  0.254208  1
  O  O44  1  0.582707  0.030780  0.913212  1
  O  O45  1  0.689923  0.285764  0.014963  1
  O  O46  1  0.706966  0.306720  0.150731  1
  O  O47  1  0.685607  0.291905  0.349766  1
  O  O48  1  0.701258  0.289057  0.484694  1
  O  O49  1  0.684449  0.289305  0.680715  1
  O  O50  1  0.701191  0.289145  0.815679  1
  O  O51  1  0.786378  0.808923  0.012533  1
  O  O52  1  0.786041  0.811160  0.351089  1
  O  O53  1  0.805271  0.785773  0.149156  1
  O  O54  1  0.781753  0.811196  0.681118  1
  O  O55  1  0.784850  0.806891  0.485057  1
  O  O56  1  0.784287  0.807059  0.816502  1
  O  O57  1  0.906498  0.528413  0.247573  1
  O  O58  1  0.902706  0.523481  0.578706  1
  O  O59  1  0.902076  0.523229  0.910138  1
