# generated using pymatgen
data_Na3AlP3NO9
_symmetry_space_group_name_H-M   'P 1'
_cell_length_a   9.40675300
_cell_length_b   9.40675300
_cell_length_c   9.40675300
_cell_angle_alpha   90.00000000
_cell_angle_beta   90.00000000
_cell_angle_gamma   90.00000000
_symmetry_Int_Tables_number   1
_chemical_formula_structural   Na3AlP3NO9
_chemical_formula_sum   'Na12 Al4 P12 N4 O36'
_cell_volume   832.37537155
_cell_formula_units_Z   4
loop_
 _symmetry_equiv_pos_site_id
 _symmetry_equiv_pos_as_xyz
  1  'x, y, z'
loop_
 _atom_site_type_symbol
 _atom_site_label
 _atom_site_symmetry_multiplicity
 _atom_site_fract_x
 _atom_site_fract_y
 _atom_site_fract_z
 _atom_site_occupancy
  N  N0  1  0.942559  0.557441  0.442559  1
  N  N1  1  0.557441  0.442559  0.942559  1
  N  N2  1  0.442559  0.942559  0.557441  1
  N  N3  1  0.057441  0.057441  0.057441  1
  O  O4  1  0.349545  0.754063  0.379516  1
  O  O5  1  0.589044  0.697525  0.059639  1
  O  O6  1  0.910956  0.302475  0.559639  1
  O  O7  1  0.697525  0.059639  0.589044  1
  O  O8  1  0.559639  0.910956  0.302475  1
  O  O9  1  0.059639  0.589044  0.697525  1
  O  O10  1  0.802475  0.940361  0.089044  1
  O  O11  1  0.940361  0.089044  0.802475  1
  O  O12  1  0.254063  0.120484  0.650455  1
  O  O13  1  0.650455  0.254063  0.120484  1
  O  O14  1  0.120484  0.650455  0.254063  1
  O  O15  1  0.379516  0.349545  0.754063  1
  O  O16  1  0.150455  0.245937  0.879516  1
  O  O17  1  0.302475  0.559639  0.910956  1
  O  O18  1  0.849545  0.745937  0.620484  1
  O  O19  1  0.089044  0.802475  0.940361  1
  O  O20  1  0.620484  0.849545  0.745937  1
  O  O21  1  0.754063  0.379516  0.349545  1
  O  O22  1  0.745937  0.620484  0.849545  1
  O  O23  1  0.245937  0.879516  0.150455  1
  O  O24  1  0.217839  0.014424  0.407862  1
  O  O25  1  0.407862  0.217839  0.014424  1
  O  O26  1  0.014424  0.407862  0.217839  1
  O  O27  1  0.485576  0.592138  0.717839  1
  O  O28  1  0.907862  0.282161  0.985576  1
  O  O29  1  0.985576  0.907862  0.282161  1
  O  O30  1  0.092138  0.782161  0.514424  1
  O  O31  1  0.592138  0.717839  0.485576  1
  O  O32  1  0.514424  0.092138  0.782161  1
  O  O33  1  0.717839  0.485576  0.592138  1
  O  O34  1  0.782161  0.514424  0.092138  1
  O  O35  1  0.282161  0.985576  0.907862  1
  O  O36  1  0.410956  0.197525  0.440361  1
  O  O37  1  0.440361  0.410956  0.197525  1
  O  O38  1  0.197525  0.440361  0.410956  1
  O  O39  1  0.879516  0.150455  0.245937  1
  Na  Na40  1  0.949337  0.050663  0.550663  1
  Na  Na41  1  0.759840  0.740160  0.259840  1
  Na  Na42  1  0.740160  0.259840  0.759840  1
  Na  Na43  1  0.259840  0.759840  0.740160  1
  Na  Na44  1  0.240160  0.240160  0.240160  1
  Na  Na45  1  0.141420  0.358580  0.641420  1
  Na  Na46  1  0.358580  0.641420  0.141420  1
  Na  Na47  1  0.641420  0.141420  0.358580  1
  Na  Na48  1  0.449337  0.449337  0.449337  1
  Na  Na49  1  0.858580  0.858580  0.858580  1
  Na  Na50  1  0.050663  0.550663  0.949337  1
  Na  Na51  1  0.550663  0.949337  0.050663  1
  Al  Al52  1  0.332547  0.167453  0.832547  1
  Al  Al53  1  0.167453  0.832547  0.332547  1
  Al  Al54  1  0.832547  0.332547  0.167453  1
  Al  Al55  1  0.667453  0.667453  0.667453  1
  P  P56  1  0.171396  0.921614  0.010786  1
  P  P57  1  0.010786  0.171396  0.921614  1
  P  P58  1  0.921614  0.010786  0.171396  1
  P  P59  1  0.989214  0.671396  0.578386  1
  P  P60  1  0.489214  0.828604  0.421614  1
  P  P61  1  0.578386  0.989214  0.671396  1
  P  P62  1  0.828604  0.421614  0.489214  1
  P  P63  1  0.671396  0.578386  0.989214  1
  P  P64  1  0.421614  0.489214  0.828604  1
  P  P65  1  0.078386  0.510786  0.328604  1
  P  P66  1  0.510786  0.328604  0.078386  1
  P  P67  1  0.328604  0.078386  0.510786  1
