# generated using pymatgen
data_Cs2SiSe4
_symmetry_space_group_name_H-M   'P 1'
_cell_length_a   7.84289219
_cell_length_b   8.67849096
_cell_length_c   9.92331363
_cell_angle_alpha   67.26467787
_cell_angle_beta   66.72310846
_cell_angle_gamma   63.13704526
_symmetry_Int_Tables_number   1
_chemical_formula_structural   Cs2SiSe4
_chemical_formula_sum   'Cs4 Si2 Se8'
_cell_volume   535.38611194
_cell_formula_units_Z   2
loop_
 _symmetry_equiv_pos_site_id
 _symmetry_equiv_pos_as_xyz
  1  'x, y, z'
loop_
 _atom_site_type_symbol
 _atom_site_label
 _atom_site_symmetry_multiplicity
 _atom_site_fract_x
 _atom_site_fract_y
 _atom_site_fract_z
 _atom_site_occupancy
  Cs  Cs0  1  0.590860  0.674198  0.144082  1
  Cs  Cs1  1  0.158820  0.965021  0.717339  1
  Cs  Cs2  1  0.409140  0.325802  0.855918  1
  Cs  Cs3  1  0.841180  0.034979  0.282661  1
  Si  Si4  1  0.845433  0.609868  0.699267  1
  Si  Si5  1  0.154567  0.390132  0.300733  1
  Se  Se6  1  0.309256  0.110911  0.270577  1
  Se  Se7  1  0.672597  0.637950  0.539229  1
  Se  Se8  1  0.690744  0.889089  0.729423  1
  Se  Se9  1  0.849776  0.362050  0.460771  1
  Se  Se10  1  0.874124  0.364201  0.887550  1
  Se  Se11  1  0.125876  0.635799  0.112450  1
  Se  Se12  1  0.327403  0.362050  0.460771  1
  Se  Se13  1  0.150224  0.637950  0.539229  1
