# generated using pymatgen
data_Ca6Ti5AlSi6O29F
_symmetry_space_group_name_H-M   'P 1'
_cell_length_a   5.47784269
_cell_length_b   5.47736564
_cell_length_c   42.83199602
_cell_angle_alpha   104.24246412
_cell_angle_beta   104.22670036
_cell_angle_gamma   105.92578501
_symmetry_Int_Tables_number   1
_chemical_formula_structural   Ca6Ti5AlSi6O29F
_chemical_formula_sum   'Ca12 Ti10 Al2 Si12 O58 F2'
_cell_volume   1128.14404639
_cell_formula_units_Z   2
loop_
 _symmetry_equiv_pos_site_id
 _symmetry_equiv_pos_as_xyz
  1  'x, y, z'
loop_
 _atom_site_type_symbol
 _atom_site_label
 _atom_site_symmetry_multiplicity
 _atom_site_fract_x
 _atom_site_fract_y
 _atom_site_fract_z
 _atom_site_occupancy
  Ca  Ca0  1  0.153492  0.823010  0.954239  1
  Ca  Ca1  1  0.176296  0.841414  0.792445  1
  Ca  Ca2  1  0.169421  0.831967  0.625899  1
  Ca  Ca3  1  0.169259  0.832455  0.459120  1
  Ca  Ca4  1  0.835668  0.161768  0.872142  1
  Ca  Ca5  1  0.169096  0.832599  0.292419  1
  Ca  Ca6  1  0.833698  0.170512  0.709824  1
  Ca  Ca7  1  0.166948  0.832149  0.125256  1
  Ca  Ca8  1  0.832364  0.169266  0.542482  1
  Ca  Ca9  1  0.832600  0.169229  0.375771  1
  Ca  Ca10  1  0.832537  0.168684  0.209000  1
  Ca  Ca11  1  0.829473  0.160832  0.041055  1
  Ti  Ti12  1  0.499747  0.485194  0.002017  1
  Ti  Ti13  1  0.504237  0.510885  0.753343  1
  Ti  Ti14  1  0.505703  0.497477  0.669041  1
  Ti  Ti15  1  0.496972  0.504641  0.585385  1
  Ti  Ti16  1  0.504527  0.496896  0.501890  1
  Ti  Ti17  1  0.497038  0.504515  0.418493  1
  Ti  Ti18  1  0.504516  0.497116  0.335151  1
  Ti  Ti19  1  0.496917  0.504399  0.251867  1
  Ti  Ti20  1  0.503878  0.496268  0.168606  1
  Ti  Ti21  1  0.493710  0.502186  0.085200  1
  Al  Al22  1  0.494600  0.495968  0.915518  1
  Al  Al23  1  0.500714  0.508191  0.832998  1
  Si  Si24  1  0.187986  0.817107  0.875250  1
  Si  Si25  1  0.185151  0.818800  0.708875  1
  Si  Si26  1  0.183338  0.816488  0.541541  1
  Si  Si27  1  0.805023  0.176257  0.955354  1
  Si  Si28  1  0.183240  0.816339  0.374797  1
  Si  Si29  1  0.826890  0.195911  0.794204  1
  Si  Si30  1  0.183093  0.816188  0.208129  1
  Si  Si31  1  0.816992  0.183521  0.625095  1
  Si  Si32  1  0.180540  0.812135  0.040206  1
  Si  Si33  1  0.816381  0.183238  0.458174  1
  Si  Si34  1  0.816284  0.183223  0.291481  1
  Si  Si35  1  0.815695  0.182851  0.124679  1
  O  O36  1  0.115777  0.254775  0.982116  1
  O  O37  1  0.198637  0.609121  0.898071  1
  O  O38  1  0.132304  0.258470  0.819849  1
  O  O39  1  0.258450  0.129031  0.901017  1
  O  O40  1  0.397443  0.806272  0.853451  1
  O  O41  1  0.186479  0.608448  0.730568  1
  O  O42  1  0.119018  0.250800  0.651750  1
  O  O43  1  0.434108  0.572367  0.792507  1
  O  O44  1  0.603659  0.184879  0.978912  1
  O  O45  1  0.739135  0.867124  0.931145  1
  O  O46  1  0.251693  0.120492  0.735420  1
  O  O47  1  0.394843  0.814586  0.686834  1
  O  O48  1  0.183977  0.605437  0.563085  1
  O  O49  1  0.796671  0.390929  0.934441  1
  O  O50  1  0.118062  0.250621  0.484834  1
  O  O51  1  0.430101  0.571507  0.624708  1
  O  O52  1  0.613583  0.201150  0.815749  1
  O  O53  1  0.750187  0.890311  0.766485  1
  O  O54  1  0.250631  0.118303  0.568226  1
  O  O55  1  0.393852  0.814055  0.519722  1
  O  O56  1  0.574310  0.433356  0.708669  1
  O  O57  1  0.876208  0.740938  0.850379  1
  O  O58  1  0.183701  0.605031  0.396295  1
  O  O59  1  0.817684  0.399823  0.771200  1
  O  O60  1  0.118075  0.250640  0.318161  1
  O  O61  1  0.428749  0.571227  0.457750  1
  O  O62  1  0.605918  0.184164  0.646632  1
  O  O63  1  0.749944  0.882113  0.597767  1
  O  O64  1  0.250621  0.118152  0.401504  1
  O  O65  1  0.393904  0.814080  0.353027  1
  O  O66  1  0.571308  0.429031  0.541146  1
  O  O67  1  0.883079  0.749756  0.681397  1
  O  O68  1  0.183654  0.604946  0.229614  1
  O  O69  1  0.814243  0.393859  0.603196  1
  O  O70  1  0.117367  0.250304  0.151394  1
  O  O71  1  0.428427  0.571241  0.291089  1
  O  O72  1  0.605170  0.183687  0.479633  1
  O  O73  1  0.749739  0.881855  0.430924  1
  O  O74  1  0.250525  0.117917  0.234812  1
  O  O75  1  0.393875  0.813699  0.186363  1
  O  O76  1  0.571210  0.428530  0.374402  1
  O  O77  1  0.882007  0.749690  0.514305  1
  O  O78  1  0.183870  0.602622  0.062206  1
  O  O79  1  0.814067  0.393925  0.436353  1
  O  O80  1  0.425358  0.569818  0.124315  1
  O  O81  1  0.605071  0.183680  0.312948  1
  O  O82  1  0.749632  0.881757  0.264267  1
  O  O83  1  0.251533  0.115591  0.067259  1
  O  O84  1  0.390735  0.807795  0.018408  1
  O  O85  1  0.571050  0.427885  0.207775  1
  O  O86  1  0.881955  0.749666  0.347596  1
  O  O87  1  0.813961  0.393976  0.269690  1
  O  O88  1  0.604638  0.183515  0.146193  1
  O  O89  1  0.748574  0.880252  0.097565  1
  O  O90  1  0.569689  0.423071  0.040781  1
  O  O91  1  0.881214  0.749304  0.180958  1
  O  O92  1  0.813039  0.394113  0.102977  1
  O  O93  1  0.875842  0.746336  0.013991  1
  F  F94  1  0.429224  0.572743  0.956342  1
  F  F95  1  0.568197  0.431554  0.874881  1
