# generated using pymatgen
data_Nd8AlSi3(NO5)3
_symmetry_space_group_name_H-M   'P 1'
_cell_length_a   10.11015933
_cell_length_b   9.35329997
_cell_length_c   10.73600201
_cell_angle_alpha   89.67155569
_cell_angle_beta   111.43933654
_cell_angle_gamma   92.07967194
_symmetry_Int_Tables_number   1
_chemical_formula_structural   Nd8AlSi3(NO5)3
_chemical_formula_sum   'Nd16 Al2 Si6 N6 O30'
_cell_volume   944.33004787
_cell_formula_units_Z   2
loop_
 _symmetry_equiv_pos_site_id
 _symmetry_equiv_pos_as_xyz
  1  'x, y, z'
loop_
 _atom_site_type_symbol
 _atom_site_label
 _atom_site_symmetry_multiplicity
 _atom_site_fract_x
 _atom_site_fract_y
 _atom_site_fract_z
 _atom_site_occupancy
  Nd  Nd0  1  0.060138  0.299682  0.891562  1
  Nd  Nd1  1  0.049948  0.137442  0.353693  1
  Nd  Nd2  1  0.153608  0.576568  0.643706  1
  Nd  Nd3  1  0.414776  0.107381  0.978531  1
  Nd  Nd4  1  0.296921  0.924117  0.200417  1
  Nd  Nd5  1  0.320092  0.431617  0.429402  1
  Nd  Nd6  1  0.406669  0.958807  0.594876  1
  Nd  Nd7  1  0.588166  0.395224  0.844487  1
  Nd  Nd8  1  0.320352  0.614274  -0.009637  1
  Nd  Nd9  1  0.676319  0.062608  0.406799  1
  Nd  Nd10  1  0.745407  0.571751  0.552832  1
  Nd  Nd11  1  0.805048  0.005571  0.884332  1
  Nd  Nd12  1  0.649178  0.777323  0.093645  1
  Nd  Nd13  1  0.636233  0.415739  0.230404  1
  Nd  Nd14  1  0.037259  0.950796  0.691439  1
  Nd  Nd15  1  0.936085  0.560441  0.143361  1
  Al  Al16  1  -0.000571  0.751946  0.908110  1
  Al  Al17  1  0.253045  0.259147  0.644898  1
  Si  Si18  1  0.126368  0.785978  0.412454  1
  Si  Si19  1  0.672456  0.699437  0.806245  1
  Si  Si20  1  0.341068  0.259215  0.193694  1
  Si  Si21  1  0.818427  0.782703  0.371184  1
  Si  Si22  1  0.935995  0.301492  0.540592  1
  Si  Si23  1  0.824283  0.238372  0.070478  1
  N  N24  1  0.091313  0.352660  0.524614  1
  N  N25  1  0.230365  0.141517  0.068743  1
  N  N26  1  0.823537  0.744202  0.947292  1
  N  N27  1  0.679021  0.663479  0.300844  1
  N  N28  1  0.965392  0.700141  0.366718  1
  N  N29  1  0.900335  0.330712  0.226542  1
  O  O30  1  0.223737  0.143711  0.768228  1
  O  O31  1  0.924183  0.396296  0.666327  1
  O  O32  1  0.055612  0.351044  0.235471  1
  O  O33  1  0.135434  0.914261  0.308297  1
  O  O34  1  0.166200  0.871617  0.560033  1
  O  O35  1  0.250740  0.668813  0.444709  1
  O  O36  1  0.212688  0.453508  0.837002  1
  O  O37  1  0.372022  0.413203  0.667579  1
  O  O38  1  0.093860  0.593774  0.016905  1
  O  O39  1  0.193888  0.655432  0.150673  1
  O  O40  1  0.282384  0.166849  0.509363  1
  O  O41  1  0.500030  0.656858  0.871070  1
  O  O42  1  0.504769  0.169065  0.226357  1
  O  O43  1  0.482394  0.137109  0.778662  1
  O  O44  1  0.362941  0.721773  0.784481  1
  O  O45  1  0.617812  0.164903  0.752529  1
  O  O46  1  0.473569  0.955506  0.416003  1
  O  O47  1  0.541151  0.469884  0.452895  1
  O  O48  1  0.429299  0.873723  0.057925  1
  O  O49  1  0.613979  0.857206  0.741855  1
  O  O50  1  0.388359  0.402132  0.109203  1
  O  O51  1  0.821147  0.836966  0.519204  1
  O  O52  1  0.645739  0.243870  0.041205  1
  O  O53  1  0.853671  0.356723  0.957785  1
  O  O54  1  0.679291  0.538808  0.058176  1
  O  O55  1  0.770650  0.322674  0.432161  1
  O  O56  1  0.934328  0.122203  0.520368  1
  O  O57  1  0.924012  0.108302  0.776633  1
  O  O58  1  0.005432  0.698355  0.748110  1
  O  O59  1  0.783445  0.935092  0.278535  1
