# generated using pymatgen
data_Cs2Ti(Si2O5)3
_symmetry_space_group_name_H-M   'P 1'
_cell_length_a   7.62074843
_cell_length_b   7.62074843
_cell_length_c   15.45940246
_cell_angle_alpha   76.39560846
_cell_angle_beta   76.39560846
_cell_angle_gamma   60.14956346
_symmetry_Int_Tables_number   1
_chemical_formula_structural   Cs2Ti(Si2O5)3
_chemical_formula_sum   'Cs4 Ti2 Si12 O30'
_cell_volume   749.38438356
_cell_formula_units_Z   2
loop_
 _symmetry_equiv_pos_site_id
 _symmetry_equiv_pos_as_xyz
  1  'x, y, z'
loop_
 _atom_site_type_symbol
 _atom_site_label
 _atom_site_symmetry_multiplicity
 _atom_site_fract_x
 _atom_site_fract_y
 _atom_site_fract_z
 _atom_site_occupancy
  O  O0  1  0.432602  0.945152  0.026720  1
  O  O1  1  0.945152  0.432602  0.526720  1
  O  O2  1  0.483148  0.687552  0.187282  1
  O  O3  1  0.687552  0.483148  0.687282  1
  O  O4  1  0.097294  0.024328  0.160622  1
  O  O5  1  0.024328  0.097294  0.660622  1
  O  O6  1  0.489958  0.542992  0.039215  1
  O  O7  1  0.542992  0.489958  0.539215  1
  O  O8  1  0.211931  0.774075  0.469461  1
  O  O9  1  0.774075  0.211931  0.969461  1
  O  O10  1  0.156759  0.627196  0.174129  1
  O  O11  1  0.627196  0.156759  0.674129  1
  O  O12  1  0.845222  0.897045  0.277069  1
  O  O13  1  0.897045  0.845222  0.777069  1
  O  O14  1  0.326424  0.380741  0.472125  1
  O  O15  1  0.380741  0.326424  0.972125  1
  O  O16  1  0.076013  0.519230  0.351315  1
  O  O17  1  0.519230  0.076013  0.851315  1
  O  O18  1  0.117721  0.875011  0.005963  1
  O  O19  1  0.875011  0.117721  0.505963  1
  O  O20  1  0.290903  0.729134  0.741080  1
  O  O21  1  0.729134  0.290903  0.241080  1
  O  O22  1  0.556236  0.539999  0.860783  1
  O  O23  1  0.539999  0.556236  0.360783  1
  O  O24  1  0.052178  0.039808  0.834231  1
  O  O25  1  0.039808  0.052178  0.334231  1
  O  O26  1  0.225683  0.131286  0.429951  1
  O  O27  1  0.131286  0.225683  0.929951  1
  O  O28  1  0.579334  0.832568  0.737206  1
  O  O29  1  0.832568  0.579334  0.237206  1
  Si  Si30  1  0.411149  0.548166  0.460403  1
  Si  Si31  1  0.548166  0.411149  0.960403  1
  Si  Si32  1  0.981450  0.654932  0.259341  1
  Si  Si33  1  0.654932  0.981450  0.759341  1
  Si  Si34  1  0.133584  0.371015  0.446672  1
  Si  Si35  1  0.371015  0.133584  0.946672  1
  Si  Si36  1  0.638849  0.529789  0.256333  1
  Si  Si37  1  0.529789  0.638849  0.756333  1
  Si  Si38  1  0.019307  0.081550  0.937403  1
  Si  Si39  1  0.081550  0.019307  0.437403  1
  Si  Si40  1  0.934186  0.066439  0.250446  1
  Si  Si41  1  0.066439  0.934186  0.750446  1
  Ti  Ti42  1  0.297098  0.778727  0.099443  1
  Ti  Ti43  1  0.778727  0.297098  0.599443  1
  Cs  Cs44  1  0.144899  0.419256  0.693442  1
  Cs  Cs45  1  0.419256  0.144899  0.193442  1
  Cs  Cs46  1  0.887290  0.628751  0.018806  1
  Cs  Cs47  1  0.628751  0.887290  0.518806  1
