# generated using pymatgen
data_TiZnH12(OF)6
_symmetry_space_group_name_H-M   'P 1'
_cell_length_a   6.52220750
_cell_length_b   6.52220330
_cell_length_c   6.52220728
_cell_angle_alpha   95.56392730
_cell_angle_beta   95.56397123
_cell_angle_gamma   95.56396975
_symmetry_Int_Tables_number   1
_chemical_formula_structural   TiZnH12(OF)6
_chemical_formula_sum   'Ti1 Zn1 H12 O6 F6'
_cell_volume   273.25232252
_cell_formula_units_Z   1
loop_
 _symmetry_equiv_pos_site_id
 _symmetry_equiv_pos_as_xyz
  1  'x, y, z'
loop_
 _atom_site_type_symbol
 _atom_site_label
 _atom_site_symmetry_multiplicity
 _atom_site_fract_x
 _atom_site_fract_y
 _atom_site_fract_z
 _atom_site_occupancy
  Ti  Ti0  1  0.500000  0.500000  0.500000  1
  Zn  Zn1  1  0.000000  0.000000  1.000000  1
  H  H2  1  0.044909  0.211978  0.393643  1
  H  H3  1  0.196339  0.829714  0.680099  1
  H  H4  1  0.170286  0.319900  0.803662  1
  H  H5  1  0.211977  0.393642  0.044909  1
  H  H6  1  0.319900  0.803662  0.170286  1
  H  H7  1  0.393642  0.044909  0.211977  1
  H  H8  1  0.606358  0.955091  0.788023  1
  H  H9  1  0.680100  0.196339  0.829714  1
  H  H10  1  0.788022  0.606358  0.955091  1
  H  H11  1  0.829714  0.680100  0.196338  1
  H  H12  1  0.803662  0.170286  0.319901  1
  H  H13  1  0.955091  0.788022  0.606358  1
  O  O14  1  0.060750  0.875635  0.703208  1
  O  O15  1  0.124364  0.296792  0.939250  1
  O  O16  1  0.296792  0.939250  0.124364  1
  O  O17  1  0.703208  0.060750  0.875635  1
  O  O18  1  0.875635  0.703208  0.060750  1
  O  O19  1  0.939250  0.124364  0.296792  1
  F  F20  1  0.245057  0.365648  0.558848  1
  F  F21  1  0.365647  0.558848  0.245057  1
  F  F22  1  0.441152  0.754943  0.634353  1
  F  F23  1  0.558848  0.245058  0.365648  1
  F  F24  1  0.634352  0.441152  0.754943  1
  F  F25  1  0.754942  0.634352  0.441152  1
