# generated using pymatgen
data_Ag4Te(NO3)2
_symmetry_space_group_name_H-M   'P 1'
_cell_length_a   9.52285297
_cell_length_b   9.52272968
_cell_length_c   9.52284593
_cell_angle_alpha   90.00078439
_cell_angle_beta   90.00071712
_cell_angle_gamma   90.00115466
_symmetry_Int_Tables_number   1
_chemical_formula_structural   Ag4Te(NO3)2
_chemical_formula_sum   'Ag16 Te4 N8 O24'
_cell_volume   863.56551883
_cell_formula_units_Z   4
loop_
 _symmetry_equiv_pos_site_id
 _symmetry_equiv_pos_as_xyz
  1  'x, y, z'
loop_
 _atom_site_type_symbol
 _atom_site_label
 _atom_site_symmetry_multiplicity
 _atom_site_fract_x
 _atom_site_fract_y
 _atom_site_fract_z
 _atom_site_occupancy
  Ag  Ag0  1  0.992869  0.131556  0.245177  1
  Ag  Ag1  1  0.631547  0.254829  0.007127  1
  Ag  Ag2  1  0.754839  0.492865  0.368427  1
  Ag  Ag3  1  0.492870  0.368446  0.754829  1
  Ag  Ag4  1  0.507132  0.868435  0.745174  1
  Ag  Ag5  1  0.745164  0.507138  0.868445  1
  Ag  Ag6  1  0.868462  0.745176  0.507125  1
  Ag  Ag7  1  0.513968  0.013967  0.486035  1
  Ag  Ag8  1  0.013973  0.486026  0.513968  1
  Ag  Ag9  1  0.131551  0.245172  0.992867  1
  Ag  Ag10  1  0.007134  0.631566  0.254824  1
  Ag  Ag11  1  0.368457  0.754819  0.492876  1
  Ag  Ag12  1  0.986017  0.986035  0.986024  1
  Ag  Ag13  1  0.245162  0.992864  0.131562  1
  Ag  Ag14  1  0.254833  0.007136  0.631574  1
  Ag  Ag15  1  0.486016  0.513968  0.013972  1
  Te  Te16  1  0.396496  0.103489  0.896508  1
  Te  Te17  1  0.603510  0.603489  0.603489  1
  Te  Te18  1  0.896502  0.396509  0.103490  1
  Te  Te19  1  0.103510  0.896511  0.396512  1
  N  N20  1  0.692122  0.192059  0.307913  1
  N  N21  1  0.780636  0.219397  0.719374  1
  N  N22  1  0.307924  0.692112  0.192078  1
  N  N23  1  0.192022  0.307881  0.692122  1
  N  N24  1  0.719373  0.780616  0.219376  1
  N  N25  1  0.280608  0.280631  0.280632  1
  N  N26  1  0.807892  0.807887  0.807957  1
  N  N27  1  0.219389  0.719356  0.780616  1
  O  O28  1  0.815646  0.153206  0.830349  1
  O  O29  1  0.796258  0.176702  0.389873  1
  O  O30  1  0.176725  0.389888  0.796270  1
  O  O31  1  0.330341  0.684347  0.846785  1
  O  O32  1  0.653207  0.669663  0.184357  1
  O  O33  1  0.296308  0.323301  0.610089  1
  O  O34  1  0.684346  0.846797  0.330356  1
  O  O35  1  0.315648  0.346797  0.169653  1
  O  O36  1  0.889882  0.703740  0.823284  1
  O  O37  1  0.846784  0.330333  0.684353  1
  O  O38  1  0.830342  0.815652  0.153215  1
  O  O39  1  0.110139  0.203765  0.676710  1
  O  O40  1  0.389878  0.796259  0.176713  1
  O  O41  1  0.169656  0.315649  0.346794  1
  O  O42  1  0.346797  0.169652  0.315657  1
  O  O43  1  0.610102  0.296277  0.323286  1
  O  O44  1  0.703741  0.823295  0.889872  1
  O  O45  1  0.184352  0.653204  0.669651  1
  O  O46  1  0.676717  0.110113  0.203714  1
  O  O47  1  0.323288  0.610109  0.296278  1
  O  O48  1  0.823291  0.889910  0.703698  1
  O  O49  1  0.203728  0.676714  0.110116  1
  O  O50  1  0.153199  0.830344  0.815653  1
  O  O51  1  0.669646  0.184349  0.653205  1
