# generated using pymatgen
data_K2V2P4O15
_symmetry_space_group_name_H-M   'P 1'
_cell_length_a   9.67903565
_cell_length_b   11.69451280
_cell_length_c   22.44622579
_cell_angle_alpha   90.00000000
_cell_angle_beta   90.00000000
_cell_angle_gamma   90.00000000
_symmetry_Int_Tables_number   1
_chemical_formula_structural   K2V2P4O15
_chemical_formula_sum   'K16 V16 P32 O120'
_cell_volume   2540.72435256
_cell_formula_units_Z   8
loop_
 _symmetry_equiv_pos_site_id
 _symmetry_equiv_pos_as_xyz
  1  'x, y, z'
loop_
 _atom_site_type_symbol
 _atom_site_label
 _atom_site_symmetry_multiplicity
 _atom_site_fract_x
 _atom_site_fract_y
 _atom_site_fract_z
 _atom_site_occupancy
  K  K0  1  0.065714  0.346356  0.438437  1
  K  K1  1  0.565714  0.653644  0.061563  1
  K  K2  1  0.934286  0.653644  0.561563  1
  K  K3  1  0.036291  0.800237  0.865058  1
  K  K4  1  0.565714  0.153644  0.438437  1
  K  K5  1  0.463709  0.300237  0.134942  1
  K  K6  1  0.434286  0.846356  0.561563  1
  K  K7  1  0.536291  0.199763  0.634942  1
  K  K8  1  0.036291  0.300237  0.634942  1
  K  K9  1  0.065714  0.846356  0.061563  1
  K  K10  1  0.934286  0.153644  0.938437  1
  K  K11  1  0.536291  0.699763  0.865058  1
  K  K12  1  0.463709  0.800237  0.365058  1
  K  K13  1  0.434286  0.346356  0.938437  1
  K  K14  1  0.963709  0.199763  0.134942  1
  K  K15  1  0.963709  0.699763  0.365058  1
  V  V16  1  0.758321  0.880486  0.469615  1
  V  V17  1  0.258321  0.619514  0.469615  1
  V  V18  1  0.016758  0.568072  0.724881  1
  V  V19  1  0.483242  0.068072  0.275119  1
  V  V20  1  0.241679  0.619514  0.969615  1
  V  V21  1  0.258321  0.119514  0.030385  1
  V  V22  1  0.516758  0.931928  0.724881  1
  V  V23  1  0.983242  0.431928  0.275119  1
  V  V24  1  0.741679  0.380486  0.530385  1
  V  V25  1  0.758321  0.380486  0.030385  1
  V  V26  1  0.016758  0.068072  0.775119  1
  V  V27  1  0.483242  0.568072  0.224881  1
  V  V28  1  0.516758  0.431928  0.775119  1
  V  V29  1  0.983242  0.931928  0.224881  1
  V  V30  1  0.241679  0.119514  0.530385  1
  V  V31  1  0.741679  0.880486  0.969615  1
  P  P32  1  0.719223  0.940186  0.113137  1
  P  P33  1  0.125370  0.380616  0.030037  1
  P  P34  1  0.219223  0.559814  0.113137  1
  P  P35  1  0.480596  0.349104  0.308435  1
  P  P36  1  0.374630  0.880616  0.969963  1
  P  P37  1  0.270227  0.526884  0.332069  1
  P  P38  1  0.280777  0.059814  0.886863  1
  P  P39  1  0.229773  0.026884  0.667931  1
  P  P40  1  0.874630  0.119384  0.530037  1
  P  P41  1  0.719223  0.440186  0.386863  1
  P  P42  1  0.125370  0.880616  0.469963  1
  P  P43  1  0.770227  0.473116  0.167931  1
  P  P44  1  0.780777  0.440186  0.886863  1
  P  P45  1  0.729773  0.473116  0.667931  1
  P  P46  1  0.874630  0.619384  0.969963  1
  P  P47  1  0.219223  0.059814  0.386863  1
  P  P48  1  0.519404  0.650896  0.691565  1
  P  P49  1  0.729773  0.973116  0.832069  1
  P  P50  1  0.374630  0.380616  0.530037  1
  P  P51  1  0.270227  0.026884  0.167931  1
  P  P52  1  0.229773  0.526884  0.832069  1
  P  P53  1  0.980596  0.150896  0.308435  1
  P  P54  1  0.019404  0.349104  0.808435  1
  P  P55  1  0.770227  0.973116  0.332069  1
  P  P56  1  0.625370  0.119384  0.030037  1
  P  P57  1  0.980596  0.650896  0.191565  1
  P  P58  1  0.625370  0.619384  0.469963  1
  P  P59  1  0.480596  0.849104  0.191565  1
  P  P60  1  0.780777  0.940186  0.613137  1
  P  P61  1  0.019404  0.849104  0.691565  1
  P  P62  1  0.280777  0.559814  0.613137  1
  P  P63  1  0.519404  0.150896  0.808435  1
  O  O64  1  0.874408  0.869693  0.658998  1
  O  O65  1  0.626293  0.525188  0.162244  1
  O  O66  1  0.017344  0.670737  0.976019  1
  O  O67  1  0.551830  0.275814  0.816115  1
  O  O68  1  0.448170  0.224186  0.316115  1
  O  O69  1  0.167126  0.960793  0.520605  1
  O  O70  1  0.906355  0.414492  0.536141  1
  O  O71  1  0.702509  0.884712  0.880842  1
  O  O72  1  0.374408  0.630307  0.658998  1
  O  O73  1  0.625592  0.869693  0.158998  1
  O  O74  1  0.874672  0.580248  0.152218  1
  O  O75  1  0.014275  0.895740  0.754347  1
  O  O76  1  0.374672  0.919752  0.152218  1
  O  O77  1  0.482656  0.670737  0.476019  1
  O  O78  1  0.756368  0.358281  0.939000  1
  O  O79  1  0.051830  0.224186  0.816115  1
  O  O80  1  0.626293  0.025188  0.337756  1
  O  O81  1  0.195379  0.073487  0.729231  1
  O  O82  1  0.593645  0.914492  0.463859  1
  O  O83  1  0.832874  0.539207  0.020605  1
  O  O84  1  0.344541  0.515924  0.144570  1
  O  O85  1  0.155459  0.515924  0.644570  1
  O  O86  1  0.584059  0.618145  0.276763  1
  O  O87  1  0.260711  0.291897  0.541255  1
  O  O88  1  0.482656  0.170737  0.023981  1
  O  O89  1  0.406355  0.085508  0.536141  1
  O  O90  1  0.167126  0.460793  0.979395  1
  O  O91  1  0.195379  0.573487  0.770769  1
  O  O92  1  0.702509  0.384712  0.619158  1
  O  O93  1  0.915941  0.618145  0.776763  1
  O  O94  1  0.517344  0.829263  0.976019  1
  O  O95  1  0.915941  0.118145  0.723237  1
  O  O96  1  0.260711  0.791897  0.958745  1
  O  O97  1  0.874672  0.080248  0.347782  1
  O  O98  1  0.485725  0.395740  0.245653  1
  O  O99  1  0.760711  0.208103  0.541255  1
  O  O100  1  0.379253  0.457755  0.591782  1
  O  O101  1  0.304621  0.573487  0.270769  1
  O  O102  1  0.017344  0.170737  0.523981  1
  O  O103  1  0.985725  0.604260  0.254347  1
  O  O104  1  0.667126  0.039207  0.979395  1
  O  O105  1  0.985725  0.104260  0.245653  1
  O  O106  1  0.304621  0.073487  0.229231  1
  O  O107  1  0.593645  0.414492  0.036141  1
  O  O108  1  0.125328  0.419752  0.847782  1
  O  O109  1  0.014275  0.395740  0.745653  1
  O  O110  1  0.620747  0.042245  0.091782  1
  O  O111  1  0.584059  0.118145  0.223237  1
  O  O112  1  0.125592  0.630307  0.158998  1
  O  O113  1  0.256368  0.141719  0.939000  1
  O  O114  1  0.485725  0.895740  0.254347  1
  O  O115  1  0.739289  0.708103  0.458745  1
  O  O116  1  0.297491  0.115288  0.119158  1
  O  O117  1  0.625328  0.080248  0.847782  1
  O  O118  1  0.797491  0.384712  0.119158  1
  O  O119  1  0.739289  0.208103  0.041255  1
  O  O120  1  0.084059  0.381855  0.223237  1
  O  O121  1  0.202509  0.115288  0.619158  1
  O  O122  1  0.379253  0.957755  0.908218  1
  O  O123  1  0.879253  0.042245  0.591782  1
  O  O124  1  0.948170  0.275814  0.316115  1
  O  O125  1  0.239289  0.291897  0.041255  1
  O  O126  1  0.125328  0.919752  0.652218  1
  O  O127  1  0.374408  0.130307  0.841002  1
  O  O128  1  0.743632  0.858281  0.061000  1
  O  O129  1  0.760711  0.708103  0.958745  1
  O  O130  1  0.332874  0.960793  0.020605  1
  O  O131  1  0.373707  0.474812  0.837756  1
  O  O132  1  0.332874  0.460793  0.479395  1
  O  O133  1  0.406355  0.585508  0.963859  1
  O  O134  1  0.344541  0.015924  0.355430  1
  O  O135  1  0.625328  0.580248  0.652218  1
  O  O136  1  0.844541  0.984076  0.144570  1
  O  O137  1  0.448170  0.724186  0.183885  1
  O  O138  1  0.655459  0.984076  0.644570  1
  O  O139  1  0.879253  0.542245  0.908218  1
  O  O140  1  0.415941  0.881855  0.776763  1
  O  O141  1  0.051830  0.724186  0.683885  1
  O  O142  1  0.093645  0.085508  0.036141  1
  O  O143  1  0.374672  0.419752  0.347782  1
  O  O144  1  0.120747  0.457755  0.091782  1
  O  O145  1  0.844541  0.484076  0.355430  1
  O  O146  1  0.620747  0.542245  0.408218  1
  O  O147  1  0.743632  0.358281  0.439000  1
  O  O148  1  0.202509  0.615288  0.880842  1
  O  O149  1  0.125592  0.130307  0.341002  1
  O  O150  1  0.874408  0.369693  0.841002  1
  O  O151  1  0.695379  0.426513  0.729231  1
  O  O152  1  0.415941  0.381855  0.723237  1
  O  O153  1  0.155459  0.015924  0.855430  1
  O  O154  1  0.832874  0.039207  0.479395  1
  O  O155  1  0.948170  0.775814  0.183885  1
  O  O156  1  0.873707  0.025188  0.837756  1
  O  O157  1  0.625592  0.369693  0.341002  1
  O  O158  1  0.982656  0.329263  0.023981  1
  O  O159  1  0.982656  0.829263  0.476019  1
  O  O160  1  0.756368  0.858281  0.561000  1
  O  O161  1  0.239289  0.791897  0.458745  1
  O  O162  1  0.514275  0.104260  0.745653  1
  O  O163  1  0.804621  0.426513  0.229231  1
  O  O164  1  0.695379  0.926513  0.770769  1
  O  O165  1  0.084059  0.881855  0.276763  1
  O  O166  1  0.655459  0.484076  0.855430  1
  O  O167  1  0.667126  0.539207  0.520605  1
  O  O168  1  0.243632  0.141719  0.439000  1
  O  O169  1  0.517344  0.329263  0.523981  1
  O  O170  1  0.514275  0.604260  0.754347  1
  O  O171  1  0.120747  0.957755  0.408218  1
  O  O172  1  0.126293  0.974812  0.162244  1
  O  O173  1  0.906355  0.914492  0.963859  1
  O  O174  1  0.873707  0.525188  0.662244  1
  O  O175  1  0.297491  0.615288  0.380842  1
  O  O176  1  0.797491  0.884712  0.380842  1
  O  O177  1  0.256368  0.641719  0.561000  1
  O  O178  1  0.093645  0.585508  0.463859  1
  O  O179  1  0.243632  0.641719  0.061000  1
  O  O180  1  0.551830  0.775814  0.683885  1
  O  O181  1  0.373707  0.974812  0.662244  1
  O  O182  1  0.126293  0.474812  0.337756  1
  O  O183  1  0.804621  0.926513  0.270769  1
