# generated using pymatgen
data_Y(HO)3
_symmetry_space_group_name_H-M   'P 1'
_cell_length_a   6.36691221
_cell_length_b   6.46275037
_cell_length_c   3.48443085
_cell_angle_alpha   90.00000000
_cell_angle_beta   90.00000000
_cell_angle_gamma   118.32055727
_symmetry_Int_Tables_number   1
_chemical_formula_structural   Y(HO)3
_chemical_formula_sum   'Y2 H6 O6'
_cell_volume   126.21539952
_cell_formula_units_Z   2
loop_
 _symmetry_equiv_pos_site_id
 _symmetry_equiv_pos_as_xyz
  1  'x, y, z'
loop_
 _atom_site_type_symbol
 _atom_site_label
 _atom_site_symmetry_multiplicity
 _atom_site_fract_x
 _atom_site_fract_y
 _atom_site_fract_z
 _atom_site_occupancy
  Y  Y0  1  0.659347  0.322514  0.250000  1
  Y  Y1  1  0.348431  0.671587  0.750000  1
  H  H2  1  0.153397  0.861284  0.250000  1
  H  H3  1  0.738438  0.865506  0.250000  1
  H  H4  1  0.145805  0.305643  0.250000  1
  H  H5  1  0.868821  0.140328  0.750000  1
  H  H6  1  0.270301  0.129259  0.750000  1
  H  H7  1  0.860848  0.691559  0.750000  1
  O  O8  1  0.100344  0.693053  0.250000  1
  O  O9  1  0.614666  0.913103  0.250000  1
  O  O10  1  0.318144  0.405079  0.250000  1
  O  O11  1  0.911461  0.306119  0.750000  1
  O  O12  1  0.394581  0.082329  0.750000  1
  O  O13  1  0.689072  0.588982  0.750000  1
