# generated using pymatgen
data_Ba4LiW2N7
_symmetry_space_group_name_H-M   'P 1'
_cell_length_a   6.57530530
_cell_length_b   10.48807680
_cell_length_c   15.76604174
_cell_angle_alpha   98.94113139
_cell_angle_beta   90.00000000
_cell_angle_gamma   90.00000000
_symmetry_Int_Tables_number   1
_chemical_formula_structural   Ba4LiW2N7
_chemical_formula_sum   'Ba16 Li4 W8 N28'
_cell_volume   1074.05079125
_cell_formula_units_Z   4
loop_
 _symmetry_equiv_pos_site_id
 _symmetry_equiv_pos_as_xyz
  1  'x, y, z'
loop_
 _atom_site_type_symbol
 _atom_site_label
 _atom_site_symmetry_multiplicity
 _atom_site_fract_x
 _atom_site_fract_y
 _atom_site_fract_z
 _atom_site_occupancy
  Li  Li0  1  0.456497  0.872104  0.239163  1
  Li  Li1  1  0.543503  0.372104  0.739163  1
  Li  Li2  1  0.543503  0.127896  0.760837  1
  Li  Li3  1  0.456497  0.627896  0.260837  1
  N  N4  1  0.464764  0.107872  0.092070  1
  N  N5  1  0.817325  0.051742  0.804709  1
  N  N6  1  0.817325  0.448257  0.695291  1
  N  N7  1  0.182675  0.948257  0.195291  1
  N  N8  1  0.182675  0.551743  0.304709  1
  N  N9  1  0.469726  0.220947  0.652853  1
  N  N10  1  0.469726  0.279053  0.847147  1
  N  N11  1  0.530274  0.779053  0.347147  1
  N  N12  1  0.530274  0.720947  0.152853  1
  N  N13  1  0.535236  0.892128  0.907930  1
  N  N14  1  0.535236  0.607872  0.592070  1
  N  N15  1  0.921379  0.859003  0.435640  1
  N  N16  1  0.724831  0.037618  0.328921  1
  N  N17  1  0.724831  0.462382  0.171079  1
  N  N18  1  0.275169  0.962382  0.671079  1
  N  N19  1  0.275169  0.537618  0.828921  1
  N  N20  1  0.500000  0.500000  0.000000  1
  N  N21  1  0.500000  0.000000  0.500000  1
  N  N22  1  0.239778  0.250000  0.250000  1
  N  N23  1  0.760222  0.750000  0.750000  1
  N  N24  1  0.988486  0.861756  0.916482  1
  N  N25  1  0.988486  0.638244  0.583518  1
  N  N26  1  0.011514  0.138244  0.083518  1
  N  N27  1  0.011514  0.361756  0.416482  1
  N  N28  1  0.078621  0.359003  0.935640  1
  N  N29  1  0.921379  0.640997  0.064360  1
  N  N30  1  0.078621  0.140997  0.564360  1
  N  N31  1  0.464764  0.392128  0.407930  1
  Ba  Ba32  1  0.684287  0.250000  0.250000  1
  Ba  Ba33  1  0.142254  0.075879  0.379203  1
  Ba  Ba34  1  0.142254  0.424121  0.120797  1
  Ba  Ba35  1  0.857746  0.924121  0.620797  1
  Ba  Ba36  1  0.857746  0.575879  0.879203  1
  Ba  Ba37  1  0.721272  0.256623  0.515939  1
  Ba  Ba38  1  0.721272  0.243377  0.984061  1
  Ba  Ba39  1  0.278728  0.743377  0.484061  1
  Ba  Ba40  1  0.278728  0.756623  0.015939  1
  Ba  Ba41  1  0.228971  0.421062  0.572051  1
  Ba  Ba42  1  0.228971  0.078938  0.927949  1
  Ba  Ba43  1  0.771029  0.578938  0.427949  1
  Ba  Ba44  1  0.771029  0.921062  0.072051  1
  Ba  Ba45  1  0.022621  0.250000  0.750000  1
  Ba  Ba46  1  0.977379  0.750000  0.250000  1
  Ba  Ba47  1  0.315713  0.750000  0.750000  1
  W  W48  1  0.670006  0.578615  0.096519  1
  W  W49  1  0.670006  0.921385  0.403481  1
  W  W50  1  0.329995  0.421385  0.903481  1
  W  W51  1  0.329995  0.078615  0.596519  1
  W  W52  1  0.774913  0.893974  0.844634  1
  W  W53  1  0.774913  0.606026  0.655366  1
  W  W54  1  0.225087  0.106026  0.155366  1
  W  W55  1  0.225087  0.393974  0.344634  1
