# generated using pymatgen
data_Mg2SiO4
_symmetry_space_group_name_H-M   'P 1'
_cell_length_a   5.83744121
_cell_length_b   5.86040706
_cell_length_c   5.83744074
_cell_angle_alpha   59.86977404
_cell_angle_beta   58.78159935
_cell_angle_gamma   59.86977646
_symmetry_Int_Tables_number   1
_chemical_formula_structural   Mg2SiO4
_chemical_formula_sum   'Mg4 Si2 O8'
_cell_volume   139.59066426
_cell_formula_units_Z   2
loop_
 _symmetry_equiv_pos_site_id
 _symmetry_equiv_pos_as_xyz
  1  'x, y, z'
loop_
 _atom_site_type_symbol
 _atom_site_label
 _atom_site_symmetry_multiplicity
 _atom_site_fract_x
 _atom_site_fract_y
 _atom_site_fract_z
 _atom_site_occupancy
  Mg  Mg0  1  0.109794  0.140206  0.109794  1
  Mg  Mg1  1  0.500000  0.000000  0.500000  1
  Mg  Mg2  1  0.500000  0.500000  0.500000  1
  Mg  Mg3  1  0.890206  0.859794  0.890206  1
  Si  Si4  1  0.500000  0.500000  0.000000  1
  Si  Si5  1  0.000000  0.500000  0.500000  1
  O  O6  1  0.248892  0.286630  0.248892  1
  O  O7  1  0.221922  0.289616  0.698845  1
  O  O8  1  0.248892  0.715585  0.248892  1
  O  O9  1  0.698845  0.289616  0.221922  1
  O  O10  1  0.301155  0.710384  0.778078  1
  O  O11  1  0.751108  0.284415  0.751108  1
  O  O12  1  0.778078  0.710384  0.301155  1
  O  O13  1  0.751108  0.713370  0.751108  1
