# generated using pymatgen
data_BiRu2(CO)6
_symmetry_space_group_name_H-M   'P 1'
_cell_length_a   7.51579100
_cell_length_b   11.64501679
_cell_length_c   12.71238323
_cell_angle_alpha   91.23123930
_cell_angle_beta   90.00000000
_cell_angle_gamma   90.00000000
_symmetry_Int_Tables_number   1
_chemical_formula_structural   BiRu2(CO)6
_chemical_formula_sum   'Bi4 Ru8 C24 O24'
_cell_volume   1112.35012328
_cell_formula_units_Z   4
loop_
 _symmetry_equiv_pos_site_id
 _symmetry_equiv_pos_as_xyz
  1  'x, y, z'
loop_
 _atom_site_type_symbol
 _atom_site_label
 _atom_site_symmetry_multiplicity
 _atom_site_fract_x
 _atom_site_fract_y
 _atom_site_fract_z
 _atom_site_occupancy
  Bi  Bi0  1  0.257007  0.513170  0.540393  1
  Bi  Bi1  1  0.742993  0.486830  0.459607  1
  Bi  Bi2  1  0.757007  0.986830  0.959607  1
  Bi  Bi3  1  0.242993  0.013170  0.040393  1
  Ru  Ru4  1  0.963683  0.675102  0.536605  1
  Ru  Ru5  1  0.536317  0.175102  0.036605  1
  Ru  Ru6  1  0.036317  0.324898  0.463395  1
  Ru  Ru7  1  0.064170  0.540409  0.344161  1
  Ru  Ru8  1  0.564170  0.959591  0.155839  1
  Ru  Ru9  1  0.935830  0.459591  0.655839  1
  Ru  Ru10  1  0.463683  0.824898  0.963395  1
  Ru  Ru11  1  0.435830  0.040409  0.844161  1
  C  C12  1  0.713199  0.269765  0.975162  1
  C  C13  1  0.781565  0.998381  0.224674  1
  C  C14  1  0.646471  0.712311  0.974247  1
  C  C15  1  0.853529  0.212311  0.474247  1
  C  C16  1  0.592445  0.216841  0.177054  1
  C  C17  1  0.218435  0.001619  0.775326  1
  C  C18  1  0.281565  0.501619  0.275326  1
  C  C19  1  0.353529  0.287689  0.025753  1
  C  C20  1  0.146471  0.787689  0.525753  1
  C  C21  1  0.786801  0.769765  0.475162  1
  C  C22  1  0.926136  0.303148  0.691647  1
  C  C23  1  0.923247  0.495863  0.225581  1
  C  C24  1  0.423247  0.004137  0.274419  1
  C  C25  1  0.907555  0.716841  0.677054  1
  C  C26  1  0.407555  0.783159  0.822946  1
  C  C27  1  0.092445  0.283159  0.322946  1
  C  C28  1  0.073864  0.696852  0.308353  1
  C  C29  1  0.576753  0.995863  0.725581  1
  C  C30  1  0.076753  0.504137  0.774419  1
  C  C31  1  0.573864  0.803148  0.191647  1
  C  C32  1  0.718435  0.498381  0.724674  1
  C  C33  1  0.426136  0.196852  0.808353  1
  C  C34  1  0.213199  0.230235  0.524838  1
  C  C35  1  0.286801  0.730235  0.024838  1
  O  O36  1  0.910783  0.021408  0.270628  1
  O  O37  1  0.182455  0.668137  0.059830  1
  O  O38  1  0.873385  0.754107  0.760605  1
  O  O39  1  0.410749  0.288524  0.774047  1
  O  O40  1  0.682455  0.831863  0.440170  1
  O  O41  1  0.126615  0.245893  0.239395  1
  O  O42  1  0.089217  0.978592  0.729372  1
  O  O43  1  0.340452  0.029683  0.348205  1
  O  O44  1  0.626615  0.254107  0.260605  1
  O  O45  1  0.255475  0.858150  0.521810  1
  O  O46  1  0.589217  0.521408  0.770628  1
  O  O47  1  0.089251  0.788524  0.274047  1
  O  O48  1  0.659548  0.970317  0.651795  1
  O  O49  1  0.840452  0.470317  0.151795  1
  O  O50  1  0.817545  0.331863  0.940170  1
  O  O51  1  0.744525  0.141850  0.478190  1
  O  O52  1  0.373385  0.745893  0.739395  1
  O  O53  1  0.755475  0.641850  0.978190  1
  O  O54  1  0.410783  0.478592  0.229372  1
  O  O55  1  0.589251  0.711476  0.225953  1
  O  O56  1  0.317545  0.168137  0.559830  1
  O  O57  1  0.910749  0.211476  0.725953  1
  O  O58  1  0.244525  0.358150  0.021810  1
  O  O59  1  0.159548  0.529683  0.848205  1
