# generated using pymatgen
data_Hg15(As2Cl3)4
_symmetry_space_group_name_H-M   'P 1'
_cell_length_a   12.55112808
_cell_length_b   12.53974998
_cell_length_c   25.06789212
_cell_angle_alpha   89.99968818
_cell_angle_beta   90.00037456
_cell_angle_gamma   90.00025438
_symmetry_Int_Tables_number   1
_chemical_formula_structural   Hg15(As2Cl3)4
_chemical_formula_sum   'Hg60 As32 Cl48'
_cell_volume   3945.38560769
_cell_formula_units_Z   4
loop_
 _symmetry_equiv_pos_site_id
 _symmetry_equiv_pos_as_xyz
  1  'x, y, z'
loop_
 _atom_site_type_symbol
 _atom_site_label
 _atom_site_symmetry_multiplicity
 _atom_site_fract_x
 _atom_site_fract_y
 _atom_site_fract_z
 _atom_site_occupancy
  Hg  Hg0  1  0.000012  -0.000059  0.999744  1
  Hg  Hg1  1  0.000009  0.500048  0.749744  1
  Hg  Hg2  1  0.026799  0.290519  0.109463  1
  Hg  Hg3  1  0.026541  0.210029  0.359569  1
  Hg  Hg4  1  0.026087  0.289802  0.609721  1
  Hg  Hg5  1  0.026464  0.209687  0.859616  1
  Hg  Hg6  1  0.210161  0.718954  0.013301  1
  Hg  Hg7  1  0.209682  0.719308  0.513249  1
  Hg  Hg8  1  0.209821  0.780643  0.263331  1
  Hg  Hg9  1  0.210033  0.781083  0.763222  1
  Hg  Hg10  1  0.219375  0.473691  0.394883  1
  Hg  Hg11  1  0.219260  0.026681  0.145110  1
  Hg  Hg12  1  0.218796  0.473222  0.895272  1
  Hg  Hg13  1  0.218917  0.026495  0.645014  1
  Hg  Hg14  1  0.281085  0.526494  0.145015  1
  Hg  Hg15  1  0.281202  0.973218  0.395272  1
  Hg  Hg16  1  0.280625  0.973695  0.894884  1
  Hg  Hg17  1  0.280739  0.526679  0.645111  1
  Hg  Hg18  1  0.289839  0.218953  0.513299  1
  Hg  Hg19  1  0.290317  0.219309  0.013249  1
  Hg  Hg20  1  0.289968  0.281084  0.263222  1
  Hg  Hg21  1  0.290179  0.280643  0.763330  1
  Hg  Hg22  1  0.473913  0.789802  0.109722  1
  Hg  Hg23  1  0.473201  0.790519  0.609463  1
  Hg  Hg24  1  0.473461  0.710029  0.859570  1
  Hg  Hg25  1  0.473532  0.709688  0.359617  1
  Hg  Hg26  1  0.500006  0.500028  0.749999  1
  Hg  Hg27  1  0.499993  0.000047  0.249746  1
  Hg  Hg28  1  0.500005  0.500049  0.000254  1
  Hg  Hg29  1  0.499993  0.000026  0.500001  1
  Hg  Hg30  1  0.500013  -0.000057  0.750257  1
  Hg  Hg31  1  0.499987  0.499942  0.499742  1
  Hg  Hg32  1  0.526086  0.289801  0.140278  1
  Hg  Hg33  1  0.526799  0.290519  0.640537  1
  Hg  Hg34  1  0.526538  0.210029  0.390431  1
  Hg  Hg35  1  0.526465  0.209688  0.890383  1
  Hg  Hg36  1  0.709683  0.719310  0.236751  1
  Hg  Hg37  1  0.709821  0.780642  0.486669  1
  Hg  Hg38  1  0.710161  0.718953  0.736700  1
  Hg  Hg39  1  0.710032  0.781084  0.986778  1
  Hg  Hg40  1  0.718917  0.026496  0.104986  1
  Hg  Hg41  1  0.719374  0.473694  0.355117  1
  Hg  Hg42  1  0.719262  0.026677  0.604890  1
  Hg  Hg43  1  0.718796  0.473219  0.854727  1
  Hg  Hg44  1  0.781203  0.973218  0.354728  1
  Hg  Hg45  1  0.780737  0.526677  0.104890  1
  Hg  Hg46  1  0.780626  0.973692  0.855117  1
  Hg  Hg47  1  0.781082  0.526495  0.604986  1
  Hg  Hg48  1  0.789839  0.218952  0.236702  1
  Hg  Hg49  1  0.789967  0.281084  0.486779  1
  Hg  Hg50  1  0.790317  0.219310  0.736750  1
  Hg  Hg51  1  0.790178  0.280643  0.986669  1
  Hg  Hg52  1  0.973537  0.709685  0.390385  1
  Hg  Hg53  1  0.973202  0.790519  0.140538  1
  Hg  Hg54  1  0.973460  0.710029  0.890431  1
  Hg  Hg55  1  0.973915  0.789802  0.640278  1
  Hg  Hg56  1  -0.000007  0.000048  0.500255  1
  Hg  Hg57  1  -0.000014  0.499944  0.250258  1
  Hg  Hg58  1  0.000005  0.500027  0.000001  1
  Hg  Hg59  1  0.999993  0.000025  0.250000  1
  As  As60  1  0.167145  0.667022  0.416445  1
  As  As61  1  0.167504  0.832511  0.166287  1
  As  As62  1  0.166994  0.832852  0.666444  1
  As  As63  1  0.167323  0.667531  0.916277  1
  As  As64  1  0.218693  0.281342  0.359292  1
  As  As65  1  0.218808  0.280964  0.859482  1
  As  As66  1  0.219011  0.218994  0.109430  1
  As  As67  1  0.218478  0.218679  0.609378  1
  As  As68  1  0.281195  0.780967  0.359481  1
  As  As69  1  0.281520  0.718680  0.109376  1
  As  As70  1  0.281307  0.781353  0.859289  1
  As  As71  1  0.280988  0.718995  0.609428  1
  As  As72  1  0.332680  0.167534  0.416276  1
  As  As73  1  0.332852  0.167021  0.916444  1
  As  As74  1  0.333004  0.332852  0.166444  1
  As  As75  1  0.332496  0.332511  0.666287  1
  As  As76  1  0.667150  0.667022  0.333555  1
  As  As77  1  0.666995  0.832851  0.083555  1
  As  As78  1  0.667507  0.832511  0.583714  1
  As  As79  1  0.667321  0.667536  0.833724  1
  As  As80  1  0.718480  0.218678  0.140622  1
  As  As81  1  0.718693  0.281353  0.390710  1
  As  As82  1  0.719012  0.218994  0.640572  1
  As  As83  1  0.718806  0.280965  0.890518  1
  As  As84  1  0.781192  0.780966  0.390518  1
  As  As85  1  0.780988  0.718993  0.140572  1
  As  As86  1  0.781306  0.781353  0.890710  1
  As  As87  1  0.781518  0.718680  0.640622  1
  As  As88  1  0.832677  0.167535  0.333723  1
  As  As89  1  0.832494  0.332512  0.083714  1
  As  As90  1  0.833005  0.332852  0.583556  1
  As  As91  1  0.832855  0.167024  0.833555  1
  Cl  Cl92  1  0.034352  0.288765  0.229108  1
  Cl  Cl93  1  0.034263  0.286573  0.729396  1
  Cl  Cl94  1  0.034101  0.213361  0.479290  1
  Cl  Cl95  1  0.034501  0.211264  0.979211  1
  Cl  Cl96  1  0.041529  0.534572  0.144304  1
  Cl  Cl97  1  0.041693  0.965518  0.394303  1
  Cl  Cl98  1  0.041341  0.966024  0.893442  1
  Cl  Cl99  1  0.041526  0.533871  0.643446  1
  Cl  Cl100  1  0.213365  0.541589  0.266983  1
  Cl  Cl101  1  0.213249  0.958727  0.017049  1
  Cl  Cl102  1  0.211118  0.541455  0.767226  1
  Cl  Cl103  1  0.211231  0.958242  0.517172  1
  Cl  Cl104  1  0.288885  0.041456  0.267227  1
  Cl  Cl105  1  0.286754  0.458722  0.517049  1
  Cl  Cl106  1  0.288770  0.458245  0.017174  1
  Cl  Cl107  1  0.286634  0.041588  0.766985  1
  Cl  Cl108  1  0.458474  0.033868  0.143446  1
  Cl  Cl109  1  0.458473  0.034567  0.644302  1
  Cl  Cl110  1  0.458657  0.466018  0.393440  1
  Cl  Cl111  1  0.458305  0.465525  0.894303  1
  Cl  Cl112  1  0.465494  0.711264  0.479212  1
  Cl  Cl113  1  0.465738  0.786575  0.229396  1
  Cl  Cl114  1  0.465902  0.713363  0.979288  1
  Cl  Cl115  1  0.465649  0.788769  0.729104  1
  Cl  Cl116  1  0.534098  0.213360  0.270713  1
  Cl  Cl117  1  0.534264  0.286575  0.020604  1
  Cl  Cl118  1  0.534505  0.211263  0.770787  1
  Cl  Cl119  1  0.534346  0.288767  0.520893  1
  Cl  Cl120  1  0.541518  0.533873  0.106554  1
  Cl  Cl121  1  0.541536  0.534570  0.605698  1
  Cl  Cl122  1  0.541699  0.965522  0.355697  1
  Cl  Cl123  1  0.541343  0.966023  0.856558  1
  Cl  Cl124  1  0.713363  0.541590  0.483016  1
  Cl  Cl125  1  0.711113  0.541453  0.982774  1
  Cl  Cl126  1  0.711232  0.958245  0.232827  1
  Cl  Cl127  1  0.713248  0.958722  0.732950  1
  Cl  Cl128  1  0.788882  0.041461  0.482773  1
  Cl  Cl129  1  0.786755  0.458721  0.232948  1
  Cl  Cl130  1  0.786635  0.041590  0.983016  1
  Cl  Cl131  1  0.788768  0.458242  0.732826  1
  Cl  Cl132  1  0.958477  0.034568  0.105698  1
  Cl  Cl133  1  0.958656  0.466022  0.356558  1
  Cl  Cl134  1  0.958479  0.033875  0.606550  1
  Cl  Cl135  1  0.958302  0.465519  0.855696  1
  Cl  Cl136  1  0.965655  0.788764  0.020894  1
  Cl  Cl137  1  0.965738  0.786572  0.520605  1
  Cl  Cl138  1  0.965498  0.711270  0.270786  1
  Cl  Cl139  1  0.965901  0.713359  0.770714  1
