# generated using pymatgen
data_SiO2
_symmetry_space_group_name_H-M   'P 1'
_cell_length_a   8.52743619
_cell_length_b   14.21690094
_cell_length_c   16.08390429
_cell_angle_alpha   90.00000000
_cell_angle_beta   90.00000000
_cell_angle_gamma   90.00000000
_symmetry_Int_Tables_number   1
_chemical_formula_structural   SiO2
_chemical_formula_sum   'Si32 O64'
_cell_volume   1949.91147820
_cell_formula_units_Z   32
loop_
 _symmetry_equiv_pos_site_id
 _symmetry_equiv_pos_as_xyz
  1  'x, y, z'
loop_
 _atom_site_type_symbol
 _atom_site_label
 _atom_site_symmetry_multiplicity
 _atom_site_fract_x
 _atom_site_fract_y
 _atom_site_fract_z
 _atom_site_occupancy
  Si  Si0  1  0.825019  0.141877  0.159522  1
  Si  Si1  1  0.325019  0.358123  0.340478  1
  Si  Si2  1  0.174981  0.641877  0.840478  1
  Si  Si3  1  0.674981  0.858123  0.659522  1
  Si  Si4  1  0.174981  0.858123  0.840478  1
  Si  Si5  1  0.674981  0.641877  0.659522  1
  Si  Si6  1  0.825019  0.358123  0.159522  1
  Si  Si7  1  0.325019  0.141877  0.340478  1
  Si  Si8  1  0.555919  0.358798  0.032635  1
  Si  Si9  1  0.055919  0.141202  0.467365  1
  Si  Si10  1  0.444081  0.858798  0.967365  1
  Si  Si11  1  0.944081  0.641202  0.532635  1
  Si  Si12  1  0.444081  0.641202  0.967365  1
  Si  Si13  1  0.944081  0.858798  0.532635  1
  Si  Si14  1  0.555919  0.141202  0.032635  1
  Si  Si15  1  0.055919  0.358798  0.467365  1
  Si  Si16  1  0.112637  0.469583  0.220964  1
  Si  Si17  1  0.612637  0.030417  0.279036  1
  Si  Si18  1  0.887363  0.969583  0.779036  1
  Si  Si19  1  0.387363  0.530417  0.720964  1
  Si  Si20  1  0.887363  0.530417  0.779036  1
  Si  Si21  1  0.387363  0.969583  0.720964  1
  Si  Si22  1  0.112637  0.030417  0.220964  1
  Si  Si23  1  0.612637  0.469583  0.279036  1
  Si  Si24  1  0.410119  0.973165  0.129557  1
  Si  Si25  1  0.910119  0.526835  0.370443  1
  Si  Si26  1  0.589881  0.473165  0.870443  1
  Si  Si27  1  0.089881  0.026835  0.629557  1
  Si  Si28  1  0.589881  0.026835  0.870443  1
  Si  Si29  1  0.089881  0.473165  0.629557  1
  Si  Si30  1  0.410119  0.526835  0.129557  1
  Si  Si31  1  0.910119  0.973165  0.370443  1
  O  O32  1  0.884721  0.250000  0.167761  1
  O  O33  1  0.384721  0.250000  0.332239  1
  O  O34  1  0.115279  0.750000  0.832239  1
  O  O35  1  0.615279  0.750000  0.667761  1
  O  O36  1  0.730854  0.127818  0.072138  1
  O  O37  1  0.230854  0.372182  0.427862  1
  O  O38  1  0.269146  0.627818  0.927862  1
  O  O39  1  0.769146  0.872182  0.572138  1
  O  O40  1  0.269146  0.872182  0.927862  1
  O  O41  1  0.769146  0.627818  0.572138  1
  O  O42  1  0.730854  0.372182  0.072138  1
  O  O43  1  0.230854  0.127818  0.427862  1
  O  O44  1  0.975295  0.071479  0.160852  1
  O  O45  1  0.475295  0.428521  0.339148  1
  O  O46  1  0.024705  0.571479  0.839148  1
  O  O47  1  0.524705  0.928521  0.660852  1
  O  O48  1  0.024705  0.928521  0.839148  1
  O  O49  1  0.524705  0.571479  0.660852  1
  O  O50  1  0.975295  0.428521  0.160852  1
  O  O51  1  0.475295  0.071479  0.339148  1
  O  O52  1  0.708408  0.118064  0.237377  1
  O  O53  1  0.208408  0.381936  0.262623  1
  O  O54  1  0.291592  0.618064  0.762623  1
  O  O55  1  0.791592  0.881936  0.737377  1
  O  O56  1  0.291592  0.881936  0.762623  1
  O  O57  1  0.791592  0.618064  0.737377  1
  O  O58  1  0.708408  0.381936  0.237377  1
  O  O59  1  0.208408  0.118064  0.262623  1
  O  O60  1  0.560138  0.386716  0.934553  1
  O  O61  1  0.060138  0.113284  0.565447  1
  O  O62  1  0.439862  0.886716  0.065447  1
  O  O63  1  0.939862  0.613284  0.434553  1
  O  O64  1  0.439862  0.613284  0.065447  1
  O  O65  1  0.939862  0.886716  0.434553  1
  O  O66  1  0.560138  0.113284  0.934553  1
  O  O67  1  0.060138  0.386716  0.565447  1
  O  O68  1  0.431767  0.426338  0.081477  1
  O  O69  1  0.931767  0.073662  0.418523  1
  O  O70  1  0.568233  0.926338  0.918523  1
  O  O71  1  0.068233  0.573662  0.581477  1
  O  O72  1  0.568233  0.573662  0.918523  1
  O  O73  1  0.068233  0.926338  0.581477  1
  O  O74  1  0.431767  0.073662  0.081477  1
  O  O75  1  0.931767  0.426338  0.418523  1
  O  O76  1  0.499403  0.250000  0.042393  1
  O  O77  1  0.999403  0.250000  0.457607  1
  O  O78  1  0.500597  0.750000  0.957607  1
  O  O79  1  0.000597  0.750000  0.542393  1
  O  O80  1  0.035761  0.534458  0.294219  1
  O  O81  1  0.535761  0.965542  0.205781  1
  O  O82  1  0.964239  0.034458  0.705781  1
  O  O83  1  0.464239  0.465542  0.794219  1
  O  O84  1  0.964239  0.465542  0.705781  1
  O  O85  1  0.464239  0.034458  0.794219  1
  O  O86  1  0.035761  0.965542  0.294219  1
  O  O87  1  0.535761  0.534458  0.205781  1
  O  O88  1  0.232302  0.533580  0.166088  1
  O  O89  1  0.732302  0.966420  0.333912  1
  O  O90  1  0.767698  0.033580  0.833912  1
  O  O91  1  0.267698  0.466420  0.666088  1
  O  O92  1  0.767698  0.466420  0.833912  1
  O  O93  1  0.267698  0.033580  0.666088  1
  O  O94  1  0.232302  0.966420  0.166088  1
  O  O95  1  0.732302  0.533580  0.333912  1
