# generated using pymatgen
data_H7NO6
_symmetry_space_group_name_H-M   'P 1'
_cell_length_a   9.95883947
_cell_length_b   15.35106408
_cell_length_c   3.47383796
_cell_angle_alpha   90.00000000
_cell_angle_beta   90.00000000
_cell_angle_gamma   90.00000000
_symmetry_Int_Tables_number   1
_chemical_formula_structural   H7NO6
_chemical_formula_sum   'H28 N4 O24'
_cell_volume   531.07611920
_cell_formula_units_Z   4
loop_
 _symmetry_equiv_pos_site_id
 _symmetry_equiv_pos_as_xyz
  1  'x, y, z'
loop_
 _atom_site_type_symbol
 _atom_site_label
 _atom_site_symmetry_multiplicity
 _atom_site_fract_x
 _atom_site_fract_y
 _atom_site_fract_z
 _atom_site_occupancy
  H  H0  1  0.586812  0.747917  0.359083  1
  H  H1  1  0.913188  0.252083  0.859083  1
  H  H2  1  0.086812  0.752083  0.640917  1
  H  H3  1  0.413188  0.247917  0.140917  1
  H  H4  1  0.479967  0.667847  0.955418  1
  H  H5  1  0.536656  0.596601  0.249020  1
  H  H6  1  0.963344  0.403399  0.749020  1
  H  H7  1  0.020033  0.332153  0.455418  1
  H  H8  1  0.036656  0.903399  0.750980  1
  H  H9  1  0.979967  0.832153  0.044582  1
  H  H10  1  0.463344  0.096601  0.250980  1
  H  H11  1  0.520033  0.167847  0.544582  1
  H  H12  1  0.557109  0.979639  0.979451  1
  H  H13  1  0.411249  0.960792  0.151208  1
  H  H14  1  0.942891  0.020361  0.479451  1
  H  H15  1  0.088751  0.039208  0.651208  1
  H  H16  1  0.057109  0.520361  0.020549  1
  H  H17  1  0.911249  0.539208  0.848792  1
  H  H18  1  0.442891  0.479639  0.520549  1
  H  H19  1  0.588751  0.460792  0.348792  1
  H  H20  1  0.292025  0.883149  0.572364  1
  H  H21  1  0.203336  0.881874  0.198316  1
  H  H22  1  0.296664  0.118126  0.698316  1
  H  H23  1  0.207975  0.116851  0.072364  1
  H  H24  1  0.792025  0.616851  0.427636  1
  H  H25  1  0.703336  0.618126  0.801684  1
  H  H26  1  0.707975  0.383149  0.927636  1
  H  H27  1  0.796664  0.381874  0.301684  1
  N  N28  1  0.727183  0.835534  0.312691  1
  N  N29  1  0.772817  0.164466  0.812691  1
  N  N30  1  0.227183  0.664466  0.687309  1
  N  N31  1  0.272817  0.335534  0.187309  1
  O  O32  1  0.599212  0.813089  0.428219  1
  O  O33  1  0.900788  0.186911  0.928219  1
  O  O34  1  0.099212  0.686911  0.571781  1
  O  O35  1  0.400788  0.313089  0.071781  1
  O  O36  1  0.810174  0.776190  0.275461  1
  O  O37  1  0.689826  0.223810  0.775461  1
  O  O38  1  0.310174  0.723810  0.724539  1
  O  O39  1  0.189826  0.276190  0.224539  1
  O  O40  1  0.745697  0.913188  0.256929  1
  O  O41  1  0.754303  0.086812  0.756929  1
  O  O42  1  0.245697  0.586812  0.743071  1
  O  O43  1  0.254303  0.413188  0.243071  1
  O  O44  1  0.555605  0.656615  0.129404  1
  O  O45  1  0.944395  0.343385  0.629404  1
  O  O46  1  0.055605  0.843385  0.870596  1
  O  O47  1  0.444395  0.156615  0.370596  1
  O  O48  1  0.471441  0.006686  0.040997  1
  O  O49  1  0.028559  0.993314  0.540997  1
  O  O50  1  0.971441  0.493314  0.959003  1
  O  O51  1  0.528559  0.506686  0.459003  1
  O  O52  1  0.295241  0.891479  0.295242  1
  O  O53  1  0.204759  0.108521  0.795242  1
  O  O54  1  0.795241  0.608521  0.704758  1
  O  O55  1  0.704759  0.391479  0.204758  1
