# generated using pymatgen
data_Al(HO)3
_symmetry_space_group_name_H-M   'P 1'
_cell_length_a   8.68585624
_cell_length_b   5.25017764
_cell_length_c   9.49995555
_cell_angle_alpha   90.00000000
_cell_angle_beta   90.00000000
_cell_angle_gamma   91.42910318
_symmetry_Int_Tables_number   1
_chemical_formula_structural   Al(HO)3
_chemical_formula_sum   'Al8 H24 O24'
_cell_volume   433.08495856
_cell_formula_units_Z   8
loop_
 _symmetry_equiv_pos_site_id
 _symmetry_equiv_pos_as_xyz
  1  'x, y, z'
loop_
 _atom_site_type_symbol
 _atom_site_label
 _atom_site_symmetry_multiplicity
 _atom_site_fract_x
 _atom_site_fract_y
 _atom_site_fract_z
 _atom_site_occupancy
  Al  Al0  1  0.828256  0.013485  0.501026  1
  Al  Al1  1  0.327731  0.493631  0.497821  1
  Al  Al2  1  0.168344  0.506722  0.997375  1
  Al  Al3  1  0.667490  0.984577  0.002315  1
  Al  Al4  1  0.167490  0.984577  0.497685  1
  Al  Al5  1  0.668344  0.506722  0.502625  1
  Al  Al6  1  0.827731  0.493631  0.002179  1
  Al  Al7  1  0.328256  0.013485  0.998974  1
  H  H8  1  0.499838  0.799646  0.629073  1
  H  H9  1  0.972462  0.691981  0.380553  1
  H  H10  1  0.505911  0.297261  0.871083  1
  H  H11  1  0.995454  0.198351  0.128851  1
  H  H12  1  0.495454  0.198351  0.371149  1
  H  H13  1  0.005911  0.297261  0.628917  1
  H  H14  1  0.472462  0.691981  0.119447  1
  H  H15  1  -0.000162  0.799646  0.870927  1
  H  H16  1  0.785819  0.722987  0.708413  1
  H  H17  1  0.289732  0.783261  0.291289  1
  H  H18  1  0.213524  0.215558  0.789731  1
  H  H19  1  0.590719  0.342844  0.154770  1
  H  H20  1  0.090719  0.342844  0.345230  1
  H  H21  1  0.713524  0.215558  0.710269  1
  H  H22  1  0.789732  0.783261  0.208711  1
  H  H23  1  0.285819  0.722987  0.791587  1
  H  H24  1  0.415784  0.142014  0.640844  1
  H  H25  1  0.798990  0.313418  0.294566  1
  H  H26  1  0.590122  0.633537  0.839606  1
  H  H27  1  0.092652  0.862650  0.163027  1
  H  H28  1  0.592652  0.862650  0.336973  1
  H  H29  1  0.090122  0.633537  0.660394  1
  H  H30  1  0.298990  0.313418  0.205434  1
  H  H31  1  0.915784  0.142014  0.859156  1
  O  O32  1  0.495994  0.616623  0.612868  1
  O  O33  1  0.993081  0.875028  0.387914  1
  O  O34  1  0.502461  0.115772  0.889300  1
  O  O35  1  0.999715  0.380537  0.110875  1
  O  O36  1  0.499715  0.380537  0.389125  1
  O  O37  1  0.002461  0.115772  0.610700  1
  O  O38  1  0.493081  0.875028  0.112086  1
  O  O39  1  0.995994  0.616623  0.887132  1
  O  O40  1  0.813037  0.702687  0.608355  1
  O  O41  1  0.314449  0.799545  0.392174  1
  O  O42  1  0.184062  0.199286  0.889590  1
  O  O43  1  0.687704  0.289210  0.113043  1
  O  O44  1  0.187704  0.289210  0.386957  1
  O  O45  1  0.684062  0.199286  0.610410  1
  O  O46  1  0.814449  0.799545  0.107826  1
  O  O47  1  0.313037  0.702687  0.891645  1
  O  O48  1  0.313880  0.186361  0.606487  1
  O  O49  1  0.820762  0.329218  0.395728  1
  O  O50  1  0.682712  0.683193  0.892022  1
  O  O51  1  0.183643  0.815267  0.109059  1
  O  O52  1  0.683643  0.815267  0.390941  1
  O  O53  1  0.182712  0.683193  0.607978  1
  O  O54  1  0.320762  0.329218  0.104272  1
  O  O55  1  0.813880  0.186361  0.893513  1
