# generated using pymatgen
data_Ca2NF
_symmetry_space_group_name_H-M   'P 1'
_cell_length_a   7.13219091
_cell_length_b   7.13219143
_cell_length_c   42.61327507
_cell_angle_alpha   60.09714771
_cell_angle_beta   60.09714535
_cell_angle_gamma   59.96218684
_symmetry_Int_Tables_number   1
_chemical_formula_structural   Ca2NF
_chemical_formula_sum   'Ca48 N24 F24'
_cell_volume   1534.57241376
_cell_formula_units_Z   24
loop_
 _symmetry_equiv_pos_site_id
 _symmetry_equiv_pos_as_xyz
  1  'x, y, z'
loop_
 _atom_site_type_symbol
 _atom_site_label
 _atom_site_symmetry_multiplicity
 _atom_site_fract_x
 _atom_site_fract_y
 _atom_site_fract_z
 _atom_site_occupancy
  Ca  Ca0  1  0.259853  0.259853  0.042192  1
  Ca  Ca1  1  0.250822  0.250822  0.122310  1
  Ca  Ca2  1  0.258527  0.700739  0.045685  1
  Ca  Ca3  1  0.700739  0.258527  0.045685  1
  Ca  Ca4  1  0.278171  0.730148  0.126235  1
  Ca  Ca5  1  0.258155  0.258155  0.211540  1
  Ca  Ca6  1  0.259763  0.259763  0.286937  1
  Ca  Ca7  1  0.257690  0.715573  0.211797  1
  Ca  Ca8  1  0.730148  0.278171  0.126235  1
  Ca  Ca9  1  0.725330  0.725330  0.048923  1
  Ca  Ca10  1  0.731266  0.731266  0.124784  1
  Ca  Ca11  1  0.715573  0.257690  0.211797  1
  Ca  Ca12  1  0.283080  0.738574  0.290209  1
  Ca  Ca13  1  0.262111  0.262111  0.376443  1
  Ca  Ca14  1  0.262421  0.262421  0.452294  1
  Ca  Ca15  1  0.261336  0.717052  0.376628  1
  Ca  Ca16  1  0.738574  0.283080  0.290209  1
  Ca  Ca17  1  0.737680  0.737680  0.214191  1
  Ca  Ca18  1  0.737960  0.737960  0.290193  1
  Ca  Ca19  1  0.717052  0.261336  0.376628  1
  Ca  Ca20  1  0.284589  0.740309  0.455952  1
  Ca  Ca21  1  0.262582  0.262582  0.542925  1
  Ca  Ca22  1  0.262302  0.262302  0.619027  1
  Ca  Ca23  1  0.261808  0.717035  0.543082  1
  Ca  Ca24  1  0.740309  0.284589  0.455952  1
  Ca  Ca25  1  0.739093  0.739093  0.380261  1
  Ca  Ca26  1  0.739462  0.739462  0.456122  1
  Ca  Ca27  1  0.717035  0.261808  0.543082  1
  Ca  Ca28  1  0.284579  0.740229  0.622604  1
  Ca  Ca29  1  0.262400  0.262400  0.709672  1
  Ca  Ca30  1  0.262885  0.262885  0.785569  1
  Ca  Ca31  1  0.261698  0.717169  0.709712  1
  Ca  Ca32  1  0.739327  0.739327  0.546844  1
  Ca  Ca33  1  0.740229  0.284579  0.622604  1
  Ca  Ca34  1  0.739505  0.739505  0.622792  1
  Ca  Ca35  1  0.717169  0.261698  0.709712  1
  Ca  Ca36  1  0.284433  0.739475  0.789150  1
  Ca  Ca37  1  0.261431  0.261431  0.876792  1
  Ca  Ca38  1  0.268124  0.268124  0.952499  1
  Ca  Ca39  1  0.262204  0.719552  0.875706  1
  Ca  Ca40  1  0.739475  0.284433  0.789150  1
  Ca  Ca41  1  0.739318  0.739318  0.713577  1
  Ca  Ca42  1  0.739252  0.739252  0.789522  1
  Ca  Ca43  1  0.719552  0.262204  0.875706  1
  Ca  Ca44  1  0.292673  0.737701  0.953777  1
  Ca  Ca45  1  0.737701  0.292673  0.953777  1
  Ca  Ca46  1  0.744538  0.744538  0.879249  1
  Ca  Ca47  1  0.739505  0.739505  0.957313  1
  N  N48  1  0.996512  0.494612  0.083418  1
  N  N49  1  0.494612  0.996512  0.083418  1
  N  N50  1  0.493157  0.493157  0.084944  1
  N  N51  1  0.997012  0.499490  0.250751  1
  N  N52  1  0.499490  0.997012  0.250751  1
  N  N53  1  0.497118  0.497118  0.168506  1
  N  N54  1  0.498811  0.498811  0.251015  1
  N  N55  1  0.999380  0.500365  0.416646  1
  N  N56  1  0.500365  0.999380  0.416646  1
  N  N57  1  0.498624  0.498624  0.334086  1
  N  N58  1  0.999847  0.500128  0.583320  1
  N  N59  1  0.500321  0.500321  0.416667  1
  N  N60  1  0.500128  0.999847  0.583320  1
  N  N61  1  0.499849  0.499849  0.500051  1
  N  N62  1  0.000147  0.499484  0.750074  1
  N  N63  1  0.500120  0.500120  0.583294  1
  N  N64  1  0.499484  0.000147  0.750074  1
  N  N65  1  0.499800  0.499800  0.666723  1
  N  N66  1  0.003094  0.498327  0.917109  1
  N  N67  1  0.500121  0.500121  0.749841  1
  N  N68  1  0.498327  0.003094  0.917109  1
  N  N69  1  0.499835  0.499835  0.833002  1
  N  N70  1  0.505091  0.505091  0.915125  1
  N  N71  1  0.499126  0.499126  0.999758  1
  F  F72  1  0.100650  0.100650  0.022719  1
  F  F73  1  0.992187  0.584302  0.994214  1
  F  F74  1  0.985781  0.985781  0.257097  1
  F  F75  1  0.007830  0.457407  0.171332  1
  F  F76  1  0.584302  0.992187  0.994214  1
  F  F77  1  0.457407  0.007830  0.171332  1
  F  F78  1  0.996564  0.996564  0.418414  1
  F  F79  1  0.000471  0.492508  0.334406  1
  F  F80  1  0.492508  0.000471  0.334406  1
  F  F81  1  0.005853  0.005853  0.171031  1
  F  F82  1  0.999115  0.496617  0.500811  1
  F  F83  1  0.996866  0.996866  0.584946  1
  F  F84  1  0.931745  0.931745  0.116230  1
  F  F85  1  0.496617  0.999115  0.500811  1
  F  F86  1  0.000754  0.000754  0.334401  1
  F  F87  1  0.997265  0.997265  0.751362  1
  F  F88  1  0.998907  0.497329  0.667517  1
  F  F89  1  0.999105  0.999105  0.500804  1
  F  F90  1  0.497329  0.998907  0.667517  1
  F  F91  1  0.014003  0.014003  0.911117  1
  F  F92  1  0.503812  0.996580  0.833769  1
  F  F93  1  0.999072  0.999072  0.667582  1
  F  F94  1  0.995480  0.995480  0.834837  1
  F  F95  1  0.996580  0.503812  0.833769  1
