# generated using pymatgen
data_SiO2
_symmetry_space_group_name_H-M   'P 1'
_cell_length_a   8.70571002
_cell_length_b   8.70571002
_cell_length_c   27.85680924
_cell_angle_alpha   90.00000000
_cell_angle_beta   90.00000000
_cell_angle_gamma   90.00000000
_symmetry_Int_Tables_number   1
_chemical_formula_structural   SiO2
_chemical_formula_sum   'Si40 O80'
_cell_volume   2111.25049475
_cell_formula_units_Z   40
loop_
 _symmetry_equiv_pos_site_id
 _symmetry_equiv_pos_as_xyz
  1  'x, y, z'
loop_
 _atom_site_type_symbol
 _atom_site_label
 _atom_site_symmetry_multiplicity
 _atom_site_fract_x
 _atom_site_fract_y
 _atom_site_fract_z
 _atom_site_occupancy
  Si  Si0  1  0.995748  0.817001  0.069870  1
  Si  Si1  1  0.682999  0.995748  0.069870  1
  Si  Si2  1  0.817001  0.504252  0.069870  1
  Si  Si3  1  0.995748  0.682999  0.430130  1
  Si  Si4  1  0.504252  0.817001  0.430130  1
  Si  Si5  1  0.504252  0.682999  0.069870  1
  Si  Si6  1  0.817001  0.995748  0.430130  1
  Si  Si7  1  0.682999  0.504252  0.430130  1
  Si  Si8  1  0.004252  0.182999  0.930130  1
  Si  Si9  1  0.317001  0.004252  0.930130  1
  Si  Si10  1  0.182999  0.495748  0.930130  1
  Si  Si11  1  0.004252  0.317001  0.569870  1
  Si  Si12  1  0.495748  0.182999  0.569870  1
  Si  Si13  1  0.495748  0.317001  0.930130  1
  Si  Si14  1  0.182999  0.004252  0.569870  1
  Si  Si15  1  0.317001  0.495748  0.569870  1
  Si  Si16  1  0.818435  0.503703  0.181089  1
  Si  Si17  1  0.996297  0.818435  0.181089  1
  Si  Si18  1  0.503703  0.681565  0.181089  1
  Si  Si19  1  0.818435  0.996297  0.318911  1
  Si  Si20  1  0.681565  0.503703  0.318911  1
  Si  Si21  1  0.681565  0.996297  0.181089  1
  Si  Si22  1  0.503703  0.818435  0.318911  1
  Si  Si23  1  0.996297  0.681565  0.318911  1
  Si  Si24  1  0.181564  0.496297  0.818911  1
  Si  Si25  1  0.003703  0.181564  0.818911  1
  Si  Si26  1  0.496297  0.318435  0.818911  1
  Si  Si27  1  0.181564  0.003703  0.681089  1
  Si  Si28  1  0.318435  0.496297  0.681089  1
  Si  Si29  1  0.318435  0.003703  0.818911  1
  Si  Si30  1  0.496297  0.181564  0.681089  1
  Si  Si31  1  0.003703  0.318435  0.681089  1
  Si  Si32  1  0.250000  0.750000  0.000000  1
  Si  Si33  1  0.750000  0.250000  0.000000  1
  Si  Si34  1  0.250000  0.750000  0.500000  1
  Si  Si35  1  0.750000  0.250000  0.500000  1
  Si  Si36  1  0.250000  0.750000  0.250000  1
  Si  Si37  1  0.750000  0.250000  0.250000  1
  Si  Si38  1  0.750000  0.250000  0.750000  1
  Si  Si39  1  0.250000  0.750000  0.750000  1
  O  O40  1  0.138218  0.854032  0.034062  1
  O  O41  1  0.645968  0.138218  0.034062  1
  O  O42  1  0.854032  0.361782  0.034062  1
  O  O43  1  0.138218  0.645968  0.465938  1
  O  O44  1  0.361782  0.854032  0.465938  1
  O  O45  1  0.361782  0.645968  0.034062  1
  O  O46  1  0.854032  0.138218  0.465938  1
  O  O47  1  0.645968  0.361782  0.465938  1
  O  O48  1  0.861782  0.145968  0.965938  1
  O  O49  1  0.354032  0.861782  0.965938  1
  O  O50  1  0.145968  0.638218  0.965938  1
  O  O51  1  0.861782  0.354032  0.534062  1
  O  O52  1  0.638218  0.145968  0.534062  1
  O  O53  1  0.638218  0.354032  0.965938  1
  O  O54  1  0.145968  0.861782  0.534062  1
  O  O55  1  0.354032  0.638218  0.534062  1
  O  O56  1  0.937877  0.642235  0.059546  1
  O  O57  1  0.857765  0.937877  0.059546  1
  O  O58  1  0.642235  0.562123  0.059546  1
  O  O59  1  0.937877  0.857765  0.440454  1
  O  O60  1  0.562123  0.642235  0.440454  1
  O  O61  1  0.562123  0.857765  0.059546  1
  O  O62  1  0.642235  0.937877  0.440454  1
  O  O63  1  0.857765  0.562123  0.440454  1
  O  O64  1  0.062123  0.357765  0.940454  1
  O  O65  1  0.142235  0.062123  0.940454  1
  O  O66  1  0.357765  0.437877  0.940454  1
  O  O67  1  0.062123  0.142235  0.559546  1
  O  O68  1  0.437877  0.357765  0.559546  1
  O  O69  1  0.437877  0.142235  0.940454  1
  O  O70  1  0.357765  0.062123  0.559546  1
  O  O71  1  0.142235  0.437877  0.559546  1
  O  O72  1  0.051777  0.833187  0.125444  1
  O  O73  1  0.666813  0.051777  0.125444  1
  O  O74  1  0.833187  0.448223  0.125444  1
  O  O75  1  0.051777  0.666813  0.374556  1
  O  O76  1  0.448223  0.833187  0.374556  1
  O  O77  1  0.448223  0.666813  0.125444  1
  O  O78  1  0.833187  0.051777  0.374556  1
  O  O79  1  0.666813  0.448223  0.374556  1
  O  O80  1  0.948223  0.166813  0.874556  1
  O  O81  1  0.333187  0.948223  0.874556  1
  O  O82  1  0.166813  0.551777  0.874556  1
  O  O83  1  0.948223  0.333187  0.625444  1
  O  O84  1  0.551777  0.166813  0.625444  1
  O  O85  1  0.551777  0.333187  0.874556  1
  O  O86  1  0.166813  0.948223  0.625444  1
  O  O87  1  0.333187  0.551777  0.625444  1
  O  O88  1  0.359137  0.857554  0.283993  1
  O  O89  1  0.642446  0.359137  0.283993  1
  O  O90  1  0.857554  0.140863  0.283993  1
  O  O91  1  0.359137  0.642446  0.216007  1
  O  O92  1  0.140863  0.857554  0.216007  1
  O  O93  1  0.140863  0.642446  0.283993  1
  O  O94  1  0.857554  0.359137  0.216007  1
  O  O95  1  0.642446  0.140863  0.216007  1
  O  O96  1  0.640863  0.142446  0.716007  1
  O  O97  1  0.357554  0.640863  0.716007  1
  O  O98  1  0.142446  0.859137  0.716007  1
  O  O99  1  0.640863  0.357554  0.783993  1
  O  O100  1  0.859137  0.142446  0.783993  1
  O  O101  1  0.859137  0.357554  0.716007  1
  O  O102  1  0.142446  0.640863  0.783993  1
  O  O103  1  0.357554  0.859137  0.783993  1
  O  O104  1  0.938166  0.643238  0.191720  1
  O  O105  1  0.856762  0.938166  0.191720  1
  O  O106  1  0.643238  0.561834  0.191720  1
  O  O107  1  0.938166  0.856762  0.308280  1
  O  O108  1  0.561834  0.643238  0.308280  1
  O  O109  1  0.561834  0.856762  0.191720  1
  O  O110  1  0.643238  0.938166  0.308280  1
  O  O111  1  0.856762  0.561834  0.308280  1
  O  O112  1  0.061834  0.356762  0.808280  1
  O  O113  1  0.143238  0.061834  0.808280  1
  O  O114  1  0.356762  0.438166  0.808280  1
  O  O115  1  0.061834  0.143238  0.691720  1
  O  O116  1  0.438166  0.356762  0.691720  1
  O  O117  1  0.438166  0.143238  0.808280  1
  O  O118  1  0.356762  0.061834  0.691720  1
  O  O119  1  0.143238  0.438166  0.691720  1
