# generated using pymatgen
data_AgSbH2C2(NF3)2
_symmetry_space_group_name_H-M   'P 1'
_cell_length_a   5.32015364
_cell_length_b   12.52693495
_cell_length_c   7.01065286
_cell_angle_alpha   90.00000000
_cell_angle_beta   90.00000000
_cell_angle_gamma   90.00000000
_symmetry_Int_Tables_number   1
_chemical_formula_structural   AgSbH2C2(NF3)2
_chemical_formula_sum   'Ag2 Sb2 H4 C4 N4 F12'
_cell_volume   467.22649219
_cell_formula_units_Z   2
loop_
 _symmetry_equiv_pos_site_id
 _symmetry_equiv_pos_as_xyz
  1  'x, y, z'
loop_
 _atom_site_type_symbol
 _atom_site_label
 _atom_site_symmetry_multiplicity
 _atom_site_fract_x
 _atom_site_fract_y
 _atom_site_fract_z
 _atom_site_occupancy
  Ag  Ag0  1  0.000000  0.500000  0.000000  1
  Ag  Ag1  1  0.500000  0.000000  0.500000  1
  Sb  Sb2  1  0.500000  0.500000  0.500000  1
  Sb  Sb3  1  0.000000  0.000000  0.000000  1
  H  H4  1  0.522269  0.220720  0.000000  1
  H  H5  1  0.477731  0.779280  0.000000  1
  H  H6  1  0.022269  0.279280  0.500000  1
  H  H7  1  0.977731  0.720720  0.500000  1
  C  C8  1  0.645741  0.289418  0.000000  1
  C  C9  1  0.354259  0.710582  0.000000  1
  C  C10  1  0.145741  0.210582  0.500000  1
  C  C11  1  0.854259  0.789418  0.500000  1
  N  N12  1  0.785976  0.359858  0.000000  1
  N  N13  1  0.214024  0.640142  0.000000  1
  N  N14  1  0.285976  0.140142  0.500000  1
  N  N15  1  0.714024  0.859858  0.500000  1
  F  F16  1  0.724020  0.378896  0.500000  1
  F  F17  1  0.275980  0.621104  0.500000  1
  F  F18  1  0.224020  0.121104  0.000000  1
  F  F19  1  0.775980  0.878896  0.000000  1
  F  F20  1  0.700525  0.569238  0.692444  1
  F  F21  1  0.299475  0.430762  0.692444  1
  F  F22  1  0.200525  0.930762  0.807556  1
  F  F23  1  0.799475  0.069238  0.807556  1
  F  F24  1  0.299475  0.430762  0.307556  1
  F  F25  1  0.700525  0.569238  0.307556  1
  F  F26  1  0.799475  0.069238  0.192444  1
  F  F27  1  0.200525  0.930762  0.192444  1
