# generated using pymatgen
data_FeHO2
_symmetry_space_group_name_H-M   'P 1'
_cell_length_a   7.25271619
_cell_length_b   7.25271619
_cell_length_c   7.25271619
_cell_angle_alpha   92.45818856
_cell_angle_beta   92.45818856
_cell_angle_gamma   156.09510710
_symmetry_Int_Tables_number   1
_chemical_formula_structural   FeHO2
_chemical_formula_sum   'Fe4 H4 O8'
_cell_volume   151.24234790
_cell_formula_units_Z   4
loop_
 _symmetry_equiv_pos_site_id
 _symmetry_equiv_pos_as_xyz
  1  'x, y, z'
loop_
 _atom_site_type_symbol
 _atom_site_label
 _atom_site_symmetry_multiplicity
 _atom_site_fract_x
 _atom_site_fract_y
 _atom_site_fract_z
 _atom_site_occupancy
  Fe  Fe0  1  0.344548  0.829267  0.199373  1
  Fe  Fe1  1  0.629894  0.145175  0.800627  1
  Fe  Fe2  1  0.170733  0.370106  0.515281  1
  Fe  Fe3  1  0.854825  0.655452  0.484718  1
  H  H4  1  0.978296  0.745113  0.979592  1
  H  H5  1  0.765522  0.998705  0.020408  1
  H  H6  1  0.254887  0.234478  0.233183  1
  H  H7  1  0.001295  0.021704  0.766817  1
  O  O8  1  0.126307  0.764877  0.955342  1
  O  O9  1  0.809534  0.170965  0.044658  1
  O  O10  1  0.235123  0.190466  0.361431  1
  O  O11  1  0.829035  0.873693  0.638569  1
  O  O12  1  0.548337  0.839880  0.375713  1
  O  O13  1  0.464167  0.172625  0.624287  1
  O  O14  1  0.160120  0.535833  0.708458  1
  O  O15  1  0.827375  0.451663  0.291542  1
