# generated using pymatgen
data_In10(Pb2S7)3
_symmetry_space_group_name_H-M   'P 1'
_cell_length_a   3.89623623
_cell_length_b   14.14514256
_cell_length_c   15.97341002
_cell_angle_alpha   95.28545054
_cell_angle_beta   89.99503189
_cell_angle_gamma   97.88856102
_symmetry_Int_Tables_number   1
_chemical_formula_structural   In10(Pb2S7)3
_chemical_formula_sum   'In10 Pb6 S21'
_cell_volume   868.23082965
_cell_formula_units_Z   1
loop_
 _symmetry_equiv_pos_site_id
 _symmetry_equiv_pos_as_xyz
  1  'x, y, z'
loop_
 _atom_site_type_symbol
 _atom_site_label
 _atom_site_symmetry_multiplicity
 _atom_site_fract_x
 _atom_site_fract_y
 _atom_site_fract_z
 _atom_site_occupancy
  In  In0  1  0.688780  0.376326  0.483816  1
  In  In1  1  0.517566  0.025730  0.129497  1
  In  In2  1  0.211042  0.429469  0.691835  1
  In  In3  1  0.788739  0.570477  0.308251  1
  In  In4  1  0.904495  0.800858  0.018917  1
  In  In5  1  0.731240  0.471225  0.893512  1
  In  In6  1  0.309832  0.625017  0.515038  1
  In  In7  1  0.266395  0.527618  0.108140  1
  In  In8  1  0.103228  0.199334  0.981660  1
  In  In9  1  0.488954  0.974436  0.872418  1
  Pb  Pb10  1  0.064893  0.147335  0.705668  1
  Pb  Pb11  1  0.142381  0.273869  0.241185  1
  Pb  Pb12  1  0.931744  0.850974  0.295241  1
  Pb  Pb13  1  0.858170  0.723178  0.759181  1
  Pb  Pb14  1  0.045069  0.099257  0.431027  1
  Pb  Pb15  1  0.941996  0.900631  0.570426  1
  S  S16  1  0.470068  0.931240  0.406842  1
  S  S17  1  0.604518  0.203096  0.095596  1
  S  S18  1  0.530924  0.070369  0.592130  1
  S  S19  1  0.330104  0.654445  0.238354  1
  S  S20  1  0.276635  0.562569  0.811926  1
  S  S21  1  0.230158  0.473016  0.401250  1
  S  S22  1  0.721293  0.436746  0.188564  1
  S  S23  1  0.583209  0.158783  0.874319  1
  S  S24  1  0.619548  0.236860  0.367093  1
  S  S25  1  0.805760  0.608118  0.024501  1
  S  S26  1  0.030435  0.052224  0.236050  1
  S  S27  1  0.669383  0.345932  0.761929  1
  S  S28  1  0.192958  0.391028  0.976768  1
  S  S29  1  0.404125  0.796317  0.904706  1
  S  S30  1  0.005449  0.999461  0.000361  1
  S  S31  1  0.847296  0.699578  0.434940  1
  S  S32  1  0.379851  0.763286  0.633402  1
  S  S33  1  0.976143  0.949589  0.764959  1
  S  S34  1  0.423243  0.841619  0.126697  1
  S  S35  1  0.151505  0.302723  0.564283  1
  S  S36  1  0.764526  0.528666  0.596905  1
