# generated using pymatgen
data_Zr2InPd2
_symmetry_space_group_name_H-M   'P 1'
_cell_length_a   7.25065965
_cell_length_b   8.03921204
_cell_length_c   7.99949950
_cell_angle_alpha   90.12335812
_cell_angle_beta   89.72429784
_cell_angle_gamma   90.05614503
_symmetry_Int_Tables_number   1
_chemical_formula_structural   Zr2InPd2
_chemical_formula_sum   'Zr8 In4 Pd8'
_cell_volume   466.28085104
_cell_formula_units_Z   4
loop_
 _symmetry_equiv_pos_site_id
 _symmetry_equiv_pos_as_xyz
  1  'x, y, z'
loop_
 _atom_site_type_symbol
 _atom_site_label
 _atom_site_symmetry_multiplicity
 _atom_site_fract_x
 _atom_site_fract_y
 _atom_site_fract_z
 _atom_site_occupancy
  Zr  Zr0  1  0.499256  0.842991  0.843407  1
  Zr  Zr1  1  0.499201  0.685653  0.315098  1
  Zr  Zr2  1  0.000045  0.814958  0.814645  1
  Zr  Zr3  1  -0.000344  0.656684  0.343045  1
  Zr  Zr4  1  0.499115  0.314471  0.684345  1
  Zr  Zr5  1  0.000310  0.185183  0.185696  1
  Zr  Zr6  1  0.000660  0.342894  0.657323  1
  Zr  Zr7  1  0.500340  0.156861  0.157195  1
  In  In8  1  0.749925  0.500898  -0.000038  1
  In  In9  1  0.250357  0.998929  0.500194  1
  In  In10  1  0.750004  0.000496  0.499587  1
  In  In11  1  0.250488  0.499478  0.000344  1
  Pd  Pd12  1  0.779465  0.871764  0.128280  1
  Pd  Pd13  1  0.220598  0.128573  0.871713  1
  Pd  Pd14  1  0.279557  0.628565  0.628465  1
  Pd  Pd15  1  0.220268  0.871333  0.128415  1
  Pd  Pd16  1  0.780024  0.128135  0.871115  1
  Pd  Pd17  1  0.720800  0.371831  0.371464  1
  Pd  Pd18  1  0.720343  0.628603  0.628229  1
  Pd  Pd19  1  0.279588  0.371701  0.371477  1
