# generated using pymatgen
data_Mn2GeS4
_symmetry_space_group_name_H-M   'P 1'
_cell_length_a   6.02910354
_cell_length_b   7.38706067
_cell_length_c   12.76598835
_cell_angle_alpha   90.00627525
_cell_angle_beta   90.03439263
_cell_angle_gamma   89.98771719
_symmetry_Int_Tables_number   1
_chemical_formula_structural   Mn2GeS4
_chemical_formula_sum   'Mn8 Ge4 S16'
_cell_volume   568.56321935
_cell_formula_units_Z   4
loop_
 _symmetry_equiv_pos_site_id
 _symmetry_equiv_pos_as_xyz
  1  'x, y, z'
loop_
 _atom_site_type_symbol
 _atom_site_label
 _atom_site_symmetry_multiplicity
 _atom_site_fract_x
 _atom_site_fract_y
 _atom_site_fract_z
 _atom_site_occupancy
  Mn  Mn0  1  0.501840  0.250612  0.229479  1
  Mn  Mn1  1  0.998746  0.250086  0.728707  1
  Mn  Mn2  1  0.495738  0.750632  0.769721  1
  Mn  Mn3  1  0.499710  0.001131  0.500566  1
  Mn  Mn4  1  0.004623  0.749645  0.268987  1
  Mn  Mn5  1  -0.000081  0.001676  0.001067  1
  Mn  Mn6  1  0.999279  0.497899  0.001237  1
  Mn  Mn7  1  0.500525  0.498602  0.500587  1
  Ge  Ge8  1  0.917880  0.750115  0.589200  1
  Ge  Ge9  1  0.082804  0.249630  0.409819  1
  Ge  Ge10  1  0.415814  0.250119  0.910295  1
  Ge  Ge11  1  0.583314  0.750733  0.090483  1
  S  S12  1  0.750787  0.988157  0.667336  1
  S  S13  1  0.743159  0.750207  0.930412  1
  S  S14  1  0.784657  0.250122  0.906891  1
  S  S15  1  0.713676  0.249590  0.406654  1
  S  S16  1  0.750321  0.989140  0.168182  1
  S  S17  1  0.245343  0.014343  0.831899  1
  S  S18  1  0.253410  0.485299  0.331736  1
  S  S19  1  0.287203  0.749679  0.592756  1
  S  S20  1  0.756796  0.749537  0.429385  1
  S  S21  1  0.751391  0.512136  0.667457  1
  S  S22  1  0.214321  0.749670  0.092705  1
  S  S23  1  0.245322  0.485618  0.831820  1
  S  S24  1  0.256221  0.249760  0.071487  1
  S  S25  1  0.750320  0.512300  0.168432  1
  S  S26  1  0.253170  0.013674  0.331950  1
  S  S27  1  0.243712  0.249887  0.570750  1
