# generated using pymatgen
data_Ba20Nb19Se60
_symmetry_space_group_name_H-M   'P 1'
_cell_length_a   14.47425024
_cell_length_b   36.20920104
_cell_length_c   15.66007583
_cell_angle_alpha   22.43503616
_cell_angle_beta   117.52401242
_cell_angle_gamma   120.01352210
_symmetry_Int_Tables_number   1
_chemical_formula_structural   Ba20Nb19Se60
_chemical_formula_sum   'Ba20 Nb19 Se60'
_cell_volume   2712.24657086
_cell_formula_units_Z   1
loop_
 _symmetry_equiv_pos_site_id
 _symmetry_equiv_pos_as_xyz
  1  'x, y, z'
loop_
 _atom_site_type_symbol
 _atom_site_label
 _atom_site_symmetry_multiplicity
 _atom_site_fract_x
 _atom_site_fract_y
 _atom_site_fract_z
 _atom_site_occupancy
  Ba  Ba0  1  0.164107  0.833372  0.745326  1
  Ba  Ba1  1  0.163070  0.634735  0.747063  1
  Ba  Ba2  1  0.324904  0.965611  0.248563  1
  Ba  Ba3  1  0.667142  0.833546  0.749675  1
  Ba  Ba4  1  0.165584  0.432958  0.751131  1
  Ba  Ba5  1  0.332743  0.766417  0.250331  1
  Ba  Ba6  1  0.671588  0.635934  0.745842  1
  Ba  Ba7  1  0.837862  0.965794  0.248574  1
  Ba  Ba8  1  0.161869  0.229765  0.750906  1
  Ba  Ba9  1  0.331565  0.566667  0.248824  1
  Ba  Ba10  1  0.668435  0.433333  0.751176  1
  Ba  Ba11  1  0.328412  0.364066  0.254158  1
  Ba  Ba12  1  0.838131  0.770235  0.249094  1
  Ba  Ba13  1  0.162138  0.034206  0.751426  1
  Ba  Ba14  1  0.667257  0.233583  0.749669  1
  Ba  Ba15  1  0.834416  0.567042  0.248869  1
  Ba  Ba16  1  0.332858  0.166454  0.250325  1
  Ba  Ba17  1  0.675096  0.034389  0.751437  1
  Ba  Ba18  1  0.836930  0.365265  0.252937  1
  Ba  Ba19  1  0.835893  0.166628  0.254674  1
  Nb  Nb20  1  0.999407  0.818521  0.453607  1
  Nb  Nb21  1  0.000098  0.596919  0.507503  1
  Nb  Nb22  1  0.999781  0.799301  0.001108  1
  Nb  Nb23  1  0.499370  0.800113  0.499445  1
  Nb  Nb24  1  0.000081  0.601336  0.996673  1
  Nb  Nb25  1  0.999902  0.403081  0.492497  1
  Nb  Nb26  1  0.499826  0.600561  0.498809  1
  Nb  Nb27  1  0.499452  0.799347  0.000778  1
  Nb  Nb28  1  0.999919  0.398664  0.003327  1
  Nb  Nb29  1  0.000593  0.181479  0.546393  1
  Nb  Nb30  1  0.500174  0.399439  0.501191  1
  Nb  Nb31  1  0.499442  0.600522  0.998765  1
  Nb  Nb32  1  0.000219  0.200699  0.998892  1
  Nb  Nb33  1  0.000000  0.000000  0.500000  1
  Nb  Nb34  1  0.500630  0.199887  0.500555  1
  Nb  Nb35  1  0.500558  0.399478  0.001235  1
  Nb  Nb36  1  0.500000  0.000000  0.500000  1
  Nb  Nb37  1  0.500548  0.200653  0.999222  1
  Nb  Nb38  1  0.500000  0.000000  0.000000  1
  Se  Se39  1  0.173787  0.935211  0.748970  1
  Se  Se40  1  0.086995  0.965175  0.260708  1
  Se  Se41  1  0.413764  0.934961  0.750129  1
  Se  Se42  1  0.172488  0.731366  0.757751  1
  Se  Se43  1  0.087042  0.861083  0.260764  1
  Se  Se44  1  0.413365  0.830538  0.749687  1
  Se  Se45  1  0.087195  0.770861  0.246190  1
  Se  Se46  1  0.326164  0.865260  0.249724  1
  Se  Se47  1  0.413836  0.735307  0.749690  1
  Se  Se48  1  0.673593  0.934494  0.750300  1
  Se  Se49  1  0.087274  0.666716  0.246684  1
  Se  Se50  1  0.174807  0.537749  0.743046  1
  Se  Se51  1  0.414185  0.630524  0.749758  1
  Se  Se52  1  0.586707  0.969344  0.250255  1
  Se  Se53  1  0.087480  0.566877  0.257414  1
  Se  Se54  1  0.912661  0.934432  0.750031  1
  Se  Se55  1  0.325712  0.665075  0.250265  1
  Se  Se56  1  0.413125  0.534738  0.749959  1
  Se  Se57  1  0.673859  0.734968  0.749686  1
  Se  Se58  1  0.586429  0.865339  0.249381  1
  Se  Se59  1  0.173739  0.333680  0.752588  1
  Se  Se60  1  0.087419  0.462321  0.256957  1
  Se  Se61  1  0.586303  0.769748  0.249438  1
  Se  Se62  1  0.912622  0.831172  0.748115  1
  Se  Se63  1  0.413479  0.430591  0.749896  1
  Se  Se64  1  0.086003  0.371876  0.242508  1
  Se  Se65  1  0.914112  0.731363  0.757871  1
  Se  Se66  1  0.826367  0.861395  0.259541  1
  Se  Se67  1  0.325965  0.465096  0.250306  1
  Se  Se68  1  0.413515  0.334656  0.750634  1
  Se  Se69  1  0.586485  0.665344  0.249366  1
  Se  Se70  1  0.674035  0.534904  0.749694  1
  Se  Se71  1  0.085888  0.268637  0.242129  1
  Se  Se72  1  0.173633  0.138605  0.740459  1
  Se  Se73  1  0.913997  0.628124  0.757492  1
  Se  Se74  1  0.586521  0.569409  0.250105  1
  Se  Se75  1  0.413697  0.230252  0.750562  1
  Se  Se76  1  0.087378  0.168828  0.251885  1
  Se  Se77  1  0.912581  0.537679  0.743043  1
  Se  Se78  1  0.826261  0.666320  0.247412  1
  Se  Se79  1  0.326141  0.265032  0.250314  1
  Se  Se80  1  0.413571  0.134661  0.750619  1
  Se  Se81  1  0.674288  0.334925  0.749735  1
  Se  Se82  1  0.586875  0.465262  0.250041  1
  Se  Se83  1  0.087339  0.065568  0.249969  1
  Se  Se84  1  0.912520  0.433123  0.742586  1
  Se  Se85  1  0.585815  0.369476  0.250242  1
  Se  Se86  1  0.413293  0.030656  0.749745  1
  Se  Se87  1  0.912726  0.333284  0.753316  1
  Se  Se88  1  0.825193  0.462251  0.256954  1
  Se  Se89  1  0.326407  0.065506  0.249700  1
  Se  Se90  1  0.586164  0.264693  0.250310  1
  Se  Se91  1  0.673836  0.134740  0.750276  1
  Se  Se92  1  0.912805  0.229139  0.753810  1
  Se  Se93  1  0.586635  0.169462  0.250313  1
  Se  Se94  1  0.827512  0.268634  0.242249  1
  Se  Se95  1  0.912958  0.138917  0.739236  1
  Se  Se96  1  0.586236  0.065039  0.249871  1
  Se  Se97  1  0.913005  0.034825  0.739292  1
  Se  Se98  1  0.826213  0.064789  0.251030  1
