# generated using pymatgen
data_P(HO)3
_symmetry_space_group_name_H-M   'P 1'
_cell_length_a   7.87254911
_cell_length_b   11.50521489
_cell_length_c   7.36100146
_cell_angle_alpha   90.00000000
_cell_angle_beta   90.00000000
_cell_angle_gamma   90.01836399
_symmetry_Int_Tables_number   1
_chemical_formula_structural   P(HO)3
_chemical_formula_sum   'P8 H24 O24'
_cell_volume   666.72539078
_cell_formula_units_Z   8
loop_
 _symmetry_equiv_pos_site_id
 _symmetry_equiv_pos_as_xyz
  1  'x, y, z'
loop_
 _atom_site_type_symbol
 _atom_site_label
 _atom_site_symmetry_multiplicity
 _atom_site_fract_x
 _atom_site_fract_y
 _atom_site_fract_z
 _atom_site_occupancy
  P  P0  1  0.504675  0.383758  0.024753  1
  P  P1  1  0.495325  0.616242  0.524753  1
  P  P2  1  0.997980  0.881437  0.525525  1
  P  P3  1  0.002020  0.118563  0.025525  1
  P  P4  1  0.560314  0.123652  0.456958  1
  P  P5  1  0.439686  0.876348  0.956958  1
  P  P6  1  0.940111  0.621896  0.956291  1
  P  P7  1  0.059889  0.378104  0.456291  1
  H  H8  1  0.763953  0.451483  0.961350  1
  H  H9  1  0.236047  0.548517  0.461350  1
  H  H10  1  0.743089  0.951298  0.445740  1
  H  H11  1  0.256911  0.048702  0.945740  1
  H  H12  1  0.338189  0.238117  0.923657  1
  H  H13  1  0.661811  0.761883  0.423657  1
  H  H14  1  0.165390  0.737127  0.421084  1
  H  H15  1  0.834610  0.262873  0.921084  1
  H  H16  1  0.494091  0.579988  0.974387  1
  H  H17  1  0.505909  0.420012  0.474387  1
  H  H18  1  0.002225  0.077857  0.476653  1
  H  H19  1  0.997775  0.922143  0.976653  1
  H  H20  1  0.478465  0.259644  0.658135  1
  H  H21  1  0.521535  0.740356  0.158135  1
  H  H22  1  0.020438  0.757737  0.157647  1
  H  H23  1  0.979562  0.242263  0.657647  1
  H  H24  1  0.559522  0.079359  0.165861  1
  H  H25  1  0.440478  0.920641  0.665861  1
  H  H26  1  0.938719  0.578558  0.664602  1
  H  H27  1  0.061281  0.421442  0.164602  1
  H  H28  1  0.288432  0.047302  0.470572  1
  H  H29  1  0.711568  0.952698  0.970572  1
  H  H30  1  0.213996  0.546335  0.972348  1
  H  H31  1  0.786004  0.453665  0.472348  1
  O  O32  1  0.698582  0.379676  0.931631  1
  O  O33  1  0.301418  0.620324  0.431631  1
  O  O34  1  0.802230  0.874720  0.437504  1
  O  O35  1  0.197770  0.125280  0.937504  1
  O  O36  1  0.416927  0.298382  0.873187  1
  O  O37  1  0.583073  0.701618  0.373187  1
  O  O38  1  0.086248  0.797657  0.372251  1
  O  O39  1  0.913752  0.202343  0.872251  1
  O  O40  1  0.435693  0.508462  0.931986  1
  O  O41  1  0.564307  0.491538  0.431986  1
  O  O42  1  0.059709  0.007243  0.430226  1
  O  O43  1  0.940291  0.992757  0.930226  1
  O  O44  1  0.494053  0.251209  0.523991  1
  O  O45  1  0.505947  0.748791  0.023991  1
  O  O46  1  0.004241  0.749866  0.023754  1
  O  O47  1  0.995759  0.250134  0.523754  1
  O  O48  1  0.520755  0.145284  0.243704  1
  O  O49  1  0.479245  0.854716  0.743704  1
  O  O50  1  0.978071  0.644286  0.742831  1
  O  O51  1  0.021929  0.355714  0.242831  1
  O  O52  1  0.404271  0.035822  0.522254  1
  O  O53  1  0.595729  0.964178  0.022254  1
  O  O54  1  0.096441  0.534917  0.020882  1
  O  O55  1  0.903559  0.465083  0.520881  1
