# generated using pymatgen
data_YNi2B2C
_symmetry_space_group_name_H-M   'P 1'
_cell_length_a   3.54878951
_cell_length_b   3.54878951
_cell_length_c   5.76144080
_cell_angle_alpha   107.93739399
_cell_angle_beta   107.93739396
_cell_angle_gamma   89.99999997
_symmetry_Int_Tables_number   1
_chemical_formula_structural   YNi2B2C
_chemical_formula_sum   'Y1 Ni2 B2 C1'
_cell_volume   65.31521991
_cell_formula_units_Z   1
loop_
 _symmetry_equiv_pos_site_id
 _symmetry_equiv_pos_as_xyz
  1  'x, y, z'
loop_
 _atom_site_type_symbol
 _atom_site_label
 _atom_site_symmetry_multiplicity
 _atom_site_fract_x
 _atom_site_fract_y
 _atom_site_fract_z
 _atom_site_occupancy
  B  B0  1  0.143902  0.143902  0.287804  1
  B  B1  1  0.856098  0.856098  0.712196  1
  C  C2  1  0.000000  0.000000  0.000000  1
  Ni  Ni3  1  0.250000  0.750000  0.500000  1
  Ni  Ni4  1  0.750000  0.250000  0.500000  1
  Y  Y5  1  0.500000  0.500000  0.000000  1
