# generated using pymatgen
data_Mn3Bi
_symmetry_space_group_name_H-M   'P 1'
_cell_length_a   10.91101629
_cell_length_b   10.91101622
_cell_length_c   10.91101636
_cell_angle_alpha   119.18328067
_cell_angle_beta   119.18328068
_cell_angle_gamma   119.18327762
_symmetry_Int_Tables_number   1
_chemical_formula_structural   Mn3Bi
_chemical_formula_sum   'Mn12 Bi4'
_cell_volume   304.24487084
_cell_formula_units_Z   4
loop_
 _symmetry_equiv_pos_site_id
 _symmetry_equiv_pos_as_xyz
  1  'x, y, z'
loop_
 _atom_site_type_symbol
 _atom_site_label
 _atom_site_symmetry_multiplicity
 _atom_site_fract_x
 _atom_site_fract_y
 _atom_site_fract_z
 _atom_site_occupancy
  Mn  Mn0  1  0.000000  0.768015  0.231985  1
  Mn  Mn1  1  0.367759  0.367759  0.615895  1
  Mn  Mn2  1  0.768015  0.231985  0.000000  1
  Mn  Mn3  1  0.231985  1.000000  0.768015  1
  Mn  Mn4  1  0.231985  0.768015  1.000000  1
  Mn  Mn5  1  0.367759  0.615895  0.367759  1
  Mn  Mn6  1  0.615895  0.367759  0.367759  1
  Mn  Mn7  1  0.384105  0.632241  0.632241  1
  Mn  Mn8  1  0.768015  0.000000  0.231985  1
  Mn  Mn9  1  1.000000  0.231985  0.768015  1
  Mn  Mn10  1  0.632241  0.384105  0.632241  1
  Mn  Mn11  1  0.632241  0.632241  0.384105  1
  Bi  Bi12  1  0.500000  0.500000  0.000000  1
  Bi  Bi13  1  0.000000  0.000000  0.000000  1
  Bi  Bi14  1  0.500000  0.000000  0.500000  1
  Bi  Bi15  1  0.000000  0.500000  0.500000  1
