# generated using pymatgen
data_La9B3C6I5
_symmetry_space_group_name_H-M   'P 1'
_cell_length_a   3.97998172
_cell_length_b   8.30836812
_cell_length_c   33.86252342
_cell_angle_alpha   90.01031468
_cell_angle_beta   89.99905183
_cell_angle_gamma   89.99959679
_symmetry_Int_Tables_number   1
_chemical_formula_structural   La9B3C6I5
_chemical_formula_sum   'La18 B6 C12 I10'
_cell_volume   1119.73723321
_cell_formula_units_Z   2
loop_
 _symmetry_equiv_pos_site_id
 _symmetry_equiv_pos_as_xyz
  1  'x, y, z'
loop_
 _atom_site_type_symbol
 _atom_site_label
 _atom_site_symmetry_multiplicity
 _atom_site_fract_x
 _atom_site_fract_y
 _atom_site_fract_z
 _atom_site_occupancy
  La  La0  1  0.749991  0.077147  0.095205  1
  La  La1  1  0.750014  0.815524  0.009072  1
  La  La2  1  0.250006  0.184477  0.991003  1
  La  La3  1  0.250001  0.564770  0.249967  1
  La  La4  1  0.249994  0.922948  0.595171  1
  La  La5  1  0.249999  0.336981  0.865589  1
  La  La6  1  0.750009  0.054267  0.693731  1
  La  La7  1  0.249996  0.945753  0.306241  1
  La  La8  1  0.750001  0.663045  0.134443  1
  La  La9  1  0.750009  0.054222  0.806267  1
  La  La10  1  0.249999  0.945759  0.193719  1
  La  La11  1  0.250000  0.336866  0.634431  1
  La  La12  1  0.250001  0.922814  0.904850  1
  La  La13  1  0.250003  0.184380  0.509037  1
  La  La14  1  0.750010  0.435251  0.750001  1
  La  La15  1  0.750003  0.663110  0.365532  1
  La  La16  1  0.749994  0.815635  0.490935  1
  La  La17  1  0.749986  0.077100  0.404768  1
  B  B18  1  0.249994  0.222337  0.749996  1
  B  B19  1  0.749998  0.130276  0.920257  1
  B  B20  1  0.750001  0.777645  0.249994  1
  B  B21  1  0.249999  0.869626  0.420225  1
  B  B22  1  0.249998  0.869712  0.079779  1
  B  B23  1  0.750000  0.130403  0.579757  1
  C  C24  1  0.750000  0.133381  0.623728  1
  C  C25  1  0.750001  0.029755  0.956691  1
  C  C26  1  0.250000  0.970344  0.456631  1
  C  C27  1  0.750001  0.736226  0.292860  1
  C  C28  1  0.250000  0.263759  0.792924  1
  C  C29  1  0.250001  0.970272  0.043345  1
  C  C30  1  0.749999  0.736233  0.207082  1
  C  C31  1  0.750002  0.029674  0.543350  1
  C  C32  1  0.250001  0.866501  0.123720  1
  C  C33  1  0.749994  0.133481  0.876297  1
  C  C34  1  0.250013  0.866589  0.376254  1
  C  C35  1  0.249996  0.263773  0.707137  1
  I  I36  1  0.249999  0.570213  0.951335  1
  I  I37  1  0.749998  0.669942  0.652939  1
  I  I38  1  0.250000  0.330053  0.152923  1
  I  I39  1  0.250000  0.330037  0.347026  1
  I  I40  1  0.749998  0.429768  0.451234  1
  I  I41  1  0.249994  0.792010  0.750043  1
  I  I42  1  0.749998  0.669953  0.847124  1
  I  I43  1  0.749998  0.207962  0.249964  1
  I  I44  1  0.249999  0.570238  0.548684  1
  I  I45  1  0.750000  0.429790  0.048738  1
