# generated using pymatgen
data_Fe(PO3)2
_symmetry_space_group_name_H-M   'P 1'
_cell_length_a   7.40509685
_cell_length_b   7.41215423
_cell_length_c   9.89144635
_cell_angle_alpha   97.96828955
_cell_angle_beta   110.85941593
_cell_angle_gamma   109.88528746
_symmetry_Int_Tables_number   1
_chemical_formula_structural   Fe(PO3)2
_chemical_formula_sum   'Fe4 P8 O24'
_cell_volume   455.76735939
_cell_formula_units_Z   4
loop_
 _symmetry_equiv_pos_site_id
 _symmetry_equiv_pos_as_xyz
  1  'x, y, z'
loop_
 _atom_site_type_symbol
 _atom_site_label
 _atom_site_symmetry_multiplicity
 _atom_site_fract_x
 _atom_site_fract_y
 _atom_site_fract_z
 _atom_site_occupancy
  Fe  Fe0  1  0.700091  0.949184  0.750039  1
  Fe  Fe1  1  0.299279  0.050284  0.249316  1
  Fe  Fe2  1  0.498261  0.998987  0.000777  1
  Fe  Fe3  1  0.500885  0.498601  0.499504  1
  P  P4  1  0.008329  0.698095  0.693949  1
  P  P5  1  0.202490  0.744148  0.475499  1
  P  P6  1  0.767804  0.723245  0.022575  1
  P  P7  1  0.799319  0.255710  0.524139  1
  P  P8  1  0.991540  0.300606  0.305614  1
  P  P9  1  0.230134  0.276300  0.975068  1
  P  P10  1  0.497228  0.685400  0.194938  1
  P  P11  1  0.503970  0.312997  0.805103  1
  O  O12  1  0.799293  0.195135  0.158365  1
  O  O13  1  0.463205  0.873469  0.180855  1
  O  O14  1  0.756166  0.089538  0.592040  1
  O  O15  1  0.542218  0.640991  0.342390  1
  O  O16  1  0.390300  0.715021  0.582702  1
  O  O17  1  0.040101  0.535641  0.341817  1
  O  O18  1  0.461907  0.356572  0.657585  1
  O  O19  1  0.194390  0.280044  0.321696  1
  O  O20  1  0.055935  0.767419  0.557841  1
  O  O21  1  0.307272  0.306224  0.842785  1
  O  O22  1  0.288165  0.504211  0.058971  1
  O  O23  1  0.537344  0.124930  0.821149  1
  O  O24  1  0.002380  0.833863  0.091328  1
  O  O25  1  0.994848  0.167487  0.906226  1
  O  O26  1  0.691468  0.692231  0.155163  1
  O  O27  1  0.630040  0.803124  0.915655  1
  O  O28  1  0.804563  0.717322  0.676315  1
  O  O29  1  0.946854  0.231994  0.442566  1
  O  O30  1  0.244811  0.911123  0.407427  1
  O  O31  1  0.613126  0.286363  0.416282  1
  O  O32  1  0.963138  0.464308  0.658112  1
  O  O33  1  0.365328  0.194287  0.082069  1
  O  O34  1  0.711614  0.494636  0.941012  1
  O  O35  1  0.197787  0.805255  0.842579  1
