# generated using pymatgen
data_Ca2B3(HO)13
_symmetry_space_group_name_H-M   'P 1'
_cell_length_a   8.03672258
_cell_length_b   9.91006100
_cell_length_c   7.40132830
_cell_angle_alpha   110.98232426
_cell_angle_beta   94.66792226
_cell_angle_gamma   107.27502430
_symmetry_Int_Tables_number   1
_chemical_formula_structural   Ca2B3(HO)13
_chemical_formula_sum   'Ca4 B6 H26 O26'
_cell_volume   513.77840647
_cell_formula_units_Z   2
loop_
 _symmetry_equiv_pos_site_id
 _symmetry_equiv_pos_as_xyz
  1  'x, y, z'
loop_
 _atom_site_type_symbol
 _atom_site_label
 _atom_site_symmetry_multiplicity
 _atom_site_fract_x
 _atom_site_fract_y
 _atom_site_fract_z
 _atom_site_occupancy
  Ca  Ca0  1  0.922434  0.967400  0.745651  1
  Ca  Ca1  1  0.077566  0.032600  0.254349  1
  Ca  Ca2  1  0.884885  0.326949  0.582537  1
  Ca  Ca3  1  0.115115  0.673051  0.417463  1
  B  B4  1  0.716346  0.971573  0.366931  1
  B  B5  1  0.283654  0.028427  0.633069  1
  B  B6  1  0.762622  0.713612  0.308312  1
  B  B7  1  0.237378  0.286388  0.691688  1
  B  B8  1  0.470972  0.715455  0.150386  1
  B  B9  1  0.529028  0.284545  0.849614  1
  H  H10  1  0.632814  0.080274  0.628269  1
  H  H11  1  0.367186  0.919726  0.371731  1
  H  H12  1  0.747909  0.059527  0.147372  1
  H  H13  1  0.252091  0.940473  0.852628  1
  H  H14  1  0.747148  0.605044  0.508699  1
  H  H15  1  0.252852  0.394956  0.491301  1
  H  H16  1  0.906528  0.697924  0.087560  1
  H  H17  1  0.093473  0.302076  0.912440  1
  H  H18  1  0.228970  0.543606  0.036757  1
  H  H19  1  0.771030  0.456394  0.963243  1
  H  H20  1  0.494549  0.578005  0.879073  1
  H  H21  1  0.505451  0.421995  0.120927  1
  H  H22  1  0.805659  0.777184  0.934685  1
  H  H23  1  0.194341  0.222816  0.065315  1
  H  H24  1  0.573568  0.858562  0.898082  1
  H  H25  1  0.426432  0.141438  0.101918  1
  H  H26  1  0.565807  0.998122  0.832243  1
  H  H27  1  0.434193  0.001878  0.167757  1
  H  H28  1  0.996668  0.689874  0.806920  1
  H  H29  1  0.003332  0.310126  0.193080  1
  H  H30  1  0.149630  0.621141  0.824649  1
  H  H31  1  0.850370  0.378859  0.175351  1
  H  H32  1  0.569857  0.350034  0.351446  1
  H  H33  1  0.430143  0.649966  0.648554  1
  H  H34  1  0.544339  0.376697  0.575661  1
  H  H35  1  0.455661  0.623303  0.424339  1
  O  O36  1  0.743194  0.066608  0.582510  1
  O  O37  1  0.256806  0.933392  0.417490  1
  O  O38  1  0.799233  0.090833  0.287981  1
  O  O39  1  0.200767  0.909167  0.712019  1
  O  O40  1  0.830508  0.878036  0.349216  1
  O  O41  1  0.169492  0.121964  0.650784  1
  O  O42  1  0.819942  0.699549  0.497802  1
  O  O43  1  0.180058  0.300451  0.502198  1
  O  O44  1  0.866313  0.637802  0.167904  1
  O  O45  1  0.133687  0.362198  0.832096  1
  O  O46  1  0.568850  0.642840  0.244082  1
  O  O47  1  0.431150  0.357160  0.755918  1
  O  O48  1  0.278221  0.648892  0.143748  1
  O  O49  1  0.721779  0.351108  0.856252  1
  O  O50  1  0.504556  0.687395  0.943081  1
  O  O51  1  0.495444  0.312605  0.056919  1
  O  O52  1  0.530052  0.884045  0.266856  1
  O  O53  1  0.469948  0.115955  0.733144  1
  O  O54  1  0.934315  0.817304  0.944452  1
  O  O55  1  0.065685  0.182696  0.055548  1
  O  O56  1  0.645449  0.952855  0.881875  1
  O  O57  1  0.354551  0.047145  0.118125  1
  O  O58  1  0.047833  0.606334  0.728378  1
  O  O59  1  0.952167  0.393666  0.271622  1
  O  O60  1  0.633256  0.396492  0.490047  1
  O  O61  1  0.366744  0.603508  0.509953  1
