# generated using pymatgen
data_Ni5Ge2P3
_symmetry_space_group_name_H-M   'P 1'
_cell_length_a   4.99446268
_cell_length_b   5.97891210
_cell_length_c   34.89382502
_cell_angle_alpha   90.00000000
_cell_angle_beta   90.00000000
_cell_angle_gamma   90.00000000
_symmetry_Int_Tables_number   1
_chemical_formula_structural   Ni5Ge2P3
_chemical_formula_sum   'Ni40 Ge16 P24'
_cell_volume   1041.98032805
_cell_formula_units_Z   8
loop_
 _symmetry_equiv_pos_site_id
 _symmetry_equiv_pos_as_xyz
  1  'x, y, z'
loop_
 _atom_site_type_symbol
 _atom_site_label
 _atom_site_symmetry_multiplicity
 _atom_site_fract_x
 _atom_site_fract_y
 _atom_site_fract_z
 _atom_site_occupancy
  Ni  Ni0  1  0.515634  0.791468  0.785921  1
  Ni  Ni1  1  0.988849  0.796657  0.975498  1
  Ni  Ni2  1  0.988849  0.296657  0.524502  1
  Ni  Ni3  1  0.511151  0.796657  0.475498  1
  Ni  Ni4  1  0.496590  0.799620  0.173853  1
  Ni  Ni5  1  0.015634  0.708532  0.785921  1
  Ni  Ni6  1  0.997660  0.211618  0.935055  1
  Ni  Ni7  1  0.502340  0.211618  0.435055  1
  Ni  Ni8  1  0.503410  0.200380  0.826147  1
  Ni  Ni9  1  0.472746  0.702881  0.372491  1
  Ni  Ni10  1  0.472746  0.202881  0.127509  1
  Ni  Ni11  1  0.496590  0.299620  0.326147  1
  Ni  Ni12  1  0.011151  0.203343  0.024502  1
  Ni  Ni13  1  0.003410  0.299620  0.826147  1
  Ni  Ni14  1  0.484366  0.208532  0.214079  1
  Ni  Ni15  1  0.497660  0.788382  0.564945  1
  Ni  Ni16  1  0.997660  0.711618  0.564945  1
  Ni  Ni17  1  0.003410  0.799620  0.673853  1
  Ni  Ni18  1  0.996590  0.200380  0.326147  1
  Ni  Ni19  1  0.502340  0.711618  0.064945  1
  Ni  Ni20  1  0.027254  0.702881  0.872491  1
  Ni  Ni21  1  0.527254  0.797119  0.872491  1
  Ni  Ni22  1  0.484366  0.708532  0.285921  1
  Ni  Ni23  1  0.027254  0.202881  0.627509  1
  Ni  Ni24  1  0.002340  0.788382  0.064945  1
  Ni  Ni25  1  0.011151  0.703343  0.475498  1
  Ni  Ni26  1  0.984366  0.791468  0.285921  1
  Ni  Ni27  1  0.488849  0.203343  0.524502  1
  Ni  Ni28  1  0.996590  0.700380  0.173853  1
  Ni  Ni29  1  0.015634  0.208532  0.714079  1
  Ni  Ni30  1  0.515634  0.291468  0.714079  1
  Ni  Ni31  1  0.972746  0.797119  0.372491  1
  Ni  Ni32  1  0.984366  0.291468  0.214079  1
  Ni  Ni33  1  0.497660  0.288382  0.935055  1
  Ni  Ni34  1  0.488849  0.703343  0.975498  1
  Ni  Ni35  1  0.002340  0.288382  0.435055  1
  Ni  Ni36  1  0.527254  0.297119  0.627509  1
  Ni  Ni37  1  0.503410  0.700380  0.673853  1
  Ni  Ni38  1  0.972746  0.297119  0.127509  1
  Ni  Ni39  1  0.511151  0.296657  0.024502  1
  Ge  Ge40  1  0.718975  0.406541  0.772130  1
  Ge  Ge41  1  0.718975  0.906541  0.727870  1
  Ge  Ge42  1  0.709199  0.912724  0.621658  1
  Ge  Ge43  1  0.218975  0.593459  0.727870  1
  Ge  Ge44  1  0.781025  0.406541  0.272130  1
  Ge  Ge45  1  0.790801  0.412724  0.378342  1
  Ge  Ge46  1  0.709199  0.412724  0.878342  1
  Ge  Ge47  1  0.209199  0.087276  0.878342  1
  Ge  Ge48  1  0.781025  0.906541  0.227870  1
  Ge  Ge49  1  0.281025  0.093459  0.272130  1
  Ge  Ge50  1  0.290801  0.087276  0.378342  1
  Ge  Ge51  1  0.209199  0.587276  0.621658  1
  Ge  Ge52  1  0.218975  0.093459  0.772130  1
  Ge  Ge53  1  0.290801  0.587276  0.121658  1
  Ge  Ge54  1  0.790801  0.912724  0.121658  1
  Ge  Ge55  1  0.281025  0.593459  0.227870  1
  P  P56  1  0.180971  0.563339  0.327997  1
  P  P57  1  0.310158  0.566620  0.522214  1
  P  P58  1  0.180971  0.063339  0.172003  1
  P  P59  1  0.203662  0.570475  0.927074  1
  P  P60  1  0.680971  0.936661  0.327997  1
  P  P61  1  0.689842  0.433380  0.477786  1
  P  P62  1  0.703662  0.929525  0.927074  1
  P  P63  1  0.689842  0.933380  0.022214  1
  P  P64  1  0.296338  0.570475  0.427074  1
  P  P65  1  0.680971  0.436661  0.172003  1
  P  P66  1  0.796338  0.429525  0.072926  1
  P  P67  1  0.703662  0.429525  0.572926  1
  P  P68  1  0.189842  0.566620  0.022214  1
  P  P69  1  0.310158  0.066620  0.977786  1
  P  P70  1  0.296338  0.070475  0.072926  1
  P  P71  1  0.819029  0.436661  0.672003  1
  P  P72  1  0.319029  0.063339  0.672003  1
  P  P73  1  0.203662  0.070475  0.572926  1
  P  P74  1  0.810158  0.933380  0.522214  1
  P  P75  1  0.819029  0.936661  0.827997  1
  P  P76  1  0.810158  0.433380  0.977786  1
  P  P77  1  0.319029  0.563339  0.827997  1
  P  P78  1  0.796338  0.929525  0.427074  1
  P  P79  1  0.189842  0.066620  0.477786  1
