# generated using pymatgen
data_CaCu3(RuO3)4
_symmetry_space_group_name_H-M   'P 1'
_cell_length_a   6.48394040
_cell_length_b   6.48394040
_cell_length_c   6.48394040
_cell_angle_alpha   109.47122065
_cell_angle_beta   109.47122067
_cell_angle_gamma   109.47122062
_symmetry_Int_Tables_number   1
_chemical_formula_structural   CaCu3(RuO3)4
_chemical_formula_sum   'Ca1 Cu3 Ru4 O12'
_cell_volume   209.84332143
_cell_formula_units_Z   1
loop_
 _symmetry_equiv_pos_site_id
 _symmetry_equiv_pos_as_xyz
  1  'x, y, z'
loop_
 _atom_site_type_symbol
 _atom_site_label
 _atom_site_symmetry_multiplicity
 _atom_site_fract_x
 _atom_site_fract_y
 _atom_site_fract_z
 _atom_site_occupancy
  O  O0  1  0.692994  0.171907  0.864901  1
  O  O1  1  0.307006  0.828093  0.135099  1
  O  O2  1  0.692994  0.828093  0.521087  1
  O  O3  1  0.171907  0.478913  0.307006  1
  O  O4  1  0.478913  0.307006  0.171907  1
  O  O5  1  0.864901  0.692994  0.171907  1
  O  O6  1  0.828093  0.135099  0.307006  1
  O  O7  1  0.521087  0.692994  0.828093  1
  O  O8  1  0.307006  0.171907  0.478913  1
  O  O9  1  0.828093  0.521087  0.692994  1
  O  O10  1  0.135099  0.307006  0.828093  1
  O  O11  1  0.171907  0.864901  0.692994  1
  Ca  Ca12  1  0.000000  0.000000  0.000000  1
  Cu  Cu13  1  0.500000  0.500000  0.000000  1
  Cu  Cu14  1  0.000000  0.500000  0.500000  1
  Cu  Cu15  1  0.500000  0.000000  0.500000  1
  Ru  Ru16  1  0.500000  0.500000  0.500000  1
  Ru  Ru17  1  0.000000  0.500000  0.000000  1
  Ru  Ru18  1  0.000000  0.000000  0.500000  1
  Ru  Ru19  1  0.500000  0.000000  0.000000  1
