# generated using pymatgen
data_Ba2Tm2Al3Si5N11O3
_symmetry_space_group_name_H-M   'P 1'
_cell_length_a   6.73105703
_cell_length_b   6.73105667
_cell_length_c   10.24425836
_cell_angle_alpha   90.00000000
_cell_angle_beta   90.00000000
_cell_angle_gamma   120.00000172
_symmetry_Int_Tables_number   1
_chemical_formula_structural   Ba2Tm2Al3Si5N11O3
_chemical_formula_sum   'Ba2 Tm2 Al3 Si5 N11 O3'
_cell_volume   401.95521187
_cell_formula_units_Z   1
loop_
 _symmetry_equiv_pos_site_id
 _symmetry_equiv_pos_as_xyz
  1  'x, y, z'
loop_
 _atom_site_type_symbol
 _atom_site_label
 _atom_site_symmetry_multiplicity
 _atom_site_fract_x
 _atom_site_fract_y
 _atom_site_fract_z
 _atom_site_occupancy
  Ba  Ba0  1  0.333333  0.666667  0.223930  1
  Ba  Ba1  1  0.666667  0.333333  0.609503  1
  Tm  Tm2  1  0.333333  0.666667  0.632715  1
  Tm  Tm3  1  0.666667  0.333333  0.040279  1
  Al  Al4  1  0.175137  0.824863  0.957754  1
  Al  Al5  1  0.175137  0.350274  0.957754  1
  Al  Al6  1  0.649726  0.824863  0.957754  1
  Si  Si7  1  0.000000  0.000000  0.210832  1
  Si  Si8  1  0.000000  0.000000  0.567609  1
  Si  Si9  1  0.324532  0.162266  0.375023  1
  Si  Si10  1  0.837734  0.675468  0.375023  1
  Si  Si11  1  0.837734  0.162266  0.375023  1
  N  N12  1  0.524919  0.475081  0.383903  1
  N  N13  1  0.524919  0.049838  0.383903  1
  N  N14  1  0.522422  0.261211  0.839155  1
  N  N15  1  0.476077  0.523923  0.018263  1
  N  N16  1  0.950162  0.475081  0.383903  1
  N  N17  1  0.738789  0.477578  0.839155  1
  N  N18  1  0.000000  0.000000  0.872892  1
  N  N19  1  0.476077  0.952154  0.018263  1
  N  N20  1  0.047846  0.523923  0.018263  1
  N  N21  1  0.738789  0.261211  0.839155  1
  N  N22  1  0.000000  0.000000  0.730120  1
  O  O23  1  0.065339  0.532669  0.510543  1
  O  O24  1  0.467331  0.934661  0.510543  1
  O  O25  1  0.467331  0.532669  0.510543  1
