# generated using pymatgen
data_CaZn(SiO3)2
_symmetry_space_group_name_H-M   'P 1'
_cell_length_a   5.32473475
_cell_length_b   6.74657432
_cell_length_c   6.74657431
_cell_angle_alpha   84.79787081
_cell_angle_beta   78.02277288
_cell_angle_gamma   78.02277289
_symmetry_Int_Tables_number   1
_chemical_formula_structural   CaZn(SiO3)2
_chemical_formula_sum   'Ca2 Zn2 Si4 O12'
_cell_volume   231.63738655
_cell_formula_units_Z   2
loop_
 _symmetry_equiv_pos_site_id
 _symmetry_equiv_pos_as_xyz
  1  'x, y, z'
loop_
 _atom_site_type_symbol
 _atom_site_label
 _atom_site_symmetry_multiplicity
 _atom_site_fract_x
 _atom_site_fract_y
 _atom_site_fract_z
 _atom_site_occupancy
  O  O0  1  0.502857  0.331371  0.366345  1
  O  O1  1  0.997143  0.633655  0.668629  1
  O  O2  1  0.497143  0.668629  0.633655  1
  O  O3  1  0.002857  0.366345  0.331371  1
  O  O4  1  0.176627  0.114298  0.608218  1
  O  O5  1  0.323373  0.391782  0.885702  1
  O  O6  1  0.823373  0.885702  0.391782  1
  O  O7  1  0.676627  0.608218  0.114298  1
  O  O8  1  0.856132  0.205875  0.026886  1
  O  O9  1  0.643868  0.973114  0.794125  1
  O  O10  1  0.143868  0.794125  0.973114  1
  O  O11  1  0.356132  0.026886  0.205875  1
  Si  Si12  1  0.269338  0.194096  0.378358  1
  Si  Si13  1  0.230662  0.621642  0.805904  1
  Si  Si14  1  0.730662  0.805904  0.621642  1
  Si  Si15  1  0.769338  0.378358  0.194096  1
  Ca  Ca16  1  0.750000  0.297282  0.702718  1
  Ca  Ca17  1  0.250000  0.702718  0.297282  1
  Zn  Zn18  1  0.750000  0.903997  0.096003  1
  Zn  Zn19  1  0.250000  0.096003  0.903997  1
