# generated using pymatgen
data_Tl2Cl3
_symmetry_space_group_name_H-M   'P 1'
_cell_length_a   13.12115474
_cell_length_b   15.19630233
_cell_length_c   25.21376802
_cell_angle_alpha   90.00000000
_cell_angle_beta   90.00000000
_cell_angle_gamma   90.00000000
_symmetry_Int_Tables_number   1
_chemical_formula_structural   Tl2Cl3
_chemical_formula_sum   'Tl64 Cl96'
_cell_volume   5027.44971285
_cell_formula_units_Z   32
loop_
 _symmetry_equiv_pos_site_id
 _symmetry_equiv_pos_as_xyz
  1  'x, y, z'
loop_
 _atom_site_type_symbol
 _atom_site_label
 _atom_site_symmetry_multiplicity
 _atom_site_fract_x
 _atom_site_fract_y
 _atom_site_fract_z
 _atom_site_occupancy
  Tl  Tl0  1  0.256663  0.920187  0.664388  1
  Tl  Tl1  1  0.229334  0.395385  0.659497  1
  Tl  Tl2  1  0.423447  0.129804  0.250000  1
  Tl  Tl3  1  0.247714  0.391247  0.004321  1
  Tl  Tl4  1  0.424432  0.119727  0.443070  1
  Tl  Tl5  1  0.590508  0.360919  0.525652  1
  Tl  Tl6  1  0.756663  0.579813  0.835612  1
  Tl  Tl7  1  0.747714  0.108753  0.004321  1
  Tl  Tl8  1  0.076553  0.629804  0.750000  1
  Tl  Tl9  1  0.752286  0.608753  0.995679  1
  Tl  Tl10  1  0.924432  0.380273  0.056930  1
  Tl  Tl11  1  0.087932  0.130850  0.750000  1
  Tl  Tl12  1  0.582372  0.356847  0.161226  1
  Tl  Tl13  1  0.909492  0.860919  0.025652  1
  Tl  Tl14  1  0.247714  0.391247  0.495679  1
  Tl  Tl15  1  0.575568  0.880273  0.943070  1
  Tl  Tl16  1  0.575568  0.880273  0.556930  1
  Tl  Tl17  1  0.082372  0.143153  0.161226  1
  Tl  Tl18  1  0.924432  0.380273  0.443070  1
  Tl  Tl19  1  0.270666  0.895385  0.159497  1
  Tl  Tl20  1  0.270666  0.895385  0.340503  1
  Tl  Tl21  1  0.909492  0.860919  0.474348  1
  Tl  Tl22  1  0.752286  0.608753  0.504321  1
  Tl  Tl23  1  0.576553  0.870196  0.750000  1
  Tl  Tl24  1  0.756663  0.579813  0.664388  1
  Tl  Tl25  1  0.590508  0.360919  0.974348  1
  Tl  Tl26  1  0.075979  0.672543  0.156689  1
  Tl  Tl27  1  0.252286  0.891247  0.504321  1
  Tl  Tl28  1  0.575979  0.827457  0.343311  1
  Tl  Tl29  1  0.747714  0.108753  0.495679  1
  Tl  Tl30  1  0.243337  0.420187  0.164388  1
  Tl  Tl31  1  0.575979  0.827457  0.156689  1
  Tl  Tl32  1  0.229334  0.395385  0.840503  1
  Tl  Tl33  1  0.256663  0.920187  0.835612  1
  Tl  Tl34  1  0.082372  0.143153  0.338774  1
  Tl  Tl35  1  0.729334  0.104615  0.659497  1
  Tl  Tl36  1  0.243337  0.420187  0.335612  1
  Tl  Tl37  1  0.075568  0.619727  0.943070  1
  Tl  Tl38  1  0.424021  0.172543  0.843311  1
  Tl  Tl39  1  0.917628  0.856847  0.661226  1
  Tl  Tl40  1  0.090508  0.139081  0.974348  1
  Tl  Tl41  1  0.770666  0.604615  0.340503  1
  Tl  Tl42  1  0.075979  0.672543  0.343311  1
  Tl  Tl43  1  0.417629  0.643153  0.661226  1
  Tl  Tl44  1  0.924021  0.327457  0.656689  1
  Tl  Tl45  1  0.924021  0.327457  0.843311  1
  Tl  Tl46  1  0.417629  0.643153  0.838774  1
  Tl  Tl47  1  0.912068  0.869150  0.250000  1
  Tl  Tl48  1  0.770666  0.604615  0.159497  1
  Tl  Tl49  1  0.090508  0.139081  0.525652  1
  Tl  Tl50  1  0.409492  0.639081  0.474348  1
  Tl  Tl51  1  0.917628  0.856847  0.838774  1
  Tl  Tl52  1  0.424021  0.172543  0.656689  1
  Tl  Tl53  1  0.252286  0.891247  0.995679  1
  Tl  Tl54  1  0.424432  0.119727  0.056930  1
  Tl  Tl55  1  0.587932  0.369150  0.750000  1
  Tl  Tl56  1  0.923447  0.370196  0.250000  1
  Tl  Tl57  1  0.075568  0.619727  0.556930  1
  Tl  Tl58  1  0.743337  0.079813  0.164388  1
  Tl  Tl59  1  0.582372  0.356847  0.338774  1
  Tl  Tl60  1  0.743337  0.079813  0.335612  1
  Tl  Tl61  1  0.412068  0.630850  0.250000  1
  Tl  Tl62  1  0.729334  0.104615  0.840503  1
  Tl  Tl63  1  0.409492  0.639081  0.025652  1
  Cl  Cl64  1  0.342792  0.778083  0.928261  1
  Cl  Cl65  1  0.917613  0.626676  0.054005  1
  Cl  Cl66  1  0.082387  0.373324  0.945995  1
  Cl  Cl67  1  0.256907  0.549375  0.750000  1
  Cl  Cl68  1  0.515672  0.978236  0.826547  1
  Cl  Cl69  1  0.686480  0.485421  0.434790  1
  Cl  Cl70  1  0.917613  0.626676  0.445995  1
  Cl  Cl71  1  0.157208  0.278083  0.071739  1
  Cl  Cl72  1  0.597065  0.188687  0.750000  1
  Cl  Cl73  1  0.164703  0.764836  0.453408  1
  Cl  Cl74  1  0.842792  0.721917  0.928261  1
  Cl  Cl75  1  0.211484  0.592667  0.250000  1
  Cl  Cl76  1  0.813520  0.985421  0.934790  1
  Cl  Cl77  1  0.087351  0.909054  0.562513  1
  Cl  Cl78  1  0.596786  0.358027  0.850715  1
  Cl  Cl79  1  0.891248  0.704981  0.750000  1
  Cl  Cl80  1  0.403214  0.641973  0.149285  1
  Cl  Cl81  1  0.391248  0.795019  0.750000  1
  Cl  Cl82  1  0.788516  0.407333  0.750000  1
  Cl  Cl83  1  0.711484  0.907333  0.250000  1
  Cl  Cl84  1  0.369470  0.234393  0.327411  1
  Cl  Cl85  1  0.164703  0.764836  0.046592  1
  Cl  Cl86  1  0.608752  0.204981  0.250000  1
  Cl  Cl87  1  0.903214  0.858027  0.149285  1
  Cl  Cl88  1  0.484328  0.021764  0.326547  1
  Cl  Cl89  1  0.587351  0.590946  0.562513  1
  Cl  Cl90  1  0.587351  0.590946  0.937487  1
  Cl  Cl91  1  0.403214  0.641973  0.350715  1
  Cl  Cl92  1  0.440573  0.457238  0.250000  1
  Cl  Cl93  1  0.015672  0.521764  0.673453  1
  Cl  Cl94  1  0.869470  0.265607  0.172589  1
  Cl  Cl95  1  0.903214  0.858027  0.350715  1
  Cl  Cl96  1  0.402935  0.811313  0.250000  1
  Cl  Cl97  1  0.596786  0.358027  0.649285  1
  Cl  Cl98  1  0.087351  0.909054  0.937487  1
  Cl  Cl99  1  0.813520  0.985421  0.565210  1
  Cl  Cl100  1  0.835297  0.235164  0.546592  1
  Cl  Cl101  1  0.984328  0.478236  0.326547  1
  Cl  Cl102  1  0.417613  0.873324  0.054005  1
  Cl  Cl103  1  0.686480  0.485421  0.065210  1
  Cl  Cl104  1  0.657208  0.221917  0.071739  1
  Cl  Cl105  1  0.842792  0.721917  0.571739  1
  Cl  Cl106  1  0.186480  0.014579  0.434790  1
  Cl  Cl107  1  0.243093  0.049375  0.250000  1
  Cl  Cl108  1  0.515672  0.978236  0.673453  1
  Cl  Cl109  1  0.082387  0.373324  0.554005  1
  Cl  Cl110  1  0.342792  0.778083  0.571739  1
  Cl  Cl111  1  0.097065  0.311313  0.750000  1
  Cl  Cl112  1  0.940573  0.042762  0.250000  1
  Cl  Cl113  1  0.664703  0.735164  0.453408  1
  Cl  Cl114  1  0.096786  0.141973  0.649285  1
  Cl  Cl115  1  0.984328  0.478236  0.173453  1
  Cl  Cl116  1  0.610634  0.667902  0.250000  1
  Cl  Cl117  1  0.417613  0.873324  0.445995  1
  Cl  Cl118  1  0.335297  0.264836  0.546592  1
  Cl  Cl119  1  0.834597  0.479378  0.555974  1
  Cl  Cl120  1  0.912649  0.090946  0.437487  1
  Cl  Cl121  1  0.335297  0.264836  0.953408  1
  Cl  Cl122  1  0.313520  0.514579  0.934790  1
  Cl  Cl123  1  0.110634  0.832098  0.250000  1
  Cl  Cl124  1  0.130530  0.734393  0.827411  1
  Cl  Cl125  1  0.015672  0.521764  0.826547  1
  Cl  Cl126  1  0.912649  0.090946  0.062513  1
  Cl  Cl127  1  0.657208  0.221917  0.428261  1
  Cl  Cl128  1  0.902935  0.688687  0.250000  1
  Cl  Cl129  1  0.665403  0.979378  0.444026  1
  Cl  Cl130  1  0.108752  0.295019  0.250000  1
  Cl  Cl131  1  0.756907  0.950625  0.750000  1
  Cl  Cl132  1  0.869470  0.265607  0.327411  1
  Cl  Cl133  1  0.630530  0.765607  0.827411  1
  Cl  Cl134  1  0.582387  0.126676  0.554005  1
  Cl  Cl135  1  0.186480  0.014579  0.065210  1
  Cl  Cl136  1  0.165403  0.520622  0.055974  1
  Cl  Cl137  1  0.334597  0.020622  0.555974  1
  Cl  Cl138  1  0.334597  0.020622  0.944026  1
  Cl  Cl139  1  0.559427  0.542762  0.750000  1
  Cl  Cl140  1  0.582387  0.126676  0.945995  1
  Cl  Cl141  1  0.157208  0.278083  0.428261  1
  Cl  Cl142  1  0.484328  0.021764  0.173453  1
  Cl  Cl143  1  0.412649  0.409054  0.437487  1
  Cl  Cl144  1  0.369470  0.234393  0.172589  1
  Cl  Cl145  1  0.412649  0.409054  0.062513  1
  Cl  Cl146  1  0.165403  0.520622  0.444026  1
  Cl  Cl147  1  0.130530  0.734393  0.672589  1
  Cl  Cl148  1  0.288516  0.092667  0.750000  1
  Cl  Cl149  1  0.313520  0.514579  0.565210  1
  Cl  Cl150  1  0.743093  0.450625  0.250000  1
  Cl  Cl151  1  0.389366  0.332098  0.750000  1
  Cl  Cl152  1  0.835297  0.235164  0.953408  1
  Cl  Cl153  1  0.834597  0.479378  0.944026  1
  Cl  Cl154  1  0.664703  0.735164  0.046592  1
  Cl  Cl155  1  0.630530  0.765607  0.672589  1
  Cl  Cl156  1  0.889366  0.167902  0.750000  1
  Cl  Cl157  1  0.665403  0.979378  0.055974  1
  Cl  Cl158  1  0.096786  0.141973  0.850715  1
  Cl  Cl159  1  0.059427  0.957238  0.750000  1
