# generated using pymatgen
data_Cs3Cr2I9
_symmetry_space_group_name_H-M   'P 1'
_cell_length_a   8.28119767
_cell_length_b   8.28119577
_cell_length_c   20.83161358
_cell_angle_alpha   90.00007968
_cell_angle_beta   89.99994659
_cell_angle_gamma   120.00003200
_symmetry_Int_Tables_number   1
_chemical_formula_structural   Cs3Cr2I9
_chemical_formula_sum   'Cs6 Cr4 I18'
_cell_volume   1237.19912816
_cell_formula_units_Z   2
loop_
 _symmetry_equiv_pos_site_id
 _symmetry_equiv_pos_as_xyz
  1  'x, y, z'
loop_
 _atom_site_type_symbol
 _atom_site_label
 _atom_site_symmetry_multiplicity
 _atom_site_fract_x
 _atom_site_fract_y
 _atom_site_fract_z
 _atom_site_occupancy
  Cs  Cs0  1  0.333331  0.666666  0.429621  1
  Cs  Cs1  1  0.666666  0.333334  0.929622  1
  Cs  Cs2  1  -0.000001  -0.000000  0.250003  1
  Cs  Cs3  1  0.333331  0.666668  0.070382  1
  Cs  Cs4  1  -0.000000  0.000000  0.750004  1
  Cs  Cs5  1  0.666665  0.333333  0.570387  1
  Cr  Cr6  1  0.666660  0.333328  0.162926  1
  Cr  Cr7  1  0.333318  0.666628  0.837031  1
  Cr  Cr8  1  0.333355  0.666693  0.662922  1
  Cr  Cr9  1  0.666696  0.333349  0.337043  1
  I  I10  1  0.824734  0.649471  0.092089  1
  I  I11  1  0.516286  0.483713  0.250005  1
  I  I12  1  0.516286  0.032574  0.250004  1
  I  I13  1  0.032574  0.516288  0.750003  1
  I  I14  1  0.649463  0.824732  0.592091  1
  I  I15  1  0.175267  0.824733  0.592091  1
  I  I16  1  0.967423  0.483712  0.250005  1
  I  I17  1  0.350528  0.175265  0.092090  1
  I  I18  1  0.824730  0.175269  0.407915  1
  I  I19  1  0.175266  0.350533  0.907916  1
  I  I20  1  0.483711  0.516287  0.750003  1
  I  I21  1  0.175267  0.350536  0.592091  1
  I  I22  1  0.483711  0.967425  0.750003  1
  I  I23  1  0.350537  0.175269  0.407915  1
  I  I24  1  0.824735  0.175264  0.092090  1
  I  I25  1  0.824730  0.649462  0.407915  1
  I  I26  1  0.175264  0.824734  0.907916  1
  I  I27  1  0.649466  0.824733  0.907916  1
