# generated using pymatgen
data_SnH2C4O3
_symmetry_space_group_name_H-M   'P 1'
_cell_length_a   6.34716329
_cell_length_b   11.05284000
_cell_length_c   10.50447724
_cell_angle_alpha   90.00000000
_cell_angle_beta   96.33306509
_cell_angle_gamma   90.00000000
_symmetry_Int_Tables_number   1
_chemical_formula_structural   SnH2C4O3
_chemical_formula_sum   'Sn4 H8 C16 O12'
_cell_volume   732.43582987
_cell_formula_units_Z   4
loop_
 _symmetry_equiv_pos_site_id
 _symmetry_equiv_pos_as_xyz
  1  'x, y, z'
loop_
 _atom_site_type_symbol
 _atom_site_label
 _atom_site_symmetry_multiplicity
 _atom_site_fract_x
 _atom_site_fract_y
 _atom_site_fract_z
 _atom_site_occupancy
  Sn  Sn0  1  0.425474  0.749433  0.233445  1
  Sn  Sn1  1  0.925474  0.750567  0.733445  1
  Sn  Sn2  1  0.574526  0.250567  0.766555  1
  Sn  Sn3  1  0.074526  0.249433  0.266555  1
  H  H4  1  0.356501  0.940809  0.423574  1
  H  H5  1  0.856501  0.559191  0.923574  1
  H  H6  1  0.643499  0.059191  0.576426  1
  H  H7  1  0.143499  0.440809  0.076426  1
  H  H8  1  0.593612  0.964055  0.390790  1
  H  H9  1  0.093612  0.535945  0.890790  1
  H  H10  1  0.406388  0.035945  0.609210  1
  H  H11  1  0.906388  0.464055  0.109210  1
  C  C12  1  0.526574  0.546652  0.054656  1
  C  C13  1  0.026574  0.953348  0.554656  1
  C  C14  1  0.473426  0.453348  0.945344  1
  C  C15  1  0.973426  0.046652  0.445344  1
  C  C16  1  0.569618  0.862628  0.091830  1
  C  C17  1  0.069618  0.637372  0.591830  1
  C  C18  1  0.430382  0.137372  0.908170  1
  C  C19  1  0.930382  0.362628  0.408170  1
  C  C20  1  0.084097  0.771429  0.244826  1
  C  C21  1  0.584097  0.728571  0.744826  1
  C  C22  1  0.915903  0.228571  0.755174  1
  C  C23  1  0.415903  0.271429  0.255174  1
  C  C24  1  0.606204  0.633439  0.378272  1
  C  C25  1  0.106204  0.866561  0.878272  1
  C  C26  1  0.393796  0.366561  0.621728  1
  C  C27  1  0.893796  0.133439  0.121728  1
  O  O28  1  0.363263  0.594944  0.095375  1
  O  O29  1  0.863263  0.905056  0.595375  1
  O  O30  1  0.636737  0.405056  0.904625  1
  O  O31  1  0.136737  0.094944  0.404625  1
  O  O32  1  0.715392  0.568693  0.093521  1
  O  O33  1  0.215392  0.931307  0.593521  1
  O  O34  1  0.284608  0.431307  0.906479  1
  O  O35  1  0.784608  0.068693  0.406479  1
  O  O36  1  0.469223  0.908566  0.376301  1
  O  O37  1  0.969223  0.591434  0.876301  1
  O  O38  1  0.530777  0.091434  0.623699  1
  O  O39  1  0.030777  0.408566  0.123699  1
