# generated using pymatgen
data_CdI2
_symmetry_space_group_name_H-M   'P 1'
_cell_length_a   4.34432819
_cell_length_b   4.34432847
_cell_length_c   80.95696309
_cell_angle_alpha   90.00000000
_cell_angle_beta   90.00000000
_cell_angle_gamma   119.99999798
_symmetry_Int_Tables_number   1
_chemical_formula_structural   CdI2
_chemical_formula_sum   'Cd11 I22'
_cell_volume   1323.21412758
_cell_formula_units_Z   11
loop_
 _symmetry_equiv_pos_site_id
 _symmetry_equiv_pos_as_xyz
  1  'x, y, z'
loop_
 _atom_site_type_symbol
 _atom_site_label
 _atom_site_symmetry_multiplicity
 _atom_site_fract_x
 _atom_site_fract_y
 _atom_site_fract_z
 _atom_site_occupancy
  Cd  Cd0  1  0.666667  0.333333  0.204536  1
  Cd  Cd1  1  0.000000  0.000000  0.386360  1
  Cd  Cd2  1  0.666667  0.333333  0.022731  1
  Cd  Cd3  1  0.666667  0.333333  0.659066  1
  Cd  Cd4  1  0.000000  0.000000  0.295448  1
  Cd  Cd5  1  0.000000  0.000000  0.840925  1
  Cd  Cd6  1  0.000000  0.000000  0.931811  1
  Cd  Cd7  1  0.000000  0.000000  0.568187  1
  Cd  Cd8  1  0.000000  0.000000  0.113635  1
  Cd  Cd9  1  0.666667  0.333333  0.477280  1
  Cd  Cd10  1  0.000000  0.000000  0.750003  1
  I  I11  1  0.333333  0.666667  0.589550  1
  I  I12  1  0.000000  0.000000  0.455886  1
  I  I13  1  0.333333  0.666667  0.407747  1
  I  I14  1  0.000000  0.000000  0.637683  1
  I  I15  1  0.333333  0.666667  0.862310  1
  I  I16  1  0.333333  0.666667  0.953179  1
  I  I17  1  0.666667  0.333333  0.274079  1
  I  I18  1  0.333333  0.666667  0.771376  1
  I  I19  1  0.333333  0.666667  0.044117  1
  I  I20  1  0.666667  0.333333  0.092249  1
  I  I21  1  0.333333  0.666667  0.225921  1
  I  I22  1  0.666667  0.333333  0.364977  1
  I  I23  1  0.000000  0.000000  0.001382  1
  I  I24  1  0.333333  0.666667  0.316854  1
  I  I25  1  0.666667  0.333333  0.546816  1
  I  I26  1  0.666667  0.333333  0.728628  1
  I  I27  1  0.000000  0.000000  0.183158  1
  I  I28  1  0.333333  0.666667  0.680450  1
  I  I29  1  0.666667  0.333333  0.910447  1
  I  I30  1  0.666667  0.333333  0.819538  1
  I  I31  1  0.333333  0.666667  0.135018  1
  I  I32  1  0.333333  0.666667  0.498655  1
