# generated using pymatgen
data_Cs5Te3H4NCl18
_symmetry_space_group_name_H-M   'P 1'
_cell_length_a   7.52195115
_cell_length_b   7.52195130
_cell_length_c   22.56728415
_cell_angle_alpha   60.00209456
_cell_angle_beta   60.00209392
_cell_angle_gamma   59.99999689
_symmetry_Int_Tables_number   1
_chemical_formula_structural   Cs5Te3H4NCl18
_chemical_formula_sum   'Cs5 Te3 H4 N1 Cl18'
_cell_volume   902.89877177
_cell_formula_units_Z   1
loop_
 _symmetry_equiv_pos_site_id
 _symmetry_equiv_pos_as_xyz
  1  'x, y, z'
loop_
 _atom_site_type_symbol
 _atom_site_label
 _atom_site_symmetry_multiplicity
 _atom_site_fract_x
 _atom_site_fract_y
 _atom_site_fract_z
 _atom_site_occupancy
  Cs  Cs0  1  0.250097  0.250097  0.083236  1
  Cs  Cs1  1  0.249993  0.249993  0.416674  1
  Cs  Cs2  1  0.249910  0.249910  0.750090  1
  Cs  Cs3  1  0.750002  0.750002  0.249998  1
  Cs  Cs4  1  0.749986  0.749986  0.583347  1
  Te  Te5  1  0.000287  0.000287  0.999713  1
  Te  Te6  1  0.000007  0.000007  0.333326  1
  Te  Te7  1  0.999704  0.999704  0.666963  1
  H  H8  1  0.693707  0.693707  0.897901  1
  H  H9  1  0.693707  0.918885  0.897901  1
  H  H10  1  0.693505  0.693505  0.973162  1
  H  H11  1  0.918885  0.693707  0.897901  1
  N  N12  1  0.750225  0.750225  0.916442  1
  Cl  Cl13  1  0.243164  0.757863  0.080370  1
  Cl  Cl14  1  0.242090  0.242090  0.252637  1
  Cl  Cl15  1  0.242090  0.757906  0.252637  1
  Cl  Cl16  1  0.757863  0.243164  0.080370  1
  Cl  Cl17  1  0.241959  0.241959  0.586038  1
  Cl  Cl18  1  0.242090  0.757909  0.414030  1
  Cl  Cl19  1  0.757906  0.242090  0.252637  1
  Cl  Cl20  1  0.757863  0.757863  0.080370  1
  Cl  Cl21  1  0.241959  0.757967  0.586038  1
  Cl  Cl22  1  0.757909  0.242090  0.414030  1
  Cl  Cl23  1  0.242564  0.242564  0.919120  1
  Cl  Cl24  1  0.241360  0.757606  0.747810  1
  Cl  Cl25  1  0.757967  0.241959  0.586038  1
  Cl  Cl26  1  0.757909  0.757909  0.414030  1
  Cl  Cl27  1  0.242564  0.757513  0.919120  1
  Cl  Cl28  1  0.757606  0.241360  0.747810  1
  Cl  Cl29  1  0.757513  0.242564  0.919120  1
  Cl  Cl30  1  0.757606  0.757606  0.747810  1
