# generated using pymatgen
data_SrLaMn2O6
_symmetry_space_group_name_H-M   'P 1'
_cell_length_a   5.49556967
_cell_length_b   5.49561024
_cell_length_c   33.17082054
_cell_angle_alpha   119.64599009
_cell_angle_beta   119.64561084
_cell_angle_gamma   90.29167533
_symmetry_Int_Tables_number   1
_chemical_formula_structural   SrLaMn2O6
_chemical_formula_sum   'Sr6 La6 Mn12 O36'
_cell_volume   714.13724700
_cell_formula_units_Z   6
loop_
 _symmetry_equiv_pos_site_id
 _symmetry_equiv_pos_as_xyz
  1  'x, y, z'
loop_
 _atom_site_type_symbol
 _atom_site_label
 _atom_site_symmetry_multiplicity
 _atom_site_fract_x
 _atom_site_fract_y
 _atom_site_fract_z
 _atom_site_occupancy
  Sr  Sr0  1  0.251194  0.751195  0.917074  1
  Sr  Sr1  1  0.249979  0.749976  0.750001  1
  Sr  Sr2  1  0.250093  0.750091  0.583381  1
  Sr  Sr3  1  0.250263  0.750253  0.416753  1
  Sr  Sr4  1  0.249108  0.749116  0.249707  1
  Sr  Sr5  1  0.749831  0.249820  0.083270  1
  La  La6  1  0.750326  0.250338  0.916771  1
  La  La7  1  0.750394  0.250403  0.750134  1
  La  La8  1  0.749720  0.249723  0.583248  1
  La  La9  1  0.749031  0.249030  0.416363  1
  La  La10  1  0.250256  0.750245  0.083408  1
  La  La11  1  0.749365  0.249381  0.249813  1
  Mn  Mn12  1  0.000024  -0.000053  0.833325  1
  Mn  Mn13  1  0.999957  -0.000122  0.666645  1
  Mn  Mn14  1  0.499937  0.500016  0.833323  1
  Mn  Mn15  1  0.499877  0.499957  0.666645  1
  Mn  Mn16  1  0.999936  -0.000158  0.333299  1
  Mn  Mn17  1  0.499780  0.499924  0.499960  1
  Mn  Mn18  1  0.000056  0.000071  0.166691  1
  Mn  Mn19  1  0.499838  0.499936  0.333299  1
  Mn  Mn20  1  0.999921  -0.000224  0.499958  1
  Mn  Mn21  1  0.000042  0.000065  0.000017  1
  Mn  Mn22  1  0.500072  0.500056  0.166691  1
  Mn  Mn23  1  0.500071  0.500049  0.000019  1
  O  O24  1  0.250323  0.250261  0.916753  1
  O  O25  1  0.210328  0.710317  0.831440  1
  O  O26  1  0.289833  0.221674  0.835240  1
  O  O27  1  0.250117  0.250067  0.750030  1
  O  O28  1  0.750235  0.750294  0.916744  1
  O  O29  1  0.209274  0.709277  0.664433  1
  O  O30  1  0.721678  0.789835  0.835241  1
  O  O31  1  0.291403  0.222032  0.668906  1
  O  O32  1  0.778405  0.278419  0.831454  1
  O  O33  1  0.249987  0.249926  0.583325  1
  O  O34  1  0.750067  0.750118  0.750030  1
  O  O35  1  0.209230  0.709217  0.497752  1
  O  O36  1  0.722036  0.791406  0.668905  1
  O  O37  1  0.291396  0.221906  0.502215  1
  O  O38  1  0.777373  0.277372  0.664444  1
  O  O39  1  0.249925  0.249888  0.416629  1
  O  O40  1  0.749928  0.749991  0.583326  1
  O  O41  1  0.210935  0.710932  0.331428  1
  O  O42  1  0.721909  0.791393  0.502214  1
  O  O43  1  0.290192  0.220916  0.335178  1
  O  O44  1  0.777297  0.277304  0.497762  1
  O  O45  1  0.249856  0.249787  0.249931  1
  O  O46  1  0.749875  0.749912  0.416625  1
  O  O47  1  0.225685  0.725681  0.166303  1
  O  O48  1  0.720916  0.790198  0.335179  1
  O  O49  1  0.289785  0.212479  0.167048  1
  O  O50  1  0.777654  0.277658  0.331415  1
  O  O51  1  0.250108  0.250027  0.083373  1
  O  O52  1  0.749789  0.749857  0.249932  1
  O  O53  1  0.210848  0.710840  0.999674  1
  O  O54  1  0.712481  0.789786  0.167049  1
  O  O55  1  0.275269  0.227286  0.000426  1
  O  O56  1  0.772209  0.272212  0.166319  1
  O  O57  1  0.750026  0.750102  0.083371  1
  O  O58  1  0.727294  0.775274  0.000426  1
  O  O59  1  0.787262  0.287269  0.999686  1
