# generated using pymatgen
data_Hf8MnTe6
_symmetry_space_group_name_H-M   'P 1'
_cell_length_a   3.74896666
_cell_length_b   7.69958044
_cell_length_c   26.09395667
_cell_angle_alpha   90.03457178
_cell_angle_beta   89.99989145
_cell_angle_gamma   90.00009139
_symmetry_Int_Tables_number   1
_chemical_formula_structural   Hf8MnTe6
_chemical_formula_sum   'Hf16 Mn2 Te12'
_cell_volume   753.21419583
_cell_formula_units_Z   2
loop_
 _symmetry_equiv_pos_site_id
 _symmetry_equiv_pos_as_xyz
  1  'x, y, z'
loop_
 _atom_site_type_symbol
 _atom_site_label
 _atom_site_symmetry_multiplicity
 _atom_site_fract_x
 _atom_site_fract_y
 _atom_site_fract_z
 _atom_site_occupancy
  Hf  Hf0  1  0.250003  0.572050  0.249999  1
  Hf  Hf1  1  0.750002  0.558836  0.551570  1
  Hf  Hf2  1  0.250002  0.446775  0.848973  1
  Hf  Hf3  1  0.749998  0.553372  0.150981  1
  Hf  Hf4  1  0.750000  0.762585  0.817290  1
  Hf  Hf5  1  0.750000  0.427681  0.750002  1
  Hf  Hf6  1  0.250000  0.037883  0.750002  1
  Hf  Hf7  1  0.250001  0.237411  0.182639  1
  Hf  Hf8  1  0.750001  0.962303  0.249999  1
  Hf  Hf9  1  0.749999  0.762507  0.682716  1
  Hf  Hf10  1  0.250001  0.441019  0.051597  1
  Hf  Hf11  1  0.750002  0.553275  0.349067  1
  Hf  Hf12  1  0.250002  0.237481  0.317368  1
  Hf  Hf13  1  0.249999  0.441139  0.448492  1
  Hf  Hf14  1  0.250000  0.446869  0.650977  1
  Hf  Hf15  1  0.750002  0.558965  0.948331  1
  Mn  Mn16  1  0.749987  0.318707  0.250052  1
  Mn  Mn17  1  0.249982  0.680960  0.749953  1
  Te  Te18  1  0.250001  0.800700  0.593690  1
  Te  Te19  1  0.750002  0.721254  0.047966  1
  Te  Te20  1  0.750001  0.199043  0.093685  1
  Te  Te21  1  0.250002  0.278707  0.547977  1
  Te  Te22  1  0.750001  0.151366  0.831589  1
  Te  Te23  1  0.750004  0.721331  0.452061  1
  Te  Te24  1  0.750002  0.151306  0.668413  1
  Te  Te25  1  0.250002  0.278797  0.951993  1
  Te  Te26  1  0.250002  0.800954  0.906288  1
  Te  Te27  1  0.750001  0.199284  0.406338  1
  Te  Te28  1  0.250001  0.848701  0.168374  1
  Te  Te29  1  0.250001  0.848740  0.331614  1
