# generated using pymatgen
data_Bi2Ru3(CO)9
_symmetry_space_group_name_H-M   'P 1'
_cell_length_a   9.15412532
_cell_length_b   9.37121857
_cell_length_c   23.19562918
_cell_angle_alpha   86.21802442
_cell_angle_beta   88.36672663
_cell_angle_gamma   64.67509456
_symmetry_Int_Tables_number   1
_chemical_formula_structural   Bi2Ru3(CO)9
_chemical_formula_sum   'Bi8 Ru12 C36 O36'
_cell_volume   1794.69663381
_cell_formula_units_Z   4
loop_
 _symmetry_equiv_pos_site_id
 _symmetry_equiv_pos_as_xyz
  1  'x, y, z'
loop_
 _atom_site_type_symbol
 _atom_site_label
 _atom_site_symmetry_multiplicity
 _atom_site_fract_x
 _atom_site_fract_y
 _atom_site_fract_z
 _atom_site_occupancy
  Bi  Bi0  1  0.892547  0.365384  0.532700  1
  Bi  Bi1  1  0.926893  0.339567  0.036118  1
  Bi  Bi2  1  0.109674  0.810627  0.285557  1
  Bi  Bi3  1  0.073107  0.660433  0.963882  1
  Bi  Bi4  1  0.890326  0.189373  0.714443  1
  Bi  Bi5  1  0.107453  0.634616  0.467300  1
  Bi  Bi6  1  0.203917  0.712269  0.781273  1
  Bi  Bi7  1  0.796083  0.287731  0.218727  1
  Ru  Ru8  1  0.743326  0.461684  0.639359  1
  Ru  Ru9  1  0.044999  0.301301  0.149420  1
  Ru  Ru10  1  0.172984  0.859085  0.398907  1
  Ru  Ru11  1  0.694512  0.491296  0.119861  1
  Ru  Ru12  1  0.150640  0.861978  0.885408  1
  Ru  Ru13  1  0.256674  0.538316  0.360641  1
  Ru  Ru14  1  0.955001  0.698699  0.850580  1
  Ru  Ru15  1  0.093589  0.228084  0.627436  1
  Ru  Ru16  1  0.305488  0.508704  0.880139  1
  Ru  Ru17  1  0.906411  0.771916  0.372564  1
  Ru  Ru18  1  0.849360  0.138022  0.114592  1
  Ru  Ru19  1  0.827016  0.140915  0.601093  1
  C  C20  1  0.744846  0.035257  0.162720  1
  C  C21  1  0.680497  0.531471  0.715662  1
  C  C22  1  0.858729  0.778720  0.776445  1
  C  C23  1  0.485811  0.519857  0.912570  1
  C  C24  1  0.964612  0.495766  0.848300  1
  C  C25  1  0.240835  0.888145  0.955465  1
  C  C26  1  0.648057  0.126311  0.640516  1
  C  C27  1  0.753482  0.973912  0.343603  1
  C  C28  1  0.262172  0.341243  0.390422  1
  C  C29  1  0.142080  0.350716  0.678262  1
  C  C30  1  0.754175  0.801802  0.890802  1
  C  C31  1  0.026015  0.072875  0.389140  1
  C  C32  1  0.465034  0.495692  0.386209  1
  C  C33  1  0.514189  0.480143  0.087430  1
  C  C34  1  0.752721  0.131575  0.525598  1
  C  C35  1  0.948420  0.036208  0.886295  1
  C  C36  1  0.245825  0.198198  0.109198  1
  C  C37  1  0.693241  0.665462  0.071245  1
  C  C38  1  0.424940  0.374939  0.820310  1
  C  C39  1  0.759165  0.111855  0.044535  1
  C  C40  1  0.534966  0.504308  0.613791  1
  C  C41  1  0.238358  0.235401  0.567236  1
  C  C42  1  0.761642  0.764599  0.432764  1
  C  C43  1  0.051580  0.963792  0.113705  1
  C  C44  1  0.351943  0.873689  0.359484  1
  C  C45  1  0.575060  0.625062  0.179690  1
  C  C46  1  0.247279  0.868425  0.474401  1
  C  C47  1  0.035388  0.504234  0.151700  1
  C  C48  1  0.255154  0.964743  0.837280  1
  C  C49  1  0.319503  0.468529  0.284338  1
  C  C50  1  0.737828  0.658757  0.609578  1
  C  C51  1  0.246518  0.026088  0.656397  1
  C  C52  1  0.306759  0.334538  0.928755  1
  C  C53  1  0.141271  0.221280  0.223555  1
  C  C54  1  0.857920  0.649284  0.321738  1
  C  C55  1  0.973985  0.927125  0.610860  1
  O  O56  1  0.683117  0.778651  0.044465  1
  O  O57  1  0.937937  0.206114  0.382898  1
  O  O58  1  0.302047  0.907316  0.995552  1
  O  O59  1  0.372095  0.406900  0.241453  1
  O  O60  1  0.403783  0.536754  0.598677  1
  O  O61  1  0.209288  0.174502  0.267437  1
  O  O62  1  0.790712  0.825498  0.732563  1
  O  O63  1  0.173591  0.427710  0.708619  1
  O  O64  1  0.600403  0.520772  0.932883  1
  O  O65  1  0.650759  0.095399  0.329036  1
  O  O66  1  0.658301  0.765559  0.463584  1
  O  O67  1  0.062063  0.793886  0.617102  1
  O  O68  1  0.316883  0.221349  0.955535  1
  O  O69  1  0.826409  0.572290  0.291381  1
  O  O70  1  0.373173  0.130401  0.089497  1
  O  O71  1  0.626827  0.869599  0.910503  1
  O  O72  1  0.826121  0.148101  0.885940  1
  O  O73  1  0.698830  0.118066  0.482484  1
  O  O74  1  0.510197  0.281608  0.789411  1
  O  O75  1  0.489803  0.718392  0.210589  1
  O  O76  1  0.975405  0.368069  0.844885  1
  O  O77  1  0.399597  0.479228  0.067117  1
  O  O78  1  0.627905  0.593100  0.758547  1
  O  O79  1  0.596217  0.463246  0.401323  1
  O  O80  1  0.341699  0.234441  0.536416  1
  O  O81  1  0.721316  0.785507  0.594447  1
  O  O82  1  0.681045  0.964678  0.186961  1
  O  O83  1  0.532864  0.124914  0.662262  1
  O  O84  1  0.349241  0.904601  0.670964  1
  O  O85  1  0.318955  0.035322  0.813039  1
  O  O86  1  0.173879  0.851899  0.114060  1
  O  O87  1  0.697953  0.092684  0.004448  1
  O  O88  1  0.467136  0.875086  0.337738  1
  O  O89  1  0.301170  0.881934  0.517516  1
  O  O90  1  0.024595  0.631931  0.155115  1
  O  O91  1  0.278684  0.214493  0.405553  1
