# generated using pymatgen
data_Ca(Al3Te5)2
_symmetry_space_group_name_H-M   'P 1'
_cell_length_a   9.86967238
_cell_length_b   11.63180557
_cell_length_c   10.79759650
_cell_angle_alpha   92.80575591
_cell_angle_beta   90.70573669
_cell_angle_gamma   87.31278169
_symmetry_Int_Tables_number   1
_chemical_formula_structural   Ca(Al3Te5)2
_chemical_formula_sum   'Ca2 Al12 Te20'
_cell_volume   1236.67701137
_cell_formula_units_Z   2
loop_
 _symmetry_equiv_pos_site_id
 _symmetry_equiv_pos_as_xyz
  1  'x, y, z'
loop_
 _atom_site_type_symbol
 _atom_site_label
 _atom_site_symmetry_multiplicity
 _atom_site_fract_x
 _atom_site_fract_y
 _atom_site_fract_z
 _atom_site_occupancy
  Ca  Ca0  1  0.554742  0.829436  0.110010  1
  Ca  Ca1  1  0.820361  0.056621  0.590417  1
  Al  Al2  1  0.437712  0.042270  0.780191  1
  Al  Al3  1  0.265702  0.219764  0.036612  1
  Al  Al4  1  0.799984  0.567188  0.872740  1
  Al  Al5  1  0.826138  0.413741  0.611926  1
  Al  Al6  1  0.704459  0.502661  0.173003  1
  Al  Al7  1  0.805779  0.212720  0.962918  1
  Al  Al8  1  0.945135  0.665562  0.495850  1
  Al  Al9  1  0.839378  0.686385  0.277583  1
  Al  Al10  1  0.911433  0.152602  0.290007  1
  Al  Al11  1  -0.025555  0.472084  0.250020  1
  Al  Al12  1  0.013276  0.895131  0.168825  1
  Al  Al13  1  0.231489  0.940236  0.449107  1
  Te  Te14  1  0.069956  0.840881  0.616090  1
  Te  Te15  1  0.031052  0.099885  0.063514  1
  Te  Te16  1  0.095273  0.145792  0.467945  1
  Te  Te17  1  0.222607  0.788354  0.259945  1
  Te  Te18  1  0.188892  0.433715  0.114692  1
  Te  Te19  1  0.245007  0.708772  0.761636  1
  Te  Te20  1  0.311164  0.241453  0.803322  1
  Te  Te21  1  0.319311  0.897079  0.930398  1
  Te  Te22  1  0.470724  0.953968  0.551847  1
  Te  Te23  1  0.419916  0.080244  0.158446  1
  Te  Te24  1  0.580980  0.650935  0.327043  1
  Te  Te25  1  0.566493  0.536058  0.967851  1
  Te  Te26  1  0.666446  0.270057  0.515012  1
  Te  Te27  1  0.732125  0.637339  0.649830  1
  Te  Te28  1  0.701532  0.030854  0.853548  1
  Te  Te29  1  0.792811  0.949172  0.311519  1
  Te  Te30  1  0.703847  0.273947  0.188821  1
  Te  Te31  1  0.863187  0.747025  0.035636  1
  Te  Te32  1  0.058426  0.454007  0.490232  1
  Te  Te33  1  0.943318  0.370260  0.838965  1
