# generated using pymatgen
data_LiMg2H7Ru
_symmetry_space_group_name_H-M   'P 1'
_cell_length_a   4.69631315
_cell_length_b   4.69629007
_cell_length_c   10.69942620
_cell_angle_alpha   90.00000000
_cell_angle_beta   90.00000000
_cell_angle_gamma   120.00016263
_symmetry_Int_Tables_number   1
_chemical_formula_structural   LiMg2H7Ru
_chemical_formula_sum   'Li2 Mg4 H14 Ru2'
_cell_volume   204.36304694
_cell_formula_units_Z   2
loop_
 _symmetry_equiv_pos_site_id
 _symmetry_equiv_pos_as_xyz
  1  'x, y, z'
loop_
 _atom_site_type_symbol
 _atom_site_label
 _atom_site_symmetry_multiplicity
 _atom_site_fract_x
 _atom_site_fract_y
 _atom_site_fract_z
 _atom_site_occupancy
  Li  Li0  1  0.000003  0.000005  0.250000  1
  Li  Li1  1  0.999997  0.999995  0.750000  1
  Mg  Mg2  1  0.333336  0.666671  0.424918  1
  Mg  Mg3  1  0.666664  0.333329  0.575082  1
  Mg  Mg4  1  0.666664  0.333329  0.924918  1
  Mg  Mg5  1  0.333336  0.666671  0.075082  1
  H  H6  1  0.166084  0.833925  0.904321  1
  H  H7  1  0.166078  0.332156  0.904319  1
  H  H8  1  0.667842  0.833925  0.904321  1
  H  H9  1  0.833916  0.166075  0.095679  1
  H  H10  1  0.833922  0.667844  0.095681  1
  H  H11  1  0.332158  0.166075  0.095679  1
  H  H12  1  0.833916  0.166075  0.404321  1
  H  H13  1  0.833922  0.667844  0.404319  1
  H  H14  1  0.332158  0.166075  0.404321  1
  H  H15  1  0.166084  0.833925  0.595679  1
  H  H16  1  0.166078  0.332156  0.595681  1
  H  H17  1  0.667842  0.833925  0.595679  1
  H  H18  1  0.333306  0.666612  0.250000  1
  H  H19  1  0.666694  0.333388  0.750000  1
  Ru  Ru20  1  0.000000  0.000000  0.500000  1
  Ru  Ru21  1  0.000000  0.000000  0.000000  1
