# generated using pymatgen
data_Mg4Sb2O9
_symmetry_space_group_name_H-M   'P 1'
_cell_length_a   5.63500971
_cell_length_b   16.80430538
_cell_length_c   15.11328865
_cell_angle_alpha   17.92686990
_cell_angle_beta   50.94323750
_cell_angle_gamma   55.68463428
_symmetry_Int_Tables_number   1
_chemical_formula_structural   Mg4Sb2O9
_chemical_formula_sum   'Mg8 Sb4 O18'
_cell_volume   338.21051157
_cell_formula_units_Z   2
loop_
 _symmetry_equiv_pos_site_id
 _symmetry_equiv_pos_as_xyz
  1  'x, y, z'
loop_
 _atom_site_type_symbol
 _atom_site_label
 _atom_site_symmetry_multiplicity
 _atom_site_fract_x
 _atom_site_fract_y
 _atom_site_fract_z
 _atom_site_occupancy
  Mg  Mg0  1  0.356397  0.197186  0.382398  1
  Mg  Mg1  1  0.131265  0.613031  0.157081  1
  Mg  Mg2  1  0.351413  0.561035  0.343530  1
  Mg  Mg3  1  0.636034  0.118300  0.649283  1
  Mg  Mg4  1  0.363966  0.881700  0.350717  1
  Mg  Mg5  1  0.648587  0.438965  0.656470  1
  Mg  Mg6  1  0.868735  0.386969  0.842919  1
  Mg  Mg7  1  0.643603  0.802814  0.617602  1
  Sb  Sb8  1  0.176405  0.287592  0.138946  1
  Sb  Sb9  1  0.137097  0.950131  0.155947  1
  Sb  Sb10  1  0.862903  0.049869  0.844053  1
  Sb  Sb11  1  0.823595  0.712408  0.861054  1
  O  O12  1  0.760957  0.110117  0.055475  1
  O  O13  1  0.540807  0.170161  0.233253  1
  O  O14  1  0.043012  0.280794  0.456085  1
  O  O15  1  0.775298  0.441460  0.055658  1
  O  O16  1  0.567387  0.490992  0.237256  1
  O  O17  1  0.046913  0.639236  0.428582  1
  O  O18  1  0.943740  0.043390  0.552671  1
  O  O19  1  0.443064  0.181259  0.760827  1
  O  O20  1  0.751904  0.794323  0.039620  1
  O  O21  1  0.248096  0.205677  0.960380  1
  O  O22  1  0.556936  0.818741  0.239173  1
  O  O23  1  0.056260  0.956610  0.447329  1
  O  O24  1  0.953086  0.360764  0.571418  1
  O  O25  1  0.432613  0.509008  0.762744  1
  O  O26  1  0.224702  0.558540  0.944342  1
  O  O27  1  0.956988  0.719206  0.543915  1
  O  O28  1  0.459193  0.829839  0.766747  1
  O  O29  1  0.239043  0.889883  0.944525  1
