# generated using pymatgen
data_Al2NiO4
_symmetry_space_group_name_H-M   'P 1'
_cell_length_a   5.75435561
_cell_length_b   5.77369421
_cell_length_c   22.93786022
_cell_angle_alpha   59.77343994
_cell_angle_beta   59.54906952
_cell_angle_gamma   59.88876553
_symmetry_Int_Tables_number   1
_chemical_formula_structural   Al2NiO4
_chemical_formula_sum   'Al16 Ni8 O32'
_cell_volume   535.64822853
_cell_formula_units_Z   8
loop_
 _symmetry_equiv_pos_site_id
 _symmetry_equiv_pos_as_xyz
  1  'x, y, z'
loop_
 _atom_site_type_symbol
 _atom_site_label
 _atom_site_symmetry_multiplicity
 _atom_site_fract_x
 _atom_site_fract_y
 _atom_site_fract_z
 _atom_site_occupancy
  Al  Al0  1  0.494351  0.003619  0.125673  1
  Al  Al1  1  0.494518  0.496902  0.002919  1
  Al  Al2  1  0.130119  0.116040  0.284450  1
  Al  Al3  1  0.494351  0.499340  0.125673  1
  Al  Al4  1  0.500063  0.000437  0.374874  1
  Al  Al5  1  0.133795  0.117154  0.532974  1
  Al  Al6  1  0.500063  0.500002  0.374874  1
  Al  Al7  1  0.865250  0.884818  0.216278  1
  Al  Al8  1  0.139965  0.117610  0.781204  1
  Al  Al9  1  0.501574  0.500230  0.624483  1
  Al  Al10  1  0.867777  0.883188  0.466462  1
  Al  Al11  1  0.501574  0.000263  0.624483  1
  Al  Al12  1  0.503614  0.002455  0.873975  1
  Al  Al13  1  0.503614  0.498032  0.873975  1
  Al  Al14  1  0.868726  0.882560  0.716539  1
  Al  Al15  1  0.860995  0.880012  0.969745  1
  Ni  Ni16  1  0.126336  0.123379  0.031727  1
  Ni  Ni17  1  0.997892  0.499348  0.125853  1
  Ni  Ni18  1  0.999662  0.500010  0.375080  1
  Ni  Ni19  1  0.498786  0.501384  0.249611  1
  Ni  Ni20  1  0.000846  0.500329  0.624624  1
  Ni  Ni21  1  0.500232  0.500146  0.499869  1
  Ni  Ni22  1  0.005231  0.498971  0.874207  1
  Ni  Ni23  1  0.502307  0.498870  0.749988  1
  O  O24  1  0.281730  0.251806  0.063795  1
  O  O25  1  0.261670  0.244007  0.187579  1
  O  O26  1  0.281730  0.711284  0.063795  1
  O  O27  1  0.703000  0.264479  0.067011  1
  O  O28  1  0.257368  0.758134  0.181591  1
  O  O29  1  0.265238  0.232188  0.316965  1
  O  O30  1  0.726288  0.753643  0.066606  1
  O  O31  1  0.265238  0.734715  0.316965  1
  O  O32  1  0.731862  0.264875  0.183088  1
  O  O33  1  0.269387  0.245591  0.434858  1
  O  O34  1  0.736737  0.246065  0.317783  1
  O  O35  1  0.731862  0.770910  0.183088  1
  O  O36  1  0.260562  0.753893  0.432913  1
  O  O37  1  0.266220  0.231696  0.566492  1
  O  O38  1  0.733681  0.263980  0.433628  1
  O  O39  1  0.729963  0.754526  0.315246  1
  O  O40  1  0.266220  0.736115  0.566492  1
  O  O41  1  0.273137  0.246797  0.683317  1
  O  O42  1  0.740649  0.245525  0.567075  1
  O  O43  1  0.733681  0.767829  0.433628  1
  O  O44  1  0.261566  0.753186  0.683016  1
  O  O45  1  0.268199  0.229383  0.815904  1
  O  O46  1  0.734649  0.263668  0.683582  1
  O  O47  1  0.730467  0.754196  0.565285  1
  O  O48  1  0.268199  0.738801  0.815904  1
  O  O49  1  0.292222  0.252831  0.925529  1
  O  O50  1  0.751664  0.241600  0.816284  1
  O  O51  1  0.734649  0.767354  0.683582  1
  O  O52  1  0.266665  0.742214  0.937227  1
  O  O53  1  0.730663  0.752931  0.815869  1
  O  O54  1  0.726596  0.270429  0.938181  1
  O  O55  1  0.726596  0.750250  0.938181  1
