# generated using pymatgen
data_KBi2F7
_symmetry_space_group_name_H-M   'P 1'
_cell_length_a   4.79599783
_cell_length_b   4.32134503
_cell_length_c   26.95190632
_cell_angle_alpha   54.21704185
_cell_angle_beta   57.78203153
_cell_angle_gamma   56.34819953
_symmetry_Int_Tables_number   1
_chemical_formula_structural   KBi2F7
_chemical_formula_sum   'K2 Bi4 F14'
_cell_volume   358.66266022
_cell_formula_units_Z   2
loop_
 _symmetry_equiv_pos_site_id
 _symmetry_equiv_pos_as_xyz
  1  'x, y, z'
loop_
 _atom_site_type_symbol
 _atom_site_label
 _atom_site_symmetry_multiplicity
 _atom_site_fract_x
 _atom_site_fract_y
 _atom_site_fract_z
 _atom_site_occupancy
  K  K0  1  0.027406  -0.040892  0.161119  1
  K  K1  1  0.957235  0.068740  0.331607  1
  Bi  Bi2  1  0.913726  0.019763  0.998847  1
  Bi  Bi3  1  0.889884  0.954680  0.503158  1
  Bi  Bi4  1  0.896808  0.967209  0.671012  1
  Bi  Bi5  1  0.919851  0.989019  0.831762  1
  F  F6  1  0.337319  0.238971  0.036353  1
  F  F7  1  0.793186  0.780465  0.105301  1
  F  F8  1  0.307286  0.285902  0.524559  1
  F  F9  1  0.700125  0.893583  0.272936  1
  F  F10  1  0.106908  0.228568  0.400567  1
  F  F11  1  0.344358  0.234709  0.722201  1
  F  F12  1  0.754065  0.705055  0.472039  1
  F  F13  1  0.617461  0.449427  0.598626  1
  F  F14  1  0.356075  0.290048  0.879379  1
  F  F15  1  0.895935  0.649033  0.630571  1
  F  F16  1  0.663338  0.468710  0.754839  1
  F  F17  1  0.916846  0.700718  0.787919  1
  F  F18  1  0.689578  0.486283  0.912398  1
  F  F19  1  0.782611  0.660011  0.983141  1
