# generated using pymatgen
data_Ba3NdRu2O9
_symmetry_space_group_name_H-M   'P 1'
_cell_length_a   6.01184480
_cell_length_b   6.01184480
_cell_length_c   14.91353479
_cell_angle_alpha   90.28393078
_cell_angle_beta   90.28393076
_cell_angle_gamma   120.00901596
_symmetry_Int_Tables_number   1
_chemical_formula_structural   Ba3NdRu2O9
_chemical_formula_sum   'Ba6 Nd2 Ru4 O18'
_cell_volume   466.73024505
_cell_formula_units_Z   2
loop_
 _symmetry_equiv_pos_site_id
 _symmetry_equiv_pos_as_xyz
  1  'x, y, z'
loop_
 _atom_site_type_symbol
 _atom_site_label
 _atom_site_symmetry_multiplicity
 _atom_site_fract_x
 _atom_site_fract_y
 _atom_site_fract_z
 _atom_site_occupancy
  O  O0  1  0.345393  0.165697  0.403736  1
  O  O1  1  0.834303  0.654607  0.096264  1
  O  O2  1  0.654607  0.834303  0.596264  1
  O  O3  1  0.165697  0.345393  0.903736  1
  O  O4  1  0.809950  0.630377  0.412248  1
  O  O5  1  0.369623  0.190050  0.087752  1
  O  O6  1  0.190050  0.369623  0.587752  1
  O  O7  1  0.630377  0.809950  0.912248  1
  O  O8  1  0.810945  0.165539  0.406788  1
  O  O9  1  0.834461  0.189055  0.093212  1
  O  O10  1  0.189055  0.834461  0.593212  1
  O  O11  1  0.165539  0.810945  0.906788  1
  O  O12  1  0.490880  0.509120  0.750000  1
  O  O13  1  0.509120  0.490880  0.250000  1
  O  O14  1  0.491698  0.980952  0.753613  1
  O  O15  1  0.019048  0.508302  0.746387  1
  O  O16  1  0.508302  0.019048  0.246387  1
  O  O17  1  0.980952  0.491698  0.253613  1
  Ru  Ru18  1  0.338677  0.672194  0.666288  1
  Ru  Ru19  1  0.327806  0.661323  0.833712  1
  Ru  Ru20  1  0.661323  0.327806  0.333712  1
  Ru  Ru21  1  0.672194  0.338677  0.166288  1
  Ba  Ba22  1  0.331805  0.664682  0.397825  1
  Ba  Ba23  1  0.000404  0.999596  0.750000  1
  Ba  Ba24  1  0.668195  0.335318  0.602175  1
  Ba  Ba25  1  0.335318  0.668195  0.102175  1
  Ba  Ba26  1  0.664682  0.331805  0.897825  1
  Ba  Ba27  1  0.999596  0.000404  0.250000  1
  Nd  Nd28  1  0.000000  0.000000  0.500000  1
  Nd  Nd29  1  0.000000  0.000000  0.000000  1
