# generated using pymatgen
data_PRu4C15O14F3
_symmetry_space_group_name_H-M   'P 1'
_cell_length_a   10.02429756
_cell_length_b   16.60801969
_cell_length_c   16.90686982
_cell_angle_alpha   108.89658852
_cell_angle_beta   100.67398373
_cell_angle_gamma   102.66045180
_symmetry_Int_Tables_number   1
_chemical_formula_structural   PRu4C15O14F3
_chemical_formula_sum   'P4 Ru16 C60 O56 F12'
_cell_volume   2496.19096401
_cell_formula_units_Z   4
loop_
 _symmetry_equiv_pos_site_id
 _symmetry_equiv_pos_as_xyz
  1  'x, y, z'
loop_
 _atom_site_type_symbol
 _atom_site_label
 _atom_site_symmetry_multiplicity
 _atom_site_fract_x
 _atom_site_fract_y
 _atom_site_fract_z
 _atom_site_occupancy
  P  P0  1  0.219230  0.539844  0.741918  1
  P  P1  1  0.780770  0.460156  0.258082  1
  P  P2  1  0.196584  0.950844  0.205538  1
  P  P3  1  0.803416  0.049156  0.794462  1
  Ru  Ru4  1  0.180553  0.582230  0.884622  1
  Ru  Ru5  1  0.896958  0.606327  0.362821  1
  Ru  Ru6  1  0.819447  0.417770  0.115378  1
  Ru  Ru7  1  0.393622  0.013010  0.162395  1
  Ru  Ru8  1  0.226429  0.401462  0.810685  1
  Ru  Ru9  1  0.943615  0.955674  0.736446  1
  Ru  Ru10  1  0.056385  0.044326  0.263554  1
  Ru  Ru11  1  0.773571  0.598538  0.189315  1
  Ru  Ru12  1  0.374664  0.126034  0.330805  1
  Ru  Ru13  1  0.399394  0.945101  0.297888  1
  Ru  Ru14  1  0.606378  0.986990  0.837605  1
  Ru  Ru15  1  0.404273  0.476609  0.717091  1
  Ru  Ru16  1  0.600606  0.054899  0.702112  1
  Ru  Ru17  1  0.625336  0.873966  0.669195  1
  Ru  Ru18  1  0.103042  0.393673  0.637179  1
  Ru  Ru19  1  0.595727  0.523391  0.282909  1
  C  C20  1  0.401376  0.830791  0.230027  1
  C  C21  1  0.372476  0.083975  0.426787  1
  C  C22  1  0.586367  0.095916  0.906769  1
  C  C23  1  0.205423  0.632987  0.701196  1
  C  C24  1  0.377297  0.165893  0.230942  1
  C  C25  1  0.092630  0.609733  0.392114  1
  C  C26  1  0.005011  0.147842  0.329604  1
  C  C27  1  0.807220  0.602214  0.082007  1
  C  C28  1  0.331456  0.898497  0.377183  1
  C  C29  1  0.413633  0.904084  0.093231  1
  C  C30  1  0.901539  0.729371  0.421785  1
  C  C31  1  0.673201  0.770080  0.608000  1
  C  C32  1  0.063002  0.998810  0.357440  1
  C  C33  1  0.593415  0.071684  0.180748  1
  C  C34  1  0.465908  0.371340  0.670676  1
  C  C35  1  0.930530  0.160041  0.877832  1
  C  C36  1  0.406585  0.928316  0.819252  1
  C  C37  1  0.598624  0.169209  0.769973  1
  C  C38  1  0.387863  0.630441  0.935543  1
  C  C39  1  0.422639  0.434039  0.208399  1
  C  C40  1  0.069470  0.839959  0.122168  1
  C  C41  1  0.566993  0.483995  0.372672  1
  C  C42  1  0.977386  0.521941  0.825911  1
  C  C43  1  0.575978  0.176560  0.376780  1
  C  C44  1  0.794577  0.367013  0.298804  1
  C  C45  1  0.627524  0.916025  0.573213  1
  C  C46  1  0.872452  0.579422  0.460719  1
  C  C47  1  0.696030  0.969008  0.938004  1
  C  C48  1  0.061617  0.088690  0.169716  1
  C  C49  1  0.249953  0.286327  0.765454  1
  C  C50  1  0.622703  0.834107  0.769058  1
  C  C51  1  0.433007  0.516005  0.627328  1
  C  C52  1  0.018211  0.345593  0.747816  1
  C  C53  1  0.750047  0.713673  0.234546  1
  C  C54  1  0.326799  0.229920  0.392000  1
  C  C55  1  0.424022  0.823440  0.623220  1
  C  C56  1  0.994989  0.852158  0.670396  1
  C  C57  1  0.938383  0.911310  0.830284  1
  C  C58  1  0.844559  0.303392  0.105196  1
  C  C59  1  0.303970  0.030992  0.061996  1
  C  C60  1  0.842183  0.416985  0.002959  1
  C  C61  1  0.155441  0.696608  0.894804  1
  C  C62  1  0.435372  0.450104  0.860662  1
  C  C63  1  0.868911  0.962544  0.201766  1
  C  C64  1  0.564628  0.549896  0.139338  1
  C  C65  1  0.394534  0.014999  0.653086  1
  C  C66  1  0.022614  0.478059  0.174089  1
  C  C67  1  0.907370  0.390267  0.607886  1
  C  C68  1  0.612137  0.369559  0.064457  1
  C  C69  1  0.534092  0.628660  0.329324  1
  C  C70  1  0.668544  0.101503  0.622817  1
  C  C71  1  0.605466  0.985001  0.346914  1
  C  C72  1  0.981789  0.654407  0.252184  1
  C  C73  1  0.157817  0.583015  0.997041  1
  C  C74  1  0.127548  0.420578  0.539281  1
  C  C75  1  0.131089  0.037456  0.798234  1
  C  C76  1  0.577361  0.565961  0.791601  1
  C  C77  1  0.192780  0.397786  0.917993  1
  C  C78  1  0.936998  0.001190  0.642560  1
  C  C79  1  0.098461  0.270629  0.578215  1
  O  O80  1  0.972754  0.208794  0.366804  1
  O  O81  1  0.098965  0.198079  0.542796  1
  O  O82  1  0.865420  0.565985  0.523197  1
  O  O83  1  0.143191  0.585064  0.063763  1
  O  O84  1  0.737712  0.784560  0.260956  1
  O  O85  1  0.057104  0.969088  0.410050  1
  O  O86  1  0.315358  0.380220  0.166356  1
  O  O87  1  0.262288  0.215440  0.739044  1
  O  O88  1  0.096994  0.696944  0.260378  1
  O  O89  1  0.500549  0.308468  0.641432  1
  O  O90  1  0.210774  0.612300  0.413278  1
  O  O91  1  0.596255  0.240559  0.808657  1
  O  O92  1  0.696947  0.209429  0.408982  1
  O  O93  1  0.499451  0.691532  0.358567  1
  O  O94  1  0.857138  0.490708  0.791630  1
  O  O95  1  0.027246  0.791206  0.633196  1
  O  O96  1  0.243898  0.086390  0.834744  1
  O  O97  1  0.618371  0.781355  0.801338  1
  O  O98  1  0.756102  0.913610  0.165256  1
  O  O99  1  0.508370  0.662348  0.968682  1
  O  O100  1  0.171436  0.389212  0.980263  1
  O  O101  1  0.943080  0.886650  0.886829  1
  O  O102  1  0.142862  0.509293  0.208370  1
  O  O103  1  0.253550  0.037519  0.997657  1
  O  O104  1  0.307893  0.295100  0.432983  1
  O  O105  1  0.861811  0.235748  0.100872  1
  O  O106  1  0.403745  0.759441  0.191343  1
  O  O107  1  0.856809  0.414936  0.936237  1
  O  O108  1  0.828564  0.610788  0.019737  1
  O  O109  1  0.903006  0.303056  0.739622  1
  O  O110  1  0.454220  0.537416  0.092162  1
  O  O111  1  0.138189  0.764252  0.899128  1
  O  O112  1  0.901035  0.801921  0.457204  1
  O  O113  1  0.429455  0.840228  0.046571  1
  O  O114  1  0.712559  0.104441  0.189055  1
  O  O115  1  0.789226  0.387700  0.586722  1
  O  O116  1  0.293656  0.868548  0.425345  1
  O  O117  1  0.375504  0.084928  0.496379  1
  O  O118  1  0.134580  0.434015  0.476803  1
  O  O119  1  0.381629  0.218645  0.198662  1
  O  O120  1  0.545780  0.462584  0.907838  1
  O  O121  1  0.303053  0.790571  0.591018  1
  O  O122  1  0.570545  0.159772  0.953429  1
  O  O123  1  0.706344  0.131452  0.574655  1
  O  O124  1  0.942896  0.030912  0.589950  1
  O  O125  1  0.746450  0.962481  0.002343  1
  O  O126  1  0.271598  0.993823  0.627076  1
  O  O127  1  0.491630  0.337652  0.031318  1
  O  O128  1  0.684642  0.619780  0.833644  1
  O  O129  1  0.624496  0.915072  0.503621  1
  O  O130  1  0.541162  0.455615  0.424215  1
  O  O131  1  0.728402  0.006177  0.372924  1
  O  O132  1  0.056920  0.113350  0.113171  1
  O  O133  1  0.692107  0.704900  0.567017  1
  O  O134  1  0.287441  0.895559  0.810945  1
  O  O135  1  0.458838  0.544385  0.575785  1
  F  F136  1  0.137826  0.779614  0.088493  1
  F  F137  1  0.690921  0.288381  0.246027  1
  F  F138  1  0.988783  0.850191  0.053696  1
  F  F139  1  0.011217  0.149809  0.946304  1
  F  F140  1  0.976359  0.800734  0.158859  1
  F  F141  1  0.862174  0.220386  0.911507  1
  F  F142  1  0.023641  0.199266  0.841141  1
  F  F143  1  0.781206  0.385119  0.381194  1
  F  F144  1  0.077339  0.649351  0.700975  1
  F  F145  1  0.218794  0.614881  0.618806  1
  F  F146  1  0.309079  0.711619  0.753973  1
  F  F147  1  0.922661  0.350649  0.299025  1
