# generated using pymatgen
data_Rh2O3
_symmetry_space_group_name_H-M   'P 1'
_cell_length_a   5.22933835
_cell_length_b   5.51363433
_cell_length_c   14.96002921
_cell_angle_alpha   90.00043121
_cell_angle_beta   89.99764338
_cell_angle_gamma   89.99983478
_symmetry_Int_Tables_number   1
_chemical_formula_structural   Rh2O3
_chemical_formula_sum   'Rh16 O24'
_cell_volume   431.33742738
_cell_formula_units_Z   8
loop_
 _symmetry_equiv_pos_site_id
 _symmetry_equiv_pos_as_xyz
  1  'x, y, z'
loop_
 _atom_site_type_symbol
 _atom_site_label
 _atom_site_symmetry_multiplicity
 _atom_site_fract_x
 _atom_site_fract_y
 _atom_site_fract_z
 _atom_site_occupancy
  Rh  Rh0  1  0.498720  0.689977  0.074868  1
  Rh  Rh1  1  0.001300  0.309986  0.574855  1
  Rh  Rh2  1  0.501307  0.236308  0.678686  1
  Rh  Rh3  1  0.498706  0.736255  0.821313  1
  Rh  Rh4  1  0.998676  0.763779  0.178690  1
  Rh  Rh5  1  0.001320  0.263823  0.321311  1
  Rh  Rh6  1  0.501290  0.263731  0.178687  1
  Rh  Rh7  1  0.498693  0.763684  0.321312  1
  Rh  Rh8  1  0.998696  0.810012  0.925150  1
  Rh  Rh9  1  0.498740  0.810037  0.574858  1
  Rh  Rh10  1  0.998698  0.690012  0.425148  1
  Rh  Rh11  1  0.501268  0.189977  0.425143  1
  Rh  Rh12  1  0.998672  0.736186  0.678694  1
  Rh  Rh13  1  0.001322  0.236227  0.821308  1
  Rh  Rh14  1  0.001293  0.190001  0.074847  1
  Rh  Rh15  1  0.501280  0.310006  0.925132  1
  O  O16  1  0.801588  0.479952  0.123595  1
  O  O17  1  0.148957  0.848873  0.052621  1
  O  O18  1  0.642080  0.127823  0.297242  1
  O  O19  1  0.301599  0.479905  0.376394  1
  O  O20  1  0.357863  0.872148  0.702750  1
  O  O21  1  0.301508  0.020249  0.876391  1
  O  O22  1  0.148944  0.651098  0.552606  1
  O  O23  1  0.351038  0.151122  0.552602  1
  O  O24  1  0.142074  0.127784  0.202764  1
  O  O25  1  0.648955  0.848877  0.447386  1
  O  O26  1  0.698459  0.520140  0.623605  1
  O  O27  1  0.198378  0.520013  0.876408  1
  O  O28  1  0.142067  0.372140  0.702781  1
  O  O29  1  0.851050  0.151149  0.947371  1
  O  O30  1  0.648949  0.651070  0.947415  1
  O  O31  1  0.351055  0.348906  0.052590  1
  O  O32  1  0.851046  0.348907  0.447406  1
  O  O33  1  0.357860  0.627925  0.202770  1
  O  O34  1  0.642192  0.372047  0.797246  1
  O  O35  1  0.801594  0.020137  0.623588  1
  O  O36  1  0.698454  0.979776  0.123604  1
  O  O37  1  0.198462  0.979822  0.376413  1
  O  O38  1  0.857971  0.872243  0.797223  1
  O  O39  1  0.857876  0.627890  0.297226  1
