# generated using pymatgen
data_Na6MgAl4Si13O36
_symmetry_space_group_name_H-M   'P 1'
_cell_length_a   5.29615273
_cell_length_b   19.34582933
_cell_length_c   14.97639772
_cell_angle_alpha   25.37206842
_cell_angle_beta   72.77846732
_cell_angle_gamma   76.75016768
_symmetry_Int_Tables_number   1
_chemical_formula_structural   Na6MgAl4Si13O36
_chemical_formula_sum   'Na6 Mg1 Al4 Si13 O36'
_cell_volume   625.27195245
_cell_formula_units_Z   1
loop_
 _symmetry_equiv_pos_site_id
 _symmetry_equiv_pos_as_xyz
  1  'x, y, z'
loop_
 _atom_site_type_symbol
 _atom_site_label
 _atom_site_symmetry_multiplicity
 _atom_site_fract_x
 _atom_site_fract_y
 _atom_site_fract_z
 _atom_site_occupancy
  Na  Na0  1  0.250000  0.035892  0.297441  1
  Na  Na1  1  0.250517  0.364789  0.302783  1
  Na  Na2  1  0.249483  0.699026  0.300070  1
  Na  Na3  1  0.750196  0.296654  0.705459  1
  Na  Na4  1  0.750000  0.635868  0.697465  1
  Na  Na5  1  0.749804  0.965434  0.699120  1
  Mg  Mg6  1  0.750000  0.238127  0.095206  1
  Al  Al7  1  0.248782  0.093719  0.907034  1
  Al  Al8  1  0.748646  0.569696  0.097708  1
  Al  Al9  1  0.251218  0.761138  0.904777  1
  Al  Al10  1  0.751354  0.903766  0.095496  1
  Si  Si11  1  0.265605  0.147047  0.378455  1
  Si  Si12  1  0.230290  0.002660  0.803225  1
  Si  Si13  1  0.269710  0.475213  0.385567  1
  Si  Si14  1  0.234395  0.339216  0.801949  1
  Si  Si15  1  0.268318  0.806333  0.389264  1
  Si  Si16  1  0.777227  0.332241  0.194697  1
  Si  Si17  1  0.250000  0.429078  0.904255  1
  Si  Si18  1  0.231682  0.668595  0.802475  1
  Si  Si19  1  0.728401  0.188811  0.617821  1
  Si  Si20  1  0.771599  0.662110  0.197924  1
  Si  Si21  1  0.722773  0.525845  0.613884  1
  Si  Si22  1  0.769160  0.994297  0.197346  1
  Si  Si23  1  0.730840  0.852606  0.622419  1
  O  O24  1  0.008107  0.109460  0.655914  1
  O  O25  1  0.342671  0.234681  0.171070  1
  O  O26  1  0.003176  0.443851  0.661167  1
  O  O27  1  0.202495  0.282079  0.627768  1
  O  O28  1  0.701521  0.143097  0.090121  1
  O  O29  1  0.369694  0.552100  0.188073  1
  O  O30  1  0.496824  0.215535  0.346114  1
  O  O31  1  0.874013  0.034196  0.036616  1
  O  O32  1  0.007074  0.770203  0.660306  1
  O  O33  1  0.157329  0.307099  0.953817  1
  O  O34  1  0.508731  0.125141  0.638558  1
  O  O35  1  0.292405  0.192450  0.900962  1
  O  O36  1  0.192154  0.611589  0.637240  1
  O  O37  1  0.798479  0.042982  0.390467  1
  O  O38  1  0.701079  0.474820  0.101791  1
  O  O39  1  0.370964  0.883183  0.191116  1
  O  O40  1  0.491893  0.541499  0.359794  1
  O  O41  1  0.901291  0.386994  0.018647  1
  O  O42  1  0.129036  0.624150  0.968217  1
  O  O43  1  0.511721  0.463753  0.629632  1
  O  O44  1  0.624663  0.109716  0.818142  1
  O  O45  1  0.307846  0.527086  0.890752  1
  O  O46  1  0.207595  0.952529  0.620724  1
  O  O47  1  0.795298  0.382283  0.376782  1
  O  O48  1  0.704702  0.808016  0.099586  1
  O  O49  1  0.492926  0.867380  0.368777  1
  O  O50  1  0.875337  0.704241  0.034568  1
  O  O51  1  0.988279  0.223805  0.349476  1
  O  O52  1  0.130306  0.958940  0.967555  1
  O  O53  1  0.509627  0.788630  0.643252  1
  O  O54  1  0.598709  0.459301  0.801725  1
  O  O55  1  0.297505  0.858592  0.898228  1
  O  O56  1  0.798921  0.718098  0.371957  1
  O  O57  1  0.991269  0.555507  0.347461  1
  O  O58  1  0.625987  0.771676  0.824178  1
  O  O59  1  0.990373  0.887178  0.347606  1
