# generated using pymatgen
data_In11(SbO8)3
_symmetry_space_group_name_H-M   'P 1'
_cell_length_a   12.62803023
_cell_length_b   8.17444641
_cell_length_c   8.24287962
_cell_angle_alpha   71.94763271
_cell_angle_beta   49.70819862
_cell_angle_gamma   49.50867352
_symmetry_Int_Tables_number   1
_chemical_formula_structural   In11(SbO8)3
_chemical_formula_sum   'In11 Sb3 O24'
_cell_volume   484.62644806
_cell_formula_units_Z   1
loop_
 _symmetry_equiv_pos_site_id
 _symmetry_equiv_pos_as_xyz
  1  'x, y, z'
loop_
 _atom_site_type_symbol
 _atom_site_label
 _atom_site_symmetry_multiplicity
 _atom_site_fract_x
 _atom_site_fract_y
 _atom_site_fract_z
 _atom_site_occupancy
  In  In0  1  0.081728  0.308801  0.138317  1
  In  In1  1  0.109316  0.604373  0.316219  1
  In  In2  1  0.280789  0.142661  0.610591  1
  In  In3  1  0.210412  0.862144  0.396569  1
  In  In4  1  0.577673  0.309909  0.134797  1
  In  In5  1  0.388490  0.393161  0.690726  1
  In  In6  1  0.420917  0.688480  0.867762  1
  In  In7  1  0.787783  0.138460  0.602896  1
  In  In8  1  0.716073  0.870229  0.391927  1
  In  In9  1  0.891068  0.396466  0.677955  1
  In  In10  1  0.922209  0.686956  0.859460  1
  Sb  Sb11  1  0.001837  0.999142  0.000690  1
  Sb  Sb12  1  0.504337  0.995735  0.995586  1
  Sb  Sb13  1  0.605411  0.605764  0.323484  1
  O  O14  1  0.077582  0.051757  0.701512  1
  O  O15  1  0.281003  0.301697  0.094443  1
  O  O16  1  0.084300  0.417749  0.586838  1
  O  O17  1  0.135611  0.086214  0.951808  1
  O  O18  1  0.002889  0.822773  0.580352  1
  O  O19  1  0.327276  0.589214  0.181676  1
  O  O20  1  0.165356  0.416532  0.832907  1
  O  O21  1  0.491382  0.184181  0.424983  1
  O  O22  1  0.367901  0.911935  0.047439  1
  O  O23  1  0.421496  0.591564  0.408824  1
  O  O24  1  0.583959  0.050841  0.693311  1
  O  O25  1  0.227512  0.689214  0.906704  1
  O  O26  1  0.767612  0.321451  0.108693  1
  O  O27  1  0.434318  0.929237  0.300988  1
  O  O28  1  0.595257  0.420690  0.562165  1
  O  O29  1  0.634536  0.085774  0.949528  1
  O  O30  1  0.503711  0.811798  0.570517  1
  O  O31  1  0.812454  0.590197  0.182334  1
  O  O32  1  0.672081  0.409076  0.821885  1
  O  O33  1  0.997381  0.177287  0.419024  1
  O  O34  1  0.863765  0.917050  0.049328  1
  O  O35  1  0.916273  0.581542  0.402074  1
  O  O36  1  0.722248  0.687576  0.911553  1
  O  O37  1  0.916054  0.952373  0.304134  1
