# generated using pymatgen
data_Sc2(Ni7B2)3
_symmetry_space_group_name_H-M   'P 1'
_cell_length_a   7.45857643
_cell_length_b   7.45860572
_cell_length_c   7.45870567
_cell_angle_alpha   60.00060208
_cell_angle_beta   59.99752278
_cell_angle_gamma   60.00107089
_symmetry_Int_Tables_number   1
_chemical_formula_structural   Sc2(Ni7B2)3
_chemical_formula_sum   'Sc2 Ni21 B6'
_cell_volume   293.39953795
_cell_formula_units_Z   1
loop_
 _symmetry_equiv_pos_site_id
 _symmetry_equiv_pos_as_xyz
  1  'x, y, z'
loop_
 _atom_site_type_symbol
 _atom_site_label
 _atom_site_symmetry_multiplicity
 _atom_site_fract_x
 _atom_site_fract_y
 _atom_site_fract_z
 _atom_site_occupancy
  Sc  Sc0  1  0.250020  0.250011  0.250000  1
  Sc  Sc1  1  0.749986  0.750007  0.749983  1
  Ni  Ni2  1  0.385671  0.385670  0.842987  1
  Ni  Ni3  1  0.000003  0.000002  0.661178  1
  Ni  Ni4  1  0.000001  0.338828  0.661176  1
  Ni  Ni5  1  0.614331  0.156998  0.614334  1
  Ni  Ni6  1  0.614332  0.614328  0.157000  1
  Ni  Ni7  1  0.661172  0.000002  0.338831  1
  Ni  Ni8  1  -0.000000  0.661162  0.338842  1
  Ni  Ni9  1  0.385675  0.842992  0.385670  1
  Ni  Ni10  1  0.338828  0.000001  0.661172  1
  Ni  Ni11  1  0.999998  0.338825  0.000002  1
  Ni  Ni12  1  0.614335  0.614332  0.614329  1
  Ni  Ni13  1  0.661168  0.338834  0.000004  1
  Ni  Ni14  1  0.999994  0.000002  0.338821  1
  Ni  Ni15  1  0.338828  0.661169  -0.000001  1
  Ni  Ni16  1  -0.000000  0.661169  0.000003  1
  Ni  Ni17  1  0.338818  0.000007  0.999992  1
  Ni  Ni18  1  0.842990  0.385677  0.385665  1
  Ni  Ni19  1  0.157010  0.614325  0.614325  1
  Ni  Ni20  1  0.661176  -0.000002  0.000002  1
  Ni  Ni21  1  0.999991  0.000000  0.000010  1
  Ni  Ni22  1  0.385673  0.385671  0.385669  1
  B  B23  1  0.730515  0.269484  0.730528  1
  B  B24  1  0.269475  0.730506  0.269482  1
  B  B25  1  0.269484  0.730518  0.730526  1
  B  B26  1  0.730518  0.269481  0.269470  1
  B  B27  1  0.730531  0.730521  0.269481  1
  B  B28  1  0.269476  0.269480  0.730518  1
