# generated using pymatgen
data_Fe4Te2(CO)11
_symmetry_space_group_name_H-M   'P 1'
_cell_length_a   6.90570338
_cell_length_b   15.90082013
_cell_length_c   17.49652989
_cell_angle_alpha   90.00000000
_cell_angle_beta   90.00000000
_cell_angle_gamma   90.00000000
_symmetry_Int_Tables_number   1
_chemical_formula_structural   Fe4Te2(CO)11
_chemical_formula_sum   'Fe16 Te8 C44 O44'
_cell_volume   1921.23003794
_cell_formula_units_Z   4
loop_
 _symmetry_equiv_pos_site_id
 _symmetry_equiv_pos_as_xyz
  1  'x, y, z'
loop_
 _atom_site_type_symbol
 _atom_site_label
 _atom_site_symmetry_multiplicity
 _atom_site_fract_x
 _atom_site_fract_y
 _atom_site_fract_z
 _atom_site_occupancy
  Fe  Fe0  1  0.181517  0.325049  0.154577  1
  Fe  Fe1  1  0.325662  0.334127  0.808674  1
  Fe  Fe2  1  0.174338  0.165873  0.808674  1
  Fe  Fe3  1  0.318483  0.325049  0.654577  1
  Fe  Fe4  1  0.181517  0.174951  0.654577  1
  Fe  Fe5  1  0.825662  0.834127  0.191326  1
  Fe  Fe6  1  0.818483  0.674951  0.845423  1
  Fe  Fe7  1  0.174338  0.334127  0.308674  1
  Fe  Fe8  1  0.818483  0.825049  0.345423  1
  Fe  Fe9  1  0.318483  0.174951  0.154577  1
  Fe  Fe10  1  0.674338  0.665873  0.191326  1
  Fe  Fe11  1  0.825662  0.665873  0.691326  1
  Fe  Fe12  1  0.325662  0.165873  0.308674  1
  Fe  Fe13  1  0.681517  0.825049  0.845423  1
  Fe  Fe14  1  0.681517  0.674951  0.345423  1
  Fe  Fe15  1  0.674338  0.834127  0.691326  1
  Te  Te16  1  0.489041  0.209201  0.738976  1
  Te  Te17  1  0.510959  0.709201  0.761024  1
  Te  Te18  1  0.489041  0.290799  0.238976  1
  Te  Te19  1  0.010959  0.209201  0.238976  1
  Te  Te20  1  0.510959  0.790799  0.261024  1
  Te  Te21  1  0.010959  0.290799  0.738976  1
  Te  Te22  1  0.989041  0.709201  0.261024  1
  Te  Te23  1  0.989041  0.790799  0.761024  1
  C  C24  1  0.700652  0.587504  0.890158  1
  C  C25  1  0.455099  0.645229  0.387635  1
  C  C26  1  0.479539  0.830550  0.623879  1
  C  C27  1  0.200652  0.412496  0.609842  1
  C  C28  1  0.979539  0.330550  0.376121  1
  C  C29  1  0.598675  0.573975  0.240613  1
  C  C30  1  0.044901  0.645229  0.887635  1
  C  C31  1  0.955099  0.145229  0.612365  1
  C  C32  1  0.825580  0.614775  0.122340  1
  C  C33  1  0.020461  0.830550  0.123879  1
  C  C34  1  0.799348  0.912496  0.890158  1
  C  C35  1  0.901325  0.573975  0.740613  1
  C  C36  1  0.401325  0.426025  0.759387  1
  C  C37  1  0.544901  0.145229  0.112365  1
  C  C38  1  0.598675  0.926025  0.740613  1
  C  C39  1  0.098675  0.073975  0.759387  1
  C  C40  1  0.325580  0.114775  0.877660  1
  C  C41  1  0.020461  0.669450  0.623879  1
  C  C42  1  0.299348  0.412496  0.109842  1
  C  C43  1  0.750000  0.750000  0.427490  1
  C  C44  1  0.674420  0.614775  0.622340  1
  C  C45  1  0.174420  0.114775  0.377660  1
  C  C46  1  0.174420  0.385225  0.877660  1
  C  C47  1  0.250000  0.250000  0.572510  1
  C  C48  1  0.544901  0.354771  0.612365  1
  C  C49  1  0.325580  0.385225  0.377660  1
  C  C50  1  0.520461  0.169450  0.376121  1
  C  C51  1  0.455099  0.854771  0.887635  1
  C  C52  1  0.044901  0.854771  0.387635  1
  C  C53  1  0.979539  0.169450  0.876121  1
  C  C54  1  0.200652  0.087504  0.109842  1
  C  C55  1  0.401325  0.073975  0.259387  1
  C  C56  1  0.901325  0.926025  0.240613  1
  C  C57  1  0.479539  0.669450  0.123879  1
  C  C58  1  0.825580  0.885225  0.622340  1
  C  C59  1  0.700652  0.912496  0.390158  1
  C  C60  1  0.674420  0.885225  0.122340  1
  C  C61  1  0.299348  0.087504  0.609842  1
  C  C62  1  0.799348  0.587504  0.390158  1
  C  C63  1  0.250000  0.250000  0.072510  1
  C  C64  1  0.750000  0.750000  0.927490  1
  C  C65  1  0.520461  0.330550  0.876121  1
  C  C66  1  0.098675  0.426025  0.259387  1
  C  C67  1  0.955099  0.354771  0.112365  1
  O  O68  1  0.309252  0.626730  0.415889  1
  O  O69  1  0.190748  0.873270  0.415889  1
  O  O70  1  0.645704  0.168798  0.420278  1
  O  O71  1  0.750000  0.750000  0.495407  1
  O  O72  1  0.854296  0.168798  0.920278  1
  O  O73  1  0.250000  0.250000  0.004593  1
  O  O74  1  0.874014  0.968340  0.920842  1
  O  O75  1  0.543541  0.994179  0.754098  1
  O  O76  1  0.919306  0.580212  0.077152  1
  O  O77  1  0.956459  0.994179  0.254098  1
  O  O78  1  0.374014  0.468340  0.079158  1
  O  O79  1  0.854296  0.331202  0.420278  1
  O  O80  1  0.919306  0.919788  0.577152  1
  O  O81  1  0.456459  0.005821  0.245902  1
  O  O82  1  0.874014  0.531660  0.420842  1
  O  O83  1  0.374014  0.031660  0.579158  1
  O  O84  1  0.419306  0.419788  0.422848  1
  O  O85  1  0.080694  0.419788  0.922848  1
  O  O86  1  0.250000  0.250000  0.504593  1
  O  O87  1  0.690748  0.373270  0.584111  1
  O  O88  1  0.354296  0.831202  0.579722  1
  O  O89  1  0.354296  0.668798  0.079722  1
  O  O90  1  0.043541  0.494179  0.245902  1
  O  O91  1  0.956459  0.505821  0.754098  1
  O  O92  1  0.625986  0.531660  0.920842  1
  O  O93  1  0.580694  0.580212  0.577152  1
  O  O94  1  0.419306  0.080212  0.922848  1
  O  O95  1  0.809252  0.126730  0.584111  1
  O  O96  1  0.543541  0.505821  0.254098  1
  O  O97  1  0.809252  0.373270  0.084111  1
  O  O98  1  0.145704  0.831202  0.079722  1
  O  O99  1  0.043541  0.005821  0.745902  1
  O  O100  1  0.580694  0.919788  0.077152  1
  O  O101  1  0.456459  0.494179  0.745902  1
  O  O102  1  0.645704  0.331202  0.920278  1
  O  O103  1  0.125986  0.031660  0.079158  1
  O  O104  1  0.625986  0.968340  0.420842  1
  O  O105  1  0.080694  0.080212  0.422848  1
  O  O106  1  0.690748  0.126730  0.084111  1
  O  O107  1  0.190748  0.626730  0.915889  1
  O  O108  1  0.125986  0.468340  0.579158  1
  O  O109  1  0.145704  0.668798  0.579722  1
  O  O110  1  0.309252  0.873270  0.915889  1
  O  O111  1  0.750000  0.750000  0.995407  1
