# generated using pymatgen
data_NaPH5C2SN3O4
_symmetry_space_group_name_H-M   'P 1'
_cell_length_a   5.89869926
_cell_length_b   7.07616937
_cell_length_c   10.12734035
_cell_angle_alpha   89.78280894
_cell_angle_beta   81.70063906
_cell_angle_gamma   76.79143607
_symmetry_Int_Tables_number   1
_chemical_formula_structural   NaPH5C2SN3O4
_chemical_formula_sum   'Na2 P2 H10 C4 S2 N6 O8'
_cell_volume   407.03724100
_cell_formula_units_Z   2
loop_
 _symmetry_equiv_pos_site_id
 _symmetry_equiv_pos_as_xyz
  1  'x, y, z'
loop_
 _atom_site_type_symbol
 _atom_site_label
 _atom_site_symmetry_multiplicity
 _atom_site_fract_x
 _atom_site_fract_y
 _atom_site_fract_z
 _atom_site_occupancy
  Na  Na0  1  0.477877  0.321330  0.799443  1
  Na  Na1  1  0.522123  0.678670  0.200557  1
  P  P2  1  0.965054  0.756132  0.775564  1
  P  P3  1  0.034946  0.243868  0.224436  1
  H  H4  1  0.993749  0.081604  0.816548  1
  H  H5  1  0.006251  0.918396  0.183452  1
  H  H6  1  0.909890  0.582688  0.590656  1
  H  H7  1  0.090110  0.417312  0.409344  1
  H  H8  1  0.560806  0.136763  0.525846  1
  H  H9  1  0.439194  0.863237  0.474154  1
  H  H10  1  0.914845  0.407053  0.863065  1
  H  H11  1  0.085155  0.592947  0.136935  1
  H  H12  1  0.833305  0.322538  0.996357  1
  H  H13  1  0.166695  0.677462  0.003643  1
  C  C14  1  0.234065  0.988292  0.650557  1
  C  C15  1  0.765935  0.011708  0.349443  1
  C  C16  1  0.181335  0.711324  0.517557  1
  C  C17  1  0.818665  0.288676  0.482443  1
  S  S18  1  0.637320  0.820933  0.858695  1
  S  S19  1  0.362680  0.179067  0.141305  1
  N  N20  1  0.065671  0.963137  0.750523  1
  N  N21  1  0.934329  0.036863  0.249477  1
  N  N22  1  0.000651  0.686447  0.610324  1
  N  N23  1  0.999349  0.313553  0.389676  1
  N  N24  1  0.298563  0.851052  0.546561  1
  N  N25  1  0.701437  0.148948  0.453439  1
  O  O26  1  0.136629  0.602794  0.840663  1
  O  O27  1  0.863371  0.397206  0.159337  1
  O  O28  1  0.327190  0.131592  0.647807  1
  O  O29  1  0.672810  0.868408  0.352193  1
  O  O30  1  0.757509  0.381336  0.592005  1
  O  O31  1  0.242491  0.618664  0.407995  1
  O  O32  1  0.835980  0.304943  0.898501  1
  O  O33  1  0.164020  0.695057  0.101499  1
