# generated using pymatgen
data_Mg4Al9Cu(SiO4)9
_symmetry_space_group_name_H-M   'P 1'
_cell_length_a   9.88382228
_cell_length_b   9.83220741
_cell_length_c   9.47970891
_cell_angle_alpha   90.00000000
_cell_angle_beta   90.00000000
_cell_angle_gamma   119.61569355
_symmetry_Int_Tables_number   1
_chemical_formula_structural   Mg4Al9Cu(SiO4)9
_chemical_formula_sum   'Mg4 Al9 Cu1 Si9 O36'
_cell_volume   800.88547514
_cell_formula_units_Z   1
loop_
 _symmetry_equiv_pos_site_id
 _symmetry_equiv_pos_as_xyz
  1  'x, y, z'
loop_
 _atom_site_type_symbol
 _atom_site_label
 _atom_site_symmetry_multiplicity
 _atom_site_fract_x
 _atom_site_fract_y
 _atom_site_fract_z
 _atom_site_occupancy
  Mg  Mg0  1  0.324359  0.662044  0.251617  1
  Mg  Mg1  1  0.321735  0.660872  0.747328  1
  Mg  Mg2  1  0.675641  0.337956  0.251617  1
  Mg  Mg3  1  0.678265  0.339128  0.747328  1
  Al  Al4  1  0.104840  0.742777  0.499249  1
  Al  Al5  1  0.000000  0.500000  0.746866  1
  Al  Al6  1  0.100927  0.358891  0.997539  1
  Al  Al7  1  0.500000  0.500000  0.252659  1
  Al  Al8  1  0.500000  0.500000  0.745783  1
  Al  Al9  1  0.500000  0.000000  0.248777  1
  Al  Al10  1  0.500000  0.000000  0.748273  1
  Al  Al11  1  0.899073  0.641109  0.997539  1
  Al  Al12  1  0.895160  0.257223  0.499249  1
  Cu  Cu13  1  0.000000  0.000000  0.985769  1
  Si  Si14  1  0.273018  0.900119  0.997804  1
  Si  Si15  1  0.270157  0.374615  0.499004  1
  Si  Si16  1  0.616455  0.885231  0.497122  1
  Si  Si17  1  0.382818  0.269100  0.999273  1
  Si  Si18  1  0.617182  0.730900  0.999273  1
  Si  Si19  1  0.383545  0.114769  0.497122  1
  Si  Si20  1  0.729843  0.625385  0.499004  1
  Si  Si21  1  0.726982  0.099881  0.997804  1
  Si  Si22  1  0.000000  0.500000  0.250617  1
  O  O23  1  0.083555  0.818093  0.993653  1
  O  O24  1  0.239568  0.940870  0.488686  1
  O  O25  1  0.139577  0.655052  0.644146  1
  O  O26  1  0.126761  0.647531  0.345061  1
  O  O27  1  0.121145  0.470977  0.152479  1
  O  O28  1  0.137511  0.484422  0.856324  1
  O  O29  1  0.343078  0.861524  0.140960  1
  O  O30  1  0.347498  0.862619  0.858218  1
  O  O31  1  0.085872  0.294229  0.499283  1
  O  O32  1  0.220572  0.272723  0.002532  1
  O  O33  1  0.503019  0.854634  0.357393  1
  O  O34  1  0.511796  0.859079  0.641475  1
  O  O35  1  0.346809  0.486514  0.357701  1
  O  O36  1  0.348127  0.485917  0.639299  1
  O  O37  1  0.509551  0.648486  0.140081  1
  O  O38  1  0.513185  0.649975  0.857328  1
  O  O39  1  0.332852  0.248892  0.496389  1
  O  O40  1  0.659173  0.912528  0.999382  1
  O  O41  1  0.340827  0.087472  0.999382  1
  O  O42  1  0.667148  0.751108  0.496389  1
  O  O43  1  0.490449  0.351514  0.140081  1
  O  O44  1  0.486815  0.350025  0.857328  1
  O  O45  1  0.653191  0.513486  0.357701  1
  O  O46  1  0.651873  0.514083  0.639299  1
  O  O47  1  0.496981  0.145366  0.357393  1
  O  O48  1  0.488204  0.140921  0.641475  1
  O  O49  1  0.779428  0.727277  0.002532  1
  O  O50  1  0.914128  0.705771  0.499283  1
  O  O51  1  0.652502  0.137381  0.858218  1
  O  O52  1  0.656922  0.138476  0.140960  1
  O  O53  1  0.878855  0.529023  0.152479  1
  O  O54  1  0.862490  0.515578  0.856324  1
  O  O55  1  0.873239  0.352469  0.345061  1
  O  O56  1  0.860423  0.344948  0.644146  1
  O  O57  1  0.760432  0.059130  0.488686  1
  O  O58  1  0.916445  0.181907  0.993653  1
