# generated using pymatgen
data_MnGaNi2
_symmetry_space_group_name_H-M   'P 1'
_cell_length_a   4.21490255
_cell_length_b   5.47427988
_cell_length_c   29.34303490
_cell_angle_alpha   89.98824027
_cell_angle_beta   89.88915774
_cell_angle_gamma   90.27683169
_symmetry_Int_Tables_number   1
_chemical_formula_structural   MnGaNi2
_chemical_formula_sum   'Mn14 Ga14 Ni28'
_cell_volume   677.03898038
_cell_formula_units_Z   14
loop_
 _symmetry_equiv_pos_site_id
 _symmetry_equiv_pos_as_xyz
  1  'x, y, z'
loop_
 _atom_site_type_symbol
 _atom_site_label
 _atom_site_symmetry_multiplicity
 _atom_site_fract_x
 _atom_site_fract_y
 _atom_site_fract_z
 _atom_site_occupancy
  Mn  Mn0  1  0.448045  0.500246  0.071491  1
  Mn  Mn1  1  0.033381  0.000190  0.857060  1
  Mn  Mn2  1  0.966322  0.999797  0.143202  1
  Mn  Mn3  1  0.000842  0.000246  0.999863  1
  Mn  Mn4  1  0.553142  0.499001  0.214053  1
  Mn  Mn5  1  0.534107  0.499799  0.643011  1
  Mn  Mn6  1  0.948001  0.000099  0.428590  1
  Mn  Mn7  1  0.465322  0.499626  0.356945  1
  Mn  Mn8  1  0.053872  0.999864  0.285887  1
  Mn  Mn9  1  0.446574  0.500032  0.785863  1
  Mn  Mn10  1  0.947820  0.000496  0.714157  1
  Mn  Mn11  1  0.500084  0.500659  0.499968  1
  Mn  Mn12  1  0.052247  0.999379  0.571413  1
  Mn  Mn13  1  0.552191  0.499956  0.928700  1
  Ga  Ga14  1  0.449142  0.000066  0.071608  1
  Ga  Ga15  1  0.444435  0.999482  0.785235  1
  Ga  Ga16  1  0.499849  -0.000049  0.500003  1
  Ga  Ga17  1  0.555923  0.000893  0.214783  1
  Ga  Ga18  1  0.038008  0.499880  0.857193  1
  Ga  Ga19  1  0.999541  0.499376  0.999942  1
  Ga  Ga20  1  0.050471  0.499939  0.571638  1
  Ga  Ga21  1  0.055855  0.499907  0.285320  1
  Ga  Ga22  1  0.943835  0.500199  0.714782  1
  Ga  Ga23  1  0.537445  0.000553  0.642720  1
  Ga  Ga24  1  0.949803  0.500160  0.428363  1
  Ga  Ga25  1  0.550593  0.000024  0.928416  1
  Ga  Ga26  1  0.961510  0.499926  0.142883  1
  Ga  Ga27  1  0.462407  0.000114  0.357020  1
  Ni  Ni28  1  0.441209  0.750474  0.714237  1
  Ni  Ni29  1  0.058664  0.749775  0.214258  1
  Ni  Ni30  1  0.038404  0.749593  0.642748  1
  Ni  Ni31  1  0.441549  0.249506  0.714274  1
  Ni  Ni32  1  0.460843  0.249444  0.142745  1
  Ni  Ni33  1  0.961325  0.749483  0.357310  1
  Ni  Ni34  1  0.943223  0.250598  0.071361  1
  Ni  Ni35  1  0.941576  0.251383  0.785719  1
  Ni  Ni36  1  0.443644  0.750470  0.428579  1
  Ni  Ni37  1  0.941712  0.748996  0.785798  1
  Ni  Ni38  1  0.960783  0.250513  0.357190  1
  Ni  Ni39  1  0.058948  0.250589  0.214255  1
  Ni  Ni40  1  0.556333  0.750950  0.571261  1
  Ni  Ni41  1  0.444278  0.249445  0.428631  1
  Ni  Ni42  1  0.943948  0.749294  0.071321  1
  Ni  Ni43  1  0.056906  0.749238  0.928736  1
  Ni  Ni44  1  0.056321  0.250603  0.928654  1
  Ni  Ni45  1  0.000007  0.749831  0.500094  1
  Ni  Ni46  1  0.538293  0.750103  0.857254  1
  Ni  Ni47  1  0.557115  0.249074  0.571264  1
  Ni  Ni48  1  0.038565  0.250601  0.642633  1
  Ni  Ni49  1  0.460726  0.750219  0.142829  1
  Ni  Ni50  1  0.559008  0.749844  0.285747  1
  Ni  Ni51  1  0.558316  0.249950  0.285680  1
  Ni  Ni52  1  0.999472  0.249982  0.499959  1
  Ni  Ni53  1  0.538319  0.250414  0.857268  1
  Ni  Ni54  1  0.499569  0.750142  0.000071  1
  Ni  Ni55  1  0.500173  0.249625  0.000013  1
