# generated using pymatgen
data_Sn(PCl6)4
_symmetry_space_group_name_H-M   'P 1'
_cell_length_a   14.51932900
_cell_length_b   15.10885876
_cell_length_c   15.18676356
_cell_angle_alpha   90.00000000
_cell_angle_beta   90.00000000
_cell_angle_gamma   90.00000000
_symmetry_Int_Tables_number   1
_chemical_formula_structural   Sn(PCl6)4
_chemical_formula_sum   'Sn4 P16 Cl96'
_cell_volume   3331.52778115
_cell_formula_units_Z   4
loop_
 _symmetry_equiv_pos_site_id
 _symmetry_equiv_pos_as_xyz
  1  'x, y, z'
loop_
 _atom_site_type_symbol
 _atom_site_label
 _atom_site_symmetry_multiplicity
 _atom_site_fract_x
 _atom_site_fract_y
 _atom_site_fract_z
 _atom_site_occupancy
  Sn  Sn0  1  0.000000  0.874259  0.743130  1
  Sn  Sn1  1  0.500000  0.242872  0.374611  1
  Sn  Sn2  1  0.500000  0.257128  0.874611  1
  Sn  Sn3  1  0.000000  0.625741  0.243130  1
  P  P4  1  0.000000  0.375513  0.757193  1
  P  P5  1  0.250119  0.000170  0.999887  1
  P  P6  1  0.250677  0.127610  0.627406  1
  P  P7  1  0.250119  0.499830  0.499887  1
  P  P8  1  0.249191  0.873594  0.373169  1
  P  P9  1  0.250677  0.372390  0.127406  1
  P  P10  1  0.249191  0.626406  0.873169  1
  P  P11  1  0.500000  0.742878  0.124866  1
  P  P12  1  0.500000  0.757122  0.624866  1
  P  P13  1  0.749881  0.000170  0.999887  1
  P  P14  1  0.749323  0.372390  0.127406  1
  P  P15  1  0.750809  0.626406  0.873169  1
  P  P16  1  0.749323  0.127610  0.627406  1
  P  P17  1  0.750809  0.873594  0.373169  1
  P  P18  1  0.749881  0.499830  0.499887  1
  P  P19  1  0.000000  0.124487  0.257193  1
  Cl  Cl20  1  0.000000  0.528901  0.110627  1
  Cl  Cl21  1  0.000000  0.493029  0.341850  1
  Cl  Cl22  1  0.000000  0.288318  0.641814  1
  Cl  Cl23  1  0.000000  0.260152  0.843987  1
  Cl  Cl24  1  0.000000  0.742242  0.642670  1
  Cl  Cl25  1  0.000000  0.971099  0.610627  1
  Cl  Cl26  1  0.000000  0.778156  0.875902  1
  Cl  Cl27  1  0.148647  0.125328  0.257646  1
  Cl  Cl28  1  0.148647  0.374672  0.757646  1
  Cl  Cl29  1  0.169286  0.626023  0.242325  1
  Cl  Cl30  1  0.169286  0.873977  0.742325  1
  Cl  Cl31  1  0.171863  0.105374  0.994555  1
  Cl  Cl32  1  0.171863  0.394626  0.494555  1
  Cl  Cl33  1  0.170828  0.604672  0.505000  1
  Cl  Cl34  1  0.170828  0.895328  0.005000  1
  Cl  Cl35  1  0.169533  0.125861  0.730023  1
  Cl  Cl36  1  0.169533  0.374139  0.230023  1
  Cl  Cl37  1  0.169106  0.870836  0.269663  1
  Cl  Cl38  1  0.169106  0.629164  0.769663  1
  Cl  Cl39  1  0.172370  0.625959  0.979521  1
  Cl  Cl40  1  0.173541  0.128650  0.521091  1
  Cl  Cl41  1  0.173541  0.371350  0.021091  1
  Cl  Cl42  1  0.172370  0.874041  0.479521  1
  Cl  Cl43  1  0.327291  0.979820  0.372517  1
  Cl  Cl44  1  0.326817  0.020385  0.626921  1
  Cl  Cl45  1  0.326817  0.479615  0.126921  1
  Cl  Cl46  1  0.327291  0.520180  0.872517  1
  Cl  Cl47  1  0.331698  0.269329  0.127780  1
  Cl  Cl48  1  0.331698  0.230671  0.627780  1
  Cl  Cl49  1  0.329530  0.769354  0.372965  1
  Cl  Cl50  1  0.329530  0.730646  0.872965  1
  Cl  Cl51  1  0.329573  0.503727  0.396013  1
  Cl  Cl52  1  0.328040  0.493471  0.605139  1
  Cl  Cl53  1  0.328040  0.006529  0.105139  1
  Cl  Cl54  1  0.329573  0.996273  0.896013  1
  Cl  Cl55  1  0.330611  0.257811  0.873796  1
  Cl  Cl56  1  0.351438  0.742417  0.125370  1
  Cl  Cl57  1  0.330611  0.242189  0.373796  1
  Cl  Cl58  1  0.351438  0.757583  0.625370  1
  Cl  Cl59  1  0.500000  0.109725  0.471684  1
  Cl  Cl60  1  0.500000  0.342114  0.505034  1
  Cl  Cl61  1  0.500000  0.390275  0.971684  1
  Cl  Cl62  1  0.500000  0.139991  0.245401  1
  Cl  Cl63  1  0.500000  0.376912  0.278235  1
  Cl  Cl64  1  0.500000  0.123088  0.778235  1
  Cl  Cl65  1  0.500000  0.157886  0.005034  1
  Cl  Cl66  1  0.500000  0.360009  0.745401  1
  Cl  Cl67  1  0.500000  0.627826  0.038674  1
  Cl  Cl68  1  0.500000  0.655267  0.239636  1
  Cl  Cl69  1  0.500000  0.830795  0.009866  1
  Cl  Cl70  1  0.500000  0.858617  0.211009  1
  Cl  Cl71  1  0.500000  0.641383  0.711009  1
  Cl  Cl72  1  0.500000  0.844733  0.739636  1
  Cl  Cl73  1  0.500000  0.669205  0.509866  1
  Cl  Cl74  1  0.500000  0.872174  0.538674  1
  Cl  Cl75  1  0.669389  0.242189  0.373796  1
  Cl  Cl76  1  0.648562  0.757583  0.625370  1
  Cl  Cl77  1  0.669389  0.257811  0.873796  1
  Cl  Cl78  1  0.648562  0.742417  0.125370  1
  Cl  Cl79  1  0.671960  0.006529  0.105139  1
  Cl  Cl80  1  0.670427  0.996273  0.896013  1
  Cl  Cl81  1  0.671960  0.493471  0.605139  1
  Cl  Cl82  1  0.670427  0.503727  0.396013  1
  Cl  Cl83  1  0.668302  0.230671  0.627780  1
  Cl  Cl84  1  0.668302  0.269329  0.127780  1
  Cl  Cl85  1  0.670470  0.730646  0.872965  1
  Cl  Cl86  1  0.670470  0.769354  0.372965  1
  Cl  Cl87  1  0.673183  0.479615  0.126921  1
  Cl  Cl88  1  0.672709  0.520180  0.872517  1
  Cl  Cl89  1  0.672709  0.979820  0.372517  1
  Cl  Cl90  1  0.673183  0.020385  0.626921  1
  Cl  Cl91  1  0.826459  0.128650  0.521091  1
  Cl  Cl92  1  0.827630  0.625959  0.979521  1
  Cl  Cl93  1  0.827630  0.874041  0.479521  1
  Cl  Cl94  1  0.826459  0.371350  0.021091  1
  Cl  Cl95  1  0.830467  0.125861  0.730023  1
  Cl  Cl96  1  0.830467  0.374139  0.230023  1
  Cl  Cl97  1  0.830894  0.629164  0.769663  1
  Cl  Cl98  1  0.830894  0.870836  0.269663  1
  Cl  Cl99  1  0.828137  0.105374  0.994555  1
  Cl  Cl100  1  0.828137  0.394626  0.494555  1
  Cl  Cl101  1  0.829172  0.604672  0.505000  1
  Cl  Cl102  1  0.829172  0.895328  0.005000  1
  Cl  Cl103  1  0.851353  0.125328  0.257646  1
  Cl  Cl104  1  0.851353  0.374672  0.757646  1
  Cl  Cl105  1  0.830714  0.626023  0.242325  1
  Cl  Cl106  1  0.830714  0.873977  0.742325  1
  Cl  Cl107  1  0.000000  0.009554  0.170249  1
  Cl  Cl108  1  0.000000  0.037920  0.371989  1
  Cl  Cl109  1  0.000000  0.211682  0.141814  1
  Cl  Cl110  1  0.000000  0.239848  0.343987  1
  Cl  Cl111  1  0.000000  0.462080  0.871989  1
  Cl  Cl112  1  0.000000  0.490446  0.670249  1
  Cl  Cl113  1  0.000000  0.721844  0.375902  1
  Cl  Cl114  1  0.000000  0.757758  0.142670  1
  Cl  Cl115  1  0.000000  0.006971  0.841850  1
