# generated using pymatgen
data_K3Yb(SO4)3
_symmetry_space_group_name_H-M   'P 1'
_cell_length_a   9.61215277
_cell_length_b   9.61215307
_cell_length_c   9.48336265
_cell_angle_alpha   108.80676212
_cell_angle_beta   108.80676283
_cell_angle_gamma   111.09967885
_symmetry_Int_Tables_number   1
_chemical_formula_structural   K3Yb(SO4)3
_chemical_formula_sum   'K6 Yb2 S6 O24'
_cell_volume   671.72434262
_cell_formula_units_Z   2
loop_
 _symmetry_equiv_pos_site_id
 _symmetry_equiv_pos_as_xyz
  1  'x, y, z'
loop_
 _atom_site_type_symbol
 _atom_site_label
 _atom_site_symmetry_multiplicity
 _atom_site_fract_x
 _atom_site_fract_y
 _atom_site_fract_z
 _atom_site_occupancy
  Yb  Yb0  1  0.645727  0.347468  0.493000  1
  Yb  Yb1  1  0.347468  0.645727  0.993000  1
  K  K2  1  0.077022  0.578680  0.368997  1
  K  K3  1  0.578680  0.077022  0.868997  1
  K  K4  1  0.780688  0.682106  0.022162  1
  K  K5  1  0.682106  0.780688  0.522162  1
  K  K6  1  0.181838  0.198417  0.691286  1
  K  K7  1  0.198417  0.181838  0.191286  1
  S  S8  1  0.003211  0.323086  0.900375  1
  S  S9  1  0.707191  0.026436  0.311076  1
  S  S10  1  0.428629  0.564389  0.640547  1
  S  S11  1  0.026436  0.707191  0.811076  1
  S  S12  1  0.564389  0.428629  0.140547  1
  S  S13  1  0.323086  0.003211  0.400375  1
  O  O14  1  0.527470  0.566422  0.129245  1
  O  O15  1  0.666546  0.277614  0.717361  1
  O  O16  1  0.435204  0.982989  0.534264  1
  O  O17  1  0.913956  0.604020  0.619313  1
  O  O18  1  0.604020  0.913956  0.119313  1
  O  O19  1  0.277614  0.666546  0.217361  1
  O  O20  1  0.414322  0.547387  0.788515  1
  O  O21  1  0.156211  0.834142  0.275642  1
  O  O22  1  0.412476  0.060752  0.308659  1
  O  O23  1  0.262939  0.441525  0.480345  1
  O  O24  1  0.834142  0.156211  0.775642  1
  O  O25  1  0.441525  0.262939  0.980345  1
  O  O26  1  0.990513  0.841504  0.890945  1
  O  O27  1  0.060752  0.412476  0.808659  1
  O  O28  1  0.743867  0.485650  0.177193  1
  O  O29  1  0.841504  0.990513  0.390945  1
  O  O30  1  0.566422  0.527470  0.629245  1
  O  O31  1  0.281714  0.132788  0.476365  1
  O  O32  1  0.982989  0.435204  0.034264  1
  O  O33  1  0.211248  0.771853  0.864709  1
  O  O34  1  0.132788  0.281714  0.976365  1
  O  O35  1  0.771853  0.211248  0.364709  1
  O  O36  1  0.485650  0.743867  0.677193  1
  O  O37  1  0.547387  0.414322  0.288515  1
