# generated using pymatgen
data_FeH14C3Br3NO2
_symmetry_space_group_name_H-M   'P 1'
_cell_length_a   7.64393828
_cell_length_b   8.58082007
_cell_length_c   17.46535018
_cell_angle_alpha   90.00000000
_cell_angle_beta   90.00000000
_cell_angle_gamma   90.00000000
_symmetry_Int_Tables_number   1
_chemical_formula_structural   FeH14C3Br3NO2
_chemical_formula_sum   'Fe4 H56 C12 Br12 N4 O8'
_cell_volume   1145.57430730
_cell_formula_units_Z   4
loop_
 _symmetry_equiv_pos_site_id
 _symmetry_equiv_pos_as_xyz
  1  'x, y, z'
loop_
 _atom_site_type_symbol
 _atom_site_label
 _atom_site_symmetry_multiplicity
 _atom_site_fract_x
 _atom_site_fract_y
 _atom_site_fract_z
 _atom_site_occupancy
  Fe  Fe0  1  0.000000  0.000000  0.000000  1
  Fe  Fe1  1  0.000000  0.500000  0.500000  1
  Fe  Fe2  1  0.500000  0.000000  0.000000  1
  Fe  Fe3  1  0.500000  0.500000  0.500000  1
  H  H4  1  0.593292  0.876126  0.766645  1
  H  H5  1  0.602289  0.799071  0.519938  1
  H  H6  1  0.406708  0.123874  0.233355  1
  H  H7  1  0.602289  0.700929  0.019938  1
  H  H8  1  0.250000  0.259559  0.631037  1
  H  H9  1  0.250000  0.532579  0.221951  1
  H  H10  1  0.414588  0.309805  0.280917  1
  H  H11  1  0.093292  0.123874  0.233355  1
  H  H12  1  0.973215  0.218477  0.690847  1
  H  H13  1  0.397711  0.200929  0.480062  1
  H  H14  1  0.750000  0.467421  0.778049  1
  H  H15  1  0.473215  0.781523  0.309153  1
  H  H16  1  0.906708  0.876126  0.766645  1
  H  H17  1  0.433803  0.697740  0.968283  1
  H  H18  1  0.473215  0.718477  0.809153  1
  H  H19  1  0.132313  0.500555  0.134087  1
  H  H20  1  0.750000  0.759559  0.868963  1
  H  H21  1  0.867687  0.000555  0.365912  1
  H  H22  1  0.526785  0.281523  0.190847  1
  H  H23  1  0.132313  0.999445  0.634088  1
  H  H24  1  0.026785  0.781523  0.309153  1
  H  H25  1  0.250000  0.967421  0.721951  1
  H  H26  1  0.973215  0.281523  0.190847  1
  H  H27  1  0.250000  0.240441  0.131037  1
  H  H28  1  0.093292  0.376126  0.733355  1
  H  H29  1  0.102289  0.299071  0.980062  1
  H  H30  1  0.632313  0.499445  0.865912  1
  H  H31  1  0.632313  0.000555  0.365912  1
  H  H32  1  0.414588  0.190195  0.780917  1
  H  H33  1  0.406708  0.376126  0.733355  1
  H  H34  1  0.566197  0.302260  0.031717  1
  H  H35  1  0.906708  0.623874  0.266645  1
  H  H36  1  0.897711  0.799071  0.519938  1
  H  H37  1  0.750000  0.032579  0.278049  1
  H  H38  1  0.914588  0.809805  0.219083  1
  H  H39  1  0.585412  0.690195  0.719083  1
  H  H40  1  0.750000  0.740441  0.368963  1
  H  H41  1  0.066197  0.697740  0.968283  1
  H  H42  1  0.367687  0.500555  0.134087  1
  H  H43  1  0.593292  0.623874  0.266645  1
  H  H44  1  0.085412  0.190195  0.780917  1
  H  H45  1  0.933803  0.302260  0.031717  1
  H  H46  1  0.566197  0.197740  0.531717  1
  H  H47  1  0.526785  0.218477  0.690847  1
  H  H48  1  0.085412  0.309805  0.280917  1
  H  H49  1  0.914588  0.690195  0.719083  1
  H  H50  1  0.066197  0.802260  0.468283  1
  H  H51  1  0.433803  0.802260  0.468283  1
  H  H52  1  0.867687  0.499445  0.865912  1
  H  H53  1  0.102289  0.200929  0.480062  1
  H  H54  1  0.897711  0.700929  0.019938  1
  H  H55  1  0.933803  0.197740  0.531717  1
  H  H56  1  0.397711  0.299071  0.980062  1
  H  H57  1  0.367687  0.999445  0.634088  1
  H  H58  1  0.585412  0.809805  0.219083  1
  H  H59  1  0.026785  0.718477  0.809153  1
  C  C60  1  0.750000  0.970983  0.333090  1
  C  C61  1  0.588028  0.749587  0.774821  1
  C  C62  1  0.250000  0.029017  0.666910  1
  C  C63  1  0.750000  0.529017  0.833090  1
  C  C64  1  0.911972  0.750413  0.274821  1
  C  C65  1  0.911972  0.749587  0.774821  1
  C  C66  1  0.411972  0.249587  0.725179  1
  C  C67  1  0.411972  0.250413  0.225179  1
  C  C68  1  0.088028  0.249587  0.725179  1
  C  C69  1  0.250000  0.470983  0.166910  1
  C  C70  1  0.088028  0.250413  0.225179  1
  C  C71  1  0.588028  0.750413  0.274821  1
  Br  Br72  1  0.750000  0.500450  0.604371  1
  Br  Br73  1  0.750000  0.072427  0.896704  1
  Br  Br74  1  0.250000  0.000450  0.895629  1
  Br  Br75  1  0.750000  0.497865  0.081250  1
  Br  Br76  1  0.750000  0.999550  0.104371  1
  Br  Br77  1  0.250000  0.502135  0.918750  1
  Br  Br78  1  0.250000  0.927573  0.103296  1
  Br  Br79  1  0.250000  0.572427  0.603296  1
  Br  Br80  1  0.750000  0.427573  0.396704  1
  Br  Br81  1  0.750000  0.002135  0.581250  1
  Br  Br82  1  0.250000  0.997865  0.418750  1
  Br  Br83  1  0.250000  0.499550  0.395629  1
  N  N84  1  0.750000  0.700675  0.816741  1
  N  N85  1  0.750000  0.799325  0.316741  1
  N  N86  1  0.250000  0.200675  0.683259  1
  N  N87  1  0.250000  0.299325  0.183259  1
  O  O88  1  0.459658  0.259908  0.520957  1
  O  O89  1  0.540342  0.759908  0.979043  1
  O  O90  1  0.540342  0.740092  0.479043  1
  O  O91  1  0.959658  0.740092  0.479043  1
  O  O92  1  0.959658  0.759908  0.979043  1
  O  O93  1  0.459658  0.240092  0.020957  1
  O  O94  1  0.040342  0.240092  0.020957  1
  O  O95  1  0.040342  0.259908  0.520957  1
