# generated using pymatgen
data_Ti10Bi(Pb3O10)3
_symmetry_space_group_name_H-M   'P 1'
_cell_length_a   19.61893584
_cell_length_b   8.77165220
_cell_length_c   9.42368742
_cell_angle_alpha   68.13812833
_cell_angle_beta   65.39925607
_cell_angle_gamma   26.56254938
_symmetry_Int_Tables_number   1
_chemical_formula_structural   Ti10Bi(Pb3O10)3
_chemical_formula_sum   'Ti10 Bi1 Pb9 O30'
_cell_volume   659.36954585
_cell_formula_units_Z   1
loop_
 _symmetry_equiv_pos_site_id
 _symmetry_equiv_pos_as_xyz
  1  'x, y, z'
loop_
 _atom_site_type_symbol
 _atom_site_label
 _atom_site_symmetry_multiplicity
 _atom_site_fract_x
 _atom_site_fract_y
 _atom_site_fract_z
 _atom_site_occupancy
  Ti  Ti0  1  0.051635  0.492214  0.268854  1
  Ti  Ti1  1  0.246201  0.500040  0.269020  1
  Ti  Ti2  1  0.146413  0.499758  0.767513  1
  Ti  Ti3  1  0.347549  0.498351  0.767930  1
  Ti  Ti4  1  0.440825  0.507625  0.269175  1
  Ti  Ti5  1  0.643039  0.511619  0.269089  1
  Ti  Ti6  1  0.547147  0.497834  0.767901  1
  Ti  Ti7  1  0.849273  0.488479  0.269011  1
  Ti  Ti8  1  0.746217  0.501544  0.767728  1
  Ti  Ti9  1  0.944934  0.502454  0.767817  1
  Bi  Bi10  1  0.706190  0.999922  0.469194  1
  Pb  Pb11  1  0.002551  0.997260  -0.005761  1
  Pb  Pb12  1  0.200727  0.999902  -0.005728  1
  Pb  Pb13  1  0.096809  0.004227  0.503174  1
  Pb  Pb14  1  0.401103  0.000395  -0.005703  1
  Pb  Pb15  1  0.301739  0.996122  0.503369  1
  Pb  Pb16  1  0.600170  0.001489  -0.004609  1
  Pb  Pb17  1  0.498313  0.004433  0.503432  1
  Pb  Pb18  1  0.800985  0.000733  -0.005084  1
  Pb  Pb19  1  0.900380  0.995358  0.503011  1
  O  O20  1  0.039053  0.001849  0.311327  1
  O  O21  1  0.237793  0.000098  0.310811  1
  O  O22  1  0.138128  0.000075  0.808860  1
  O  O23  1  0.086843  0.501850  0.061373  1
  O  O24  1  0.133350  0.510112  0.311443  1
  O  O25  1  0.037726  0.500916  0.808821  1
  O  O26  1  0.436407  0.998262  0.311310  1
  O  O27  1  0.338130  0.999526  0.809300  1
  O  O28  1  0.287649  0.500423  0.060771  1
  O  O29  1  0.188199  0.499655  0.559756  1
  O  O30  1  0.342055  0.489767  0.311560  1
  O  O31  1  0.238827  0.498442  0.809371  1
  O  O32  1  0.488557  0.498381  0.061799  1
  O  O33  1  0.639918  0.998176  0.319173  1
  O  O34  1  0.391665  0.493128  0.560351  1
  O  O35  1  0.537684  0.999783  0.811831  1
  O  O36  1  0.542052  0.484541  0.319275  1
  O  O37  1  0.437270  0.500928  0.811844  1
  O  O38  1  0.832469  0.001655  0.319072  1
  O  O39  1  0.737730  0.000265  0.811263  1
  O  O40  1  0.687503  0.499040  0.062088  1
  O  O41  1  0.588345  0.495613  0.560163  1
  O  O42  1  0.737796  0.500122  0.310732  1
  O  O43  1  0.638308  0.500126  0.808433  1
  O  O44  1  0.787416  0.504995  0.560053  1
  O  O45  1  0.938315  0.000274  0.808822  1
  O  O46  1  0.887854  0.500405  0.062009  1
  O  O47  1  0.930291  0.515439  0.319193  1
  O  O48  1  0.837839  0.499518  0.811795  1
  O  O49  1  0.984229  0.506876  0.560067  1
