# generated using pymatgen
data_K4BaTa6(Si2O13)2
_symmetry_space_group_name_H-M   'P 1'
_cell_length_a   9.16295168
_cell_length_b   9.20389628
_cell_length_c   7.91699458
_cell_angle_alpha   90.00000000
_cell_angle_beta   90.00000000
_cell_angle_gamma   120.14792590
_symmetry_Int_Tables_number   1
_chemical_formula_structural   K4BaTa6(Si2O13)2
_chemical_formula_sum   'K4 Ba1 Ta6 Si4 O26'
_cell_volume   577.36280288
_cell_formula_units_Z   1
loop_
 _symmetry_equiv_pos_site_id
 _symmetry_equiv_pos_as_xyz
  1  'x, y, z'
loop_
 _atom_site_type_symbol
 _atom_site_label
 _atom_site_symmetry_multiplicity
 _atom_site_fract_x
 _atom_site_fract_y
 _atom_site_fract_z
 _atom_site_occupancy
  K  K0  1  0.388860  0.388708  0.000000  1
  K  K1  1  0.407672  0.408348  0.500000  1
  K  K2  1  0.592328  0.000676  0.500000  1
  K  K3  1  0.611140  0.999848  0.000000  1
  Ba  Ba4  1  0.000000  0.596355  0.500000  1
  Ta  Ta5  1  0.239024  0.000184  0.249484  1
  Ta  Ta6  1  0.239024  0.000184  0.750516  1
  Ta  Ta7  1  0.760976  0.761160  0.750516  1
  Ta  Ta8  1  0.760976  0.761160  0.249484  1
  Ta  Ta9  1  1.000000  0.236263  0.749499  1
  Ta  Ta10  1  1.000000  0.236263  0.250501  1
  Si  Si11  1  0.330376  0.665679  0.205245  1
  Si  Si12  1  0.330376  0.665679  0.794755  1
  Si  Si13  1  0.669624  0.335301  0.205245  1
  Si  Si14  1  0.669624  0.335301  0.794755  1
  O  O15  1  1.000000  0.823625  0.754177  1
  O  O16  1  1.000000  0.239966  0.500000  1
  O  O17  1  0.308902  0.821067  0.271995  1
  O  O18  1  0.308902  0.821067  0.728005  1
  O  O19  1  0.176394  0.488087  0.272971  1
  O  O20  1  0.176394  0.488087  0.727029  1
  O  O21  1  0.334631  0.666791  0.000000  1
  O  O22  1  0.177803  0.177313  0.243349  1
  O  O23  1  0.177803  0.177313  0.756651  1
  O  O24  1  0.510786  0.688711  0.733176  1
  O  O25  1  0.510786  0.688711  0.266824  1
  O  O26  1  0.236364  0.996403  0.500000  1
  O  O27  1  0.263152  0.005714  0.000000  1
  O  O28  1  0.822197  0.999510  0.756651  1
  O  O29  1  0.736848  0.742562  0.000000  1
  O  O30  1  0.763636  0.760039  0.500000  1
  O  O31  1  0.489214  0.177925  0.733176  1
  O  O32  1  0.489214  0.177925  0.266824  1
  O  O33  1  0.691098  0.512165  0.271995  1
  O  O34  1  0.691098  0.512165  0.728005  1
  O  O35  1  0.665369  0.332159  0.000000  1
  O  O36  1  1.000000  0.823625  0.245823  1
  O  O37  1  0.823606  0.311693  0.272971  1
  O  O38  1  0.823606  0.311693  0.727029  1
  O  O39  1  0.822197  0.999510  0.243349  1
  O  O40  1  0.000000  0.255066  0.000000  1
