# generated using pymatgen
data_AlH18(BrO6)3
_symmetry_space_group_name_H-M   'P 1'
_cell_length_a   10.99437931
_cell_length_b   12.99323523
_cell_length_c   10.52193469
_cell_angle_alpha   110.94117701
_cell_angle_beta   100.81006398
_cell_angle_gamma   110.37442424
_symmetry_Int_Tables_number   1
_chemical_formula_structural   AlH18(BrO6)3
_chemical_formula_sum   'Al2 H36 Br6 O36'
_cell_volume   1229.58925274
_cell_formula_units_Z   2
loop_
 _symmetry_equiv_pos_site_id
 _symmetry_equiv_pos_as_xyz
  1  'x, y, z'
loop_
 _atom_site_type_symbol
 _atom_site_label
 _atom_site_symmetry_multiplicity
 _atom_site_fract_x
 _atom_site_fract_y
 _atom_site_fract_z
 _atom_site_occupancy
  Al  Al0  1  0.173868  0.907900  0.695569  1
  Al  Al1  1  0.826132  0.092100  0.304431  1
  H  H2  1  0.420296  0.522597  0.715280  1
  H  H3  1  0.579704  0.477403  0.284720  1
  H  H4  1  0.728572  0.257256  0.101712  1
  H  H5  1  0.271429  0.742744  0.898288  1
  H  H6  1  0.886112  0.747034  0.732234  1
  H  H7  1  0.113888  0.252966  0.267766  1
  H  H8  1  0.588149  0.280403  0.688962  1
  H  H9  1  0.411851  0.719597  0.311038  1
  H  H10  1  0.020220  0.251575  0.911602  1
  H  H11  1  0.979780  0.748425  0.088398  1
  H  H12  1  0.837258  0.763017  0.282908  1
  H  H13  1  0.162742  0.236983  0.717092  1
  H  H14  1  0.764385  0.897970  0.478629  1
  H  H15  1  0.235615  0.102030  0.521371  1
  H  H16  1  0.621093  0.172595  0.618887  1
  H  H17  1  0.378907  0.827405  0.381113  1
  H  H18  1  0.137505  0.763089  0.442772  1
  H  H19  1  0.862495  0.236911  0.557228  1
  H  H20  1  0.428986  0.924405  0.687582  1
  H  H21  1  0.571014  0.075595  0.312418  1
  H  H22  1  0.332713  0.612570  0.478025  1
  H  H23  1  0.667287  0.387430  0.521975  1
  H  H24  1  0.367283  0.998403  0.614810  1
  H  H25  1  0.632717  0.001597  0.385190  1
  H  H26  1  0.030086  0.755532  0.153656  1
  H  H27  1  0.969914  0.244468  0.846344  1
  H  H28  1  0.511611  0.554826  0.249256  1
  H  H29  1  0.488389  0.445174  0.750744  1
  H  H30  1  0.992872  0.773570  0.428817  1
  H  H31  1  0.007129  0.226430  0.571183  1
  H  H32  1  0.484997  0.702657  0.970124  1
  H  H33  1  0.515003  0.297343  0.029876  1
  H  H34  1  0.760349  0.659678  0.330064  1
  H  H35  1  0.239651  0.340322  0.669936  1
  H  H36  1  0.385024  0.137087  0.514579  1
  H  H37  1  0.614976  0.862913  0.485421  1
  Br  Br38  1  0.765153  0.332484  0.939704  1
  Br  Br39  1  0.234847  0.667516  0.060296  1
  Br  Br40  1  0.872657  0.368792  0.341029  1
  Br  Br41  1  0.127343  0.631208  0.658971  1
  Br  Br42  1  0.050874  0.030371  0.711414  1
  Br  Br43  1  0.949126  0.969629  0.288586  1
  O  O44  1  0.148826  0.272782  0.651982  1
  O  O45  1  0.851174  0.727218  0.348018  1
  O  O46  1  0.648755  0.059177  0.340474  1
  O  O47  1  0.351245  0.940823  0.659526  1
  O  O48  1  0.105557  0.586168  0.240814  1
  O  O49  1  0.894443  0.413832  0.759186  1
  O  O50  1  0.475313  0.706651  0.876352  1
  O  O51  1  0.524687  0.293349  0.123648  1
  O  O52  1  0.907811  0.215007  0.269332  1
  O  O53  1  0.092189  0.784993  0.730668  1
  O  O54  1  0.305646  0.355900  0.287499  1
  O  O55  1  0.694354  0.644100  0.712501  1
  O  O56  1  0.707301  0.211796  -0.005256  1
  O  O57  1  0.292699  0.788204  0.005256  1
  O  O58  1  0.629999  0.361138  0.881702  1
  O  O59  1  0.370001  0.638862  0.118298  1
  O  O60  1  0.586504  0.224741  0.593096  1
  O  O61  1  0.413496  0.775259  0.406904  1
  O  O62  1  0.051394  0.470952  0.181285  1
  O  O63  1  0.948606  0.529048  0.818715  1
  O  O64  1  0.206371  0.261934  0.316760  1
  O  O65  1  0.793629  0.738066  0.683240  1
  O  O66  1  0.144344  0.489799  0.589325  1
  O  O67  1  0.855656  0.510201  0.410675  1
  O  O68  1  0.305993  0.072530  0.516338  1
  O  O69  1  0.694007  0.927470  0.483662  1
  O  O70  1  0.100383  0.818529  0.487747  1
  O  O71  1  0.899617  0.181471  0.512253  1
  O  O72  1  0.255262  0.032049  0.878742  1
  O  O73  1  0.744738  0.967951  0.121258  1
  O  O74  1  0.282709  0.453178  0.314429  1
  O  O75  1  0.717291  0.546822  0.685571  1
  O  O76  1  0.355904  0.547237  0.483725  1
  O  O77  1  0.644096  0.452763  0.516275  1
  O  O78  1  0.600155  0.561037  0.297545  1
  O  O79  1  0.399845  0.438963  0.702455  1
