# generated using pymatgen
data_Tl2Fe3Se4
_symmetry_space_group_name_H-M   'P 1'
_cell_length_a   15.78029522
_cell_length_b   5.53271480
_cell_length_c   7.29715931
_cell_angle_alpha   89.89722100
_cell_angle_beta   74.15120212
_cell_angle_gamma   45.43117603
_symmetry_Int_Tables_number   1
_chemical_formula_structural   Tl2Fe3Se4
_chemical_formula_sum   'Tl4 Fe6 Se8'
_cell_volume   419.53185592
_cell_formula_units_Z   2
loop_
 _symmetry_equiv_pos_site_id
 _symmetry_equiv_pos_as_xyz
  1  'x, y, z'
loop_
 _atom_site_type_symbol
 _atom_site_label
 _atom_site_symmetry_multiplicity
 _atom_site_fract_x
 _atom_site_fract_y
 _atom_site_fract_z
 _atom_site_occupancy
  Tl  Tl0  1  0.998691  0.990028  -0.000051  1
  Tl  Tl1  1  0.250000  0.000000  0.000000  1
  Tl  Tl2  1  0.501309  0.009972  0.000051  1
  Tl  Tl3  1  0.750000  0.000000  0.000000  1
  Fe  Fe4  1  0.247516  0.254517  0.502187  1
  Fe  Fe5  1  0.252484  0.745483  0.497813  1
  Fe  Fe6  1  0.501753  0.246418  0.498511  1
  Fe  Fe7  1  0.755495  0.237158  0.501465  1
  Fe  Fe8  1  0.744505  0.762842  0.498535  1
  Fe  Fe9  1  -0.001753  0.753582  0.501489  1
  Se  Se10  1  0.073470  0.351474  0.700343  1
  Se  Se11  1  0.172208  0.653087  0.300374  1
  Se  Se12  1  0.327792  0.346913  0.699626  1
  Se  Se13  1  0.426530  0.648526  0.299657  1
  Se  Se14  1  0.572574  0.358962  0.699001  1
  Se  Se15  1  0.672766  0.650037  0.300584  1
  Se  Se16  1  0.827234  0.349963  0.699416  1
  Se  Se17  1  0.927426  0.641038  0.300999  1
