# generated using pymatgen
data_SiO2
_symmetry_space_group_name_H-M   'P 1'
_cell_length_a   6.97548107
_cell_length_b   6.97548107
_cell_length_c   6.47533910
_cell_angle_alpha   90.00000000
_cell_angle_beta   90.00000000
_cell_angle_gamma   90.00000000
_symmetry_Int_Tables_number   1
_chemical_formula_structural   SiO2
_chemical_formula_sum   'Si5 O10'
_cell_volume   315.07275133
_cell_formula_units_Z   5
loop_
 _symmetry_equiv_pos_site_id
 _symmetry_equiv_pos_as_xyz
  1  'x, y, z'
loop_
 _atom_site_type_symbol
 _atom_site_label
 _atom_site_symmetry_multiplicity
 _atom_site_fract_x
 _atom_site_fract_y
 _atom_site_fract_z
 _atom_site_occupancy
  Si  Si0  1  0.269510  0.000000  0.118777  1
  Si  Si1  1  0.000000  0.730490  0.881223  1
  Si  Si2  1  0.000000  0.269510  0.881223  1
  Si  Si3  1  0.730490  0.000000  0.118777  1
  Si  Si4  1  0.000000  0.000000  0.500000  1
  O  O5  1  0.191653  0.000000  0.356328  1
  O  O6  1  0.000000  0.808347  0.643672  1
  O  O7  1  0.000000  0.191653  0.643672  1
  O  O8  1  0.808347  0.000000  0.356328  1
  O  O9  1  0.191468  0.191468  0.000000  1
  O  O10  1  0.191468  0.808532  0.000000  1
  O  O11  1  0.808532  0.191468  0.000000  1
  O  O12  1  0.808532  0.808532  0.000000  1
  O  O13  1  0.500000  0.000000  0.118827  1
  O  O14  1  0.000000  0.500000  0.881173  1
