# generated using pymatgen
data_YbH2
_symmetry_space_group_name_H-M   'P 1'
_cell_length_a   5.07578449
_cell_length_b   3.79032183
_cell_length_c   6.56602239
_cell_angle_alpha   90.00000000
_cell_angle_beta   90.00000000
_cell_angle_gamma   90.00000000
_symmetry_Int_Tables_number   1
_chemical_formula_structural   YbH2
_chemical_formula_sum   'Yb4 H8'
_cell_volume   126.32276422
_cell_formula_units_Z   4
loop_
 _symmetry_equiv_pos_site_id
 _symmetry_equiv_pos_as_xyz
  1  'x, y, z'
loop_
 _atom_site_type_symbol
 _atom_site_label
 _atom_site_symmetry_multiplicity
 _atom_site_fract_x
 _atom_site_fract_y
 _atom_site_fract_z
 _atom_site_occupancy
  Yb  Yb0  1  0.750279  0.250000  0.417661  1
  Yb  Yb1  1  0.250279  0.250000  0.082339  1
  Yb  Yb2  1  0.249721  0.750000  0.582339  1
  Yb  Yb3  1  0.749721  0.750000  0.917661  1
  H  H4  1  0.745780  0.250000  0.083849  1
  H  H5  1  0.245780  0.250000  0.416151  1
  H  H6  1  0.254220  0.750000  0.916151  1
  H  H7  1  0.754220  0.750000  0.583849  1
  H  H8  1  0.499677  0.250000  0.747211  1
  H  H9  1  0.999677  0.250000  0.752789  1
  H  H10  1  0.500323  0.750000  0.252789  1
  H  H11  1  0.000323  0.750000  0.247211  1
