# generated using pymatgen
data_Rb8Fe2O7
_symmetry_space_group_name_H-M   'P 1'
_cell_length_a   7.03468668
_cell_length_b   7.07376864
_cell_length_c   17.74373904
_cell_angle_alpha   90.00000000
_cell_angle_beta   90.00000000
_cell_angle_gamma   118.99420401
_symmetry_Int_Tables_number   1
_chemical_formula_structural   Rb8Fe2O7
_chemical_formula_sum   'Rb16 Fe4 O14'
_cell_volume   772.29702219
_cell_formula_units_Z   2
loop_
 _symmetry_equiv_pos_site_id
 _symmetry_equiv_pos_as_xyz
  1  'x, y, z'
loop_
 _atom_site_type_symbol
 _atom_site_label
 _atom_site_symmetry_multiplicity
 _atom_site_fract_x
 _atom_site_fract_y
 _atom_site_fract_z
 _atom_site_occupancy
  Rb  Rb0  1  0.448118  0.232652  0.289173  1
  Rb  Rb1  1  0.996276  0.639263  0.418572  1
  Rb  Rb2  1  0.948118  0.232652  0.210827  1
  Rb  Rb3  1  0.551882  0.767348  0.710827  1
  Rb  Rb4  1  0.546946  0.781751  0.309730  1
  Rb  Rb5  1  0.003724  0.360737  0.581428  1
  Rb  Rb6  1  0.453054  0.218249  0.690270  1
  Rb  Rb7  1  0.456728  0.228199  0.494363  1
  Rb  Rb8  1  0.046946  0.781751  0.190270  1
  Rb  Rb9  1  0.956728  0.228199  0.005637  1
  Rb  Rb10  1  0.503724  0.360737  0.918572  1
  Rb  Rb11  1  0.043272  0.771801  0.994363  1
  Rb  Rb12  1  0.543272  0.771801  0.505637  1
  Rb  Rb13  1  0.496276  0.639263  0.081428  1
  Rb  Rb14  1  0.953054  0.218249  0.809730  1
  Rb  Rb15  1  0.051882  0.767348  0.789173  1
  Fe  Fe16  1  0.499670  0.857937  0.902870  1
  Fe  Fe17  1  0.999670  0.857937  0.597130  1
  Fe  Fe18  1  0.000330  0.142063  0.402870  1
  Fe  Fe19  1  0.500330  0.142063  0.097130  1
  O  O20  1  0.997642  0.042852  0.676541  1
  O  O21  1  0.742332  0.581317  0.601138  1
  O  O22  1  0.757668  0.418683  0.101138  1
  O  O23  1  0.242332  0.581317  0.898862  1
  O  O24  1  0.497642  0.042852  0.823459  1
  O  O25  1  0.260350  0.835351  0.604350  1
  O  O26  1  0.239650  0.164649  0.104350  1
  O  O27  1  0.257668  0.418683  0.398862  1
  O  O28  1  0.500000  0.000000  0.000000  1
  O  O29  1  0.739650  0.164649  0.395650  1
  O  O30  1  0.002358  0.957148  0.323459  1
  O  O31  1  0.502358  0.957148  0.176541  1
  O  O32  1  0.000000  0.000000  0.500000  1
  O  O33  1  0.760350  0.835351  0.895650  1
