# generated using pymatgen
data_KIrO3
_symmetry_space_group_name_H-M   'P 1'
_cell_length_a   9.58233807
_cell_length_b   9.58233807
_cell_length_c   9.58233807
_cell_angle_alpha   90.00000000
_cell_angle_beta   90.00000000
_cell_angle_gamma   90.00000000
_symmetry_Int_Tables_number   1
_chemical_formula_structural   KIrO3
_chemical_formula_sum   'K12 Ir12 O36'
_cell_volume   879.86180806
_cell_formula_units_Z   12
loop_
 _symmetry_equiv_pos_site_id
 _symmetry_equiv_pos_as_xyz
  1  'x, y, z'
loop_
 _atom_site_type_symbol
 _atom_site_label
 _atom_site_symmetry_multiplicity
 _atom_site_fract_x
 _atom_site_fract_y
 _atom_site_fract_z
 _atom_site_occupancy
  K  K0  1  0.595348  0.595348  0.595348  1
  K  K1  1  0.095348  0.404652  0.095348  1
  K  K2  1  0.904652  0.904652  0.595348  1
  K  K3  1  0.095348  0.095348  0.404652  1
  K  K4  1  0.404652  0.404652  0.404652  1
  K  K5  1  0.595348  0.904652  0.904652  1
  K  K6  1  0.500000  0.500000  0.000000  1
  K  K7  1  0.904652  0.595348  0.904652  1
  K  K8  1  0.000000  0.000000  0.000000  1
  K  K9  1  0.404652  0.095348  0.095348  1
  K  K10  1  0.000000  0.500000  0.500000  1
  K  K11  1  0.500000  0.000000  0.500000  1
  Ir  Ir12  1  0.250000  0.591226  0.750000  1
  Ir  Ir13  1  0.750000  0.091226  0.250000  1
  Ir  Ir14  1  0.091226  0.250000  0.750000  1
  Ir  Ir15  1  0.250000  0.750000  0.408774  1
  Ir  Ir16  1  0.250000  0.750000  0.091226  1
  Ir  Ir17  1  0.750000  0.250000  0.591226  1
  Ir  Ir18  1  0.250000  0.908774  0.750000  1
  Ir  Ir19  1  0.750000  0.250000  0.908774  1
  Ir  Ir20  1  0.591226  0.750000  0.250000  1
  Ir  Ir21  1  0.408774  0.250000  0.750000  1
  Ir  Ir22  1  0.908774  0.750000  0.250000  1
  Ir  Ir23  1  0.750000  0.408774  0.250000  1
  O  O24  1  0.246712  0.903246  0.545745  1
  O  O25  1  0.753288  0.403246  0.045745  1
  O  O26  1  0.545745  0.253288  0.596754  1
  O  O27  1  0.096754  0.454255  0.753288  1
  O  O28  1  0.386690  0.750000  0.750000  1
  O  O29  1  0.746712  0.096754  0.045745  1
  O  O30  1  0.750000  0.750000  0.113310  1
  O  O31  1  0.750000  0.750000  0.386690  1
  O  O32  1  0.753288  0.096754  0.454255  1
  O  O33  1  0.454255  0.753288  0.096754  1
  O  O34  1  0.253288  0.596754  0.545745  1
  O  O35  1  0.746712  0.403246  0.454255  1
  O  O36  1  0.045745  0.746712  0.096754  1
  O  O37  1  0.903246  0.954255  0.253288  1
  O  O38  1  0.954255  0.246712  0.596754  1
  O  O39  1  0.403246  0.454255  0.746712  1
  O  O40  1  0.954255  0.253288  0.903246  1
  O  O41  1  0.045745  0.753288  0.403246  1
  O  O42  1  0.750000  0.386690  0.750000  1
  O  O43  1  0.613310  0.250000  0.250000  1
  O  O44  1  0.250000  0.250000  0.613310  1
  O  O45  1  0.750000  0.113310  0.750000  1
  O  O46  1  0.246712  0.596754  0.954255  1
  O  O47  1  0.250000  0.613310  0.250000  1
  O  O48  1  0.250000  0.250000  0.886690  1
  O  O49  1  0.096754  0.045745  0.746712  1
  O  O50  1  0.596754  0.954255  0.246712  1
  O  O51  1  0.403246  0.045745  0.753288  1
  O  O52  1  0.454255  0.746712  0.403246  1
  O  O53  1  0.250000  0.886690  0.250000  1
  O  O54  1  0.596754  0.545745  0.253288  1
  O  O55  1  0.113310  0.750000  0.750000  1
  O  O56  1  0.903246  0.545745  0.246712  1
  O  O57  1  0.545745  0.246712  0.903246  1
  O  O58  1  0.253288  0.903246  0.954255  1
  O  O59  1  0.886690  0.250000  0.250000  1
