# generated using pymatgen
data_RbC2N3
_symmetry_space_group_name_H-M   'P 1'
_cell_length_a   3.98882089
_cell_length_b   12.41184918
_cell_length_c   25.34088105
_cell_angle_alpha   90.00000739
_cell_angle_beta   90.93396038
_cell_angle_gamma   89.99999659
_symmetry_Int_Tables_number   1
_chemical_formula_structural   RbC2N3
_chemical_formula_sum   'Rb12 C24 N36'
_cell_volume   1254.42596394
_cell_formula_units_Z   12
loop_
 _symmetry_equiv_pos_site_id
 _symmetry_equiv_pos_as_xyz
  1  'x, y, z'
loop_
 _atom_site_type_symbol
 _atom_site_label
 _atom_site_symmetry_multiplicity
 _atom_site_fract_x
 _atom_site_fract_y
 _atom_site_fract_z
 _atom_site_occupancy
  Rb  Rb0  1  0.965116  0.347304  0.485680  1
  Rb  Rb1  1  0.539856  0.410071  0.101650  1
  Rb  Rb2  1  0.960144  0.910071  0.398350  1
  Rb  Rb3  1  0.039858  0.089929  0.601650  1
  Rb  Rb4  1  0.674568  0.987455  0.242218  1
  Rb  Rb5  1  0.460144  0.589929  0.898350  1
  Rb  Rb6  1  0.034885  0.652696  0.514320  1
  Rb  Rb7  1  0.465115  0.152696  0.985680  1
  Rb  Rb8  1  0.325432  0.012545  0.757782  1
  Rb  Rb9  1  0.534885  0.847304  0.014320  1
  Rb  Rb10  1  0.174567  0.512545  0.742218  1
  Rb  Rb11  1  0.825433  0.487455  0.257783  1
  C  C12  1  0.376961  0.171465  0.379126  1
  C  C13  1  0.604580  0.259427  0.706402  1
  C  C14  1  0.123039  0.671465  0.120874  1
  C  C15  1  0.554863  0.499712  0.597992  1
  C  C16  1  0.255154  0.708064  0.207108  1
  C  C17  1  0.876961  0.328535  0.879126  1
  C  C18  1  0.445137  0.500288  0.402008  1
  C  C19  1  0.965426  0.369883  0.966454  1
  C  C20  1  0.104581  0.240573  0.206402  1
  C  C21  1  0.465427  0.130117  0.466454  1
  C  C22  1  0.843407  0.152841  0.850986  1
  C  C23  1  0.343408  0.347159  0.350986  1
  C  C24  1  0.395419  0.740573  0.293598  1
  C  C25  1  0.623039  0.828535  0.620874  1
  C  C26  1  0.755154  0.791936  0.707108  1
  C  C27  1  0.744845  0.291936  0.792892  1
  C  C28  1  0.534574  0.869883  0.533545  1
  C  C29  1  0.895420  0.759427  0.793598  1
  C  C30  1  0.156592  0.847159  0.149014  1
  C  C31  1  0.034573  0.630117  0.033545  1
  C  C32  1  0.945137  0.999712  0.902008  1
  C  C33  1  0.054862  0.000288  0.097992  1
  C  C34  1  0.656593  0.652841  0.649014  1
  C  C35  1  0.244846  0.208065  0.292892  1
  N  N36  1  0.235335  0.815620  0.198847  1
  N  N37  1  0.331317  0.670376  0.256649  1
  N  N38  1  0.195615  0.631896  0.169517  1
  N  N39  1  0.396194  0.278047  0.391846  1
  N  N40  1  0.990572  0.048932  0.058728  1
  N  N41  1  0.528780  0.201092  0.670970  1
  N  N42  1  0.016044  0.651949  0.987849  1
  N  N43  1  0.804384  0.368103  0.830483  1
  N  N44  1  0.629272  0.543827  0.643006  1
  N  N45  1  0.264666  0.315620  0.301153  1
  N  N46  1  0.434713  0.096415  0.418098  1
  N  N47  1  0.565287  0.903585  0.581902  1
  N  N48  1  0.483955  0.151949  0.512151  1
  N  N49  1  0.934713  0.403585  0.918098  1
  N  N50  1  0.764665  0.184380  0.801153  1
  N  N51  1  0.516044  0.848051  0.487849  1
  N  N52  1  0.471220  0.798908  0.329030  1
  N  N53  1  0.896195  0.221953  0.891846  1
  N  N54  1  0.509428  0.548932  0.441272  1
  N  N55  1  0.304384  0.131897  0.330483  1
  N  N56  1  0.668683  0.329624  0.743351  1
  N  N57  1  0.735335  0.684380  0.698847  1
  N  N58  1  0.603806  0.721953  0.608154  1
  N  N59  1  0.870728  0.043826  0.856994  1
  N  N60  1  0.695616  0.868104  0.669517  1
  N  N61  1  0.490571  0.451068  0.558728  1
  N  N62  1  0.129272  0.956173  0.143006  1
  N  N63  1  0.168684  0.170376  0.243351  1
  N  N64  1  0.028780  0.298908  0.170970  1
  N  N65  1  0.983955  0.348051  0.012151  1
  N  N66  1  0.971220  0.701093  0.829030  1
  N  N67  1  0.103806  0.778046  0.108154  1
  N  N68  1  0.370728  0.456173  0.356994  1
  N  N69  1  0.009428  0.951068  0.941272  1
  N  N70  1  0.065287  0.596415  0.081902  1
  N  N71  1  0.831316  0.829624  0.756649  1
