# generated using pymatgen
data_Co4Si(CO)14
_symmetry_space_group_name_H-M   'P 1'
_cell_length_a   9.29814890
_cell_length_b   9.29814880
_cell_length_c   12.41393803
_cell_angle_alpha   82.08116333
_cell_angle_beta   82.08116343
_cell_angle_gamma   85.22329428
_symmetry_Int_Tables_number   1
_chemical_formula_structural   Co4Si(CO)14
_chemical_formula_sum   'Co8 Si2 C28 O28'
_cell_volume   1050.61960110
_cell_formula_units_Z   2
loop_
 _symmetry_equiv_pos_site_id
 _symmetry_equiv_pos_as_xyz
  1  'x, y, z'
loop_
 _atom_site_type_symbol
 _atom_site_label
 _atom_site_symmetry_multiplicity
 _atom_site_fract_x
 _atom_site_fract_y
 _atom_site_fract_z
 _atom_site_occupancy
  Co  Co0  1  0.271166  0.958475  0.837562  1
  Co  Co1  1  0.041525  0.728834  0.662438  1
  Co  Co2  1  0.314593  0.693326  0.918453  1
  Co  Co3  1  0.958475  0.271166  0.337562  1
  Co  Co4  1  0.693326  0.314593  0.418453  1
  Co  Co5  1  0.728834  0.041525  0.162438  1
  Co  Co6  1  0.685407  0.306674  0.081547  1
  Co  Co7  1  0.306674  0.685407  0.581547  1
  Si  Si8  1  0.239162  0.760838  0.750000  1
  Si  Si9  1  0.760838  0.239162  0.250000  1
  C  C10  1  0.340283  0.506024  0.650004  1
  C  C11  1  0.860654  0.924306  0.224582  1
  C  C12  1  0.530293  0.226833  0.444895  1
  C  C13  1  0.139346  0.075694  0.775418  1
  C  C14  1  0.149709  0.834678  0.941654  1
  C  C15  1  0.075694  0.139346  0.275418  1
  C  C16  1  0.310517  0.052785  0.944790  1
  C  C17  1  0.493976  0.659717  0.849996  1
  C  C18  1  0.689483  0.947215  0.055210  1
  C  C19  1  0.713047  0.362870  0.549570  1
  C  C20  1  0.773167  0.469707  0.055105  1
  C  C21  1  0.436981  0.997073  0.750422  1
  C  C22  1  0.226833  0.530293  0.944895  1
  C  C23  1  0.850291  0.165322  0.058346  1
  C  C24  1  0.924306  0.860654  0.724582  1
  C  C25  1  0.997073  0.436981  0.250422  1
  C  C26  1  0.506024  0.340283  0.150004  1
  C  C27  1  0.286953  0.637130  0.450430  1
  C  C28  1  0.563019  0.002927  0.249578  1
  C  C29  1  0.002927  0.563019  0.749578  1
  C  C30  1  0.659717  0.493976  0.349996  1
  C  C31  1  0.469707  0.773167  0.555105  1
  C  C32  1  0.052785  0.310517  0.444790  1
  C  C33  1  0.637130  0.286953  0.950430  1
  C  C34  1  0.165322  0.850291  0.558346  1
  C  C35  1  0.362870  0.713047  0.049570  1
  C  C36  1  0.834678  0.149709  0.441654  1
  C  C37  1  0.947215  0.689483  0.555210  1
  O  O38  1  0.058756  0.159878  0.734131  1
  O  O39  1  0.967939  0.457486  0.803861  1
  O  O40  1  0.112507  0.337205  0.514419  1
  O  O41  1  0.163256  0.965895  0.505306  1
  O  O42  1  0.337205  0.112507  0.014419  1
  O  O43  1  0.941244  0.840122  0.265869  1
  O  O44  1  0.581914  0.822440  0.532686  1
  O  O45  1  0.822440  0.581914  0.032686  1
  O  O46  1  0.034105  0.836744  0.994694  1
  O  O47  1  0.360517  0.389178  0.693827  1
  O  O48  1  0.159878  0.058756  0.234131  1
  O  O49  1  0.639483  0.610822  0.306173  1
  O  O50  1  0.177560  0.418086  0.967314  1
  O  O51  1  0.272616  0.606840  0.365625  1
  O  O52  1  0.606840  0.272616  0.865625  1
  O  O53  1  0.542514  0.032061  0.696139  1
  O  O54  1  0.727384  0.393160  0.634375  1
  O  O55  1  0.662795  0.887493  0.985581  1
  O  O56  1  0.389178  0.360517  0.193827  1
  O  O57  1  0.836744  0.034105  0.494694  1
  O  O58  1  0.887493  0.662795  0.485581  1
  O  O59  1  0.840122  0.941244  0.765869  1
  O  O60  1  0.393160  0.727384  0.134375  1
  O  O61  1  0.457486  0.967939  0.303861  1
  O  O62  1  0.032061  0.542514  0.196139  1
  O  O63  1  0.965895  0.163256  0.005306  1
  O  O64  1  0.418086  0.177560  0.467314  1
  O  O65  1  0.610822  0.639483  0.806173  1
