# generated using pymatgen
data_LiAlSi2H2O7
_symmetry_space_group_name_H-M   'P 1'
_cell_length_a   8.51179936
_cell_length_b   5.06343284
_cell_length_c   7.64423648
_cell_angle_alpha   87.07810385
_cell_angle_beta   111.45322448
_cell_angle_gamma   92.27195547
_symmetry_Int_Tables_number   1
_chemical_formula_structural   LiAlSi2H2O7
_chemical_formula_sum   'Li2 Al2 Si4 H4 O14'
_cell_volume   306.15553311
_cell_formula_units_Z   2
loop_
 _symmetry_equiv_pos_site_id
 _symmetry_equiv_pos_as_xyz
  1  'x, y, z'
loop_
 _atom_site_type_symbol
 _atom_site_label
 _atom_site_symmetry_multiplicity
 _atom_site_fract_x
 _atom_site_fract_y
 _atom_site_fract_z
 _atom_site_occupancy
  Li  Li0  1  0.294714  0.315924  0.185359  1
  Li  Li1  1  0.713385  0.835946  0.882647  1
  Al  Al2  1  0.395669  0.838256  0.937855  1
  Al  Al3  1  0.905357  0.332932  0.906829  1
  Si  Si4  1  0.103423  0.823357  0.077451  1
  Si  Si5  1  0.149043  0.902472  0.496792  1
  Si  Si6  1  0.912725  0.358159  0.488839  1
  Si  Si7  1  0.627497  0.337005  0.074280  1
  H  H8  1  0.235283  0.347043  0.483638  1
  H  H9  1  0.709342  0.469083  0.611957  1
  H  H10  1  0.611279  0.880845  0.521010  1
  H  H11  1  0.476569  0.781950  0.612956  1
  O  O12  1  0.262559  0.690095  0.046791  1
  O  O13  1  0.082723  0.136794  0.005119  1
  O  O14  1  0.134809  0.765819  0.296951  1
  O  O15  1  0.050565  0.590176  0.549809  1
  O  O16  1  0.319745  0.855537  0.690416  1
  O  O17  1  0.464209  0.144460  0.057705  1
  O  O18  1  0.241391  0.191905  0.416825  1
  O  O19  1  0.737042  0.199133  0.965892  1
  O  O20  1  0.928415  0.667595  0.954191  1
  O  O21  1  0.806180  0.343119  0.647319  1
  O  O22  1  0.988946  0.065192  0.516866  1
  O  O23  1  0.748273  0.380987  0.295007  1
  O  O24  1  0.571608  0.633516  0.986568  1
  O  O25  1  0.592451  0.749302  0.608630  1
