# generated using pymatgen
data_La2Th8O19
_symmetry_space_group_name_H-M   'P 1'
_cell_length_a   3.97922788
_cell_length_b   39.86669176
_cell_length_c   38.03594965
_cell_angle_alpha   5.20438575
_cell_angle_beta   58.45625579
_cell_angle_gamma   60.05783425
_symmetry_Int_Tables_number   1
_chemical_formula_structural   La2Th8O19
_chemical_formula_sum   'La2 Th8 O19'
_cell_volume   447.41042411
_cell_formula_units_Z   1
loop_
 _symmetry_equiv_pos_site_id
 _symmetry_equiv_pos_as_xyz
  1  'x, y, z'
loop_
 _atom_site_type_symbol
 _atom_site_label
 _atom_site_symmetry_multiplicity
 _atom_site_fract_x
 _atom_site_fract_y
 _atom_site_fract_z
 _atom_site_occupancy
  La  La0  1  0.028128  0.031418  0.962508  1
  La  La1  1  0.966624  0.082192  0.023601  1
  Th  Th2  1  0.995243  0.200510  0.000147  1
  Th  Th3  1  0.001610  0.302008  0.997825  1
  Th  Th4  1  0.001134  0.400531  0.999218  1
  Th  Th5  1  0.996336  0.499436  0.000416  1
  Th  Th6  1  0.996109  0.601498  0.998387  1
  Th  Th7  1  0.996517  0.701727  0.998203  1
  Th  Th8  1  0.998781  0.801842  0.997955  1
  Th  Th9  1  0.004661  0.908026  0.990973  1
  O  O10  1  0.256019  0.005714  0.243120  1
  O  O11  1  0.251217  0.099146  0.251028  1
  O  O12  1  0.249622  0.199610  0.249978  1
  O  O13  1  0.245330  0.301711  0.248010  1
  O  O14  1  0.246044  0.401216  0.248798  1
  O  O15  1  0.247449  0.502116  0.247540  1
  O  O16  1  0.245735  0.599048  0.251834  1
  O  O17  1  0.273535  0.726981  0.217971  1
  O  O18  1  0.758392  0.108338  0.739943  1
  O  O19  1  0.736878  0.197065  0.755261  1
  O  O20  1  0.747104  0.308909  0.741002  1
  O  O21  1  0.220580  0.884130  0.270935  1
  O  O22  1  0.759218  0.416191  0.730994  1
  O  O23  1  0.742206  0.495952  0.755648  1
  O  O24  1  0.754627  0.603204  0.746088  1
  O  O25  1  0.747946  0.699729  0.750023  1
  O  O26  1  0.745078  0.800665  0.749134  1
  O  O27  1  0.747585  0.901668  0.748151  1
  O  O28  1  0.744438  0.999167  0.751165  1
