# generated using pymatgen
data_Al(HO)3
_symmetry_space_group_name_H-M   'P 1'
_cell_length_a   8.79503570
_cell_length_b   5.17730946
_cell_length_c   9.52224380
_cell_angle_alpha   91.17452839
_cell_angle_beta   93.43634820
_cell_angle_gamma   89.82357479
_symmetry_Int_Tables_number   1
_chemical_formula_structural   Al(HO)3
_chemical_formula_sum   'Al8 H24 O24'
_cell_volume   432.72049121
_cell_formula_units_Z   8
loop_
 _symmetry_equiv_pos_site_id
 _symmetry_equiv_pos_as_xyz
  1  'x, y, z'
loop_
 _atom_site_type_symbol
 _atom_site_label
 _atom_site_symmetry_multiplicity
 _atom_site_fract_x
 _atom_site_fract_y
 _atom_site_fract_z
 _atom_site_occupancy
  Al  Al0  1  0.332097  0.987007  0.495268  1
  Al  Al1  1  0.667820  0.013398  0.508421  1
  Al  Al2  1  0.832438  0.513918  0.505283  1
  Al  Al3  1  0.169111  0.483883  0.490058  1
  Al  Al4  1  0.831034  0.974495  0.011864  1
  Al  Al5  1  0.167148  0.992708  0.998409  1
  Al  Al6  1  0.333063  0.492104  0.998511  1
  Al  Al7  1  0.668431  0.479369  0.007771  1
  H  H8  1  0.023157  0.823473  0.598523  1
  H  H9  1  0.969890  0.339296  0.295301  1
  H  H10  1  0.503876  0.688738  0.385961  1
  H  H11  1  0.494922  0.321578  0.612131  1
  H  H12  1  0.121426  0.162030  0.675290  1
  H  H13  1  0.907920  0.923255  0.392489  1
  H  H14  1  0.591009  0.362238  0.335739  1
  H  H15  1  0.384892  0.645000  0.683071  1
  H  H16  1  0.792775  0.248832  0.715207  1
  H  H17  1  0.228208  0.755080  0.286608  1
  H  H18  1  0.280932  0.273753  0.285848  1
  H  H19  1  0.714686  0.709824  0.715049  1
  H  H20  1  0.964905  0.013630  0.803844  1
  H  H21  1  0.024378  0.841357  0.209808  1
  H  H22  1  0.505069  0.180891  0.119408  1
  H  H23  1  0.498622  0.793577  0.889638  1
  H  H24  1  0.605143  0.119054  0.826211  1
  H  H25  1  0.409735  0.858507  0.164158  1
  H  H26  1  0.091818  0.409058  0.107249  1
  H  H27  1  0.905408  0.574743  0.883679  1
  H  H28  1  0.772364  0.260980  0.213432  1
  H  H29  1  0.161943  0.662704  0.791826  1
  H  H30  1  0.326298  0.167914  0.797270  1
  H  H31  1  0.715198  0.787093  0.215942  1
  O  O32  1  0.017032  0.636827  0.606785  1
  O  O33  1  0.986468  0.360683  0.396704  1
  O  O34  1  0.501763  0.876934  0.388885  1
  O  O35  1  0.500637  0.133296  0.614136  1
  O  O36  1  0.190730  0.184836  0.601229  1
  O  O37  1  0.812855  0.829164  0.398076  1
  O  O38  1  0.680112  0.318384  0.396588  1
  O  O39  1  0.323136  0.680800  0.597333  1
  O  O40  1  0.819110  0.213449  0.618271  1
  O  O41  1  0.185906  0.786932  0.379797  1
  O  O42  1  0.308697  0.289948  0.387426  1
  O  O43  1  0.693379  0.708230  0.611780  1
  O  O44  1  0.987057  0.101460  0.893820  1
  O  O45  1  0.010307  0.859540  0.108160  1
  O  O46  1  0.503271  0.369368  0.117627  1
  O  O47  1  0.497705  0.605352  0.891148  1
  O  O48  1  0.680280  0.163878  0.902058  1
  O  O49  1  0.317149  0.801713  0.111194  1
  O  O50  1  0.186952  0.311544  0.105401  1
  O  O51  1  0.808265  0.660786  0.897130  1
  O  O52  1  0.816358  0.287510  0.121558  1
  O  O53  1  0.183101  0.681041  0.893176  1
  O  O54  1  0.314332  0.174610  0.898174  1
  O  O55  1  0.687896  0.793853  0.113849  1
