# generated using pymatgen
data_UNiH14O9F4
_symmetry_space_group_name_H-M   'P 1'
_cell_length_a   9.45578297
_cell_length_b   10.15794665
_cell_length_c   12.21327380
_cell_angle_alpha   96.84536274
_cell_angle_beta   90.00000000
_cell_angle_gamma   90.00000000
_symmetry_Int_Tables_number   1
_chemical_formula_structural   UNiH14O9F4
_chemical_formula_sum   'U4 Ni4 H56 O36 F16'
_cell_volume   1164.73879357
_cell_formula_units_Z   4
loop_
 _symmetry_equiv_pos_site_id
 _symmetry_equiv_pos_as_xyz
  1  'x, y, z'
loop_
 _atom_site_type_symbol
 _atom_site_label
 _atom_site_symmetry_multiplicity
 _atom_site_fract_x
 _atom_site_fract_y
 _atom_site_fract_z
 _atom_site_occupancy
  U  U0  1  0.338995  0.130296  0.494820  1
  U  U1  1  0.661005  0.869704  0.505180  1
  U  U2  1  0.161005  0.130296  0.994820  1
  U  U3  1  0.838995  0.869704  0.005180  1
  Ni  Ni4  1  0.816958  0.372384  0.698904  1
  Ni  Ni5  1  0.316958  0.627616  0.801096  1
  Ni  Ni6  1  0.683042  0.372384  0.198904  1
  Ni  Ni7  1  0.183042  0.627616  0.301096  1
  H  H8  1  0.946080  0.501086  0.328764  1
  H  H9  1  0.162634  0.755861  0.510650  1
  H  H10  1  0.678376  0.607111  0.713719  1
  H  H11  1  0.144758  0.887252  0.323169  1
  H  H12  1  0.459453  0.668765  0.315326  1
  H  H13  1  0.617063  0.534746  0.387786  1
  H  H14  1  0.355242  0.887252  0.823169  1
  H  H15  1  0.455410  0.824484  0.726719  1
  H  H16  1  0.188738  0.766213  0.957550  1
  H  H17  1  0.337366  0.755861  0.010650  1
  H  H18  1  0.837366  0.244139  0.489350  1
  H  H19  1  0.347126  0.926448  0.144434  1
  H  H20  1  0.399923  0.614126  0.590510  1
  H  H21  1  0.596640  0.266041  0.790284  1
  H  H22  1  0.495121  0.104825  0.891530  1
  H  H23  1  0.600077  0.385874  0.409490  1
  H  H24  1  0.688738  0.233787  0.542450  1
  H  H25  1  0.924481  0.639146  0.407328  1
  H  H26  1  0.882937  0.534746  0.887786  1
  H  H27  1  0.544590  0.175516  0.273281  1
  H  H28  1  0.644758  0.112748  0.176831  1
  H  H29  1  0.575519  0.639146  0.907328  1
  H  H30  1  0.955410  0.175516  0.773281  1
  H  H31  1  0.004879  0.104825  0.391530  1
  H  H32  1  0.311262  0.766213  0.457550  1
  H  H33  1  0.053920  0.498914  0.671236  1
  H  H34  1  0.855242  0.112748  0.676831  1
  H  H35  1  0.117063  0.465254  0.112214  1
  H  H36  1  0.811262  0.233787  0.042450  1
  H  H37  1  0.903360  0.266041  0.290284  1
  H  H38  1  0.100077  0.614126  0.090510  1
  H  H39  1  0.780701  0.613289  0.609327  1
  H  H40  1  0.959453  0.331235  0.184674  1
  H  H41  1  0.075519  0.360854  0.592672  1
  H  H42  1  0.044590  0.824484  0.226719  1
  H  H43  1  0.040547  0.668765  0.815326  1
  H  H44  1  0.504879  0.895175  0.108470  1
  H  H45  1  0.553920  0.501086  0.828764  1
  H  H46  1  0.219299  0.386711  0.390673  1
  H  H47  1  0.096640  0.733959  0.709716  1
  H  H48  1  0.652874  0.073552  0.855566  1
  H  H49  1  0.995121  0.895175  0.608470  1
  H  H50  1  0.152874  0.926448  0.644434  1
  H  H51  1  0.446080  0.498914  0.171236  1
  H  H52  1  0.178376  0.392889  0.786281  1
  H  H53  1  0.403360  0.733959  0.209716  1
  H  H54  1  0.662634  0.244139  0.989350  1
  H  H55  1  0.321624  0.392889  0.286281  1
  H  H56  1  0.540547  0.331235  0.684674  1
  H  H57  1  0.847126  0.073552  0.355566  1
  H  H58  1  0.899923  0.385874  0.909490  1
  H  H59  1  0.280701  0.386711  0.890673  1
  H  H60  1  0.382937  0.465254  0.612214  1
  H  H61  1  0.424481  0.360854  0.092672  1
  H  H62  1  0.821624  0.607111  0.213719  1
  H  H63  1  0.719299  0.613289  0.109327  1
  O  O64  1  0.637873  0.185142  0.238579  1
  O  O65  1  0.768544  0.295381  0.539331  1
  O  O66  1  0.852821  0.442622  0.862051  1
  O  O67  1  0.902180  0.834563  0.139861  1
  O  O68  1  0.220381  0.089727  0.128343  1
  O  O69  1  0.970679  0.596662  0.338879  1
  O  O70  1  0.913978  0.146558  0.374352  1
  O  O71  1  0.086022  0.853442  0.625648  1
  O  O72  1  0.395453  0.654315  0.250550  1
  O  O73  1  0.231456  0.704619  0.460669  1
  O  O74  1  0.597820  0.834563  0.639861  1
  O  O75  1  0.755784  0.562558  0.670960  1
  O  O76  1  0.529321  0.596662  0.838879  1
  O  O77  1  0.862127  0.185142  0.738579  1
  O  O78  1  0.470679  0.403338  0.161121  1
  O  O79  1  0.779619  0.910273  0.871657  1
  O  O80  1  0.402180  0.165437  0.360139  1
  O  O81  1  0.731456  0.295381  0.039331  1
  O  O82  1  0.744216  0.562558  0.170960  1
  O  O83  1  0.586022  0.146558  0.874352  1
  O  O84  1  0.352821  0.557378  0.637949  1
  O  O85  1  0.147179  0.557378  0.137949  1
  O  O86  1  0.647179  0.442622  0.362051  1
  O  O87  1  0.244216  0.437442  0.329040  1
  O  O88  1  0.604547  0.345685  0.749450  1
  O  O89  1  0.029321  0.403338  0.661121  1
  O  O90  1  0.279619  0.089727  0.628343  1
  O  O91  1  0.362127  0.814858  0.761421  1
  O  O92  1  0.413978  0.853442  0.125648  1
  O  O93  1  0.720381  0.910273  0.371657  1
  O  O94  1  0.097820  0.165437  0.860139  1
  O  O95  1  0.255784  0.437442  0.829040  1
  O  O96  1  0.895453  0.345685  0.249450  1
  O  O97  1  0.268544  0.704619  0.960669  1
  O  O98  1  0.104547  0.654315  0.750550  1
  O  O99  1  0.137873  0.814858  0.261421  1
  F  F100  1  0.172676  0.291519  0.488708  1
  F  F101  1  0.845845  0.981108  0.584637  1
  F  F102  1  0.419076  0.907788  0.456736  1
  F  F103  1  0.052549  0.323236  0.069410  1
  F  F104  1  0.947451  0.676764  0.930590  1
  F  F105  1  0.672676  0.708481  0.011292  1
  F  F106  1  0.827324  0.708481  0.511292  1
  F  F107  1  0.345845  0.018892  0.915363  1
  F  F108  1  0.327324  0.291519  0.988708  1
  F  F109  1  0.919076  0.092212  0.043264  1
  F  F110  1  0.154155  0.018892  0.415363  1
  F  F111  1  0.552549  0.676764  0.430590  1
  F  F112  1  0.080924  0.907788  0.956736  1
  F  F113  1  0.580924  0.092212  0.543264  1
  F  F114  1  0.447451  0.323236  0.569410  1
  F  F115  1  0.654155  0.981108  0.084637  1
