# generated using pymatgen
data_LiTiCl3
_symmetry_space_group_name_H-M   'P 1'
_cell_length_a   7.44327443
_cell_length_b   7.44327409
_cell_length_c   14.36412236
_cell_angle_alpha   58.36381359
_cell_angle_beta   58.36381489
_cell_angle_gamma   57.46468903
_symmetry_Int_Tables_number   1
_chemical_formula_structural   LiTiCl3
_chemical_formula_sum   'Li4 Ti4 Cl12'
_cell_volume   537.64644550
_cell_formula_units_Z   4
loop_
 _symmetry_equiv_pos_site_id
 _symmetry_equiv_pos_as_xyz
  1  'x, y, z'
loop_
 _atom_site_type_symbol
 _atom_site_label
 _atom_site_symmetry_multiplicity
 _atom_site_fract_x
 _atom_site_fract_y
 _atom_site_fract_z
 _atom_site_occupancy
  Li  Li0  1  0.214730  0.214730  0.127283  1
  Li  Li1  1  0.240617  0.240617  0.636873  1
  Li  Li2  1  0.644747  0.644747  0.302387  1
  Li  Li3  1  0.621635  0.621635  0.816877  1
  Ti  Ti4  1  0.680657  0.680657  0.028660  1
  Ti  Ti5  1  0.054793  0.665651  0.831852  1
  Ti  Ti6  1  0.665651  0.054793  0.831852  1
  Ti  Ti7  1  0.606051  0.606051  0.551963  1
  Cl  Cl8  1  0.391446  0.837369  0.191552  1
  Cl  Cl9  1  0.837369  0.391446  0.191552  1
  Cl  Cl10  1  0.368354  0.368354  0.703486  1
  Cl  Cl11  1  0.412587  0.886551  0.420222  1
  Cl  Cl12  1  0.886551  0.412587  0.420222  1
  Cl  Cl13  1  0.376899  0.376899  0.928532  1
  Cl  Cl14  1  0.370932  0.848333  0.686545  1
  Cl  Cl15  1  0.848333  0.370932  0.686545  1
  Cl  Cl16  1  0.394826  0.866141  0.942888  1
  Cl  Cl17  1  0.866141  0.394826  0.942888  1
  Cl  Cl18  1  0.866212  0.866212  0.691526  1
  Cl  Cl19  1  0.901470  0.901470  0.941294  1
