# generated using pymatgen
data_La15B14C19
_symmetry_space_group_name_H-M   'P 1'
_cell_length_a   8.69489387
_cell_length_b   8.67237992
_cell_length_c   19.57101287
_cell_angle_alpha   92.75275575
_cell_angle_beta   90.00000000
_cell_angle_gamma   90.00000000
_symmetry_Int_Tables_number   1
_chemical_formula_structural   La15B14C19
_chemical_formula_sum   'La30 B28 C38'
_cell_volume   1474.05759155
_cell_formula_units_Z   2
loop_
 _symmetry_equiv_pos_site_id
 _symmetry_equiv_pos_as_xyz
  1  'x, y, z'
loop_
 _atom_site_type_symbol
 _atom_site_label
 _atom_site_symmetry_multiplicity
 _atom_site_fract_x
 _atom_site_fract_y
 _atom_site_fract_z
 _atom_site_occupancy
  La  La0  1  0.201488  0.631607  0.639193  1
  La  La1  1  0.895522  0.694098  0.492162  1
  La  La2  1  0.298512  0.631607  0.139193  1
  La  La3  1  0.395522  0.305902  0.007838  1
  La  La4  1  0.604478  0.694098  0.992162  1
  La  La5  1  0.016917  0.764449  0.305885  1
  La  La6  1  0.588848  0.435654  0.679195  1
  La  La7  1  0.291285  0.887885  0.473963  1
  La  La8  1  0.715306  0.833202  0.168965  1
  La  La9  1  0.088848  0.564346  0.820805  1
  La  La10  1  0.791285  0.112115  0.026037  1
  La  La11  1  0.208715  0.887885  0.973963  1
  La  La12  1  0.000000  0.500000  0.000000  1
  La  La13  1  0.708715  0.112115  0.526037  1
  La  La14  1  0.284694  0.166798  0.831035  1
  La  La15  1  0.483083  0.764449  0.805885  1
  La  La16  1  0.099148  0.029220  0.154356  1
  La  La17  1  0.516917  0.235551  0.194115  1
  La  La18  1  0.400852  0.029220  0.654356  1
  La  La19  1  0.500000  0.500000  0.500000  1
  La  La20  1  0.798512  0.368393  0.360807  1
  La  La21  1  0.701488  0.368393  0.860807  1
  La  La22  1  0.911152  0.435654  0.179195  1
  La  La23  1  0.784694  0.833202  0.668965  1
  La  La24  1  0.983083  0.235551  0.694115  1
  La  La25  1  0.599148  0.970780  0.345644  1
  La  La26  1  0.900852  0.970780  0.845644  1
  La  La27  1  0.215306  0.166798  0.331035  1
  La  La28  1  0.104478  0.305902  0.507838  1
  La  La29  1  0.411152  0.564346  0.320805  1
  B  B30  1  0.015447  0.255764  0.895921  1
  B  B31  1  0.896722  0.073073  0.288266  1
  B  B32  1  0.110095  0.451054  0.292105  1
  B  B33  1  0.028742  0.976607  0.571746  1
  B  B34  1  0.396722  0.926927  0.211734  1
  B  B35  1  0.889905  0.548946  0.707895  1
  B  B36  1  0.389905  0.451054  0.792105  1
  B  B37  1  0.102192  0.196904  0.034112  1
  B  B38  1  0.528742  0.023393  0.928254  1
  B  B39  1  0.831980  0.438702  0.568488  1
  B  B40  1  0.603278  0.073073  0.788266  1
  B  B41  1  0.103278  0.926927  0.711734  1
  B  B42  1  0.206376  0.331781  0.160466  1
  B  B43  1  0.706376  0.668219  0.339534  1
  B  B44  1  0.484553  0.255764  0.395921  1
  B  B45  1  0.293624  0.331781  0.660466  1
  B  B46  1  0.984553  0.744236  0.104079  1
  B  B47  1  0.668020  0.438702  0.068488  1
  B  B48  1  0.610095  0.548946  0.207895  1
  B  B49  1  0.602192  0.803096  0.465888  1
  B  B50  1  0.331980  0.561298  0.931512  1
  B  B51  1  0.793624  0.668219  0.839534  1
  B  B52  1  0.168020  0.561298  0.431512  1
  B  B53  1  0.397808  0.196904  0.534112  1
  B  B54  1  0.471258  0.976607  0.071746  1
  B  B55  1  0.971258  0.023393  0.428254  1
  B  B56  1  0.897808  0.803096  0.965888  1
  B  B57  1  0.515447  0.744236  0.604079  1
  C  C58  1  0.907469  0.066323  0.363098  1
  C  C59  1  0.011532  0.735692  0.176890  1
  C  C60  1  0.827052  0.121462  0.224789  1
  C  C61  1  0.196783  0.870396  0.843186  1
  C  C62  1  0.310809  0.602230  0.004212  1
  C  C63  1  0.642368  0.691955  0.407963  1
  C  C64  1  0.092531  0.933677  0.636902  1
  C  C65  1  0.189191  0.602230  0.504212  1
  C  C66  1  0.081222  0.200365  0.958883  1
  C  C67  1  0.488468  0.735692  0.676890  1
  C  C68  1  0.918778  0.799635  0.041117  1
  C  C69  1  0.797716  0.610335  0.768514  1
  C  C70  1  0.202284  0.389665  0.231486  1
  C  C71  1  0.374826  0.482185  0.866760  1
  C  C72  1  0.142368  0.308045  0.092037  1
  C  C73  1  0.297716  0.389665  0.731486  1
  C  C74  1  0.327052  0.878538  0.275211  1
  C  C75  1  0.581222  0.799635  0.541117  1
  C  C76  1  0.810809  0.397770  0.495788  1
  C  C77  1  0.592531  0.066323  0.863098  1
  C  C78  1  0.357632  0.308045  0.592037  1
  C  C79  1  0.988468  0.264308  0.823110  1
  C  C80  1  0.625174  0.517815  0.133240  1
  C  C81  1  0.696783  0.129604  0.656814  1
  C  C82  1  0.874826  0.517815  0.633240  1
  C  C83  1  0.511532  0.264308  0.323110  1
  C  C84  1  0.857632  0.691955  0.907963  1
  C  C85  1  0.303217  0.870396  0.343186  1
  C  C86  1  0.407469  0.933677  0.136902  1
  C  C87  1  0.500000  0.000000  0.000000  1
  C  C88  1  0.689191  0.397770  0.995788  1
  C  C89  1  0.418778  0.200365  0.458883  1
  C  C90  1  0.803217  0.129604  0.156814  1
  C  C91  1  0.702284  0.610335  0.268514  1
  C  C92  1  0.125174  0.482185  0.366760  1
  C  C93  1  0.000000  0.000000  0.500000  1
  C  C94  1  0.672948  0.121462  0.724789  1
  C  C95  1  0.172948  0.878538  0.775211  1
