# generated using pymatgen
data_Li5SnP3
_symmetry_space_group_name_H-M   'P 1'
_cell_length_a   8.50239293
_cell_length_b   12.72843946
_cell_length_c   10.41032177
_cell_angle_alpha   35.15545983
_cell_angle_beta   35.21617333
_cell_angle_gamma   59.88536819
_symmetry_Int_Tables_number   1
_chemical_formula_structural   Li5SnP3
_chemical_formula_sum   'Li10 Sn2 P6'
_cell_volume   323.83375973
_cell_formula_units_Z   2
loop_
 _symmetry_equiv_pos_site_id
 _symmetry_equiv_pos_as_xyz
  1  'x, y, z'
loop_
 _atom_site_type_symbol
 _atom_site_label
 _atom_site_symmetry_multiplicity
 _atom_site_fract_x
 _atom_site_fract_y
 _atom_site_fract_z
 _atom_site_occupancy
  Li  Li0  1  0.514201  0.341668  0.233440  1
  Li  Li1  1  0.990534  0.332516  0.753025  1
  Li  Li2  1  0.493052  0.661319  0.255657  1
  Li  Li3  1  0.999343  0.332483  0.243846  1
  Li  Li4  1  0.506624  0.000097  0.244566  1
  Li  Li5  1  0.507903  0.340598  0.740690  1
  Li  Li6  1  0.010709  0.666287  0.244048  1
  Li  Li7  1  0.489952  0.661499  0.759600  1
  Li  Li8  1  0.500467  0.000570  0.748538  1
  Li  Li9  1  0.003515  0.671245  0.748707  1
  Sn  Sn10  1  0.019539  0.000541  0.729491  1
  Sn  Sn11  1  0.985686  0.001346  0.262395  1
  P  P12  1  0.003075  0.000104  0.996664  1
  P  P13  1  0.502046  0.001026  0.997149  1
  P  P14  1  0.485963  0.330863  0.012438  1
  P  P15  1  0.516869  0.672097  0.981333  1
  P  P16  1  0.006211  0.331060  0.991656  1
  P  P17  1  0.996845  0.670166  0.002436  1
