# generated using pymatgen
data_Li2VCl4
_symmetry_space_group_name_H-M   'P 1'
_cell_length_a   7.45450255
_cell_length_b   7.41861369
_cell_length_c   7.45450252
_cell_angle_alpha   60.15912932
_cell_angle_beta   60.38941714
_cell_angle_gamma   60.15913397
_symmetry_Int_Tables_number   1
_chemical_formula_structural   Li2VCl4
_chemical_formula_sum   'Li4 V2 Cl8'
_cell_volume   293.05796291
_cell_formula_units_Z   2
loop_
 _symmetry_equiv_pos_site_id
 _symmetry_equiv_pos_as_xyz
  1  'x, y, z'
loop_
 _atom_site_type_symbol
 _atom_site_label
 _atom_site_symmetry_multiplicity
 _atom_site_fract_x
 _atom_site_fract_y
 _atom_site_fract_z
 _atom_site_occupancy
  Cl  Cl0  1  0.377273  0.389088  0.377273  1
  Cl  Cl1  1  0.377273  0.856366  0.377273  1
  Cl  Cl2  1  0.378947  0.385821  0.849412  1
  Cl  Cl3  1  0.849412  0.385821  0.378947  1
  Cl  Cl4  1  0.400312  0.864181  0.871326  1
  Cl  Cl5  1  0.872813  0.393789  0.872813  1
  Cl  Cl6  1  0.871326  0.864181  0.400312  1
  Cl  Cl7  1  0.872813  0.860584  0.872813  1
  Li  Li8  1  0.012017  0.987983  0.012017  1
  Li  Li9  1  0.237688  0.262312  0.237688  1
  Li  Li10  1  0.625071  0.124999  0.625071  1
  Li  Li11  1  0.625071  0.624860  0.625071  1
  V  V12  1  0.125144  0.625008  0.624840  1
  V  V13  1  0.624840  0.625008  0.125144  1
