# generated using pymatgen
data_Rh8C20O19
_symmetry_space_group_name_H-M   'P 1'
_cell_length_a   9.26001434
_cell_length_b   10.56599262
_cell_length_c   17.92532057
_cell_angle_alpha   104.09902960
_cell_angle_beta   92.39895366
_cell_angle_gamma   110.85919116
_symmetry_Int_Tables_number   1
_chemical_formula_structural   Rh8C20O19
_chemical_formula_sum   'Rh16 C40 O38'
_cell_volume   1573.43469185
_cell_formula_units_Z   2
loop_
 _symmetry_equiv_pos_site_id
 _symmetry_equiv_pos_as_xyz
  1  'x, y, z'
loop_
 _atom_site_type_symbol
 _atom_site_label
 _atom_site_symmetry_multiplicity
 _atom_site_fract_x
 _atom_site_fract_y
 _atom_site_fract_z
 _atom_site_occupancy
  Rh  Rh0  1  0.211361  0.652792  0.393730  1
  Rh  Rh1  1  0.745246  0.279290  0.751992  1
  Rh  Rh2  1  0.496214  0.299359  0.661300  1
  Rh  Rh3  1  0.446611  0.869118  0.157183  1
  Rh  Rh4  1  0.503786  0.700641  0.338700  1
  Rh  Rh5  1  0.254754  0.720710  0.248008  1
  Rh  Rh6  1  0.728502  0.655538  0.833744  1
  Rh  Rh7  1  0.271498  0.344462  0.166256  1
  Rh  Rh8  1  0.065210  0.453578  0.245652  1
  Rh  Rh9  1  0.483531  0.614099  0.174098  1
  Rh  Rh10  1  0.308454  0.424550  0.334115  1
  Rh  Rh11  1  0.516469  0.385901  0.825902  1
  Rh  Rh12  1  0.934790  0.546422  0.754348  1
  Rh  Rh13  1  0.788639  0.347208  0.606270  1
  Rh  Rh14  1  0.691546  0.575450  0.665885  1
  Rh  Rh15  1  0.553389  0.130882  0.842817  1
  C  C16  1  0.317887  0.545535  0.249509  1
  C  C17  1  0.055032  0.585964  0.175142  1
  C  C18  1  0.597612  0.986183  0.248421  1
  C  C19  1  0.524512  0.575687  0.887598  1
  C  C20  1  0.149322  0.590209  0.747254  1
  C  C21  1  0.534952  0.549743  0.384613  1
  C  C22  1  0.642895  0.154253  0.633077  1
  C  C23  1  0.358464  0.281457  0.251431  1
  C  C24  1  0.626848  0.701852  0.110384  1
  C  C25  1  0.641536  0.718543  0.748569  1
  C  C26  1  0.465048  0.450257  0.615386  1
  C  C27  1  0.536014  0.008979  0.106167  1
  C  C28  1  0.944968  0.414036  0.824858  1
  C  C29  1  0.662069  0.858772  0.411034  1
  C  C30  1  0.314111  0.705968  0.498241  1
  C  C31  1  0.775483  0.832018  0.910631  1
  C  C32  1  0.463986  0.991021  0.893833  1
  C  C33  1  0.192948  0.871392  0.238375  1
  C  C34  1  0.357105  0.845747  0.366923  1
  C  C35  1  0.337043  0.302374  0.738257  1
  C  C36  1  0.373152  0.298148  0.889616  1
  C  C37  1  0.402388  0.013817  0.751579  1
  C  C38  1  0.715001  0.248096  0.930490  1
  C  C39  1  0.023950  0.257101  0.181640  1
  C  C40  1  0.976050  0.742899  0.818360  1
  C  C41  1  0.272742  0.294376  0.395280  1
  C  C42  1  0.850678  0.409791  0.252746  1
  C  C43  1  0.076989  0.446200  0.382689  1
  C  C44  1  0.224517  0.167982  0.089369  1
  C  C45  1  0.949460  0.273611  0.584686  1
  C  C46  1  0.475488  0.424313  0.112402  1
  C  C47  1  0.685889  0.294032  0.501759  1
  C  C48  1  0.284999  0.751904  0.069510  1
  C  C49  1  0.727258  0.705624  0.604720  1
  C  C50  1  0.923011  0.553800  0.617311  1
  C  C51  1  0.662957  0.697626  0.261743  1
  C  C52  1  0.050540  0.726389  0.415314  1
  C  C53  1  0.807052  0.128608  0.761625  1
  C  C54  1  0.682113  0.454465  0.750491  1
  C  C55  1  0.337931  0.141228  0.588966  1
  O  O56  1  0.279850  0.612947  0.743061  1
  O  O57  1  0.248723  0.209042  0.427980  1
  O  O58  1  0.134659  0.950801  0.234974  1
  O  O59  1  0.625874  0.262814  0.438892  1
  O  O60  1  0.275530  0.256901  0.926126  1
  O  O61  1  0.751277  0.790958  0.572020  1
  O  O62  1  0.798463  0.722679  0.265709  1
  O  O63  1  0.416663  0.198200  0.249272  1
  O  O64  1  0.756549  0.959696  0.451280  1
  O  O65  1  0.720150  0.387053  0.256939  1
  O  O66  1  0.398264  0.966949  0.399662  1
  O  O67  1  0.189998  0.688036  0.016708  1
  O  O68  1  0.041181  0.225791  0.567479  1
  O  O69  1  0.374126  0.737186  0.561108  1
  O  O70  1  0.072512  0.857242  0.840354  1
  O  O71  1  0.803755  0.939974  0.954987  1
  O  O72  1  0.984078  0.369484  0.410621  1
  O  O73  1  0.201537  0.277321  0.734291  1
  O  O74  1  0.927488  0.142758  0.159646  1
  O  O75  1  0.583337  0.801800  0.750729  1
  O  O76  1  0.545947  0.373367  0.069847  1
  O  O77  1  0.243451  0.040304  0.548720  1
  O  O78  1  0.593302  0.098589  0.077693  1
  O  O79  1  0.015922  0.630516  0.589379  1
  O  O80  1  0.307824  0.937979  0.700336  1
  O  O81  1  0.196245  0.060026  0.045013  1
  O  O82  1  0.036788  0.423453  0.875204  1
  O  O83  1  0.692176  0.062021  0.299664  1
  O  O84  1  0.601736  0.033051  0.600338  1
  O  O85  1  0.454053  0.626633  0.930153  1
  O  O86  1  0.963212  0.576547  0.124796  1
  O  O87  1  0.365847  0.459916  0.576495  1
  O  O88  1  0.810002  0.311964  0.983292  1
  O  O89  1  0.958819  0.774209  0.432521  1
  O  O90  1  0.724470  0.743099  0.073874  1
  O  O91  1  0.406698  0.901411  0.922307  1
  O  O92  1  0.634153  0.540084  0.423505  1
  O  O93  1  0.865341  0.049199  0.765026  1
