# generated using pymatgen
data_CsSbTe6(OF5)6
_symmetry_space_group_name_H-M   'P 1'
_cell_length_a   14.63561166
_cell_length_b   14.63561166
_cell_length_c   14.92393731
_cell_angle_alpha   90.00000000
_cell_angle_beta   90.00000000
_cell_angle_gamma   90.00000000
_symmetry_Int_Tables_number   1
_chemical_formula_structural   CsSbTe6(OF5)6
_chemical_formula_sum   'Cs4 Sb4 Te24 O24 F120'
_cell_volume   3196.72421589
_cell_formula_units_Z   4
loop_
 _symmetry_equiv_pos_site_id
 _symmetry_equiv_pos_as_xyz
  1  'x, y, z'
loop_
 _atom_site_type_symbol
 _atom_site_label
 _atom_site_symmetry_multiplicity
 _atom_site_fract_x
 _atom_site_fract_y
 _atom_site_fract_z
 _atom_site_occupancy
  Cs  Cs0  1  0.750000  0.250000  0.228459  1
  Cs  Cs1  1  0.750000  0.250000  0.728459  1
  Cs  Cs2  1  0.250000  0.750000  0.271541  1
  Cs  Cs3  1  0.250000  0.750000  0.771541  1
  Sb  Sb4  1  0.500000  0.500000  0.500000  1
  Sb  Sb5  1  0.500000  0.000000  0.000000  1
  Sb  Sb6  1  0.000000  0.500000  0.000000  1
  Sb  Sb7  1  0.000000  0.000000  0.500000  1
  Te  Te8  1  0.953366  0.551845  0.236291  1
  Te  Te9  1  0.046634  0.448155  0.763709  1
  Te  Te10  1  0.460268  0.746753  0.529172  1
  Te  Te11  1  0.246753  0.539732  0.029172  1
  Te  Te12  1  0.753247  0.460268  0.970828  1
  Te  Te13  1  0.459676  0.240618  0.054186  1
  Te  Te14  1  0.259382  0.459676  0.445814  1
  Te  Te15  1  0.759382  0.959676  0.554186  1
  Te  Te16  1  0.539732  0.253247  0.470828  1
  Te  Te17  1  0.051845  0.046634  0.736291  1
  Te  Te18  1  0.040324  0.259382  0.054186  1
  Te  Te19  1  0.240618  0.040324  0.445814  1
  Te  Te20  1  0.551845  0.546634  0.263709  1
  Te  Te21  1  0.959676  0.740618  0.945814  1
  Te  Te22  1  0.448155  0.453366  0.736291  1
  Te  Te23  1  0.740618  0.540324  0.554186  1
  Te  Te24  1  0.453366  0.051845  0.763709  1
  Te  Te25  1  0.253247  0.960268  0.029172  1
  Te  Te26  1  0.546634  0.948155  0.236291  1
  Te  Te27  1  0.039732  0.753247  0.529172  1
  Te  Te28  1  0.960268  0.246753  0.470828  1
  Te  Te29  1  0.540324  0.759382  0.945814  1
  Te  Te30  1  0.948155  0.953366  0.263709  1
  Te  Te31  1  0.746753  0.039732  0.970828  1
  O  O32  1  0.552823  0.380342  0.462077  1
  O  O33  1  0.446153  0.444923  0.609827  1
  O  O34  1  0.530403  0.887158  0.932205  1
  O  O35  1  0.947177  0.119658  0.462077  1
  O  O36  1  0.112842  0.030403  0.432205  1
  O  O37  1  0.053847  0.055077  0.609827  1
  O  O38  1  0.887158  0.969597  0.567795  1
  O  O39  1  0.055077  0.446153  0.890173  1
  O  O40  1  0.553847  0.555077  0.390173  1
  O  O41  1  0.380342  0.947177  0.037923  1
  O  O42  1  0.944923  0.553847  0.109827  1
  O  O43  1  0.969597  0.612842  0.932205  1
  O  O44  1  0.880342  0.447177  0.962077  1
  O  O45  1  0.387158  0.469597  0.432205  1
  O  O46  1  0.444923  0.053847  0.890173  1
  O  O47  1  0.030403  0.387158  0.067795  1
  O  O48  1  0.052823  0.880342  0.537923  1
  O  O49  1  0.555077  0.946153  0.109827  1
  O  O50  1  0.619658  0.052823  0.962077  1
  O  O51  1  0.469597  0.112842  0.067795  1
  O  O52  1  0.119658  0.552823  0.037923  1
  O  O53  1  0.612842  0.530403  0.567795  1
  O  O54  1  0.447177  0.619658  0.537923  1
  O  O55  1  0.946153  0.944923  0.390173  1
  F  F56  1  0.750035  0.934901  0.042310  1
  F  F57  1  0.452541  0.057448  0.638593  1
  F  F58  1  0.148033  0.370384  0.763152  1
  F  F59  1  0.235387  0.144805  0.518151  1
  F  F60  1  0.244763  0.566055  0.374801  1
  F  F61  1  0.750191  0.111570  0.076402  1
  F  F62  1  0.352693  0.754025  0.598815  1
  F  F63  1  0.629616  0.648033  0.263152  1
  F  F64  1  0.153566  0.967034  0.736275  1
  F  F65  1  0.032966  0.653566  0.236275  1
  F  F66  1  0.749809  0.388430  0.076402  1
  F  F67  1  0.112277  0.258715  0.157755  1
  F  F68  1  0.444587  0.025445  0.244316  1
  F  F69  1  0.887723  0.741285  0.842245  1
  F  F70  1  0.644805  0.764613  0.018151  1
  F  F71  1  0.754025  0.147307  0.901185  1
  F  F72  1  0.252302  0.534364  0.548304  1
  F  F73  1  0.950444  0.868156  0.947210  1
  F  F74  1  0.032043  0.253796  0.366946  1
  F  F75  1  0.129616  0.148033  0.736848  1
  F  F76  1  0.846434  0.032966  0.263725  1
  F  F77  1  0.955527  0.374267  0.472332  1
  F  F78  1  0.952541  0.557448  0.361407  1
  F  F79  1  0.258715  0.387723  0.342245  1
  F  F80  1  0.374267  0.544473  0.027668  1
  F  F81  1  0.044473  0.625733  0.527668  1
  F  F82  1  0.933945  0.244763  0.125199  1
  F  F83  1  0.442552  0.452541  0.861407  1
  F  F84  1  0.355195  0.235387  0.981849  1
  F  F85  1  0.065099  0.250035  0.542310  1
  F  F86  1  0.051601  0.876526  0.253850  1
  F  F87  1  0.623474  0.051601  0.246150  1
  F  F88  1  0.549556  0.631844  0.947210  1
  F  F89  1  0.944587  0.525445  0.755684  1
  F  F90  1  0.744763  0.066055  0.625199  1
  F  F91  1  0.534364  0.247698  0.951696  1
  F  F92  1  0.055413  0.474555  0.244316  1
  F  F93  1  0.888430  0.250191  0.576402  1
  F  F94  1  0.755237  0.433945  0.625199  1
  F  F95  1  0.625733  0.455527  0.972332  1
  F  F96  1  0.433945  0.744763  0.874801  1
  F  F97  1  0.066055  0.755237  0.874801  1
  F  F98  1  0.611570  0.249809  0.576402  1
  F  F99  1  0.747698  0.465636  0.451696  1
  F  F100  1  0.264613  0.355195  0.518151  1
  F  F101  1  0.467034  0.846434  0.236275  1
  F  F102  1  0.851967  0.629616  0.236848  1
  F  F103  1  0.965636  0.252302  0.951696  1
  F  F104  1  0.376526  0.948399  0.753850  1
  F  F105  1  0.876526  0.448399  0.246150  1
  F  F106  1  0.249809  0.888430  0.923598  1
  F  F107  1  0.450444  0.368156  0.052790  1
  F  F108  1  0.249965  0.065099  0.957690  1
  F  F109  1  0.746204  0.532043  0.866946  1
  F  F110  1  0.565099  0.750035  0.457690  1
  F  F111  1  0.254025  0.647307  0.098815  1
  F  F112  1  0.532043  0.753796  0.633054  1
  F  F113  1  0.974555  0.944587  0.744316  1
  F  F114  1  0.368156  0.049556  0.447210  1
  F  F115  1  0.741285  0.612277  0.657755  1
  F  F116  1  0.474555  0.444587  0.255684  1
  F  F117  1  0.967957  0.746204  0.633054  1
  F  F118  1  0.247698  0.965636  0.548304  1
  F  F119  1  0.874267  0.044473  0.972332  1
  F  F120  1  0.351967  0.129616  0.763152  1
  F  F121  1  0.147307  0.745975  0.598815  1
  F  F122  1  0.544473  0.125733  0.472332  1
  F  F123  1  0.125733  0.955527  0.027668  1
  F  F124  1  0.934901  0.749965  0.457690  1
  F  F125  1  0.551601  0.376526  0.746150  1
  F  F126  1  0.653566  0.467034  0.263725  1
  F  F127  1  0.532966  0.153566  0.763725  1
  F  F128  1  0.241285  0.112277  0.342245  1
  F  F129  1  0.557448  0.547459  0.138593  1
  F  F130  1  0.111570  0.749809  0.423598  1
  F  F131  1  0.455527  0.874267  0.527668  1
  F  F132  1  0.025445  0.055413  0.255684  1
  F  F133  1  0.131844  0.450444  0.447210  1
  F  F134  1  0.752302  0.034364  0.451696  1
  F  F135  1  0.648033  0.870384  0.236848  1
  F  F136  1  0.246204  0.032043  0.133054  1
  F  F137  1  0.647307  0.245975  0.401185  1
  F  F138  1  0.745975  0.352693  0.901185  1
  F  F139  1  0.547459  0.942552  0.361407  1
  F  F140  1  0.764613  0.855195  0.481849  1
  F  F141  1  0.467957  0.246204  0.366946  1
  F  F142  1  0.465636  0.752302  0.048304  1
  F  F143  1  0.852693  0.254025  0.401185  1
  F  F144  1  0.255237  0.933945  0.374801  1
  F  F145  1  0.448399  0.623474  0.253850  1
  F  F146  1  0.123474  0.551601  0.753850  1
  F  F147  1  0.855195  0.735387  0.018151  1
  F  F148  1  0.758715  0.887723  0.657755  1
  F  F149  1  0.948399  0.123474  0.746150  1
  F  F150  1  0.631844  0.950444  0.552790  1
  F  F151  1  0.346434  0.532966  0.736275  1
  F  F152  1  0.868156  0.549556  0.552790  1
  F  F153  1  0.387723  0.241285  0.157755  1
  F  F154  1  0.049556  0.131844  0.052790  1
  F  F155  1  0.753796  0.967957  0.866946  1
  F  F156  1  0.250035  0.434901  0.957690  1
  F  F157  1  0.749965  0.565099  0.042310  1
  F  F158  1  0.434901  0.249965  0.542310  1
  F  F159  1  0.253796  0.467957  0.133054  1
  F  F160  1  0.525445  0.555413  0.744316  1
  F  F161  1  0.555413  0.974555  0.755684  1
  F  F162  1  0.370384  0.351967  0.736848  1
  F  F163  1  0.057448  0.047459  0.861407  1
  F  F164  1  0.388430  0.750191  0.423598  1
  F  F165  1  0.870384  0.851967  0.263152  1
  F  F166  1  0.144805  0.264613  0.981849  1
  F  F167  1  0.612277  0.758715  0.842245  1
  F  F168  1  0.967034  0.346434  0.763725  1
  F  F169  1  0.566055  0.255237  0.125199  1
  F  F170  1  0.942552  0.952541  0.138593  1
  F  F171  1  0.735387  0.644805  0.481849  1
  F  F172  1  0.047459  0.442552  0.638593  1
  F  F173  1  0.250191  0.611570  0.923598  1
  F  F174  1  0.034364  0.747698  0.048304  1
  F  F175  1  0.245975  0.852693  0.098815  1
