# generated using pymatgen
data_CdI2
_symmetry_space_group_name_H-M   'P 1'
_cell_length_a   4.34388871
_cell_length_b   4.34388897
_cell_length_c   81.03743429
_cell_angle_alpha   90.00000000
_cell_angle_beta   90.00000000
_cell_angle_gamma   119.99999793
_symmetry_Int_Tables_number   1
_chemical_formula_structural   CdI2
_chemical_formula_sum   'Cd11 I22'
_cell_volume   1324.26142890
_cell_formula_units_Z   11
loop_
 _symmetry_equiv_pos_site_id
 _symmetry_equiv_pos_as_xyz
  1  'x, y, z'
loop_
 _atom_site_type_symbol
 _atom_site_label
 _atom_site_symmetry_multiplicity
 _atom_site_fract_x
 _atom_site_fract_y
 _atom_site_fract_z
 _atom_site_occupancy
  Cd  Cd0  1  0.666667  0.333333  0.204538  1
  Cd  Cd1  1  0.000000  0.000000  0.295446  1
  Cd  Cd2  1  0.333333  0.666667  0.840928  1
  Cd  Cd3  1  0.666667  0.333333  0.022726  1
  Cd  Cd4  1  0.000000  0.000000  0.931811  1
  Cd  Cd5  1  0.000000  0.000000  0.477271  1
  Cd  Cd6  1  0.666667  0.333333  0.386383  1
  Cd  Cd7  1  0.000000  0.000000  0.568184  1
  Cd  Cd8  1  0.000000  0.000000  0.113631  1
  Cd  Cd9  1  0.000000  0.000000  0.659066  1
  Cd  Cd10  1  0.000000  0.000000  0.749994  1
  I  I11  1  0.333333  0.666667  0.589536  1
  I  I12  1  0.333333  0.666667  0.407759  1
  I  I13  1  0.000000  0.000000  0.183172  1
  I  I14  1  0.333333  0.666667  0.953155  1
  I  I15  1  0.666667  0.333333  0.455903  1
  I  I16  1  0.666667  0.333333  0.274086  1
  I  I17  1  0.333333  0.666667  0.771353  1
  I  I18  1  0.333333  0.666667  0.044095  1
  I  I19  1  0.333333  0.666667  0.225901  1
  I  I20  1  0.666667  0.333333  0.092261  1
  I  I21  1  0.000000  0.000000  0.001398  1
  I  I22  1  0.000000  0.000000  0.862287  1
  I  I23  1  0.333333  0.666667  0.316835  1
  I  I24  1  0.666667  0.333333  0.546832  1
  I  I25  1  0.666667  0.333333  0.728634  1
  I  I26  1  0.000000  0.000000  0.365022  1
  I  I27  1  0.333333  0.666667  0.680439  1
  I  I28  1  0.666667  0.333333  0.910461  1
  I  I29  1  0.666667  0.333333  0.819559  1
  I  I30  1  0.333333  0.666667  0.134999  1
  I  I31  1  0.666667  0.333333  0.637694  1
  I  I32  1  0.333333  0.666667  0.498640  1
