# generated using pymatgen
data_Tb2EuSe4
_symmetry_space_group_name_H-M   'P 1'
_cell_length_a   4.15601173
_cell_length_b   12.51032539
_cell_length_c   15.00073575
_cell_angle_alpha   90.00000000
_cell_angle_beta   90.00000000
_cell_angle_gamma   90.00000000
_symmetry_Int_Tables_number   1
_chemical_formula_structural   Tb2EuSe4
_chemical_formula_sum   'Tb8 Eu4 Se16'
_cell_volume   779.93413990
_cell_formula_units_Z   4
loop_
 _symmetry_equiv_pos_site_id
 _symmetry_equiv_pos_as_xyz
  1  'x, y, z'
loop_
 _atom_site_type_symbol
 _atom_site_label
 _atom_site_symmetry_multiplicity
 _atom_site_fract_x
 _atom_site_fract_y
 _atom_site_fract_z
 _atom_site_occupancy
  Eu  Eu0  1  0.250000  0.757361  0.663284  1
  Eu  Eu1  1  0.250000  0.257361  0.836716  1
  Eu  Eu2  1  0.750000  0.242639  0.336716  1
  Eu  Eu3  1  0.750000  0.742639  0.163284  1
  Tb  Tb4  1  0.750000  0.568982  0.389796  1
  Tb  Tb5  1  0.750000  0.580482  0.900925  1
  Tb  Tb6  1  0.250000  0.419518  0.099075  1
  Tb  Tb7  1  0.750000  0.068982  0.110204  1
  Tb  Tb8  1  0.250000  0.431018  0.610204  1
  Tb  Tb9  1  0.250000  0.919518  0.400925  1
  Tb  Tb10  1  0.750000  0.080482  0.599075  1
  Tb  Tb11  1  0.250000  0.931018  0.889796  1
  Se  Se12  1  0.750000  0.978379  0.283928  1
  Se  Se13  1  0.750000  0.588223  0.580262  1
  Se  Se14  1  0.250000  0.708818  0.321520  1
  Se  Se15  1  0.750000  0.791182  0.821520  1
  Se  Se16  1  0.250000  0.208818  0.178480  1
  Se  Se17  1  0.250000  0.411777  0.419738  1
  Se  Se18  1  0.250000  0.634317  0.029219  1
  Se  Se19  1  0.250000  0.021621  0.716072  1
  Se  Se20  1  0.750000  0.291182  0.678480  1
  Se  Se21  1  0.250000  0.134317  0.470781  1
  Se  Se22  1  0.750000  0.865683  0.529219  1
  Se  Se23  1  0.250000  0.911777  0.080262  1
  Se  Se24  1  0.750000  0.478379  0.216072  1
  Se  Se25  1  0.750000  0.088223  0.919738  1
  Se  Se26  1  0.250000  0.521621  0.783928  1
  Se  Se27  1  0.750000  0.365683  0.970781  1
