# generated using pymatgen
data_La10Ga5Cl4
_symmetry_space_group_name_H-M   'P 1'
_cell_length_a   8.08890240
_cell_length_b   8.08890183
_cell_length_c   17.09911095
_cell_angle_alpha   103.68182424
_cell_angle_beta   103.68182325
_cell_angle_gamma   89.99999622
_symmetry_Int_Tables_number   1
_chemical_formula_structural   La10Ga5Cl4
_chemical_formula_sum   'La20 Ga10 Cl8'
_cell_volume   1054.35141432
_cell_formula_units_Z   2
loop_
 _symmetry_equiv_pos_site_id
 _symmetry_equiv_pos_as_xyz
  1  'x, y, z'
loop_
 _atom_site_type_symbol
 _atom_site_label
 _atom_site_symmetry_multiplicity
 _atom_site_fract_x
 _atom_site_fract_y
 _atom_site_fract_z
 _atom_site_occupancy
  La  La0  1  0.105612  0.605612  0.862129  1
  La  La1  1  0.535432  0.369815  0.405248  1
  La  La2  1  0.464568  0.630185  0.594752  1
  La  La3  1  0.605612  0.756517  0.862129  1
  La  La4  1  0.151061  0.151061  0.302122  1
  La  La5  1  0.630185  0.130185  0.594752  1
  La  La6  1  0.743483  0.894388  0.137871  1
  La  La7  1  0.130185  0.964568  0.594752  1
  La  La8  1  0.756517  0.256517  0.862129  1
  La  La9  1  0.651061  0.651061  0.302122  1
  La  La10  1  0.848939  0.848939  0.697878  1
  La  La11  1  0.869815  0.035432  0.405248  1
  La  La12  1  0.369815  0.869815  0.405248  1
  La  La13  1  0.394388  0.243483  0.137871  1
  La  La14  1  0.035432  0.535432  0.405248  1
  La  La15  1  0.243483  0.743483  0.137871  1
  La  La16  1  0.256517  0.105612  0.862129  1
  La  La17  1  0.894388  0.394388  0.137871  1
  La  La18  1  0.964568  0.464568  0.594752  1
  La  La19  1  0.348939  0.348939  0.697878  1
  Ga  Ga20  1  0.752514  0.252514  0.264145  1
  Ga  Ga21  1  0.252514  0.511631  0.264145  1
  Ga  Ga22  1  0.011631  0.752514  0.264145  1
  Ga  Ga23  1  0.988369  0.247486  0.735855  1
  Ga  Ga24  1  0.747486  0.488369  0.735855  1
  Ga  Ga25  1  0.488369  0.988369  0.735855  1
  Ga  Ga26  1  0.247486  0.747486  0.735855  1
  Ga  Ga27  1  0.750000  0.750000  0.500000  1
  Ga  Ga28  1  0.250000  0.250000  0.500000  1
  Ga  Ga29  1  0.511631  0.011631  0.264145  1
  Cl  Cl30  1  0.554566  0.554566  0.109132  1
  Cl  Cl31  1  0.860322  0.639678  0.000000  1
  Cl  Cl32  1  0.139678  0.360322  0.000000  1
  Cl  Cl33  1  0.360322  0.860322  0.000000  1
  Cl  Cl34  1  0.054566  0.054566  0.109132  1
  Cl  Cl35  1  0.945434  0.945434  0.890868  1
  Cl  Cl36  1  0.445434  0.445434  0.890868  1
  Cl  Cl37  1  0.639678  0.139678  0.000000  1
