# generated using pymatgen
data_Rb3Ta5O14
_symmetry_space_group_name_H-M   'P 1'
_cell_length_a   7.45541468
_cell_length_b   14.93442276
_cell_length_c   25.64832119
_cell_angle_alpha   90.00000000
_cell_angle_beta   90.00000000
_cell_angle_gamma   90.00000000
_symmetry_Int_Tables_number   1
_chemical_formula_structural   Rb3Ta5O14
_chemical_formula_sum   'Rb24 Ta40 O112'
_cell_volume   2855.74344901
_cell_formula_units_Z   8
loop_
 _symmetry_equiv_pos_site_id
 _symmetry_equiv_pos_as_xyz
  1  'x, y, z'
loop_
 _atom_site_type_symbol
 _atom_site_label
 _atom_site_symmetry_multiplicity
 _atom_site_fract_x
 _atom_site_fract_y
 _atom_site_fract_z
 _atom_site_occupancy
  Rb  Rb0  1  0.272411  0.013243  0.480635  1
  Rb  Rb1  1  0.870475  0.002824  0.381889  1
  Rb  Rb2  1  0.227589  0.513243  0.980635  1
  Rb  Rb3  1  0.376894  0.750000  0.206028  1
  Rb  Rb4  1  0.272411  0.486757  0.480635  1
  Rb  Rb5  1  0.727589  0.986757  0.519365  1
  Rb  Rb6  1  0.123106  0.250000  0.706028  1
  Rb  Rb7  1  0.370475  0.002824  0.118111  1
  Rb  Rb8  1  0.651576  0.750000  0.792546  1
  Rb  Rb9  1  0.727589  0.513243  0.519365  1
  Rb  Rb10  1  0.370475  0.497176  0.118111  1
  Rb  Rb11  1  0.876894  0.750000  0.293972  1
  Rb  Rb12  1  0.870475  0.497176  0.381889  1
  Rb  Rb13  1  0.848424  0.250000  0.292546  1
  Rb  Rb14  1  0.227589  0.986757  0.980635  1
  Rb  Rb15  1  0.629525  0.997176  0.881889  1
  Rb  Rb16  1  0.772411  0.013243  0.019365  1
  Rb  Rb17  1  0.772411  0.486757  0.019365  1
  Rb  Rb18  1  0.129525  0.997176  0.618111  1
  Rb  Rb19  1  0.129525  0.502824  0.618111  1
  Rb  Rb20  1  0.348424  0.250000  0.207454  1
  Rb  Rb21  1  0.623106  0.250000  0.793972  1
  Rb  Rb22  1  0.629525  0.502824  0.881889  1
  Rb  Rb23  1  0.151576  0.750000  0.707454  1
  Ta  Ta24  1  0.370262  0.619295  0.356429  1
  Ta  Ta25  1  0.916806  0.250000  0.938634  1
  Ta  Ta26  1  0.416806  0.250000  0.561366  1
  Ta  Ta27  1  0.892863  0.750000  0.945010  1
  Ta  Ta28  1  0.410101  0.750000  0.944671  1
  Ta  Ta29  1  0.629123  0.623137  0.652979  1
  Ta  Ta30  1  0.083194  0.750000  0.061366  1
  Ta  Ta31  1  0.392863  0.750000  0.554990  1
  Ta  Ta32  1  0.129738  0.119295  0.856429  1
  Ta  Ta33  1  0.910101  0.750000  0.555329  1
  Ta  Ta34  1  0.870262  0.619295  0.143571  1
  Ta  Ta35  1  0.142564  0.510828  0.244427  1
  Ta  Ta36  1  0.564881  0.750000  0.056408  1
  Ta  Ta37  1  0.870262  0.880705  0.143571  1
  Ta  Ta38  1  0.142564  0.989172  0.244427  1
  Ta  Ta39  1  0.435119  0.250000  0.943592  1
  Ta  Ta40  1  0.089899  0.250000  0.444671  1
  Ta  Ta41  1  0.064881  0.750000  0.443592  1
  Ta  Ta42  1  0.857437  0.010828  0.755573  1
  Ta  Ta43  1  0.629738  0.119295  0.643571  1
  Ta  Ta44  1  0.129123  0.876863  0.847021  1
  Ta  Ta45  1  0.935119  0.250000  0.556408  1
  Ta  Ta46  1  0.357436  0.010828  0.744427  1
  Ta  Ta47  1  0.870877  0.376863  0.152979  1
  Ta  Ta48  1  0.370877  0.376863  0.347021  1
  Ta  Ta49  1  0.129123  0.623137  0.847021  1
  Ta  Ta50  1  0.870877  0.123137  0.152979  1
  Ta  Ta51  1  0.107137  0.250000  0.054990  1
  Ta  Ta52  1  0.642563  0.510828  0.255573  1
  Ta  Ta53  1  0.607137  0.250000  0.445010  1
  Ta  Ta54  1  0.129738  0.380705  0.856429  1
  Ta  Ta55  1  0.370877  0.123137  0.347021  1
  Ta  Ta56  1  0.642563  0.989172  0.255573  1
  Ta  Ta57  1  0.370262  0.880705  0.356429  1
  Ta  Ta58  1  0.589899  0.250000  0.055329  1
  Ta  Ta59  1  0.629738  0.380705  0.643571  1
  Ta  Ta60  1  0.583194  0.750000  0.438634  1
  Ta  Ta61  1  0.357436  0.489172  0.744427  1
  Ta  Ta62  1  0.629123  0.876863  0.652979  1
  Ta  Ta63  1  0.857437  0.489172  0.755573  1
  O  O64  1  0.713785  0.608771  0.203683  1
  O  O65  1  0.987529  0.838098  0.499176  1
  O  O66  1  0.177256  0.344088  0.399612  1
  O  O67  1  0.850539  0.250000  0.013951  1
  O  O68  1  0.908179  0.250000  0.170718  1
  O  O69  1  0.419115  0.401579  0.690299  1
  O  O70  1  0.149461  0.750000  0.986049  1
  O  O71  1  0.656267  0.654039  0.100106  1
  O  O72  1  0.465436  0.374758  0.575412  1
  O  O73  1  0.705463  0.094212  0.206551  1
  O  O74  1  0.487529  0.838098  0.000824  1
  O  O75  1  0.347715  0.001808  0.377499  1
  O  O76  1  0.794537  0.594212  0.706551  1
  O  O77  1  0.044192  0.141757  0.086016  1
  O  O78  1  0.919115  0.098421  0.809701  1
  O  O79  1  0.843733  0.345961  0.600106  1
  O  O80  1  0.455808  0.641757  0.586016  1
  O  O81  1  0.156267  0.654039  0.399894  1
  O  O82  1  0.583361  0.084329  0.307624  1
  O  O83  1  0.012471  0.338098  0.500824  1
  O  O84  1  0.580885  0.901579  0.309701  1
  O  O85  1  0.213785  0.891229  0.296317  1
  O  O86  1  0.286215  0.391229  0.796317  1
  O  O87  1  0.675982  0.250000  0.912142  1
  O  O88  1  0.676332  0.250000  0.518568  1
  O  O89  1  0.847715  0.498192  0.122501  1
  O  O90  1  0.083361  0.415671  0.192376  1
  O  O91  1  0.343733  0.154039  0.899894  1
  O  O92  1  0.824018  0.750000  0.412142  1
  O  O93  1  0.098447  0.011126  0.724983  1
  O  O94  1  0.449183  0.750000  0.362391  1
  O  O95  1  0.487529  0.661902  0.000824  1
  O  O96  1  0.965436  0.374758  0.924588  1
  O  O97  1  0.598447  0.011126  0.775017  1
  O  O98  1  0.965436  0.125243  0.924588  1
  O  O99  1  0.098447  0.488874  0.724983  1
  O  O100  1  0.713785  0.891229  0.203683  1
  O  O101  1  0.901553  0.511126  0.275017  1
  O  O102  1  0.823668  0.750000  0.018569  1
  O  O103  1  0.847715  0.001808  0.122501  1
  O  O104  1  0.919115  0.401579  0.809701  1
  O  O105  1  0.822744  0.655912  0.600387  1
  O  O106  1  0.205463  0.405788  0.293449  1
  O  O107  1  0.080885  0.598421  0.190299  1
  O  O108  1  0.080885  0.901579  0.190299  1
  O  O109  1  0.847442  0.250000  0.415945  1
  O  O110  1  0.465436  0.125243  0.575412  1
  O  O111  1  0.401553  0.988874  0.224983  1
  O  O112  1  0.294537  0.594212  0.793449  1
  O  O113  1  0.916639  0.915671  0.807624  1
  O  O114  1  0.786215  0.391229  0.703683  1
  O  O115  1  0.323668  0.750000  0.481432  1
  O  O116  1  0.175982  0.250000  0.587858  1
  O  O117  1  0.347442  0.250000  0.084055  1
  O  O118  1  0.419115  0.098421  0.690299  1
  O  O119  1  0.083361  0.084329  0.192376  1
  O  O120  1  0.580885  0.598421  0.309701  1
  O  O121  1  0.324018  0.750000  0.087858  1
  O  O122  1  0.649461  0.750000  0.513951  1
  O  O123  1  0.843733  0.154039  0.600106  1
  O  O124  1  0.416639  0.584329  0.692376  1
  O  O125  1  0.152558  0.750000  0.584055  1
  O  O126  1  0.949183  0.750000  0.137609  1
  O  O127  1  0.512471  0.161902  0.999176  1
  O  O128  1  0.916639  0.584329  0.807624  1
  O  O129  1  0.050817  0.250000  0.862391  1
  O  O130  1  0.591821  0.750000  0.670718  1
  O  O131  1  0.583361  0.415671  0.307624  1
  O  O132  1  0.534564  0.874757  0.424588  1
  O  O133  1  0.401553  0.511126  0.224983  1
  O  O134  1  0.350539  0.250000  0.486049  1
  O  O135  1  0.955808  0.858243  0.913984  1
  O  O136  1  0.955808  0.641757  0.913984  1
  O  O137  1  0.677256  0.344088  0.100388  1
  O  O138  1  0.901553  0.988874  0.275017  1
  O  O139  1  0.322744  0.844088  0.899613  1
  O  O140  1  0.705463  0.405788  0.206551  1
  O  O141  1  0.286215  0.108771  0.796317  1
  O  O142  1  0.213785  0.608771  0.296317  1
  O  O143  1  0.794537  0.905788  0.706551  1
  O  O144  1  0.408179  0.250000  0.329282  1
  O  O145  1  0.416639  0.915671  0.692376  1
  O  O146  1  0.012471  0.161902  0.500824  1
  O  O147  1  0.294537  0.905788  0.793449  1
  O  O148  1  0.512471  0.338098  0.999176  1
  O  O149  1  0.034564  0.625243  0.075412  1
  O  O150  1  0.822744  0.844088  0.600387  1
  O  O151  1  0.156267  0.845961  0.399894  1
  O  O152  1  0.322744  0.655912  0.899613  1
  O  O153  1  0.091821  0.750000  0.829282  1
  O  O154  1  0.987529  0.661902  0.499176  1
  O  O155  1  0.677256  0.155912  0.100388  1
  O  O156  1  0.044192  0.358243  0.086016  1
  O  O157  1  0.652558  0.750000  0.915945  1
  O  O158  1  0.343733  0.345961  0.899894  1
  O  O159  1  0.177256  0.155912  0.399612  1
  O  O160  1  0.652285  0.501808  0.622501  1
  O  O161  1  0.550817  0.250000  0.637609  1
  O  O162  1  0.652285  0.998192  0.622501  1
  O  O163  1  0.152285  0.998192  0.877499  1
  O  O164  1  0.347715  0.498192  0.377499  1
  O  O165  1  0.152285  0.501808  0.877499  1
  O  O166  1  0.034564  0.874757  0.075412  1
  O  O167  1  0.544192  0.358243  0.413984  1
  O  O168  1  0.205463  0.094212  0.293449  1
  O  O169  1  0.786215  0.108771  0.703683  1
  O  O170  1  0.455808  0.858243  0.586016  1
  O  O171  1  0.176332  0.250000  0.981432  1
  O  O172  1  0.656267  0.845961  0.100106  1
  O  O173  1  0.544192  0.141757  0.413984  1
  O  O174  1  0.598447  0.488874  0.775017  1
  O  O175  1  0.534564  0.625243  0.424588  1
