# generated using pymatgen
data_Mn2C7S2O7
_symmetry_space_group_name_H-M   'P 1'
_cell_length_a   6.95266945
_cell_length_b   10.19053715
_cell_length_c   17.54036945
_cell_angle_alpha   90.00000000
_cell_angle_beta   90.00000000
_cell_angle_gamma   90.00000000
_symmetry_Int_Tables_number   1
_chemical_formula_structural   Mn2C7S2O7
_chemical_formula_sum   'Mn8 C28 S8 O28'
_cell_volume   1242.76036915
_cell_formula_units_Z   4
loop_
 _symmetry_equiv_pos_site_id
 _symmetry_equiv_pos_as_xyz
  1  'x, y, z'
loop_
 _atom_site_type_symbol
 _atom_site_label
 _atom_site_symmetry_multiplicity
 _atom_site_fract_x
 _atom_site_fract_y
 _atom_site_fract_z
 _atom_site_occupancy
  Mn  Mn0  1  0.752993  0.748950  0.335318  1
  Mn  Mn1  1  0.737284  0.514809  0.408818  1
  Mn  Mn2  1  0.237284  0.985191  0.591182  1
  Mn  Mn3  1  0.747007  0.251050  0.835318  1
  Mn  Mn4  1  0.262716  0.014809  0.091182  1
  Mn  Mn5  1  0.247006  0.248950  0.164682  1
  Mn  Mn6  1  0.252993  0.751050  0.664682  1
  Mn  Mn7  1  0.762716  0.485191  0.908818  1
  C  C8  1  0.253764  0.761414  0.769138  1
  C  C9  1  0.264139  0.873262  0.155035  1
  C  C10  1  0.371676  0.408403  0.176351  1
  C  C11  1  0.959017  0.477137  0.460682  1
  C  C12  1  0.128324  0.591597  0.676351  1
  C  C13  1  0.246236  0.238586  0.269138  1
  C  C14  1  0.020959  0.338260  0.151814  1
  C  C15  1  0.427660  0.912247  0.673388  1
  C  C16  1  0.040983  0.977137  0.039318  1
  C  C17  1  0.100396  0.085308  0.521457  1
  C  C18  1  0.540983  0.522863  0.960682  1
  C  C19  1  0.628324  0.908403  0.323649  1
  C  C20  1  0.764139  0.626738  0.844965  1
  C  C21  1  0.399604  0.914692  0.021457  1
  C  C22  1  0.235861  0.126738  0.655035  1
  C  C23  1  0.459017  0.022863  0.539318  1
  C  C24  1  0.479041  0.661740  0.651814  1
  C  C25  1  0.735861  0.373262  0.344965  1
  C  C26  1  0.979041  0.838260  0.348186  1
  C  C27  1  0.753764  0.738586  0.230862  1
  C  C28  1  0.899604  0.585308  0.978543  1
  C  C29  1  0.871676  0.091597  0.823649  1
  C  C30  1  0.572340  0.412247  0.826612  1
  C  C31  1  0.520959  0.161740  0.848186  1
  C  C32  1  0.072340  0.087753  0.173388  1
  C  C33  1  0.746236  0.261414  0.730862  1
  C  C34  1  0.600396  0.414692  0.478543  1
  C  C35  1  0.927660  0.587753  0.326612  1
  S  S36  1  0.356675  0.215738  0.040700  1
  S  S37  1  0.143325  0.784262  0.540700  1
  S  S38  1  0.527061  0.141275  0.126313  1
  S  S39  1  0.972939  0.858725  0.626313  1
  S  S40  1  0.856675  0.284262  0.959300  1
  S  S41  1  0.643325  0.715738  0.459300  1
  S  S42  1  0.027061  0.358725  0.873687  1
  S  S43  1  0.472939  0.641275  0.373687  1
  O  O44  1  0.050031  0.492690  0.685962  1
  O  O45  1  0.985669  0.649074  0.021288  1
  O  O46  1  0.936472  0.050418  0.206640  1
  O  O47  1  0.380363  0.101679  0.856321  1
  O  O48  1  0.753091  0.737911  0.164630  1
  O  O49  1  0.253091  0.762089  0.835370  1
  O  O50  1  0.746909  0.262089  0.664630  1
  O  O51  1  0.485669  0.850926  0.978712  1
  O  O52  1  0.880363  0.398321  0.143679  1
  O  O53  1  0.550031  0.007310  0.314038  1
  O  O54  1  0.764246  0.717804  0.805061  1
  O  O55  1  0.735754  0.282196  0.305061  1
  O  O56  1  0.514331  0.350926  0.521288  1
  O  O57  1  0.598473  0.046552  0.505498  1
  O  O58  1  0.063528  0.550418  0.293360  1
  O  O59  1  0.119637  0.898321  0.356321  1
  O  O60  1  0.949969  0.992690  0.814038  1
  O  O61  1  0.235754  0.217804  0.694939  1
  O  O62  1  0.619637  0.601679  0.643679  1
  O  O63  1  0.401527  0.546552  0.994502  1
  O  O64  1  0.449969  0.507310  0.185962  1
  O  O65  1  0.901527  0.953448  0.005498  1
  O  O66  1  0.246909  0.237911  0.335370  1
  O  O67  1  0.436472  0.449582  0.793360  1
  O  O68  1  0.098473  0.453448  0.494502  1
  O  O69  1  0.563528  0.949582  0.706640  1
  O  O70  1  0.014331  0.149074  0.478712  1
  O  O71  1  0.264246  0.782196  0.194939  1
