# generated using pymatgen
data_Na(NO2)2
_symmetry_space_group_name_H-M   'P 1'
_cell_length_a   10.51906669
_cell_length_b   8.55541396
_cell_length_c   8.55541429
_cell_angle_alpha   41.29181028
_cell_angle_beta   24.42373777
_cell_angle_gamma   24.42373511
_symmetry_Int_Tables_number   1
_chemical_formula_structural   Na(NO2)2
_chemical_formula_sum   'Na1 N2 O4'
_cell_volume   117.26538543
_cell_formula_units_Z   1
loop_
 _symmetry_equiv_pos_site_id
 _symmetry_equiv_pos_as_xyz
  1  'x, y, z'
loop_
 _atom_site_type_symbol
 _atom_site_label
 _atom_site_symmetry_multiplicity
 _atom_site_fract_x
 _atom_site_fract_y
 _atom_site_fract_z
 _atom_site_occupancy
  Na  Na0  1  0.250000  0.500000  0.500000  1
  N  N1  1  0.978693  0.352117  0.352117  1
  N  N2  1  0.521307  0.647883  0.647883  1
  O  O3  1  0.842552  0.519396  0.733195  1
  O  O4  1  0.842552  0.733195  0.519396  1
  O  O5  1  0.657448  0.480604  0.266805  1
  O  O6  1  0.657448  0.266805  0.480604  1
