# generated using pymatgen
data_U(HO2)2
_symmetry_space_group_name_H-M   'P 1'
_cell_length_a   5.60037107
_cell_length_b   5.60037107
_cell_length_c   7.17559165
_cell_angle_alpha   90.00000000
_cell_angle_beta   90.00000000
_cell_angle_gamma   43.40561343
_symmetry_Int_Tables_number   1
_chemical_formula_structural   U(HO2)2
_chemical_formula_sum   'U2 H4 O8'
_cell_volume   154.64944547
_cell_formula_units_Z   2
loop_
 _symmetry_equiv_pos_site_id
 _symmetry_equiv_pos_as_xyz
  1  'x, y, z'
loop_
 _atom_site_type_symbol
 _atom_site_label
 _atom_site_symmetry_multiplicity
 _atom_site_fract_x
 _atom_site_fract_y
 _atom_site_fract_z
 _atom_site_occupancy
  U  U0  1  0.493098  0.493098  0.502202  1
  U  U1  1  0.006902  0.006902  0.002202  1
  H  H2  1  0.822782  0.822782  0.366846  1
  H  H3  1  0.677218  0.677218  0.866846  1
  H  H4  1  0.161037  0.161037  0.637564  1
  H  H5  1  0.338963  0.338963  0.137564  1
  O  O6  1  0.333523  0.333523  0.604093  1
  O  O7  1  0.652886  0.652886  0.398877  1
  O  O8  1  0.166477  0.166477  0.104093  1
  O  O9  1  0.847114  0.847114  0.898877  1
  O  O10  1  0.065648  0.065648  0.647666  1
  O  O11  1  0.918502  0.918502  0.360983  1
  O  O12  1  0.434352  0.434352  0.147666  1
  O  O13  1  0.581498  0.581498  0.860983  1
