# generated using pymatgen
data_Ta2O5
_symmetry_space_group_name_H-M   'P 1'
_cell_length_a   6.92468436
_cell_length_b   7.47292121
_cell_length_c   7.15298288
_cell_angle_alpha   59.68688937
_cell_angle_beta   62.77418983
_cell_angle_gamma   64.92890523
_symmetry_Int_Tables_number   1
_chemical_formula_structural   Ta2O5
_chemical_formula_sum   'Ta6 O15'
_cell_volume   275.02992910
_cell_formula_units_Z   3
loop_
 _symmetry_equiv_pos_site_id
 _symmetry_equiv_pos_as_xyz
  1  'x, y, z'
loop_
 _atom_site_type_symbol
 _atom_site_label
 _atom_site_symmetry_multiplicity
 _atom_site_fract_x
 _atom_site_fract_y
 _atom_site_fract_z
 _atom_site_occupancy
  Ta  Ta0  1  0.256501  0.965192  0.027929  1
  Ta  Ta1  1  0.231561  0.029303  0.535255  1
  Ta  Ta2  1  0.750429  0.040270  0.991744  1
  Ta  Ta3  1  0.269560  0.480140  0.983618  1
  Ta  Ta4  1  0.704727  0.554015  0.012197  1
  Ta  Ta5  1  0.773396  0.978703  0.472193  1
  O  O6  1  0.063319  0.105193  0.817771  1
  O  O7  1  0.198656  0.313940  0.319927  1
  O  O8  1  0.368584  0.650484  0.068881  1
  O  O9  1  0.143016  0.962672  0.337403  1
  O  O10  1  0.456930  0.011500  0.677390  1
  O  O11  1  0.308152  0.710682  0.692663  1
  O  O12  1  0.318069  0.237391  0.926364  1
  O  O13  1  0.577088  0.838735  0.057384  1
  O  O14  1  0.739334  0.283370  0.269179  1
  O  O15  1  0.557369  0.988198  0.321891  1
  O  O16  1  0.856907  0.039484  0.676169  1
  O  O17  1  0.630541  0.340583  0.934241  1
  O  O18  1  0.954071  0.590416  0.035059  1
  O  O19  1  0.822238  0.672710  0.688835  1
  O  O20  1  0.947253  0.886318  0.196006  1
