# generated using pymatgen
data_Co3C10O9
_symmetry_space_group_name_H-M   'P 1'
_cell_length_a   9.70306361
_cell_length_b   9.70306389
_cell_length_c   25.75984511
_cell_angle_alpha   90.00000000
_cell_angle_beta   90.00000000
_cell_angle_gamma   119.99999900
_symmetry_Int_Tables_number   1
_chemical_formula_structural   Co3C10O9
_chemical_formula_sum   'Co18 C60 O54'
_cell_volume   2100.34991246
_cell_formula_units_Z   6
loop_
 _symmetry_equiv_pos_site_id
 _symmetry_equiv_pos_as_xyz
  1  'x, y, z'
loop_
 _atom_site_type_symbol
 _atom_site_label
 _atom_site_symmetry_multiplicity
 _atom_site_fract_x
 _atom_site_fract_y
 _atom_site_fract_z
 _atom_site_occupancy
  Co  Co0  1  0.011278  0.863484  0.400407  1
  Co  Co1  1  0.715064  0.637163  0.915348  1
  Co  Co2  1  0.284936  0.922099  0.417985  1
  Co  Co3  1  0.362837  0.077901  0.248682  1
  Co  Co4  1  0.595882  0.880881  0.020962  1
  Co  Co5  1  0.715002  0.119119  0.645705  1
  Co  Co6  1  0.880881  0.595882  0.979038  1
  Co  Co7  1  0.852207  0.988722  0.067074  1
  Co  Co8  1  0.863484  0.011278  0.599593  1
  Co  Co9  1  0.119119  0.715002  0.354295  1
  Co  Co10  1  0.404118  0.284998  0.312372  1
  Co  Co11  1  0.284998  0.404118  0.687628  1
  Co  Co12  1  0.136516  0.147793  0.733740  1
  Co  Co13  1  0.637163  0.715064  0.084652  1
  Co  Co14  1  0.147793  0.136516  0.266260  1
  Co  Co15  1  0.922099  0.284936  0.582015  1
  Co  Co16  1  0.988722  0.852207  0.932926  1
  Co  Co17  1  0.077901  0.362837  0.751318  1
  C  C18  1  0.814470  0.088883  0.119062  1
  C  C19  1  0.058195  0.251080  0.686808  1
  C  C20  1  0.558427  0.758738  0.141729  1
  C  C21  1  0.241262  0.799689  0.475062  1
  C  C22  1  0.185530  0.274413  0.214272  1
  C  C23  1  0.807115  0.748920  0.979858  1
  C  C24  1  0.274413  0.185530  0.785728  1
  C  C25  1  0.025537  0.036176  0.427616  1
  C  C26  1  0.758738  0.558427  0.858271  1
  C  C27  1  0.270064  0.701295  0.321126  1
  C  C28  1  0.151257  0.962919  0.974552  1
  C  C29  1  0.701295  0.270064  0.678874  1
  C  C30  1  0.652962  0.026151  0.972096  1
  C  C31  1  0.188339  0.037081  0.692114  1
  C  C32  1  0.848743  0.811661  0.358781  1
  C  C33  1  0.641610  0.752485  0.886131  1
  C  C34  1  0.499853  0.447407  0.267145  1
  C  C35  1  0.947554  0.500147  0.933811  1
  C  C36  1  0.626811  0.973849  0.694571  1
  C  C37  1  0.963824  0.989360  0.760949  1
  C  C38  1  0.974463  0.010640  0.905717  1
  C  C39  1  0.752485  0.641610  0.113869  1
  C  C40  1  0.939196  0.468868  0.599102  1
  C  C41  1  0.531132  0.470328  0.932435  1
  C  C42  1  0.799689  0.241262  0.524938  1
  C  C43  1  0.060804  0.529672  0.734231  1
  C  C44  1  0.358391  0.110875  0.447202  1
  C  C45  1  0.373189  0.347038  0.638762  1
  C  C46  1  0.052446  0.552593  0.399522  1
  C  C47  1  0.725587  0.911117  0.547605  1
  C  C48  1  0.889125  0.247515  0.780535  1
  C  C49  1  0.026151  0.652962  0.027904  1
  C  C50  1  0.110875  0.358391  0.552798  1
  C  C51  1  0.989360  0.963824  0.239051  1
  C  C52  1  0.037081  0.188339  0.307886  1
  C  C53  1  0.552593  0.052446  0.600478  1
  C  C54  1  0.529672  0.060804  0.265769  1
  C  C55  1  0.251080  0.058195  0.313192  1
  C  C56  1  0.447407  0.499853  0.732855  1
  C  C57  1  0.470328  0.531132  0.067565  1
  C  C58  1  0.247515  0.889125  0.219465  1
  C  C59  1  0.911117  0.725587  0.452395  1
  C  C60  1  0.200311  0.441573  0.808395  1
  C  C61  1  0.729936  0.431231  0.012207  1
  C  C62  1  0.500147  0.947554  0.066189  1
  C  C63  1  0.010640  0.974463  0.094283  1
  C  C64  1  0.973849  0.626811  0.305429  1
  C  C65  1  0.441573  0.200311  0.191605  1
  C  C66  1  0.748920  0.807115  0.020142  1
  C  C67  1  0.811661  0.848743  0.641219  1
  C  C68  1  0.568769  0.298705  0.345541  1
  C  C69  1  0.962919  0.151257  0.025448  1
  C  C70  1  0.192885  0.941805  0.353475  1
  C  C71  1  0.298705  0.568769  0.654459  1
  C  C72  1  0.347038  0.373189  0.361238  1
  C  C73  1  0.941805  0.192885  0.646525  1
  C  C74  1  0.431231  0.729936  0.987793  1
  C  C75  1  0.468868  0.939196  0.400898  1
  C  C76  1  0.036176  0.025537  0.572384  1
  C  C77  1  0.088883  0.814470  0.880938  1
  O  O78  1  0.028824  0.145466  0.446983  1
  O  O79  1  0.766261  0.175766  0.800385  1
  O  O80  1  0.722232  0.213913  0.488027  1
  O  O81  1  0.491681  0.277768  0.154694  1
  O  O82  1  0.774732  0.737140  0.666615  1
  O  O83  1  0.012344  0.449455  0.429020  1
  O  O84  1  0.638500  0.843035  0.513937  1
  O  O85  1  0.449455  0.012344  0.570980  1
  O  O86  1  0.590494  0.824234  0.866281  1
  O  O87  1  0.948770  0.590338  0.607989  1
  O  O88  1  0.824234  0.590494  0.133719  1
  O  O89  1  0.795465  0.156965  0.152730  1
  O  O90  1  0.204535  0.361500  0.180604  1
  O  O91  1  0.971176  0.116641  0.886350  1
  O  O92  1  0.233739  0.409506  0.532948  1
  O  O93  1  0.634516  0.320749  0.034556  1
  O  O94  1  0.213913  0.722232  0.511973  1
  O  O95  1  0.987656  0.437111  0.904313  1
  O  O96  1  0.116641  0.971176  0.113650  1
  O  O97  1  0.320749  0.634516  0.965444  1
  O  O98  1  0.786087  0.508319  0.821360  1
  O  O99  1  0.037592  0.262860  0.000052  1
  O  O100  1  0.156965  0.795465  0.847270  1
  O  O101  1  0.439773  0.318284  0.607017  1
  O  O102  1  0.051230  0.641569  0.725344  1
  O  O103  1  0.437111  0.987656  0.095687  1
  O  O104  1  0.175766  0.766261  0.199615  1
  O  O105  1  0.560227  0.878511  0.726316  1
  O  O106  1  0.679251  0.313767  0.367890  1
  O  O107  1  0.145466  0.028824  0.553017  1
  O  O108  1  0.262860  0.037592  0.999948  1
  O  O109  1  0.318284  0.439773  0.392983  1
  O  O110  1  0.686233  0.365484  0.701223  1
  O  O111  1  0.878511  0.560227  0.273684  1
  O  O112  1  0.409662  0.358431  0.941322  1
  O  O113  1  0.225268  0.962408  0.666718  1
  O  O114  1  0.681716  0.121489  0.940351  1
  O  O115  1  0.277768  0.491681  0.845306  1
  O  O116  1  0.121489  0.681716  0.059649  1
  O  O117  1  0.737140  0.774732  0.333385  1
  O  O118  1  0.843035  0.638500  0.486063  1
  O  O119  1  0.358431  0.409662  0.058678  1
  O  O120  1  0.883359  0.854534  0.219684  1
  O  O121  1  0.365484  0.686233  0.298777  1
  O  O122  1  0.562889  0.550545  0.237647  1
  O  O123  1  0.409506  0.233739  0.467052  1
  O  O124  1  0.590338  0.948770  0.392011  1
  O  O125  1  0.313767  0.679251  0.632110  1
  O  O126  1  0.508319  0.786087  0.178640  1
  O  O127  1  0.550545  0.562889  0.762353  1
  O  O128  1  0.641569  0.051230  0.274656  1
  O  O129  1  0.854534  0.883359  0.780316  1
  O  O130  1  0.962408  0.225268  0.333282  1
  O  O131  1  0.361500  0.204535  0.819396  1
