# generated using pymatgen
data_Ba(HO)2
_symmetry_space_group_name_H-M   'P 1'
_cell_length_a   9.30648392
_cell_length_b   8.10048064
_cell_length_c   6.89112265
_cell_angle_alpha   90.00000000
_cell_angle_beta   95.82699781
_cell_angle_gamma   90.00000000
_symmetry_Int_Tables_number   1
_chemical_formula_structural   Ba(HO)2
_chemical_formula_sum   'Ba8 H16 O16'
_cell_volume   516.81674222
_cell_formula_units_Z   8
loop_
 _symmetry_equiv_pos_site_id
 _symmetry_equiv_pos_as_xyz
  1  'x, y, z'
loop_
 _atom_site_type_symbol
 _atom_site_label
 _atom_site_symmetry_multiplicity
 _atom_site_fract_x
 _atom_site_fract_y
 _atom_site_fract_z
 _atom_site_occupancy
  Ba  Ba0  1  0.901734  0.131343  0.247297  1
  Ba  Ba1  1  0.401734  0.368657  0.747297  1
  Ba  Ba2  1  0.098266  0.868657  0.752703  1
  Ba  Ba3  1  0.598266  0.631343  0.252703  1
  Ba  Ba4  1  0.326861  0.026278  0.294722  1
  Ba  Ba5  1  0.826861  0.473722  0.794722  1
  Ba  Ba6  1  0.673139  0.973722  0.705278  1
  Ba  Ba7  1  0.173139  0.526278  0.205278  1
  H  H8  1  0.615811  0.034669  0.150713  1
  H  H9  1  0.115811  0.465331  0.650713  1
  H  H10  1  0.384189  0.965331  0.849287  1
  H  H11  1  0.884189  0.534669  0.349287  1
  H  H12  1  0.025277  0.832638  0.227473  1
  H  H13  1  0.525277  0.667362  0.727473  1
  H  H14  1  0.974723  0.167362  0.772527  1
  H  H15  1  0.474723  0.332638  0.272527  1
  H  H16  1  0.815371  0.808893  0.065539  1
  H  H17  1  0.315371  0.691107  0.565539  1
  H  H18  1  0.184629  0.191107  0.934461  1
  H  H19  1  0.684629  0.308893  0.434461  1
  H  H20  1  0.396946  0.733180  0.956356  1
  H  H21  1  0.896946  0.766820  0.456356  1
  H  H22  1  0.603054  0.266820  0.043644  1
  H  H23  1  0.103054  0.233180  0.543644  1
  O  O24  1  0.628559  0.963579  0.266910  1
  O  O25  1  0.128559  0.536421  0.766910  1
  O  O26  1  0.371441  0.036421  0.733090  1
  O  O27  1  0.871441  0.463579  0.233090  1
  O  O28  1  0.083134  0.845331  0.356012  1
  O  O29  1  0.583134  0.654669  0.856012  1
  O  O30  1  0.916866  0.154669  0.643988  1
  O  O31  1  0.416866  0.345331  0.143988  1
  O  O32  1  0.898714  0.840770  -0.000824  1
  O  O33  1  0.398714  0.659230  0.499176  1
  O  O34  1  0.101286  0.159230  0.000824  1
  O  O35  1  0.601286  0.340770  0.500824  1
  O  O36  1  0.323782  0.777867  0.035809  1
  O  O37  1  0.823782  0.722133  0.535809  1
  O  O38  1  0.676218  0.222133  0.964191  1
  O  O39  1  0.176218  0.277867  0.464191  1
