# generated using pymatgen
data_Ba2ErCu3O7
_symmetry_space_group_name_H-M   'P 1'
_cell_length_a   3.83476236
_cell_length_b   3.93312453
_cell_length_c   11.78876929
_cell_angle_alpha   90.00030183
_cell_angle_beta   89.99922041
_cell_angle_gamma   90.00005790
_symmetry_Int_Tables_number   1
_chemical_formula_structural   Ba2ErCu3O7
_chemical_formula_sum   'Ba2 Er1 Cu3 O7'
_cell_volume   177.80526698
_cell_formula_units_Z   1
loop_
 _symmetry_equiv_pos_site_id
 _symmetry_equiv_pos_as_xyz
  1  'x, y, z'
loop_
 _atom_site_type_symbol
 _atom_site_label
 _atom_site_symmetry_multiplicity
 _atom_site_fract_x
 _atom_site_fract_y
 _atom_site_fract_z
 _atom_site_occupancy
  Ba  Ba0  1  0.500006  0.499987  0.818185  1
  Ba  Ba1  1  0.500002  0.500002  0.181859  1
  Er  Er2  1  0.500000  0.500032  0.499952  1
  Cu  Cu3  1  0.000002  0.000006  0.644308  1
  Cu  Cu4  1  0.999997  0.999994  0.355781  1
  Cu  Cu5  1  0.000002  0.999994  0.999945  1
  O  O6  1  0.999997  0.500002  0.620073  1
  O  O7  1  0.999997  0.500001  0.379982  1
  O  O8  1  0.000005  0.999994  0.160268  1
  O  O9  1  0.500002  0.000003  0.617926  1
  O  O10  1  0.999997  0.499992  0.000016  1
  O  O11  1  0.499999  -0.000001  0.382100  1
  O  O12  1  0.999994  0.999993  0.839604  1
