# generated using pymatgen
data_Ca5MnSi9(Pb3O11)3
_symmetry_space_group_name_H-M   'P 1'
_cell_length_a   9.96567326
_cell_length_b   9.96567306
_cell_length_c   10.28138304
_cell_angle_alpha   90.00000000
_cell_angle_beta   90.00000000
_cell_angle_gamma   120.00000066
_symmetry_Int_Tables_number   1
_chemical_formula_structural   Ca5MnSi9(Pb3O11)3
_chemical_formula_sum   'Ca5 Mn1 Si9 Pb9 O33'
_cell_volume   884.29149423
_cell_formula_units_Z   1
loop_
 _symmetry_equiv_pos_site_id
 _symmetry_equiv_pos_as_xyz
  1  'x, y, z'
loop_
 _atom_site_type_symbol
 _atom_site_label
 _atom_site_symmetry_multiplicity
 _atom_site_fract_x
 _atom_site_fract_y
 _atom_site_fract_z
 _atom_site_occupancy
  Ca  Ca0  1  0.333333  0.666667  0.660387  1
  Ca  Ca1  1  0.666667  0.333333  0.678092  1
  Ca  Ca2  1  0.333333  0.666667  0.339613  1
  Ca  Ca3  1  0.666667  0.333333  0.321908  1
  Ca  Ca4  1  0.333333  0.666667  0.000000  1
  Mn  Mn5  1  0.666667  0.333333  0.000000  1
  Si  Si6  1  0.594151  0.616221  0.851420  1
  Si  Si7  1  0.383779  0.977930  0.851420  1
  Si  Si8  1  0.974750  0.589668  0.500000  1
  Si  Si9  1  0.022070  0.405849  0.148580  1
  Si  Si10  1  0.614918  0.025250  0.500000  1
  Si  Si11  1  0.594151  0.616221  0.148580  1
  Si  Si12  1  0.410332  0.385082  0.500000  1
  Si  Si13  1  0.383779  0.977930  0.148580  1
  Si  Si14  1  0.022070  0.405849  0.851420  1
  Pb  Pb15  1  0.272379  0.272150  0.176452  1
  Pb  Pb16  1  0.727850  0.000229  0.823548  1
  Pb  Pb17  1  0.988007  0.251973  0.500000  1
  Pb  Pb18  1  0.263967  0.011993  0.500000  1
  Pb  Pb19  1  -0.000229  0.727621  0.176452  1
  Pb  Pb20  1  0.748027  0.736033  0.500000  1
  Pb  Pb21  1  0.272379  0.272150  0.823548  1
  Pb  Pb22  1  0.727850  0.000229  0.176452  1
  Pb  Pb23  1  -0.000229  0.727621  0.823548  1
  O  O24  1  0.497880  0.840845  0.500000  1
  O  O25  1  0.627594  0.700789  0.000000  1
  O  O26  1  0.299211  0.926804  0.000000  1
  O  O27  1  0.737284  0.089738  0.624631  1
  O  O28  1  0.458857  0.863097  0.830297  1
  O  O29  1  0.689971  0.759103  0.251451  1
  O  O30  1  0.520424  0.157051  0.151346  1
  O  O31  1  0.352454  0.262716  0.624631  1
  O  O32  1  0.636627  0.479576  0.848654  1
  O  O33  1  0.520424  0.157051  0.848654  1
  O  O34  1  0.136903  0.595760  0.830297  1
  O  O35  1  0.636627  0.479576  0.151346  1
  O  O36  1  0.240897  0.930868  0.251451  1
  O  O37  1  0.689971  0.759103  0.748549  1
  O  O38  1  0.342965  0.502120  0.500000  1
  O  O39  1  0.069132  0.310029  0.251451  1
  O  O40  1  0.069132  0.310029  0.748549  1
  O  O41  1  0.073196  0.372406  0.000000  1
  O  O42  1  0.871895  0.397762  0.500000  1
  O  O43  1  0.458857  0.863097  0.169703  1
  O  O44  1  0.910262  0.647546  0.375369  1
  O  O45  1  0.404240  0.541143  0.830297  1
  O  O46  1  0.240897  0.930868  0.748549  1
  O  O47  1  0.842949  0.363373  0.151346  1
  O  O48  1  0.404240  0.541143  0.169703  1
  O  O49  1  0.910262  0.647546  0.624631  1
  O  O50  1  0.602238  0.474133  0.500000  1
  O  O51  1  0.525867  0.128105  0.500000  1
  O  O52  1  0.842949  0.363373  0.848654  1
  O  O53  1  0.136903  0.595760  0.169703  1
  O  O54  1  0.159155  0.657035  0.500000  1
  O  O55  1  0.352454  0.262716  0.375369  1
  O  O56  1  0.737284  0.089738  0.375369  1
