# generated using pymatgen
data_Rb2EuGa(SiO3)4
_symmetry_space_group_name_H-M   'P 1'
_cell_length_a   7.45135737
_cell_length_b   14.24116351
_cell_length_c   14.23219174
_cell_angle_alpha   64.33002185
_cell_angle_beta   74.89170939
_cell_angle_gamma   74.94480647
_symmetry_Int_Tables_number   1
_chemical_formula_structural   Rb2EuGa(SiO3)4
_chemical_formula_sum   'Rb8 Eu4 Ga4 Si16 O48'
_cell_volume   1295.30882263
_cell_formula_units_Z   4
loop_
 _symmetry_equiv_pos_site_id
 _symmetry_equiv_pos_as_xyz
  1  'x, y, z'
loop_
 _atom_site_type_symbol
 _atom_site_label
 _atom_site_symmetry_multiplicity
 _atom_site_fract_x
 _atom_site_fract_y
 _atom_site_fract_z
 _atom_site_occupancy
  Eu  Eu0  1  0.551303  0.214179  0.750098  1
  Eu  Eu1  1  0.985889  0.712417  0.249359  1
  Eu  Eu2  1  0.447192  0.786030  0.250429  1
  Eu  Eu3  1  0.014812  0.287037  0.749444  1
  Rb  Rb4  1  0.808619  0.416090  0.466844  1
  Rb  Rb5  1  0.806223  0.917928  0.967351  1
  Rb  Rb6  1  0.725608  0.115264  0.451972  1
  Rb  Rb7  1  0.196752  0.082801  0.034707  1
  Rb  Rb8  1  0.188129  0.582607  0.534965  1
  Rb  Rb9  1  0.198379  0.617454  0.955522  1
  Rb  Rb10  1  0.270252  0.883349  0.544602  1
  Rb  Rb11  1  0.800344  0.382337  0.044789  1
  Ga  Ga12  1  0.873841  0.587632  0.772534  1
  Ga  Ga13  1  0.732735  0.912759  0.727732  1
  Ga  Ga14  1  0.267449  0.086925  0.272352  1
  Ga  Ga15  1  0.125920  0.411883  0.227978  1
  Si  Si16  1  0.670396  0.700273  0.922427  1
  Si  Si17  1  0.207602  0.200543  0.422398  1
  Si  Si18  1  0.640373  0.674353  0.492380  1
  Si  Si19  1  0.693690  0.172553  0.993728  1
  Si  Si20  1  0.360060  0.528303  0.294398  1
  Si  Si21  1  0.317334  0.028957  0.794481  1
  Si  Si22  1  0.682187  0.970963  0.205875  1
  Si  Si23  1  0.358815  0.327273  0.505685  1
  Si  Si24  1  0.331313  0.299374  0.076773  1
  Si  Si25  1  0.793729  0.799229  0.576979  1
  Si  Si26  1  0.260408  0.425461  0.838735  1
  Si  Si27  1  0.639401  0.472695  0.704777  1
  Si  Si28  1  0.024404  0.075964  0.661240  1
  Si  Si29  1  0.737866  0.573854  0.161399  1
  Si  Si30  1  0.974399  0.924323  0.338748  1
  Si  Si31  1  0.307957  0.826701  0.005115  1
  O  O32  1  0.528893  0.271616  0.574001  1
  O  O33  1  0.940940  0.976945  0.670035  1
  O  O34  1  0.735758  0.644554  0.225062  1
  O  O35  1  0.242058  0.354813  0.967557  1
  O  O36  1  0.640851  0.750210  0.554391  1
  O  O37  1  0.298280  0.644571  0.298375  1
  O  O38  1  0.671544  0.887622  0.623912  1
  O  O39  1  0.936859  0.854136  0.467629  1
  O  O40  1  0.057199  0.024057  0.329644  1
  O  O41  1  0.416848  0.440451  0.409217  1
  O  O42  1  0.456666  0.476879  0.798193  1
  O  O43  1  0.068852  0.292693  0.344456  1
  O  O44  1  0.450349  0.990615  0.228978  1
  O  O45  1  0.578507  0.147626  0.927094  1
  O  O46  1  0.259514  0.144588  0.799728  1
  O  O47  1  0.331105  0.112437  0.375129  1
  O  O48  1  0.235010  0.940440  0.909170  1
  O  O49  1  0.892990  0.147737  0.723940  1
  O  O50  1  0.360865  0.251759  0.442424  1
  O  O51  1  0.681573  0.611412  0.876313  1
  O  O52  1  0.764404  0.974220  0.301150  1
  O  O53  1  0.794480  0.792540  0.843278  1
  O  O54  1  0.756374  0.644743  0.032601  1
  O  O55  1  0.066373  0.145163  0.532279  1
  O  O56  1  0.088157  0.525000  0.831319  1
  O  O57  1  0.210391  0.205848  0.155509  1
  O  O58  1  0.585559  0.561159  0.589536  1
  O  O59  1  0.877769  0.226751  0.926656  1
  O  O60  1  0.827453  0.490234  0.731051  1
  O  O61  1  0.316949  0.387200  0.124570  1
  O  O62  1  0.932425  0.706031  0.654423  1
  O  O63  1  0.231728  0.025139  0.701151  1
  O  O64  1  0.105181  0.853733  0.274769  1
  O  O65  1  0.702971  0.356929  0.699385  1
  O  O66  1  0.765946  0.059703  0.091463  1
  O  O67  1  0.171960  0.508080  0.271038  1
  O  O68  1  0.467349  0.728888  0.426356  1
  O  O69  1  0.548577  0.009405  0.769006  1
  O  O70  1  0.421264  0.850908  0.072938  1
  O  O71  1  0.910637  0.474628  0.170316  1
  O  O72  1  0.151527  0.351238  0.571282  1
  O  O73  1  0.540823  0.523595  0.200333  1
  O  O74  1  0.446982  0.751361  0.942821  1
  O  O75  1  0.126668  0.769090  0.071771  1
  O  O76  1  0.846394  0.650922  0.425162  1
  O  O77  1  0.555746  0.250985  0.053059  1
  O  O78  1  0.261296  0.354762  0.775169  1
  O  O79  1  0.741663  0.855345  0.200350  1
