# generated using pymatgen
data_Mn(GaS2)2
_symmetry_space_group_name_H-M   'P 1'
_cell_length_a   6.43603419
_cell_length_b   12.40494642
_cell_length_c   13.07091251
_cell_angle_alpha   115.37525079
_cell_angle_beta   98.92895213
_cell_angle_gamma   100.94081077
_symmetry_Int_Tables_number   1
_chemical_formula_structural   Mn(GaS2)2
_chemical_formula_sum   'Mn6 Ga12 S24'
_cell_volume   892.22539192
_cell_formula_units_Z   6
loop_
 _symmetry_equiv_pos_site_id
 _symmetry_equiv_pos_as_xyz
  1  'x, y, z'
loop_
 _atom_site_type_symbol
 _atom_site_label
 _atom_site_symmetry_multiplicity
 _atom_site_fract_x
 _atom_site_fract_y
 _atom_site_fract_z
 _atom_site_occupancy
  Mn  Mn0  1  0.466410  0.218360  0.434695  1
  Mn  Mn1  1  0.123997  0.871665  0.743072  1
  Mn  Mn2  1  0.536604  0.782645  0.565958  1
  Mn  Mn3  1  0.706426  0.957007  0.912802  1
  Mn  Mn4  1  0.295609  0.044573  0.088852  1
  Mn  Mn5  1  0.881028  0.128280  0.256633  1
  Ga  Ga6  1  0.287445  0.670088  0.919120  1
  Ga  Ga7  1  0.451996  0.834514  0.251406  1
  Ga  Ga8  1  0.300947  0.417860  0.250582  1
  Ga  Ga9  1  0.713753  0.327294  0.080468  1
  Ga  Ga10  1  0.034680  0.886830  0.401405  1
  Ga  Ga11  1  0.134104  0.248835  0.919455  1
  Ga  Ga12  1  0.966901  0.113515  0.598147  1
  Ga  Ga13  1  0.869318  0.514026  0.402262  1
  Ga  Ga14  1  0.131593  0.485294  0.599008  1
  Ga  Ga15  1  0.550108  0.167825  0.749155  1
  Ga  Ga16  1  0.701105  0.582175  0.749749  1
  Ga  Ga17  1  0.867157  0.752955  0.079718  1
  S  S18  1  0.745670  0.745534  0.236408  1
  S  S19  1  0.256071  0.256848  0.762860  1
  S  S20  1  0.430027  0.415681  0.602046  1
  S  S21  1  0.669589  0.149053  0.087811  1
  S  S22  1  0.593063  0.591089  0.918809  1
  S  S23  1  0.084760  0.063251  0.912514  1
  S  S24  1  0.007472  0.505656  0.763530  1
  S  S25  1  0.261299  0.239804  0.264081  1
  S  S26  1  0.826867  0.326673  0.918992  1
  S  S27  1  0.992084  0.491508  0.236993  1
  S  S28  1  0.916295  0.910158  0.567361  1
  S  S29  1  0.919153  0.937994  0.085858  1
  S  S30  1  0.082909  0.089648  0.431322  1
  S  S31  1  0.410250  0.408103  0.082074  1
  S  S32  1  0.329020  0.848320  0.911233  1
  S  S33  1  0.850722  0.341356  0.431985  1
  S  S34  1  0.570629  0.583334  0.399863  1
  S  S35  1  0.498291  0.976881  0.737599  1
  S  S36  1  0.331596  0.815753  0.399829  1
  S  S37  1  0.507068  0.025814  0.264360  1
  S  S38  1  0.741243  0.760920  0.737067  1
  S  S39  1  0.151353  0.657922  0.568476  1
  S  S40  1  0.174395  0.675822  0.082506  1
  S  S41  1  0.672659  0.187121  0.601504  1
