# generated using pymatgen
data_ZrFeF6
_symmetry_space_group_name_H-M   'P 1'
_cell_length_a   5.77451817
_cell_length_b   5.77451777
_cell_length_c   5.77451801
_cell_angle_alpha   58.67381684
_cell_angle_beta   58.67381944
_cell_angle_gamma   58.67381896
_symmetry_Int_Tables_number   1
_chemical_formula_structural   ZrFeF6
_chemical_formula_sum   'Zr1 Fe1 F6'
_cell_volume   132.02802862
_cell_formula_units_Z   1
loop_
 _symmetry_equiv_pos_site_id
 _symmetry_equiv_pos_as_xyz
  1  'x, y, z'
loop_
 _atom_site_type_symbol
 _atom_site_label
 _atom_site_symmetry_multiplicity
 _atom_site_fract_x
 _atom_site_fract_y
 _atom_site_fract_z
 _atom_site_occupancy
  Zr  Zr0  1  0.500000  0.500000  0.500000  1
  Fe  Fe1  1  0.000000  0.000000  0.000000  1
  F  F2  1  0.325677  0.746584  0.179051  1
  F  F3  1  0.820949  0.674323  0.253416  1
  F  F4  1  0.746584  0.179051  0.325677  1
  F  F5  1  0.253416  0.820949  0.674323  1
  F  F6  1  0.674323  0.253416  0.820949  1
  F  F7  1  0.179051  0.325677  0.746584  1
