# generated using pymatgen
data_U5(B12Mo5)2
_symmetry_space_group_name_H-M   'P 1'
_cell_length_a   3.09938294
_cell_length_b   14.64970405
_cell_length_c   17.99326094
_cell_angle_alpha   90.00000000
_cell_angle_beta   90.00000000
_cell_angle_gamma   90.00000000
_symmetry_Int_Tables_number   1
_chemical_formula_structural   U5(B12Mo5)2
_chemical_formula_sum   'U10 B48 Mo20'
_cell_volume   816.98478325
_cell_formula_units_Z   2
loop_
 _symmetry_equiv_pos_site_id
 _symmetry_equiv_pos_as_xyz
  1  'x, y, z'
loop_
 _atom_site_type_symbol
 _atom_site_label
 _atom_site_symmetry_multiplicity
 _atom_site_fract_x
 _atom_site_fract_y
 _atom_site_fract_z
 _atom_site_occupancy
  U  U0  1  0.250000  0.474656  0.636135  1
  U  U1  1  0.750000  0.977920  0.750000  1
  U  U2  1  0.750000  0.176054  0.495009  1
  U  U3  1  0.250000  0.022080  0.250000  1
  U  U4  1  0.750000  0.176054  0.004991  1
  U  U5  1  0.750000  0.525344  0.363865  1
  U  U6  1  0.250000  0.823946  0.995009  1
  U  U7  1  0.750000  0.525344  0.136135  1
  U  U8  1  0.250000  0.823946  0.504991  1
  U  U9  1  0.250000  0.474656  0.863865  1
  B  B10  1  0.750000  0.811651  0.118592  1
  B  B11  1  0.250000  0.832473  0.750000  1
  B  B12  1  0.750000  0.472246  0.513743  1
  B  B13  1  0.250000  0.889060  0.655879  1
  B  B14  1  0.750000  0.811651  0.381408  1
  B  B15  1  0.250000  0.086326  0.394677  1
  B  B16  1  0.250000  0.385959  0.337274  1
  B  B17  1  0.250000  0.641078  0.057178  1
  B  B18  1  0.750000  0.614041  0.837274  1
  B  B19  1  0.250000  0.663181  0.875292  1
  B  B20  1  0.250000  0.663181  0.624708  1
  B  B21  1  0.750000  0.703239  0.426903  1
  B  B22  1  0.250000  0.864569  0.349138  1
  B  B23  1  0.250000  0.460010  0.250000  1
  B  B24  1  0.250000  0.021432  0.479515  1
  B  B25  1  0.250000  0.527754  0.486257  1
  B  B26  1  0.750000  0.913674  0.605323  1
  B  B27  1  0.750000  0.358922  0.942822  1
  B  B28  1  0.250000  0.296761  0.573097  1
  B  B29  1  0.250000  0.581128  0.250000  1
  B  B30  1  0.750000  0.135431  0.849138  1
  B  B31  1  0.750000  0.703239  0.073097  1
  B  B32  1  0.250000  0.641078  0.442822  1
  B  B33  1  0.250000  0.188349  0.881408  1
  B  B34  1  0.250000  0.296761  0.926903  1
  B  B35  1  0.750000  0.358922  0.557178  1
  B  B36  1  0.250000  0.086326  0.105323  1
  B  B37  1  0.750000  0.336819  0.375292  1
  B  B38  1  0.750000  0.913674  0.894677  1
  B  B39  1  0.250000  0.527754  0.013743  1
  B  B40  1  0.750000  0.135431  0.650862  1
  B  B41  1  0.750000  0.539990  0.750000  1
  B  B42  1  0.250000  0.021432  0.020485  1
  B  B43  1  0.250000  0.359274  0.750000  1
  B  B44  1  0.750000  0.167527  0.250000  1
  B  B45  1  0.250000  0.864569  0.150862  1
  B  B46  1  0.750000  0.978568  0.520485  1
  B  B47  1  0.750000  0.336819  0.124708  1
  B  B48  1  0.750000  0.614041  0.662726  1
  B  B49  1  0.750000  0.110940  0.155879  1
  B  B50  1  0.750000  0.978568  0.979515  1
  B  B51  1  0.250000  0.188349  0.618592  1
  B  B52  1  0.250000  0.385959  0.162726  1
  B  B53  1  0.250000  0.889060  0.844121  1
  B  B54  1  0.750000  0.472246  0.986257  1
  B  B55  1  0.750000  0.640726  0.250000  1
  B  B56  1  0.750000  0.418872  0.750000  1
  B  B57  1  0.750000  0.110940  0.344121  1
  Mo  Mo58  1  0.250000  0.033185  0.606018  1
  Mo  Mo59  1  0.750000  0.628028  0.537042  1
  Mo  Mo60  1  0.250000  0.654141  0.750000  1
  Mo  Mo61  1  0.750000  0.290514  0.669911  1
  Mo  Mo62  1  0.750000  0.774910  0.837733  1
  Mo  Mo63  1  0.250000  0.709486  0.330089  1
  Mo  Mo64  1  0.250000  0.154834  0.750000  1
  Mo  Mo65  1  0.250000  0.225090  0.337733  1
  Mo  Mo66  1  0.750000  0.966815  0.106018  1
  Mo  Mo67  1  0.750000  0.845166  0.250000  1
  Mo  Mo68  1  0.750000  0.345859  0.250000  1
  Mo  Mo69  1  0.250000  0.225090  0.162267  1
  Mo  Mo70  1  0.250000  0.371972  0.037042  1
  Mo  Mo71  1  0.250000  0.371972  0.462958  1
  Mo  Mo72  1  0.750000  0.774910  0.662267  1
  Mo  Mo73  1  0.250000  0.709486  0.169911  1
  Mo  Mo74  1  0.750000  0.290514  0.830089  1
  Mo  Mo75  1  0.750000  0.966815  0.393982  1
  Mo  Mo76  1  0.750000  0.628028  0.962958  1
  Mo  Mo77  1  0.250000  0.033185  0.893982  1
