# generated using pymatgen
data_Li2MgBr4
_symmetry_space_group_name_H-M   'P 1'
_cell_length_a   6.28957887
_cell_length_b   12.31446754
_cell_length_c   10.58712935
_cell_angle_alpha   30.71360838
_cell_angle_beta   53.55307827
_cell_angle_gamma   59.28639125
_symmetry_Int_Tables_number   1
_chemical_formula_structural   Li2MgBr4
_chemical_formula_sum   'Li8 Mg4 Br16'
_cell_volume   336.89727521
_cell_formula_units_Z   4
loop_
 _symmetry_equiv_pos_site_id
 _symmetry_equiv_pos_as_xyz
  1  'x, y, z'
loop_
 _atom_site_type_symbol
 _atom_site_label
 _atom_site_symmetry_multiplicity
 _atom_site_fract_x
 _atom_site_fract_y
 _atom_site_fract_z
 _atom_site_occupancy
  Li  Li0  1  0.000000  0.002090  0.997910  1
  Li  Li1  1  0.997910  0.750000  1.000000  1
  Li  Li2  1  0.500000  0.497910  0.002090  1
  Li  Li3  1  0.500000  0.000445  0.499555  1
  Li  Li4  1  0.002090  0.750000  0.500000  1
  Li  Li5  1  0.500445  0.750000  0.000000  1
  Li  Li6  1  0.499555  0.750000  0.500000  1
  Li  Li7  1  0.000000  0.499555  0.500445  1
  Mg  Mg8  1  0.000000  -0.000247  0.500247  1
  Mg  Mg9  1  0.500247  0.250000  1.000000  1
  Mg  Mg10  1  0.499753  0.250000  0.500000  1
  Mg  Mg11  1  0.500000  0.500247  0.499753  1
  Br  Br12  1  0.262370  0.996847  0.231501  1
  Br  Br13  1  0.231501  0.259282  0.262370  1
  Br  Br14  1  0.758766  0.996448  0.256030  1
  Br  Br15  1  0.236277  0.503552  0.248927  1
  Br  Br16  1  0.248927  0.761245  0.236277  1
  Br  Br17  1  0.768499  0.259282  0.219065  1
  Br  Br18  1  0.225195  0.240718  0.780935  1
  Br  Br19  1  0.780935  0.503153  0.225195  1
  Br  Br20  1  0.219065  0.503153  0.768499  1
  Br  Br21  1  0.751073  0.761245  0.241234  1
  Br  Br22  1  0.256030  0.738755  0.758766  1
  Br  Br23  1  0.774805  0.240718  0.737630  1
  Br  Br24  1  0.763723  0.503552  0.743970  1
  Br  Br25  1  0.241234  0.996448  0.751073  1
  Br  Br26  1  0.743970  0.738755  0.763723  1
  Br  Br27  1  0.737630  0.996847  0.774805  1
