# generated using pymatgen
data_Si2H2O5
_symmetry_space_group_name_H-M   'P 1'
_cell_length_a   8.79165599
_cell_length_b   8.79165599
_cell_length_c   8.75201722
_cell_angle_alpha   140.31610523
_cell_angle_beta   53.60336174
_cell_angle_gamma   145.54664657
_symmetry_Int_Tables_number   1
_chemical_formula_structural   Si2H2O5
_chemical_formula_sum   'Si4 H4 O10'
_cell_volume   242.78049958
_cell_formula_units_Z   2
loop_
 _symmetry_equiv_pos_site_id
 _symmetry_equiv_pos_as_xyz
  1  'x, y, z'
loop_
 _atom_site_type_symbol
 _atom_site_label
 _atom_site_symmetry_multiplicity
 _atom_site_fract_x
 _atom_site_fract_y
 _atom_site_fract_z
 _atom_site_occupancy
  Si  Si0  1  0.556035  0.058243  0.693851  1
  Si  Si1  1  0.364392  0.862184  0.306149  1
  Si  Si2  1  0.859854  0.052999  0.001952  1
  Si  Si3  1  0.051047  0.857902  0.998048  1
  H  H4  1  0.468211  0.597473  0.452160  1
  H  H5  1  0.145313  0.016050  0.547840  1
  H  H6  1  0.766411  0.898628  0.686518  1
  H  H7  1  0.212110  0.079894  0.313482  1
  O  O8  1  0.502943  0.002943  0.500000  1
  O  O9  1  0.941322  0.941322  0.000000  1
  O  O10  1  0.285866  0.906742  0.822265  1
  O  O11  1  0.084477  0.463601  0.177735  1
  O  O12  1  0.569997  0.916549  0.108054  1
  O  O13  1  0.808495  0.461943  0.891946  1
  O  O14  1  0.620332  0.849673  0.564561  1
  O  O15  1  0.285113  0.055772  0.435439  1
  O  O16  1  0.852843  0.899636  0.725698  1
  O  O17  1  0.173938  0.127145  0.274302  1
