# generated using pymatgen
data_Th2Cu(PO4)3
_symmetry_space_group_name_H-M   'P 1'
_cell_length_a   6.79082039
_cell_length_b   7.12744019
_cell_length_c   11.55121421
_cell_angle_alpha   106.33606179
_cell_angle_beta   107.09422622
_cell_angle_gamma   90.00000000
_symmetry_Int_Tables_number   1
_chemical_formula_structural   Th2Cu(PO4)3
_chemical_formula_sum   'Th4 Cu2 P6 O24'
_cell_volume   510.73119873
_cell_formula_units_Z   2
loop_
 _symmetry_equiv_pos_site_id
 _symmetry_equiv_pos_as_xyz
  1  'x, y, z'
loop_
 _atom_site_type_symbol
 _atom_site_label
 _atom_site_symmetry_multiplicity
 _atom_site_fract_x
 _atom_site_fract_y
 _atom_site_fract_z
 _atom_site_occupancy
  O  O0  1  0.065729  0.211451  0.104498  1
  O  O1  1  0.961231  0.288549  0.895502  1
  O  O2  1  0.934271  0.788549  0.895502  1
  O  O3  1  0.038769  0.711451  0.104498  1
  O  O4  1  0.311947  0.427109  0.070600  1
  O  O5  1  0.241348  0.072891  0.929400  1
  O  O6  1  0.688053  0.572891  0.929400  1
  O  O7  1  0.758652  0.927109  0.070600  1
  O  O8  1  0.642328  0.637979  0.658916  1
  O  O9  1  0.983412  0.862021  0.341084  1
  O  O10  1  0.357672  0.362021  0.341084  1
  O  O11  1  0.016588  0.137979  0.658916  1
  O  O12  1  0.368236  0.322346  0.708082  1
  O  O13  1  0.660154  0.177654  0.291918  1
  O  O14  1  0.631764  0.677654  0.291918  1
  O  O15  1  0.339846  0.822346  0.708082  1
  O  O16  1  0.032036  0.491787  0.694269  1
  O  O17  1  0.337767  0.008213  0.305731  1
  O  O18  1  0.967964  0.508213  0.305731  1
  O  O19  1  0.662233  0.991787  0.694269  1
  O  O20  1  0.099577  0.275818  0.495540  1
  O  O21  1  0.604037  0.224182  0.504460  1
  O  O22  1  0.900423  0.724182  0.504460  1
  O  O23  1  0.395963  0.775818  0.495540  1
  P  P24  1  0.140989  0.250000  0.000000  1
  P  P25  1  0.859011  0.750000  0.000000  1
  P  P26  1  0.501223  0.805065  0.637053  1
  P  P27  1  0.864171  0.694935  0.362947  1
  P  P28  1  0.498777  0.194935  0.362947  1
  P  P29  1  0.135829  0.305065  0.637053  1
  Cu  Cu30  1  0.500000  0.000000  0.000000  1
  Cu  Cu31  1  0.500000  0.500000  0.000000  1
  Th  Th32  1  0.286357  0.656968  0.279835  1
  Th  Th33  1  0.006522  0.843032  0.720165  1
  Th  Th34  1  0.713643  0.343032  0.720165  1
  Th  Th35  1  0.993478  0.156968  0.279835  1
