# generated using pymatgen
data_KNO3
_symmetry_space_group_name_H-M   'P 1'
_cell_length_a   5.50947583
_cell_length_b   6.86660799
_cell_length_c   9.69481598
_cell_angle_alpha   90.00000000
_cell_angle_beta   90.00000000
_cell_angle_gamma   90.00000000
_symmetry_Int_Tables_number   1
_chemical_formula_structural   KNO3
_chemical_formula_sum   'K4 N4 O12'
_cell_volume   366.76856553
_cell_formula_units_Z   4
loop_
 _symmetry_equiv_pos_site_id
 _symmetry_equiv_pos_as_xyz
  1  'x, y, z'
loop_
 _atom_site_type_symbol
 _atom_site_label
 _atom_site_symmetry_multiplicity
 _atom_site_fract_x
 _atom_site_fract_y
 _atom_site_fract_z
 _atom_site_occupancy
  K  K0  1  0.250000  0.695687  0.866899  1
  K  K1  1  0.750000  0.804313  0.366899  1
  K  K2  1  0.250000  0.195687  0.633101  1
  K  K3  1  0.750000  0.304313  0.133101  1
  N  N4  1  0.750000  0.434779  0.649558  1
  N  N5  1  0.250000  0.065221  0.149558  1
  N  N6  1  0.250000  0.565221  0.350442  1
  N  N7  1  0.750000  0.934779  0.850442  1
  O  O8  1  0.250000  0.221218  0.079445  1
  O  O9  1  0.950077  0.013020  0.815914  1
  O  O10  1  0.049923  0.986980  0.184086  1
  O  O11  1  0.549923  0.013020  0.815914  1
  O  O12  1  0.049923  0.486980  0.315914  1
  O  O13  1  0.450077  0.486980  0.315914  1
  O  O14  1  0.450077  0.986980  0.184086  1
  O  O15  1  0.950077  0.513020  0.684086  1
  O  O16  1  0.250000  0.721218  0.420555  1
  O  O17  1  0.750000  0.778782  0.920555  1
  O  O18  1  0.750000  0.278782  0.579445  1
  O  O19  1  0.549923  0.513020  0.684086  1
