# generated using pymatgen
data_Cd10As6HClO25
_symmetry_space_group_name_H-M   'P 1'
_cell_length_a   10.12346266
_cell_length_b   20.24294407
_cell_length_c   6.68989199
_cell_angle_alpha   90.00000000
_cell_angle_beta   90.00000000
_cell_angle_gamma   120.01211472
_symmetry_Int_Tables_number   1
_chemical_formula_structural   Cd10As6HClO25
_chemical_formula_sum   'Cd20 As12 H2 Cl2 O50'
_cell_volume   1187.13324801
_cell_formula_units_Z   2
loop_
 _symmetry_equiv_pos_site_id
 _symmetry_equiv_pos_as_xyz
  1  'x, y, z'
loop_
 _atom_site_type_symbol
 _atom_site_label
 _atom_site_symmetry_multiplicity
 _atom_site_fract_x
 _atom_site_fract_y
 _atom_site_fract_z
 _atom_site_occupancy
  Cd  Cd0  1  0.023545  0.875407  0.750067  1
  Cd  Cd1  1  0.334694  0.833091  0.000333  1
  Cd  Cd2  1  0.334623  0.833061  0.499542  1
  Cd  Cd3  1  0.230320  0.627201  0.746647  1
  Cd  Cd4  1  0.026839  0.385669  0.746614  1
  Cd  Cd5  1  0.728268  0.986975  0.750021  1
  Cd  Cd6  1  0.255894  0.512066  0.246663  1
  Cd  Cd7  1  0.752680  0.863133  0.250055  1
  Cd  Cd8  1  0.668035  0.666421  0.499691  1
  Cd  Cd9  1  0.667932  0.666399  0.999910  1
  Cd  Cd10  1  0.332068  0.333601  0.499910  1
  Cd  Cd11  1  0.331965  0.333579  0.999691  1
  Cd  Cd12  1  0.247320  0.136867  0.750055  1
  Cd  Cd13  1  0.744106  0.487934  0.746663  1
  Cd  Cd14  1  0.271732  0.013025  0.250021  1
  Cd  Cd15  1  0.973161  0.614331  0.246614  1
  Cd  Cd16  1  0.769680  0.372799  0.246647  1
  Cd  Cd17  1  0.665306  0.166909  0.500333  1
  Cd  Cd18  1  0.665377  0.166939  0.999542  1
  Cd  Cd19  1  0.976455  0.124593  0.250067  1
  As  As20  1  0.022684  0.697929  0.748500  1
  As  As21  1  0.375621  0.987529  0.750013  1
  As  As22  1  0.396058  0.686583  0.248469  1
  As  As23  1  0.596209  0.810084  0.749933  1
  As  As24  1  0.024129  0.201959  0.749890  1
  As  As25  1  0.377119  0.489003  0.748320  1
  As  As26  1  0.622881  0.510997  0.248320  1
  As  As27  1  0.975871  0.798041  0.249890  1
  As  As28  1  0.403791  0.189916  0.249933  1
  As  As29  1  0.603942  0.313417  0.748469  1
  As  As30  1  0.624379  0.012471  0.250013  1
  As  As31  1  0.977316  0.302071  0.248500  1
  H  H32  1  0.999790  0.500008  0.907652  1
  H  H33  1  0.000210  0.499992  0.407651  1
  Cl  Cl34  1  0.999711  0.999991  0.250092  1
  Cl  Cl35  1  0.000289  0.000009  0.750092  1
  O  O36  1  0.253883  0.955205  0.547782  1
  O  O37  1  0.253902  0.955181  0.952253  1
  O  O38  1  0.166870  0.829017  0.249980  1
  O  O39  1  0.136959  0.797502  0.749775  1
  O  O40  1  0.083382  0.667037  0.546123  1
  O  O41  1  0.084086  0.666694  0.949557  1
  O  O42  1  0.462332  0.931122  0.750000  1
  O  O43  1  0.492449  0.917504  0.250076  1
  O  O44  1  0.341741  0.753899  0.249570  1
  O  O45  1  0.396925  0.766000  0.749572  1
  O  O46  1  0.334440  0.625054  0.046736  1
  O  O47  1  0.333807  0.624390  0.448960  1
  O  O48  1  0.653524  0.871188  0.952684  1
  O  O49  1  0.653773  0.871278  0.547370  1
  O  O50  1  0.252417  0.457832  0.949502  1
  O  O51  1  0.253473  0.458198  0.546143  1
  O  O52  1  0.166413  0.329546  0.249613  1
  O  O53  1  0.135822  0.301628  0.749506  1
  O  O54  1  0.595177  0.728777  0.249738  1
  O  O55  1  0.658987  0.745892  0.750025  1
  O  O56  1  0.089654  0.173231  0.548051  1
  O  O57  1  0.089713  0.173406  0.952033  1
  O  O58  1  0.508622  0.584144  0.749463  1
  O  O59  1  0.537427  0.567701  0.249277  1
  O  O60  1  0.462573  0.432299  0.749277  1
  O  O61  1  0.491378  0.415856  0.249463  1
  O  O62  1  0.910346  0.826769  0.048051  1
  O  O63  1  0.910287  0.826594  0.452033  1
  O  O64  1  0.341013  0.254109  0.250025  1
  O  O65  1  0.404823  0.271223  0.749738  1
  O  O66  1  0.864178  0.698372  0.249506  1
  O  O67  1  0.833587  0.670454  0.749613  1
  O  O68  1  0.747583  0.542168  0.449502  1
  O  O69  1  0.746527  0.541802  0.046143  1
  O  O70  1  0.346227  0.128722  0.047370  1
  O  O71  1  0.346476  0.128812  0.452684  1
  O  O72  1  0.666193  0.375610  0.948960  1
  O  O73  1  0.665560  0.374946  0.546736  1
  O  O74  1  0.603075  0.234000  0.249573  1
  O  O75  1  0.658259  0.246101  0.749570  1
  O  O76  1  0.507551  0.082496  0.750076  1
  O  O77  1  0.537668  0.068878  0.250000  1
  O  O78  1  0.999779  0.499964  0.260796  1
  O  O79  1  0.000221  0.500036  0.760796  1
  O  O80  1  0.916618  0.332963  0.046123  1
  O  O81  1  0.915914  0.333306  0.449557  1
  O  O82  1  0.863041  0.202498  0.249775  1
  O  O83  1  0.833130  0.170983  0.749980  1
  O  O84  1  0.746098  0.044819  0.452253  1
  O  O85  1  0.746117  0.044795  0.047782  1
