# generated using pymatgen
data_NaMg3Si4O11F
_symmetry_space_group_name_H-M   'P 1'
_cell_length_a   15.94744019
_cell_length_b   8.06729839
_cell_length_c   12.21929078
_cell_angle_alpha   61.62535889
_cell_angle_beta   40.23223123
_cell_angle_gamma   75.57709487
_symmetry_Int_Tables_number   1
_chemical_formula_structural   NaMg3Si4O11F
_chemical_formula_sum   'Na4 Mg12 Si16 O44 F4'
_cell_volume   875.30334904
_cell_formula_units_Z   4
loop_
 _symmetry_equiv_pos_site_id
 _symmetry_equiv_pos_as_xyz
  1  'x, y, z'
loop_
 _atom_site_type_symbol
 _atom_site_label
 _atom_site_symmetry_multiplicity
 _atom_site_fract_x
 _atom_site_fract_y
 _atom_site_fract_z
 _atom_site_occupancy
  Na  Na0  1  0.527302  0.516011  0.951508  1
  Na  Na1  1  0.471152  0.458988  0.323341  1
  Na  Na2  1  0.972698  0.483989  0.048492  1
  Na  Na3  1  0.028848  0.541012  0.676659  1
  Mg  Mg4  1  0.987274  0.916622  0.967580  1
  Mg  Mg5  1  0.009662  0.361460  0.279625  1
  Mg  Mg6  1  0.098343  0.915443  0.289468  1
  Mg  Mg7  1  0.512726  0.083378  0.032420  1
  Mg  Mg8  1  0.254530  0.205300  0.473518  1
  Mg  Mg9  1  0.245470  0.794700  0.526482  1
  Mg  Mg10  1  0.401657  0.084557  0.710532  1
  Mg  Mg11  1  0.490338  0.638540  0.720375  1
  Mg  Mg12  1  0.526679  0.928709  0.398912  1
  Mg  Mg13  1  0.558576  0.002745  0.762862  1
  Mg  Mg14  1  0.941424  -0.002745  0.237138  1
  Mg  Mg15  1  0.973321  0.071291  0.601088  1
  Si  Si16  1  0.337764  0.271360  0.947243  1
  Si  Si17  1  0.186967  0.281779  0.760037  1
  Si  Si18  1  0.260651  0.923864  0.700206  1
  Si  Si19  1  0.345788  0.533844  0.646718  1
  Si  Si20  1  0.154212  0.466156  0.353282  1
  Si  Si21  1  0.239349  0.076136  0.299794  1
  Si  Si22  1  0.773555  0.196306  0.039362  1
  Si  Si23  1  0.313033  0.718221  0.239963  1
  Si  Si24  1  0.730664  0.356107  0.634167  1
  Si  Si25  1  0.162236  0.728640  0.052757  1
  Si  Si26  1  0.815914  0.835023  0.621769  1
  Si  Si27  1  0.848016  0.418758  0.690232  1
  Si  Si28  1  0.651984  0.581242  0.309768  1
  Si  Si29  1  0.684086  0.164977  0.378231  1
  Si  Si30  1  0.769336  0.643893  0.365833  1
  Si  Si31  1  0.726445  0.803694  0.960638  1
  O  O32  1  0.906434  0.132284  -0.047815  1
  O  O33  1  0.340661  0.466440  0.804732  1
  O  O34  1  0.181443  0.181281  0.174688  1
  O  O35  1  0.087800  0.629161  0.048313  1
  O  O36  1  0.159339  0.533560  0.195268  1
  O  O37  1  0.881519  0.304542  0.560701  1
  O  O38  1  0.337036  0.676705  0.354518  1
  O  O39  1  0.884576  0.657635  0.563997  1
  O  O40  1  0.398965  0.127279  0.853964  1
  O  O41  1  0.347989  0.084010  0.295970  1
  O  O42  1  0.110466  0.892948  0.504820  1
  O  O43  1  0.199900  0.526386  0.723162  1
  O  O44  1  0.300100  0.473614  0.276838  1
  O  O45  1  0.389534  0.107052  0.495180  1
  O  O46  1  0.152011  0.915990  0.704030  1
  O  O47  1  0.101035  0.872721  0.146036  1
  O  O48  1  0.337514  0.973255  0.151092  1
  O  O49  1  0.615424  0.342365  0.436003  1
  O  O50  1  0.000342  0.383305  0.586548  1
  O  O51  1  0.666543  0.170649  0.256830  1
  O  O52  1  0.162964  0.323295  0.645482  1
  O  O53  1  0.618481  0.695458  0.439299  1
  O  O54  1  0.412200  0.370839  -0.048313  1
  O  O55  1  0.710834  0.606811  0.108473  1
  O  O56  1  0.499658  0.616695  0.413452  1
  O  O57  1  0.336361  0.309077  0.662562  1
  O  O58  1  0.873678  0.833522  0.237555  1
  O  O59  1  0.318557  0.818719  0.825312  1
  O  O60  1  0.346622  0.770329  0.603955  1
  O  O61  1  0.593566  0.867716  0.047815  1
  O  O62  1  0.810906  0.649575  0.180701  1
  O  O63  1  0.830400  0.186859  0.265735  1
  O  O64  1  0.569919  0.975588  0.586820  1
  O  O65  1  0.673765  0.568259  0.602055  1
  O  O66  1  0.826235  0.431741  0.397945  1
  O  O67  1  0.930081  0.024412  0.413180  1
  O  O68  1  0.669600  0.813141  0.734265  1
  O  O69  1  0.689094  0.350425  0.819299  1
  O  O70  1  0.153378  0.229671  0.396045  1
  O  O71  1  0.626322  0.166478  0.762445  1
  O  O72  1  0.163639  0.690923  0.337438  1
  O  O73  1  0.789166  0.393189  0.891527  1
  O  O74  1  0.833457  0.829351  0.743170  1
  O  O75  1  0.162486  0.026745  0.848908  1
  F  F76  1  0.076619  0.230542  -0.007168  1
  F  F77  1  0.423381  0.769458  0.007168  1
  F  F78  1  0.658983  0.044807  0.124351  1
  F  F79  1  0.841017  0.955193  0.875649  1
