# generated using pymatgen
data_SrCo2As2(H2O5)2
_symmetry_space_group_name_H-M   'P 1'
_cell_length_a   7.59070058
_cell_length_b   9.20142414
_cell_length_c   13.10928804
_cell_angle_alpha   90.00000000
_cell_angle_beta   90.00000000
_cell_angle_gamma   114.09065953
_symmetry_Int_Tables_number   1
_chemical_formula_structural   SrCo2As2(H2O5)2
_chemical_formula_sum   'Sr4 Co8 As8 H16 O40'
_cell_volume   835.87160465
_cell_formula_units_Z   4
loop_
 _symmetry_equiv_pos_site_id
 _symmetry_equiv_pos_as_xyz
  1  'x, y, z'
loop_
 _atom_site_type_symbol
 _atom_site_label
 _atom_site_symmetry_multiplicity
 _atom_site_fract_x
 _atom_site_fract_y
 _atom_site_fract_z
 _atom_site_occupancy
  Sr  Sr0  1  0.748915  0.743698  0.870141  1
  Sr  Sr1  1  0.251085  0.256302  0.129859  1
  Sr  Sr2  1  0.248915  0.243698  0.629859  1
  Sr  Sr3  1  0.751085  0.756302  0.370141  1
  Co  Co4  1  0.496250  0.003748  0.748896  1
  Co  Co5  1  0.503750  0.996252  0.251104  1
  Co  Co6  1  0.500000  0.000000  0.500000  1
  Co  Co7  1  0.996250  0.503748  0.751104  1
  Co  Co8  1  0.003750  0.496252  0.248896  1
  Co  Co9  1  0.000000  0.500000  0.000000  1
  Co  Co10  1  0.000000  0.500000  0.500000  1
  Co  Co11  1  0.500000  0.000000  0.000000  1
  As  As12  1  0.950868  0.169672  0.867338  1
  As  As13  1  0.549132  0.330328  0.367338  1
  As  As14  1  0.460355  0.681575  0.118476  1
  As  As15  1  0.450868  0.669672  0.632662  1
  As  As16  1  0.539645  0.318425  0.881524  1
  As  As17  1  0.049132  0.830328  0.132662  1
  As  As18  1  0.960355  0.181575  0.381524  1
  As  As19  1  0.039645  0.818425  0.618476  1
  H  H20  1  0.789976  0.897184  0.584914  1
  H  H21  1  0.767228  0.209407  0.125106  1
  H  H22  1  0.710024  0.602816  0.084914  1
  H  H23  1  0.714872  0.393297  0.127446  1
  H  H24  1  0.796309  0.038206  0.127734  1
  H  H25  1  0.210024  0.102816  0.415086  1
  H  H26  1  0.203691  0.961794  0.872266  1
  H  H27  1  0.232772  0.790593  0.874894  1
  H  H28  1  0.785128  0.106703  0.627446  1
  H  H29  1  0.296309  0.538206  0.372266  1
  H  H30  1  0.214872  0.893297  0.372554  1
  H  H31  1  0.703691  0.461794  0.627734  1
  H  H32  1  0.289976  0.397184  0.915086  1
  H  H33  1  0.732772  0.290593  0.625106  1
  H  H34  1  0.267228  0.709407  0.374894  1
  H  H35  1  0.285128  0.606703  0.872554  1
  O  O36  1  0.981979  0.985622  0.138462  1
  O  O37  1  0.018021  0.014379  0.861537  1
  O  O38  1  0.955136  0.711910  0.727572  1
  O  O39  1  0.659592  0.111990  0.623432  1
  O  O40  1  0.340408  0.888010  0.376568  1
  O  O41  1  0.518955  0.786143  0.741782  1
  O  O42  1  0.573820  0.544815  0.112011  1
  O  O43  1  0.481979  0.485621  0.361538  1
  O  O44  1  0.933603  0.703650  0.031624  1
  O  O45  1  0.531200  0.787643  0.007228  1
  O  O46  1  0.776508  0.453650  0.877201  1
  O  O47  1  0.200254  0.586716  0.623130  1
  O  O48  1  0.276508  0.953650  0.622799  1
  O  O49  1  0.723492  0.046350  0.377201  1
  O  O50  1  0.302703  0.914968  0.875191  1
  O  O51  1  0.018955  0.286143  0.758218  1
  O  O52  1  0.968800  0.712357  0.507228  1
  O  O53  1  0.840408  0.388010  0.123432  1
  O  O54  1  0.197297  0.585032  0.375191  1
  O  O55  1  0.697297  0.085032  0.124809  1
  O  O56  1  0.426180  0.455185  0.887989  1
  O  O57  1  0.700254  0.086716  0.876870  1
  O  O58  1  0.981045  0.713857  0.241782  1
  O  O59  1  0.073820  0.044815  0.387989  1
  O  O60  1  0.223492  0.546350  0.122799  1
  O  O61  1  0.926180  0.955185  0.612011  1
  O  O62  1  0.802703  0.414968  0.624809  1
  O  O63  1  0.468800  0.212357  0.992772  1
  O  O64  1  0.544864  0.788090  0.227572  1
  O  O65  1  0.299746  0.913284  0.123130  1
  O  O66  1  0.044864  0.288090  0.272428  1
  O  O67  1  0.455136  0.211910  0.772428  1
  O  O68  1  0.518021  0.514378  0.638463  1
  O  O69  1  0.481045  0.213857  0.258218  1
  O  O70  1  0.799746  0.413284  0.376870  1
  O  O71  1  0.066397  0.296350  0.968376  1
  O  O72  1  0.031200  0.287643  0.492772  1
  O  O73  1  0.159592  0.611990  0.876568  1
  O  O74  1  0.433603  0.203650  0.468376  1
  O  O75  1  0.566397  0.796350  0.531624  1
