# generated using pymatgen
data_K2Cd3H10S4O21
_symmetry_space_group_name_H-M   'P 1'
_cell_length_a   20.72560739
_cell_length_b   10.08036742
_cell_length_c   10.21807346
_cell_angle_alpha   90.00000000
_cell_angle_beta   98.47455476
_cell_angle_gamma   90.00000000
_symmetry_Int_Tables_number   1
_chemical_formula_structural   K2Cd3H10S4O21
_chemical_formula_sum   'K8 Cd12 H40 S16 O84'
_cell_volume   2111.46889655
_cell_formula_units_Z   4
loop_
 _symmetry_equiv_pos_site_id
 _symmetry_equiv_pos_as_xyz
  1  'x, y, z'
loop_
 _atom_site_type_symbol
 _atom_site_label
 _atom_site_symmetry_multiplicity
 _atom_site_fract_x
 _atom_site_fract_y
 _atom_site_fract_z
 _atom_site_occupancy
  K  K0  1  0.749814  0.490409  0.776208  1
  K  K1  1  0.250186  0.990409  0.723792  1
  K  K2  1  0.250186  0.509591  0.223792  1
  K  K3  1  0.749814  0.009591  0.276208  1
  K  K4  1  0.613505  0.264495  0.363517  1
  K  K5  1  0.386495  0.764495  0.136483  1
  K  K6  1  0.386495  0.735505  0.636482  1
  K  K7  1  0.613505  0.235505  0.863518  1
  Cd  Cd8  1  0.829584  0.121932  0.917481  1
  Cd  Cd9  1  0.170416  0.621932  0.582519  1
  Cd  Cd10  1  0.170416  0.878068  0.082519  1
  Cd  Cd11  1  0.829584  0.378068  0.417481  1
  Cd  Cd12  1  0.827133  0.825959  0.703974  1
  Cd  Cd13  1  0.172867  0.325959  0.796026  1
  Cd  Cd14  1  0.172867  0.174041  0.296026  1
  Cd  Cd15  1  0.827133  0.674041  0.203974  1
  Cd  Cd16  1  0.564353  0.695669  0.378759  1
  Cd  Cd17  1  0.435647  0.195669  0.121241  1
  Cd  Cd18  1  0.435647  0.304331  0.621241  1
  Cd  Cd19  1  0.564353  0.804331  0.878759  1
  H  H20  1  0.920362  0.000604  0.789101  1
  H  H21  1  0.079638  0.500604  0.710899  1
  H  H22  1  0.079638  0.999396  0.210899  1
  H  H23  1  0.920362  0.499396  0.289101  1
  H  H24  1  0.945322  0.922649  0.976718  1
  H  H25  1  0.054678  0.422649  0.523282  1
  H  H26  1  0.054678  0.077351  0.023282  1
  H  H27  1  0.945322  0.577351  0.476718  1
  H  H28  1  0.639364  0.822120  0.670211  1
  H  H29  1  0.360636  0.322120  0.829789  1
  H  H30  1  0.360636  0.177880  0.329789  1
  H  H31  1  0.639364  0.677880  0.170211  1
  H  H32  1  0.893664  0.189880  0.277118  1
  H  H33  1  0.106336  0.689880  0.222882  1
  H  H34  1  0.106336  0.810120  0.722882  1
  H  H35  1  0.893664  0.310120  0.777118  1
  H  H36  1  0.074216  0.279032  0.083628  1
  H  H37  1  0.925784  0.779032  0.416372  1
  H  H38  1  0.925784  0.720968  0.916372  1
  H  H39  1  0.074216  0.220968  0.583628  1
  H  H40  1  0.931146  0.340741  0.919598  1
  H  H41  1  0.068854  0.840741  0.580402  1
  H  H42  1  0.068854  0.659259  0.080402  1
  H  H43  1  0.931146  0.159259  0.419598  1
  H  H44  1  0.945924  0.101087  0.605144  1
  H  H45  1  0.054076  0.601087  0.894856  1
  H  H46  1  0.054076  0.898913  0.394856  1
  H  H47  1  0.945924  0.398913  0.105144  1
  H  H48  1  0.925484  0.839702  0.459154  1
  H  H49  1  0.074516  0.339702  0.040846  1
  H  H50  1  0.074516  0.160298  0.540846  1
  H  H51  1  0.925484  0.660298  0.959154  1
  H  H52  1  0.339898  0.973191  0.336598  1
  H  H53  1  0.660102  0.473191  0.163402  1
  H  H54  1  0.660102  0.026809  0.663402  1
  H  H55  1  0.339898  0.526809  0.836598  1
  H  H56  1  0.501805  0.841977  0.494825  1
  H  H57  1  0.498195  0.341977  0.005176  1
  H  H58  1  0.498195  0.158023  0.505175  1
  H  H59  1  0.501805  0.658023  0.994825  1
  S  S60  1  0.733085  0.671623  0.453098  1
  S  S61  1  0.266915  0.171623  0.046902  1
  S  S62  1  0.266915  0.328377  0.546902  1
  S  S63  1  0.733085  0.828377  0.953098  1
  S  S64  1  0.746610  0.333245  0.104648  1
  S  S65  1  0.253390  0.833245  0.395352  1
  S  S66  1  0.253390  0.666755  0.895352  1
  S  S67  1  0.746610  0.166755  0.604648  1
  S  S68  1  0.927002  0.527715  0.670288  1
  S  S69  1  0.072998  0.027715  0.829712  1
  S  S70  1  0.072998  0.472285  0.329711  1
  S  S71  1  0.927002  0.972285  0.170289  1
  S  S72  1  0.564802  0.541039  0.696235  1
  S  S73  1  0.435198  0.041039  0.803765  1
  S  S74  1  0.435198  0.458961  0.303765  1
  S  S75  1  0.564802  0.958961  0.196235  1
  O  O76  1  0.735495  0.712060  0.593264  1
  O  O77  1  0.264505  0.212060  0.906736  1
  O  O78  1  0.264505  0.287940  0.406736  1
  O  O79  1  0.735495  0.787940  0.093264  1
  O  O80  1  0.787427  0.740389  0.395288  1
  O  O81  1  0.212573  0.240389  0.104712  1
  O  O82  1  0.212573  0.259611  0.604712  1
  O  O83  1  0.787427  0.759611  0.895288  1
  O  O84  1  0.741021  0.525823  0.442026  1
  O  O85  1  0.258979  0.025823  0.057974  1
  O  O86  1  0.258979  0.474177  0.557974  1
  O  O87  1  0.741021  0.974177  0.942026  1
  O  O88  1  0.671193  0.717319  0.373794  1
  O  O89  1  0.328807  0.217319  0.126206  1
  O  O90  1  0.328807  0.282681  0.626206  1
  O  O91  1  0.671193  0.782681  0.873794  1
  O  O92  1  0.752810  0.281983  0.969633  1
  O  O93  1  0.247190  0.781983  0.530367  1
  O  O94  1  0.247190  0.718017  0.030367  1
  O  O95  1  0.752810  0.218017  0.469633  1
  O  O96  1  0.733939  0.480513  0.096517  1
  O  O97  1  0.266061  0.980513  0.403483  1
  O  O98  1  0.266061  0.519487  0.903483  1
  O  O99  1  0.733939  0.019487  0.596517  1
  O  O100  1  0.690210  0.269107  0.152614  1
  O  O101  1  0.309790  0.769107  0.347386  1
  O  O102  1  0.309790  0.730893  0.847386  1
  O  O103  1  0.690210  0.230893  0.652614  1
  O  O104  1  0.807738  0.307797  0.195539  1
  O  O105  1  0.192262  0.807797  0.304461  1
  O  O106  1  0.192262  0.692203  0.804461  1
  O  O107  1  0.807738  0.192203  0.695539  1
  O  O108  1  0.971164  0.508724  0.792232  1
  O  O109  1  0.028836  0.008724  0.707768  1
  O  O110  1  0.028836  0.491276  0.207768  1
  O  O111  1  0.971164  0.991276  0.292232  1
  O  O112  1  0.969356  0.591329  0.570975  1
  O  O113  1  0.030644  0.091329  0.929025  1
  O  O114  1  0.030644  0.408671  0.429025  1
  O  O115  1  0.969356  0.908671  0.070975  1
  O  O116  1  0.870770  0.616367  0.678652  1
  O  O117  1  0.129230  0.116367  0.821348  1
  O  O118  1  0.129230  0.383633  0.321348  1
  O  O119  1  0.870770  0.883633  0.178652  1
  O  O120  1  0.901803  0.398149  0.611958  1
  O  O121  1  0.098197  0.898149  0.888042  1
  O  O122  1  0.098197  0.601851  0.388042  1
  O  O123  1  0.901803  0.101851  0.111958  1
  O  O124  1  0.592155  0.598137  0.580552  1
  O  O125  1  0.407845  0.098137  0.919448  1
  O  O126  1  0.407845  0.401863  0.419448  1
  O  O127  1  0.592155  0.901863  0.080552  1
  O  O128  1  0.516915  0.639886  0.740818  1
  O  O129  1  0.483085  0.139886  0.759182  1
  O  O130  1  0.483085  0.360114  0.259182  1
  O  O131  1  0.516915  0.860114  0.240818  1
  O  O132  1  0.529571  0.413832  0.654776  1
  O  O133  1  0.470429  0.913832  0.845224  1
  O  O134  1  0.470429  0.586168  0.345224  1
  O  O135  1  0.529571  0.086168  0.154776  1
  O  O136  1  0.617731  0.512557  0.805159  1
  O  O137  1  0.382269  0.012557  0.694841  1
  O  O138  1  0.382269  0.487443  0.194841  1
  O  O139  1  0.617731  0.987443  0.305159  1
  O  O140  1  0.892336  0.954246  0.843519  1
  O  O141  1  0.107664  0.454246  0.656481  1
  O  O142  1  0.107664  0.045754  0.156481  1
  O  O143  1  0.892336  0.545754  0.343519  1
  O  O144  1  0.378165  0.505900  0.791653  1
  O  O145  1  0.621835  0.005900  0.708347  1
  O  O146  1  0.621835  0.494100  0.208347  1
  O  O147  1  0.378165  0.994100  0.291653  1
  O  O148  1  0.890494  0.304122  0.872527  1
  O  O149  1  0.109506  0.804122  0.627473  1
  O  O150  1  0.109506  0.695878  0.127473  1
  O  O151  1  0.890494  0.195878  0.372527  1
  O  O152  1  0.829622  0.925449  0.508415  1
  O  O153  1  0.170378  0.425449  0.991585  1
  O  O154  1  0.170378  0.074551  0.491585  1
  O  O155  1  0.829622  0.574551  0.008415  1
  O  O156  1  0.600048  0.878546  0.648449  1
  O  O157  1  0.399952  0.378546  0.851551  1
  O  O158  1  0.399952  0.121454  0.351551  1
  O  O159  1  0.600048  0.621454  0.148449  1
