# generated using pymatgen
data_LiVTeO5
_symmetry_space_group_name_H-M   'P 1'
_cell_length_a   6.00915376
_cell_length_b   8.28086359
_cell_length_c   10.55565670
_cell_angle_alpha   90.00000000
_cell_angle_beta   90.00000000
_cell_angle_gamma   90.00000000
_symmetry_Int_Tables_number   1
_chemical_formula_structural   LiVTeO5
_chemical_formula_sum   'Li4 V4 Te4 O20'
_cell_volume   525.25984915
_cell_formula_units_Z   4
loop_
 _symmetry_equiv_pos_site_id
 _symmetry_equiv_pos_as_xyz
  1  'x, y, z'
loop_
 _atom_site_type_symbol
 _atom_site_label
 _atom_site_symmetry_multiplicity
 _atom_site_fract_x
 _atom_site_fract_y
 _atom_site_fract_z
 _atom_site_occupancy
  Li  Li0  1  0.404485  0.329623  0.194068  1
  Li  Li1  1  0.095515  0.829623  0.805932  1
  Li  Li2  1  0.904485  0.670377  0.305932  1
  Li  Li3  1  0.595515  0.170377  0.694068  1
  V  V4  1  0.206384  0.235096  0.895002  1
  V  V5  1  0.706384  0.764904  0.604998  1
  V  V6  1  0.293616  0.735096  0.104998  1
  V  V7  1  0.793616  0.264904  0.395002  1
  Te  Te8  1  0.121632  0.393542  0.613177  1
  Te  Te9  1  0.878368  0.106458  0.113177  1
  Te  Te10  1  0.378368  0.893542  0.386823  1
  Te  Te11  1  0.621632  0.606458  0.886823  1
  O  O12  1  0.680634  0.271902  0.109528  1
  O  O13  1  0.521428  0.257384  0.365831  1
  O  O14  1  0.399946  0.559653  0.150062  1
  O  O15  1  0.478572  0.242616  0.865831  1
  O  O16  1  0.899946  0.440347  0.349938  1
  O  O17  1  0.319366  0.228098  0.609528  1
  O  O18  1  0.021428  0.742616  0.134169  1
  O  O19  1  0.100054  0.059653  0.849938  1
  O  O20  1  0.978572  0.757384  0.634169  1
  O  O21  1  0.356816  0.742008  0.931298  1
  O  O22  1  0.929967  0.102399  0.297387  1
  O  O23  1  0.143184  0.242008  0.068702  1
  O  O24  1  0.570033  0.602399  0.702613  1
  O  O25  1  0.429967  0.897601  0.202613  1
  O  O26  1  0.819366  0.771902  0.890472  1
  O  O27  1  0.856816  0.257992  0.568702  1
  O  O28  1  0.643184  0.757992  0.431298  1
  O  O29  1  0.180634  0.728098  0.390472  1
  O  O30  1  0.070033  0.397601  0.797387  1
  O  O31  1  0.600054  0.940347  0.650062  1
