# generated using pymatgen
data_H5ClO6
_symmetry_space_group_name_H-M   'P 1'
_cell_length_a   6.05347236
_cell_length_b   11.41885955
_cell_length_c   7.46962150
_cell_angle_alpha   90.12497024
_cell_angle_beta   91.46960814
_cell_angle_gamma   89.94784246
_symmetry_Int_Tables_number   1
_chemical_formula_structural   H5ClO6
_chemical_formula_sum   'H20 Cl4 O24'
_cell_volume   516.15700160
_cell_formula_units_Z   4
loop_
 _symmetry_equiv_pos_site_id
 _symmetry_equiv_pos_as_xyz
  1  'x, y, z'
loop_
 _atom_site_type_symbol
 _atom_site_label
 _atom_site_symmetry_multiplicity
 _atom_site_fract_x
 _atom_site_fract_y
 _atom_site_fract_z
 _atom_site_occupancy
  H  H0  1  0.995866  0.249014  0.290154  1
  H  H1  1  0.186502  0.749852  0.293444  1
  H  H2  1  0.498694  0.053216  0.749536  1
  H  H3  1  0.010563  0.461650  0.762310  1
  H  H4  1  0.536224  0.960053  0.217087  1
  H  H5  1  0.506200  0.442750  0.737343  1
  H  H6  1  0.010683  0.038254  0.763422  1
  H  H7  1  0.519825  0.096691  0.199690  1
  H  H8  1  0.989137  0.520843  0.255869  1
  H  H9  1  0.976007  0.488104  0.459337  1
  H  H10  1  0.461639  0.576603  0.786127  1
  H  H11  1  0.506146  0.483397  0.976804  1
  H  H12  1  0.993925  0.906273  0.721578  1
  H  H13  1  0.502659  0.011619  0.993267  1
  H  H14  1  0.463338  0.918779  0.793609  1
  H  H15  1  0.992623  0.593736  0.721905  1
  H  H16  1  0.516903  0.396560  0.190486  1
  H  H17  1  0.524649  0.533064  0.207739  1
  H  H18  1  0.975901  0.011980  0.460336  1
  H  H19  1  0.990044  0.978745  0.256755  1
  Cl  Cl20  1  0.582895  0.249634  0.509361  1
  Cl  Cl21  1  0.063059  0.249410  0.007756  1
  Cl  Cl22  1  0.431751  0.749217  0.508003  1
  Cl  Cl23  1  0.918425  0.750291  0.002603  1
  O  O24  1  0.605993  0.247090  0.311913  1
  O  O25  1  0.133495  0.249026  0.219434  1
  O  O26  1  0.392127  0.748456  0.696419  1
  O  O27  1  0.897426  0.749602  0.806138  1
  O  O28  1  0.798976  0.251597  0.597089  1
  O  O29  1  0.274589  0.248489  0.927864  1
  O  O30  1  0.177289  0.753420  0.426339  1
  O  O31  1  0.699804  0.750000  0.079514  1
  O  O32  1  0.458951  0.145851  0.560716  1
  O  O33  1  0.938533  0.354493  0.974830  1
  O  O34  1  0.529001  0.643360  0.445313  1
  O  O35  1  0.042887  0.854552  0.060160  1
  O  O36  1  0.538052  0.854249  0.451020  1
  O  O37  1  0.044411  0.646982  0.061613  1
  O  O38  1  0.456704  0.355523  0.554251  1
  O  O39  1  0.936107  0.144852  0.974897  1
  O  O40  1  0.461987  0.022462  0.147432  1
  O  O41  1  0.905702  0.474267  0.339771  1
  O  O42  1  0.545436  0.506538  0.824888  1
  O  O43  1  0.069011  0.977887  0.684844  1
  O  O44  1  0.543291  0.989118  0.834153  1
  O  O45  1  0.068692  0.522198  0.684624  1
  O  O46  1  0.458572  0.469375  0.135312  1
  O  O47  1  0.906576  0.025949  0.340573  1
