# generated using pymatgen
data_ReH3O5
_symmetry_space_group_name_H-M   'P 1'
_cell_length_a   7.53603668
_cell_length_b   7.65247064
_cell_length_c   7.80493531
_cell_angle_alpha   133.49288917
_cell_angle_beta   133.61678752
_cell_angle_gamma   68.48308701
_symmetry_Int_Tables_number   1
_chemical_formula_structural   ReH3O5
_chemical_formula_sum   'Re2 H6 O10'
_cell_volume   231.34713632
_cell_formula_units_Z   2
loop_
 _symmetry_equiv_pos_site_id
 _symmetry_equiv_pos_as_xyz
  1  'x, y, z'
loop_
 _atom_site_type_symbol
 _atom_site_label
 _atom_site_symmetry_multiplicity
 _atom_site_fract_x
 _atom_site_fract_y
 _atom_site_fract_z
 _atom_site_occupancy
  Re  Re0  1  0.375481  0.116927  0.241526  1
  Re  Re1  1  0.626390  0.878782  0.760064  1
  H  H2  1  0.876941  0.546844  0.278920  1
  H  H3  1  0.809659  0.713035  0.183186  1
  H  H4  1  0.005509  0.372101  0.723034  1
  H  H5  1  0.257186  0.296852  0.777607  1
  H  H6  1  0.129851  0.652307  0.351271  1
  H  H7  1  0.273735  0.643297  0.972456  1
  O  O8  1  0.933180  0.635602  0.270837  1
  O  O9  1  0.150705  0.417266  0.773504  1
  O  O10  1  0.672624  0.308229  0.564687  1
  O  O11  1  0.252212  0.093982  0.938038  1
  O  O12  1  0.590745  0.169244  0.861763  1
  O  O13  1  0.822018  0.762096  0.672944  1
  O  O14  1  0.328549  0.671527  0.420085  1
  O  O15  1  0.750809  0.902293  0.065927  1
  O  O16  1  0.405678  0.816677  0.139353  1
  O  O17  1  0.183695  0.250533  0.333490  1
