# generated using pymatgen
data_MnGeO3
_symmetry_space_group_name_H-M   'P 1'
_cell_length_a   5.57017049
_cell_length_b   9.33177682
_cell_length_c   19.53288490
_cell_angle_alpha   90.00000000
_cell_angle_beta   90.00000000
_cell_angle_gamma   90.00000000
_symmetry_Int_Tables_number   1
_chemical_formula_structural   MnGeO3
_chemical_formula_sum   'Mn16 Ge16 O48'
_cell_volume   1015.31130686
_cell_formula_units_Z   16
loop_
 _symmetry_equiv_pos_site_id
 _symmetry_equiv_pos_as_xyz
  1  'x, y, z'
loop_
 _atom_site_type_symbol
 _atom_site_label
 _atom_site_symmetry_multiplicity
 _atom_site_fract_x
 _atom_site_fract_y
 _atom_site_fract_z
 _atom_site_occupancy
  Mn  Mn0  1  0.850213  0.019401  0.377336  1
  Mn  Mn1  1  0.858920  0.154504  0.123669  1
  Mn  Mn2  1  0.641080  0.654504  0.876331  1
  Mn  Mn3  1  0.358920  0.345496  0.123669  1
  Mn  Mn4  1  0.141079  0.345496  0.623669  1
  Mn  Mn5  1  0.350213  0.480599  0.377336  1
  Mn  Mn6  1  0.858920  0.654504  0.376331  1
  Mn  Mn7  1  0.649787  0.519401  0.622664  1
  Mn  Mn8  1  0.149787  0.980599  0.622664  1
  Mn  Mn9  1  0.641080  0.154504  0.623669  1
  Mn  Mn10  1  0.149787  0.480599  0.877336  1
  Mn  Mn11  1  0.141079  0.845496  0.876331  1
  Mn  Mn12  1  0.850213  0.519401  0.122664  1
  Mn  Mn13  1  0.649787  0.019401  0.877336  1
  Mn  Mn14  1  0.358920  0.845496  0.376331  1
  Mn  Mn15  1  0.350213  0.980599  0.122664  1
  Ge  Ge16  1  0.300932  0.161954  0.472506  1
  Ge  Ge17  1  0.300932  0.661954  0.027494  1
  Ge  Ge18  1  0.800932  0.338046  0.472506  1
  Ge  Ge19  1  0.466482  0.843388  0.729702  1
  Ge  Ge20  1  0.699068  0.338046  0.972506  1
  Ge  Ge21  1  0.533518  0.156612  0.270298  1
  Ge  Ge22  1  0.466482  0.343388  0.770298  1
  Ge  Ge23  1  0.966482  0.656612  0.729702  1
  Ge  Ge24  1  0.699068  0.838046  0.527494  1
  Ge  Ge25  1  0.033518  0.343388  0.270298  1
  Ge  Ge26  1  0.800932  0.838046  0.027494  1
  Ge  Ge27  1  0.966482  0.156612  0.770298  1
  Ge  Ge28  1  0.033518  0.843388  0.229702  1
  Ge  Ge29  1  0.199068  0.161954  0.972506  1
  Ge  Ge30  1  0.533518  0.656612  0.229702  1
  Ge  Ge31  1  0.199068  0.661954  0.527494  1
  O  O32  1  0.692415  0.340758  0.062959  1
  O  O33  1  0.177885  0.014114  0.431310  1
  O  O34  1  0.613497  0.685961  0.055473  1
  O  O35  1  0.692415  0.840758  0.437041  1
  O  O36  1  0.453036  0.512270  0.808503  1
  O  O37  1  0.953036  0.987730  0.808503  1
  O  O38  1  0.886503  0.185961  0.944527  1
  O  O39  1  0.046964  0.012270  0.191497  1
  O  O40  1  0.546964  0.487730  0.191497  1
  O  O41  1  0.192415  0.659242  0.437041  1
  O  O42  1  0.476775  0.839122  0.819818  1
  O  O43  1  0.976775  0.660878  0.819818  1
  O  O44  1  0.816357  0.722779  0.193692  1
  O  O45  1  0.453036  0.012270  0.691497  1
  O  O46  1  0.023225  0.339122  0.180182  1
  O  O47  1  0.046964  0.512270  0.308503  1
  O  O48  1  0.386503  0.814039  0.555473  1
  O  O49  1  0.546964  0.987730  0.308503  1
  O  O50  1  0.677885  0.485886  0.431310  1
  O  O51  1  0.177885  0.514114  0.068690  1
  O  O52  1  0.683643  0.222779  0.806308  1
  O  O53  1  0.307585  0.159242  0.562959  1
  O  O54  1  0.113497  0.314039  0.444527  1
  O  O55  1  0.322115  0.514114  0.568690  1
  O  O56  1  0.677885  0.985886  0.068690  1
  O  O57  1  0.476775  0.339122  0.680182  1
  O  O58  1  0.183643  0.777221  0.693692  1
  O  O59  1  0.023225  0.839122  0.319818  1
  O  O60  1  0.683643  0.722779  0.693692  1
  O  O61  1  0.192415  0.159242  0.062959  1
  O  O62  1  0.822115  0.985886  0.568690  1
  O  O63  1  0.316357  0.277221  0.306308  1
  O  O64  1  0.807585  0.840758  0.937041  1
  O  O65  1  0.386503  0.314039  0.944527  1
  O  O66  1  0.613497  0.185961  0.444527  1
  O  O67  1  0.976775  0.160878  0.680182  1
  O  O68  1  0.822115  0.485886  0.931310  1
  O  O69  1  0.322115  0.014114  0.931310  1
  O  O70  1  0.316357  0.777221  0.193692  1
  O  O71  1  0.807585  0.340758  0.562959  1
  O  O72  1  0.307585  0.659242  0.937041  1
  O  O73  1  0.816357  0.222779  0.306308  1
  O  O74  1  0.113497  0.814039  0.055473  1
  O  O75  1  0.953036  0.487730  0.691497  1
  O  O76  1  0.523225  0.160878  0.180182  1
  O  O77  1  0.886503  0.685961  0.555473  1
  O  O78  1  0.183643  0.277221  0.806308  1
  O  O79  1  0.523225  0.660878  0.319818  1
