# generated using pymatgen
data_K2Fe(PS3)2
_symmetry_space_group_name_H-M   'P 1'
_cell_length_a   6.05077390
_cell_length_b   7.69850345
_cell_length_c   12.49479303
_cell_angle_alpha   90.00000000
_cell_angle_beta   90.00000000
_cell_angle_gamma   102.45083566
_symmetry_Int_Tables_number   1
_chemical_formula_structural   K2Fe(PS3)2
_chemical_formula_sum   'K4 Fe2 P4 S12'
_cell_volume   568.34266932
_cell_formula_units_Z   2
loop_
 _symmetry_equiv_pos_site_id
 _symmetry_equiv_pos_as_xyz
  1  'x, y, z'
loop_
 _atom_site_type_symbol
 _atom_site_label
 _atom_site_symmetry_multiplicity
 _atom_site_fract_x
 _atom_site_fract_y
 _atom_site_fract_z
 _atom_site_occupancy
  P  P0  1  0.018553  0.365452  0.973580  1
  P  P1  1  0.981447  0.634548  0.026420  1
  P  P2  1  0.518553  0.865452  0.526420  1
  P  P3  1  0.481447  0.134548  0.473580  1
  S  S4  1  0.189055  0.273689  0.093749  1
  S  S5  1  0.310945  0.226311  0.593749  1
  S  S6  1  0.726069  0.908142  0.656144  1
  S  S7  1  0.226069  0.408142  0.843856  1
  S  S8  1  0.773931  0.591858  0.156144  1
  S  S9  1  0.273931  0.091858  0.343856  1
  S  S10  1  0.812551  0.255783  0.449750  1
  S  S11  1  0.687449  0.244217  0.949750  1
  S  S12  1  0.187449  0.744217  0.550250  1
  S  S13  1  0.312551  0.755783  0.050250  1
  S  S14  1  0.689056  0.773689  0.406251  1
  S  S15  1  0.810944  0.726311  0.906251  1
  K  K16  1  0.296509  0.957575  0.810342  1
  K  K17  1  0.203491  0.542425  0.310342  1
  K  K18  1  0.703491  0.042425  0.189658  1
  K  K19  1  0.796509  0.457575  0.689658  1
  Fe  Fe20  1  0.000000  0.000000  0.500000  1
  Fe  Fe21  1  0.500000  0.500000  0.000000  1
