# generated using pymatgen
data_SrGa2(SiO4)2
_symmetry_space_group_name_H-M   'P 1'
_cell_length_a   8.59536962
_cell_length_b   9.45261652
_cell_length_c   9.45261651
_cell_angle_alpha   89.67660833
_cell_angle_beta   83.02091991
_cell_angle_gamma   83.02091993
_symmetry_Int_Tables_number   1
_chemical_formula_structural   SrGa2(SiO4)2
_chemical_formula_sum   'Sr4 Ga8 Si8 O32'
_cell_volume   756.64180072
_cell_formula_units_Z   4
loop_
 _symmetry_equiv_pos_site_id
 _symmetry_equiv_pos_as_xyz
  1  'x, y, z'
loop_
 _atom_site_type_symbol
 _atom_site_label
 _atom_site_symmetry_multiplicity
 _atom_site_fract_x
 _atom_site_fract_y
 _atom_site_fract_z
 _atom_site_occupancy
  O  O0  1  0.001871  0.678651  0.909889  1
  O  O1  1  0.498129  0.590111  0.821349  1
  O  O2  1  0.998129  0.321349  0.090111  1
  O  O3  1  0.501871  0.409889  0.178651  1
  O  O4  1  0.502975  0.187165  0.430934  1
  O  O5  1  0.997025  0.069066  0.312835  1
  O  O6  1  0.497025  0.812835  0.569066  1
  O  O7  1  0.002975  0.930934  0.687165  1
  O  O8  1  0.119123  0.553973  0.183469  1
  O  O9  1  0.380877  0.316531  0.946027  1
  O  O10  1  0.880877  0.446027  0.816531  1
  O  O11  1  0.619123  0.683469  0.053973  1
  O  O12  1  0.606184  0.091469  0.676433  1
  O  O13  1  0.893816  0.823567  0.408531  1
  O  O14  1  0.393816  0.908531  0.323567  1
  O  O15  1  0.106184  0.176433  0.591469  1
  O  O16  1  0.310732  0.767730  0.013812  1
  O  O17  1  0.189268  0.486188  0.732270  1
  O  O18  1  0.689268  0.232270  0.986188  1
  O  O19  1  0.810732  0.513812  0.267730  1
  O  O20  1  0.992985  0.124912  0.874967  1
  O  O21  1  0.507015  0.625033  0.375088  1
  O  O22  1  0.007015  0.875088  0.125033  1
  O  O23  1  0.492985  0.374967  0.624912  1
  O  O24  1  0.559178  0.857996  0.858292  1
  O  O25  1  0.940822  0.641708  0.642004  1
  O  O26  1  0.440822  0.142004  0.141708  1
  O  O27  1  0.059178  0.358292  0.357996  1
  O  O28  1  0.270134  0.020472  0.776948  1
  O  O29  1  0.229866  0.723052  0.479528  1
  O  O30  1  0.729866  0.979528  0.223052  1
  O  O31  1  0.770134  0.276948  0.520472  1
  Si  Si32  1  0.491037  0.718492  0.939320  1
  Si  Si33  1  0.008963  0.560680  0.781508  1
  Si  Si34  1  0.508963  0.281508  0.060680  1
  Si  Si35  1  0.991037  0.439320  0.218492  1
  Si  Si36  1  0.903041  0.934771  0.277265  1
  Si  Si37  1  0.596959  0.222735  0.565229  1
  Si  Si38  1  0.096959  0.065229  0.722735  1
  Si  Si39  1  0.403041  0.777265  0.434771  1
  Ga  Ga40  1  0.119129  0.701022  0.059171  1
  Ga  Ga41  1  0.380871  0.440829  0.798978  1
  Ga  Ga42  1  0.880871  0.298978  0.940829  1
  Ga  Ga43  1  0.619129  0.559171  0.201022  1
  Ga  Ga44  1  0.525654  0.047293  0.292961  1
  Ga  Ga45  1  0.974346  0.207039  0.452707  1
  Ga  Ga46  1  0.474346  0.952707  0.707039  1
  Ga  Ga47  1  0.025654  0.792961  0.547293  1
  Sr  Sr48  1  0.301778  0.438472  0.428354  1
  Sr  Sr49  1  0.198222  0.071646  0.061528  1
  Sr  Sr50  1  0.698222  0.561528  0.571646  1
  Sr  Sr51  1  0.801778  0.928354  0.938472  1
