# generated using pymatgen
data_Al(HO)3
_symmetry_space_group_name_H-M   'P 1'
_cell_length_a   4.99380030
_cell_length_b   5.29975570
_cell_length_c   5.22703903
_cell_angle_alpha   68.69079566
_cell_angle_beta   74.07336925
_cell_angle_gamma   58.28712761
_symmetry_Int_Tables_number   1
_chemical_formula_structural   Al(HO)3
_chemical_formula_sum   'Al2 H6 O6'
_cell_volume   109.02938300
_cell_formula_units_Z   2
loop_
 _symmetry_equiv_pos_site_id
 _symmetry_equiv_pos_as_xyz
  1  'x, y, z'
loop_
 _atom_site_type_symbol
 _atom_site_label
 _atom_site_symmetry_multiplicity
 _atom_site_fract_x
 _atom_site_fract_y
 _atom_site_fract_z
 _atom_site_occupancy
  Al  Al0  1  0.651849  0.678735  0.994623  1
  Al  Al1  1  0.348151  0.321265  0.005377  1
  H  H2  1  0.644268  0.144538  0.588331  1
  H  H3  1  0.355732  0.855462  0.411669  1
  H  H4  1  0.057581  0.330741  0.667502  1
  H  H5  1  0.942419  0.669259  0.332498  1
  H  H6  1  0.151146  0.855716  0.803345  1
  H  H7  1  0.848854  0.144284  0.196655  1
  O  O8  1  0.667304  0.059100  0.788519  1
  O  O9  1  0.332696  0.940900  0.211481  1
  O  O10  1  0.027390  0.447607  0.788486  1
  O  O11  1  0.972610  0.552393  0.211514  1
  O  O12  1  0.376724  0.703446  0.786280  1
  O  O13  1  0.623276  0.296554  0.213720  1
