# generated using pymatgen
data_KCo4(PO4)3
_symmetry_space_group_name_H-M   'P 1'
_cell_length_a   6.20048762
_cell_length_b   9.82676182
_cell_length_c   16.65662268
_cell_angle_alpha   90.00000000
_cell_angle_beta   90.00000000
_cell_angle_gamma   90.00000000
_symmetry_Int_Tables_number   1
_chemical_formula_structural   KCo4(PO4)3
_chemical_formula_sum   'K4 Co16 P12 O48'
_cell_volume   1014.89992954
_cell_formula_units_Z   4
loop_
 _symmetry_equiv_pos_site_id
 _symmetry_equiv_pos_as_xyz
  1  'x, y, z'
loop_
 _atom_site_type_symbol
 _atom_site_label
 _atom_site_symmetry_multiplicity
 _atom_site_fract_x
 _atom_site_fract_y
 _atom_site_fract_z
 _atom_site_occupancy
  K  K0  1  0.500000  0.207374  0.965811  1
  K  K1  1  0.500000  0.792626  0.034189  1
  K  K2  1  0.000000  0.707374  0.534189  1
  K  K3  1  0.000000  0.292626  0.465811  1
  Co  Co4  1  0.500000  0.486518  0.361946  1
  Co  Co5  1  0.751198  0.744168  0.296349  1
  Co  Co6  1  0.748802  0.244168  0.203651  1
  Co  Co7  1  0.000000  0.470087  0.908562  1
  Co  Co8  1  0.000000  0.013482  0.861946  1
  Co  Co9  1  0.500000  0.970087  0.591438  1
  Co  Co10  1  0.748802  0.755832  0.796349  1
  Co  Co11  1  0.751198  0.255832  0.703651  1
  Co  Co12  1  0.251198  0.244168  0.203651  1
  Co  Co13  1  0.248802  0.255832  0.703651  1
  Co  Co14  1  0.000000  0.529913  0.091438  1
  Co  Co15  1  0.251198  0.755832  0.796349  1
  Co  Co16  1  0.248802  0.744168  0.296349  1
  Co  Co17  1  0.500000  0.029913  0.408562  1
  Co  Co18  1  0.500000  0.513482  0.638054  1
  Co  Co19  1  0.000000  0.986518  0.138054  1
  P  P20  1  0.500000  0.043471  0.782161  1
  P  P21  1  0.500000  0.537601  0.164554  1
  P  P22  1  0.500000  0.289885  0.536334  1
  P  P23  1  0.500000  0.710115  0.463666  1
  P  P24  1  0.000000  0.962399  0.664554  1
  P  P25  1  0.000000  0.037601  0.335446  1
  P  P26  1  0.500000  0.462399  0.835446  1
  P  P27  1  0.500000  0.956529  0.217839  1
  P  P28  1  0.000000  0.456529  0.282161  1
  P  P29  1  0.000000  0.543471  0.717839  1
  P  P30  1  0.000000  0.210115  0.036334  1
  P  P31  1  0.000000  0.789885  0.963666  1
  O  O32  1  0.500000  0.886517  0.771268  1
  O  O33  1  0.500000  0.619503  0.820097  1
  O  O34  1  0.701397  0.582320  0.118713  1
  O  O35  1  0.500000  0.639108  0.544364  1
  O  O36  1  0.000000  0.634381  0.979776  1
  O  O37  1  0.000000  0.113014  0.249268  1
  O  O38  1  0.000000  0.365619  0.020224  1
  O  O39  1  0.500000  0.887946  0.304592  1
  O  O40  1  0.000000  0.886986  0.750732  1
  O  O41  1  0.000000  0.613483  0.271268  1
  O  O42  1  0.300300  0.666881  0.411133  1
  O  O43  1  0.000000  0.119503  0.679903  1
  O  O44  1  0.199700  0.166881  0.088867  1
  O  O45  1  0.300300  0.333119  0.588867  1
  O  O46  1  0.000000  0.612054  0.804592  1
  O  O47  1  0.500000  0.613014  0.250732  1
  O  O48  1  0.500000  0.113483  0.228732  1
  O  O49  1  0.201397  0.082320  0.381287  1
  O  O50  1  0.500000  0.112054  0.695408  1
  O  O51  1  0.207038  0.404675  0.323536  1
  O  O52  1  0.000000  0.387946  0.195408  1
  O  O53  1  0.798603  0.082320  0.381287  1
  O  O54  1  0.701397  0.417680  0.881287  1
  O  O55  1  0.707038  0.095325  0.823536  1
  O  O56  1  0.800300  0.833119  0.911133  1
  O  O57  1  0.792962  0.595325  0.676464  1
  O  O58  1  0.201397  0.917680  0.618713  1
  O  O59  1  0.707038  0.904675  0.176464  1
  O  O60  1  0.699700  0.333119  0.588867  1
  O  O61  1  0.292962  0.095325  0.823536  1
  O  O62  1  0.000000  0.860892  0.044364  1
  O  O63  1  0.792962  0.404675  0.323536  1
  O  O64  1  0.500000  0.134381  0.520224  1
  O  O65  1  0.798603  0.917680  0.618713  1
  O  O66  1  0.699700  0.666881  0.411133  1
  O  O67  1  0.298603  0.582320  0.118713  1
  O  O68  1  0.000000  0.880497  0.320097  1
  O  O69  1  0.000000  0.386517  0.728732  1
  O  O70  1  0.298603  0.417680  0.881287  1
  O  O71  1  0.800300  0.166881  0.088867  1
  O  O72  1  0.292962  0.904675  0.176464  1
  O  O73  1  0.500000  0.386986  0.749268  1
  O  O74  1  0.207038  0.595325  0.676464  1
  O  O75  1  0.500000  0.380497  0.179903  1
  O  O76  1  0.500000  0.865619  0.479776  1
  O  O77  1  0.500000  0.360892  0.455636  1
  O  O78  1  0.199700  0.833119  0.911133  1
  O  O79  1  0.000000  0.139108  0.955636  1
