# generated using pymatgen
data_Ca6Mg5Al2Si11O36
_symmetry_space_group_name_H-M   'P 1'
_cell_length_a   15.97132491
_cell_length_b   6.65476201
_cell_length_c   6.65053103
_cell_angle_alpha   84.42866145
_cell_angle_beta   78.21072627
_cell_angle_gamma   78.01366656
_symmetry_Int_Tables_number   1
_chemical_formula_structural   Ca6Mg5Al2Si11O36
_chemical_formula_sum   'Ca6 Mg5 Al2 Si11 O36'
_cell_volume   675.75379055
_cell_formula_units_Z   1
loop_
 _symmetry_equiv_pos_site_id
 _symmetry_equiv_pos_as_xyz
  1  'x, y, z'
loop_
 _atom_site_type_symbol
 _atom_site_label
 _atom_site_symmetry_multiplicity
 _atom_site_fract_x
 _atom_site_fract_y
 _atom_site_fract_z
 _atom_site_occupancy
  Ca  Ca0  1  0.081354  0.698438  0.300008  1
  Ca  Ca1  1  0.249484  0.302299  0.704120  1
  Ca  Ca2  1  0.416733  0.699228  0.302581  1
  Ca  Ca3  1  0.584864  0.297729  0.698039  1
  Ca  Ca4  1  0.749651  0.695846  0.300781  1
  Ca  Ca5  1  0.914798  0.306453  0.700428  1
  Mg  Mg6  1  0.083457  0.094856  0.907466  1
  Mg  Mg7  1  0.249995  0.906899  0.094496  1
  Mg  Mg8  1  0.416856  0.091770  0.909187  1
  Mg  Mg9  1  0.583301  0.908973  0.092543  1
  Mg  Mg10  1  0.751760  0.091979  0.909024  1
  Al  Al11  1  0.917504  0.908240  0.086501  1
  Al  Al12  1  0.908402  0.812722  0.611284  1
  Si  Si13  1  0.089497  0.191970  0.379767  1
  Si  Si14  1  0.074668  0.619802  0.803069  1
  Si  Si15  1  0.255663  0.379832  0.194337  1
  Si  Si16  1  0.244024  0.806782  0.623312  1
  Si  Si17  1  0.422301  0.192695  0.381365  1
  Si  Si18  1  0.410941  0.619323  0.808467  1
  Si  Si19  1  0.589572  0.378207  0.192902  1
  Si  Si20  1  0.576384  0.805659  0.621240  1
  Si  Si21  1  0.759441  0.191646  0.376384  1
  Si  Si22  1  0.742541  0.620356  0.806474  1
  Si  Si23  1  0.924131  0.384245  0.189470  1
  O  O24  1  0.001150  0.368680  0.329005  1
  O  O25  1  0.057605  0.113911  0.613809  1
  O  O26  1  0.119399  0.026804  0.203731  1
  O  O27  1  0.039594  0.802585  0.968816  1
  O  O28  1  0.106618  0.390723  0.897671  1
  O  O29  1  0.167591  0.330270  0.370262  1
  O  O30  1  0.166432  0.666890  0.638474  1
  O  O31  1  0.224559  0.613221  0.112933  1
  O  O32  1  0.286503  0.202916  0.029518  1
  O  O33  1  0.213524  0.973294  0.798309  1
  O  O34  1  0.274577  0.885485  0.389058  1
  O  O35  1  0.333858  0.369990  0.333365  1
  O  O36  1  0.332418  0.629265  0.671111  1
  O  O37  1  0.391433  0.113301  0.615188  1
  O  O38  1  0.452648  0.027201  0.205444  1
  O  O39  1  0.380990  0.795471  0.973935  1
  O  O40  1  0.443074  0.385872  0.887803  1
  O  O41  1  0.501021  0.330392  0.369529  1
  O  O42  1  0.497717  0.669845  0.628193  1
  O  O43  1  0.559235  0.613746  0.118541  1
  O  O44  1  0.619740  0.203147  0.026522  1
  O  O45  1  0.547108  0.972239  0.796434  1
  O  O46  1  0.609528  0.887698  0.388714  1
  O  O47  1  0.668490  0.359673  0.332166  1
  O  O48  1  0.661615  0.623237  0.674770  1
  O  O49  1  0.731860  0.113982  0.611786  1
  O  O50  1  0.793228  0.022306  0.200839  1
  O  O51  1  0.712897  0.799590  0.971042  1
  O  O52  1  0.772967  0.390021  0.900609  1
  O  O53  1  0.834162  0.340414  0.359093  1
  O  O54  1  0.825947  0.663342  0.623566  1
  O  O55  1  0.895864  0.622208  0.108802  1
  O  O56  1  0.951121  0.200297  0.029836  1
  O  O57  1  0.883473  0.971700  0.821850  1
  O  O58  1  0.940769  0.890731  0.351932  1
  O  O59  1  0.003964  0.623605  0.654101  1
