# generated using pymatgen
data_Ca(YbS2)2
_symmetry_space_group_name_H-M   'P 1'
_cell_length_a   7.32030246
_cell_length_b   7.32030200
_cell_length_c   7.32030222
_cell_angle_alpha   111.34534955
_cell_angle_beta   111.34534869
_cell_angle_gamma   105.78467539
_symmetry_Int_Tables_number   1
_chemical_formula_structural   Ca(YbS2)2
_chemical_formula_sum   'Ca2 Yb4 S8'
_cell_volume   301.04113178
_cell_formula_units_Z   2
loop_
 _symmetry_equiv_pos_site_id
 _symmetry_equiv_pos_as_xyz
  1  'x, y, z'
loop_
 _atom_site_type_symbol
 _atom_site_label
 _atom_site_symmetry_multiplicity
 _atom_site_fract_x
 _atom_site_fract_y
 _atom_site_fract_z
 _atom_site_occupancy
  Yb  Yb0  1  0.127724  0.750000  0.877724  1
  Yb  Yb1  1  0.250000  0.627724  0.377724  1
  Yb  Yb2  1  0.372276  0.250000  0.622276  1
  Yb  Yb3  1  0.750000  0.872276  0.122276  1
  Ca  Ca4  1  0.625000  0.375000  0.250000  1
  Ca  Ca5  1  0.875000  0.125000  0.750000  1
  S  S6  1  0.139089  0.162517  0.168471  1
  S  S7  1  0.360911  0.529382  0.023429  1
  S  S8  1  0.662517  0.639089  0.668471  1
  S  S9  1  0.470618  0.994046  0.831529  1
  S  S10  1  0.494046  0.970618  0.331529  1
  S  S11  1  0.029382  0.860911  0.523429  1
  S  S12  1  0.837483  0.505954  0.976571  1
  S  S13  1  0.005954  0.337483  0.476571  1
