# generated using pymatgen
data_Sr(H2O3)2
_symmetry_space_group_name_H-M   'P 1'
_cell_length_a   5.10073159
_cell_length_b   5.10073159
_cell_length_c   8.53181208
_cell_angle_alpha   99.10834902
_cell_angle_beta   80.89165098
_cell_angle_gamma   107.77319044
_symmetry_Int_Tables_number   1
_chemical_formula_structural   Sr(H2O3)2
_chemical_formula_sum   'Sr2 H8 O12'
_cell_volume   207.28365613
_cell_formula_units_Z   2
loop_
 _symmetry_equiv_pos_site_id
 _symmetry_equiv_pos_as_xyz
  1  'x, y, z'
loop_
 _atom_site_type_symbol
 _atom_site_label
 _atom_site_symmetry_multiplicity
 _atom_site_fract_x
 _atom_site_fract_y
 _atom_site_fract_z
 _atom_site_occupancy
  Sr  Sr0  1  0.836985  0.833490  0.766251  1
  Sr  Sr1  1  0.166510  0.163015  0.266251  1
  H  H2  1  0.280352  0.686174  0.963233  1
  H  H3  1  0.678573  0.276287  0.571818  1
  H  H4  1  0.723713  0.321427  0.071818  1
  H  H5  1  0.313826  0.719648  0.463233  1
  H  H6  1  0.211297  0.387499  0.646866  1
  H  H7  1  0.612501  0.788703  0.146866  1
  H  H8  1  0.396545  0.223006  0.887603  1
  H  H9  1  0.776994  0.603455  0.387603  1
  O  O10  1  0.187453  0.844217  0.974004  1
  O  O11  1  0.837687  0.179120  0.562162  1
  O  O12  1  0.820880  0.162313  0.062162  1
  O  O13  1  0.155783  0.812547  0.474004  1
  O  O14  1  0.349895  0.994860  0.837777  1
  O  O15  1  0.991887  0.345058  0.696219  1
  O  O16  1  0.654942  0.008113  0.196219  1
  O  O17  1  0.005140  0.650105  0.337777  1
  O  O18  1  0.492511  0.452354  0.596393  1
  O  O19  1  0.460268  0.490320  0.935849  1
  O  O20  1  0.509680  0.539732  0.435849  1
  O  O21  1  0.547646  0.507489  0.096393  1
