# generated using pymatgen
data_Re3(SCl)7
_symmetry_space_group_name_H-M   'P 1'
_cell_length_a   9.78600844
_cell_length_b   9.78600802
_cell_length_c   22.54434274
_cell_angle_alpha   90.00000000
_cell_angle_beta   90.00000000
_cell_angle_gamma   120.00000144
_symmetry_Int_Tables_number   1
_chemical_formula_structural   Re3(SCl)7
_chemical_formula_sum   'Re12 S28 Cl28'
_cell_volume   1869.73198252
_cell_formula_units_Z   4
loop_
 _symmetry_equiv_pos_site_id
 _symmetry_equiv_pos_as_xyz
  1  'x, y, z'
loop_
 _atom_site_type_symbol
 _atom_site_label
 _atom_site_symmetry_multiplicity
 _atom_site_fract_x
 _atom_site_fract_y
 _atom_site_fract_z
 _atom_site_occupancy
  Re  Re0  1  0.857407  0.032201  0.571992  1
  Re  Re1  1  0.174794  0.142593  0.571992  1
  Re  Re2  1  0.638377  0.478653  0.336589  1
  Re  Re3  1  0.142593  0.174794  0.071992  1
  Re  Re4  1  0.967799  0.825206  0.571992  1
  Re  Re5  1  0.032201  0.857407  0.071992  1
  Re  Re6  1  0.825206  0.967799  0.071992  1
  Re  Re7  1  0.521347  0.159724  0.336589  1
  Re  Re8  1  0.361623  0.840276  0.836589  1
  Re  Re9  1  0.840276  0.361623  0.336589  1
  Re  Re10  1  0.478653  0.638377  0.836589  1
  Re  Re11  1  0.159724  0.521347  0.836589  1
  S  S12  1  0.743239  0.685004  0.065707  1
  S  S13  1  0.071513  0.715795  0.844510  1
  S  S14  1  0.928487  0.644282  0.344510  1
  S  S15  1  0.300000  0.466669  0.764335  1
  S  S16  1  0.715795  0.071513  0.344510  1
  S  S17  1  0.164091  0.962163  0.645676  1
  S  S18  1  0.666667  0.333333  0.416604  1
  S  S19  1  0.037837  0.201928  0.645676  1
  S  S20  1  0.833331  0.533331  0.264335  1
  S  S21  1  0.962163  0.164091  0.145676  1
  S  S22  1  0.466669  0.300000  0.264335  1
  S  S23  1  0.314996  0.058235  0.065707  1
  S  S24  1  0.835909  0.798072  0.145676  1
  S  S25  1  0.000000  0.000000  0.994040  1
  S  S26  1  0.333333  0.666667  0.916604  1
  S  S27  1  0.355718  0.284205  0.344510  1
  S  S28  1  0.700000  0.166669  0.264335  1
  S  S29  1  0.284205  0.355718  0.844510  1
  S  S30  1  0.644282  0.928487  0.844510  1
  S  S31  1  0.685004  0.743239  0.565707  1
  S  S32  1  0.201928  0.037837  0.145676  1
  S  S33  1  0.533331  0.833331  0.764335  1
  S  S34  1  0.000000  0.000000  0.494040  1
  S  S35  1  0.166669  0.700000  0.764335  1
  S  S36  1  0.798072  0.835909  0.645676  1
  S  S37  1  0.256761  0.941765  0.565707  1
  S  S38  1  0.058235  0.314996  0.565707  1
  S  S39  1  0.941765  0.256761  0.065707  1
  Cl  Cl40  1  0.658882  0.948231  0.990888  1
  Cl  Cl41  1  0.678261  0.084021  0.626391  1
  Cl  Cl42  1  0.382797  0.030060  0.906375  1
  Cl  Cl43  1  0.617203  0.647263  0.406375  1
  Cl  Cl44  1  0.710652  0.051769  0.490888  1
  Cl  Cl45  1  0.594240  0.915979  0.126391  1
  Cl  Cl46  1  0.940394  0.357797  0.768463  1
  Cl  Cl47  1  0.417403  0.059606  0.768463  1
  Cl  Cl48  1  0.030060  0.382797  0.406375  1
  Cl  Cl49  1  0.000000  0.000000  0.734848  1
  Cl  Cl50  1  0.051769  0.710652  0.990888  1
  Cl  Cl51  1  0.357797  0.940394  0.268463  1
  Cl  Cl52  1  0.405760  0.321739  0.626391  1
  Cl  Cl53  1  0.647263  0.617203  0.906375  1
  Cl  Cl54  1  0.289348  0.341118  0.990888  1
  Cl  Cl55  1  0.582597  0.642203  0.268463  1
  Cl  Cl56  1  0.915979  0.594240  0.626391  1
  Cl  Cl57  1  0.666667  0.333333  0.174743  1
  Cl  Cl58  1  0.321739  0.405760  0.126391  1
  Cl  Cl59  1  0.000000  0.000000  0.234848  1
  Cl  Cl60  1  0.948231  0.658882  0.490888  1
  Cl  Cl61  1  0.352737  0.969940  0.406375  1
  Cl  Cl62  1  0.084021  0.678261  0.126391  1
  Cl  Cl63  1  0.341118  0.289348  0.490888  1
  Cl  Cl64  1  0.059606  0.417403  0.268463  1
  Cl  Cl65  1  0.969940  0.352737  0.906375  1
  Cl  Cl66  1  0.642203  0.582597  0.768463  1
  Cl  Cl67  1  0.333333  0.666667  0.674743  1
