# generated using pymatgen
data_CsTiCuOF5
_symmetry_space_group_name_H-M   'P 1'
_cell_length_a   7.45688929
_cell_length_b   7.29363371
_cell_length_c   7.45688863
_cell_angle_alpha   60.72161254
_cell_angle_beta   58.48251386
_cell_angle_gamma   60.72161314
_symmetry_Int_Tables_number   1
_chemical_formula_structural   CsTiCuOF5
_chemical_formula_sum   'Cs2 Ti2 Cu2 O2 F10'
_cell_volume   286.32828346
_cell_formula_units_Z   2
loop_
 _symmetry_equiv_pos_site_id
 _symmetry_equiv_pos_as_xyz
  1  'x, y, z'
loop_
 _atom_site_type_symbol
 _atom_site_label
 _atom_site_symmetry_multiplicity
 _atom_site_fract_x
 _atom_site_fract_y
 _atom_site_fract_z
 _atom_site_occupancy
  Cs  Cs0  1  0.376978  0.373022  0.376978  1
  Cs  Cs1  1  0.623022  0.626978  0.623022  1
  Ti  Ti2  1  0.500000  0.000000  0.000000  1
  Ti  Ti3  1  0.000000  0.000000  0.500000  1
  Cu  Cu4  1  0.000000  0.000000  0.000000  1
  Cu  Cu5  1  0.000000  0.500000  0.000000  1
  O  O6  1  0.291830  0.958170  0.291830  1
  O  O7  1  0.708170  0.041830  0.708170  1
  F  F8  1  0.081632  0.067159  0.665879  1
  F  F9  1  0.064216  0.685784  0.064216  1
  F  F10  1  0.081632  0.685330  0.665879  1
  F  F11  1  0.665879  0.067159  0.081632  1
  F  F12  1  0.334121  0.314670  0.918368  1
  F  F13  1  0.665879  0.685330  0.081632  1
  F  F14  1  0.918368  0.314670  0.334121  1
  F  F15  1  0.334121  0.932841  0.918368  1
  F  F16  1  0.918368  0.932841  0.334121  1
  F  F17  1  0.935784  0.314216  0.935784  1
