# generated using pymatgen
data_SNClO4
_symmetry_space_group_name_H-M   'P 1'
_cell_length_a   8.20562907
_cell_length_b   8.68008748
_cell_length_c   11.22681416
_cell_angle_alpha   114.73133572
_cell_angle_beta   90.00000000
_cell_angle_gamma   90.00000000
_symmetry_Int_Tables_number   1
_chemical_formula_structural   SNClO4
_chemical_formula_sum   'S4 N4 Cl4 O16'
_cell_volume   726.29329008
_cell_formula_units_Z   4
loop_
 _symmetry_equiv_pos_site_id
 _symmetry_equiv_pos_as_xyz
  1  'x, y, z'
loop_
 _atom_site_type_symbol
 _atom_site_label
 _atom_site_symmetry_multiplicity
 _atom_site_fract_x
 _atom_site_fract_y
 _atom_site_fract_z
 _atom_site_occupancy
  S  S0  1  0.077654  0.141150  0.194034  1
  S  S1  1  0.577654  0.358850  0.805966  1
  S  S2  1  0.922346  0.858850  0.805966  1
  S  S3  1  0.422346  0.641150  0.194034  1
  N  N4  1  0.646882  0.315039  0.450080  1
  N  N5  1  0.853118  0.815039  0.450080  1
  N  N6  1  0.353118  0.684961  0.549920  1
  N  N7  1  0.146882  0.184961  0.549920  1
  Cl  Cl8  1  0.735238  0.175235  0.486027  1
  Cl  Cl9  1  0.764762  0.675235  0.486027  1
  Cl  Cl10  1  0.235238  0.324765  0.513973  1
  Cl  Cl11  1  0.264762  0.824765  0.513973  1
  O  O12  1  0.116265  0.559769  0.819683  1
  O  O13  1  0.883735  0.440231  0.180317  1
  O  O14  1  0.013143  0.552995  0.897474  1
  O  O15  1  0.616265  0.940231  0.180317  1
  O  O16  1  0.486857  0.052995  0.897474  1
  O  O17  1  0.507501  0.510193  0.217718  1
  O  O18  1  0.172466  0.096763  0.075319  1
  O  O19  1  0.327534  0.596763  0.075319  1
  O  O20  1  0.513143  0.947005  0.102526  1
  O  O21  1  0.383735  0.059769  0.819683  1
  O  O22  1  0.492499  0.489807  0.782282  1
  O  O23  1  0.007501  0.989807  0.782282  1
  O  O24  1  0.672466  0.403237  0.924681  1
  O  O25  1  0.986857  0.447005  0.102526  1
  O  O26  1  0.992499  0.010193  0.217718  1
  O  O27  1  0.827534  0.903237  0.924681  1
