# generated using pymatgen
data_BaZn(SeO3)2
_symmetry_space_group_name_H-M   'P 1'
_cell_length_a   5.93225823
_cell_length_b   8.73862600
_cell_length_c   13.70029612
_cell_angle_alpha   90.00000000
_cell_angle_beta   90.00000000
_cell_angle_gamma   96.22417566
_symmetry_Int_Tables_number   1
_chemical_formula_structural   BaZn(SeO3)2
_chemical_formula_sum   'Ba4 Zn4 Se8 O24'
_cell_volume   706.03388756
_cell_formula_units_Z   4
loop_
 _symmetry_equiv_pos_site_id
 _symmetry_equiv_pos_as_xyz
  1  'x, y, z'
loop_
 _atom_site_type_symbol
 _atom_site_label
 _atom_site_symmetry_multiplicity
 _atom_site_fract_x
 _atom_site_fract_y
 _atom_site_fract_z
 _atom_site_occupancy
  Ba  Ba0  1  0.725922  0.768196  0.297251  1
  Ba  Ba1  1  0.725922  0.268196  0.202749  1
  Ba  Ba2  1  0.274078  0.231804  0.702749  1
  Ba  Ba3  1  0.274078  0.731804  0.797251  1
  Zn  Zn4  1  0.828968  0.541634  0.635795  1
  Zn  Zn5  1  0.171032  0.458366  0.364205  1
  Zn  Zn6  1  0.171032  0.958366  0.135795  1
  Zn  Zn7  1  0.828968  0.041634  0.864205  1
  Se  Se8  1  0.773354  0.253290  0.490418  1
  Se  Se9  1  0.226646  0.246710  0.990418  1
  Se  Se10  1  0.266459  0.089307  0.356959  1
  Se  Se11  1  0.773354  0.753290  0.009582  1
  Se  Se12  1  0.733541  0.910693  0.643041  1
  Se  Se13  1  0.733541  0.410693  0.856959  1
  Se  Se14  1  0.226646  0.746710  0.509582  1
  Se  Se15  1  0.266459  0.589307  0.143041  1
  O  O16  1  0.658999  0.716932  0.668149  1
  O  O17  1  0.498621  0.478052  0.807602  1
  O  O18  1  0.501379  0.521948  0.192398  1
  O  O19  1  0.645785  0.369015  0.573683  1
  O  O20  1  0.354215  0.630985  0.426317  1
  O  O21  1  0.354215  0.130985  0.073683  1
  O  O22  1  0.341001  0.283068  0.331851  1
  O  O23  1  0.851430  0.374570  0.391584  1
  O  O24  1  0.645785  0.869015  0.926317  1
  O  O25  1  0.028301  0.731548  0.958969  1
  O  O26  1  0.148570  0.625430  0.608416  1
  O  O27  1  0.498621  0.978052  0.692398  1
  O  O28  1  0.028301  0.231548  0.541031  1
  O  O29  1  0.943682  0.462947  0.768535  1
  O  O30  1  0.658999  0.216932  0.831851  1
  O  O31  1  0.971699  0.268452  0.041031  1
  O  O32  1  0.501379  0.021948  0.307602  1
  O  O33  1  0.148570  0.125430  0.891584  1
  O  O34  1  0.943682  0.962947  0.731465  1
  O  O35  1  0.056318  0.537053  0.231465  1
  O  O36  1  0.056318  0.037053  0.268535  1
  O  O37  1  0.971699  0.768452  0.458969  1
  O  O38  1  0.851430  0.874570  0.108416  1
  O  O39  1  0.341001  0.783068  0.168149  1
