# generated using pymatgen
data_La4B14O27
_symmetry_space_group_name_H-M   'P 1'
_cell_length_a   6.48406745
_cell_length_b   6.51549495
_cell_length_c   25.46409248
_cell_angle_alpha   84.34755876
_cell_angle_beta   82.74686560
_cell_angle_gamma   60.23258207
_symmetry_Int_Tables_number   1
_chemical_formula_structural   La4B14O27
_chemical_formula_sum   'La8 B28 O54'
_cell_volume   925.55400317
_cell_formula_units_Z   2
loop_
 _symmetry_equiv_pos_site_id
 _symmetry_equiv_pos_as_xyz
  1  'x, y, z'
loop_
 _atom_site_type_symbol
 _atom_site_label
 _atom_site_symmetry_multiplicity
 _atom_site_fract_x
 _atom_site_fract_y
 _atom_site_fract_z
 _atom_site_occupancy
  La  La0  1  0.849260  0.748494  0.056017  1
  La  La1  1  0.086212  0.341094  0.316317  1
  La  La2  1  0.346866  0.247792  0.555738  1
  La  La3  1  0.913810  0.657238  0.684214  1
  La  La4  1  0.254091  0.843001  0.816161  1
  La  La5  1  0.150830  0.254759  0.944393  1
  La  La6  1  0.745337  0.155762  0.184327  1
  La  La7  1  0.650185  0.756212  0.444736  1
  B  B8  1  0.173205  0.385178  0.794675  1
  B  B9  1  0.366340  0.734837  0.054566  1
  B  B10  1  0.972516  0.791962  0.546457  1
  B  B11  1  0.831919  0.347879  0.850911  1
  B  B12  1  0.634756  0.266087  0.945317  1
  B  B13  1  0.451677  0.336011  0.421947  1
  B  B14  1  0.643667  0.885670  0.294382  1
  B  B15  1  0.206127  0.262062  0.175388  1
  B  B16  1  0.311943  0.709744  0.953182  1
  B  B17  1  0.406279  0.675919  0.313444  1
  B  B18  1  0.826944  0.613594  0.205433  1
  B  B19  1  0.593724  0.319962  0.686714  1
  B  B20  1  0.031711  0.151300  0.649554  1
  B  B21  1  0.024863  0.211621  0.454348  1
  B  B22  1  0.601171  0.177276  0.813629  1
  B  B23  1  0.168948  0.651984  0.149379  1
  B  B24  1  0.356763  0.760231  0.675418  1
  B  B25  1  0.354657  0.111381  0.705991  1
  B  B26  1  0.844999  0.235489  0.555282  1
  B  B27  1  0.547520  0.665990  0.578491  1
  B  B28  1  0.207463  0.165504  0.078433  1
  B  B29  1  0.399633  0.822222  0.186521  1
  B  B30  1  0.689329  0.292664  0.046505  1
  B  B31  1  0.151819  0.768897  0.445287  1
  B  B32  1  0.793984  0.737269  0.825031  1
  B  B33  1  0.791635  0.834263  0.922234  1
  B  B34  1  0.967843  0.847541  0.350502  1
  B  B35  1  0.641777  0.236999  0.324389  1
  O  O36  1  0.604891  0.070680  0.926609  1
  O  O37  1  0.379467  0.527341  0.690337  1
  O  O38  1  0.513379  0.758213  0.627846  1
  O  O39  1  0.799837  0.752466  0.249639  1
  O  O40  1  0.020388  0.183347  0.591775  1
  O  O41  1  0.189503  0.970038  0.451269  1
  O  O42  1  0.808198  0.173154  0.822321  1
  O  O43  1  0.425904  0.853474  0.717286  1
  O  O44  1  0.608210  0.612005  0.192836  1
  O  O45  1  0.795419  0.317272  0.908866  1
  O  O46  1  0.899066  0.740511  0.873027  1
  O  O47  1  0.392245  0.387267  0.807025  1
  O  O48  1  0.032681  0.643011  0.590085  1
  O  O49  1  0.395207  0.573604  0.426308  1
  O  O50  1  0.206963  0.681992  0.091329  1
  O  O51  1  0.198455  0.247204  0.750437  1
  O  O52  1  0.808299  0.033730  0.549821  1
  O  O53  1  0.401611  0.029929  0.190646  1
  O  O54  1  0.924983  0.317060  0.503290  1
  O  O55  1  0.100772  0.910713  0.669138  1
  O  O56  1  0.216467  0.214777  0.658588  1
  O  O57  1  0.568296  0.144585  0.283315  1
  O  O58  1  0.963771  0.358734  0.410346  1
  O  O59  1  0.195551  0.670412  0.322628  1
  O  O60  1  0.681480  0.587446  0.831013  1
  O  O61  1  0.100794  0.257887  0.127676  1
  O  O62  1  0.619996  0.468839  0.308667  1
  O  O63  1  0.601168  0.429525  0.574066  1
  O  O64  1  0.976321  0.822047  0.408492  1
  O  O65  1  0.395114  0.929582  0.073914  1
  O  O66  1  0.740326  0.186915  0.997635  1
  O  O67  1  0.072748  0.688091  0.497319  1
  O  O68  1  0.260286  0.814703  0.002071  1
  O  O69  1  0.318127  0.412533  0.169521  1
  O  O70  1  0.000884  0.355774  0.217072  1
  O  O71  1  0.191846  0.826789  0.178243  1
  O  O72  1  0.390800  0.468087  0.949950  1
  O  O73  1  0.410942  0.886215  0.306816  1
  O  O74  1  0.804566  0.325894  0.678269  1
  O  O75  1  0.733838  0.145858  0.090405  1
  O  O76  1  0.610157  0.534510  0.049066  1
  O  O77  1  0.783659  0.782616  0.341649  1
  O  O78  1  0.487539  0.241217  0.372785  1
  O  O79  1  0.999304  0.643193  0.783371  1
  O  O80  1  0.122366  0.310044  0.035379  1
  O  O81  1  0.529755  0.810642  0.535644  1
  O  O82  1  0.268681  0.857191  0.909319  1
  O  O83  1  0.588694  0.109644  0.694000  1
  O  O84  1  0.470532  0.191391  0.464952  1
  O  O85  1  0.899009  0.086174  0.329616  1
  O  O86  1  0.911262  0.716614  0.158214  1
  O  O87  1  0.089385  0.283115  0.841958  1
  O  O88  1  0.600205  0.969462  0.809364  1
  O  O89  1  0.876620  0.690417  0.965278  1
