# generated using pymatgen
data_Cd3AsI3
_symmetry_space_group_name_H-M   'P 1'
_cell_length_a   4.56130821
_cell_length_b   9.21327894
_cell_length_c   7.56142001
_cell_angle_alpha   89.23343316
_cell_angle_beta   90.00000000
_cell_angle_gamma   119.67501197
_symmetry_Int_Tables_number   1
_chemical_formula_structural   Cd3AsI3
_chemical_formula_sum   'Cd3 As1 I3'
_cell_volume   276.05719472
_cell_formula_units_Z   1
loop_
 _symmetry_equiv_pos_site_id
 _symmetry_equiv_pos_as_xyz
  1  'x, y, z'
loop_
 _atom_site_type_symbol
 _atom_site_label
 _atom_site_symmetry_multiplicity
 _atom_site_fract_x
 _atom_site_fract_y
 _atom_site_fract_z
 _atom_site_occupancy
  Cd  Cd0  1  0.336959  0.836959  0.601373  1
  Cd  Cd1  1  0.714843  0.714843  0.055292  1
  Cd  Cd2  1  0.634513  0.134513  0.059919  1
  As  As3  1  0.331130  0.831130  0.944107  1
  I  I4  1  0.344964  0.344964  0.945873  1
  I  I5  1  0.645467  0.645467  0.448431  1
  I  I6  1  0.658792  0.158792  0.437005  1
