# generated using pymatgen
data_Pu2O3
_symmetry_space_group_name_H-M   'P 1'
_cell_length_a   9.42948856
_cell_length_b   9.43599034
_cell_length_c   9.43080680
_cell_angle_alpha   109.39778930
_cell_angle_beta   109.35794055
_cell_angle_gamma   109.45586472
_symmetry_Int_Tables_number   1
_chemical_formula_structural   Pu2O3
_chemical_formula_sum   'Pu16 O24'
_cell_volume   647.56097750
_cell_formula_units_Z   8
loop_
 _symmetry_equiv_pos_site_id
 _symmetry_equiv_pos_as_xyz
  1  'x, y, z'
loop_
 _atom_site_type_symbol
 _atom_site_label
 _atom_site_symmetry_multiplicity
 _atom_site_fract_x
 _atom_site_fract_y
 _atom_site_fract_z
 _atom_site_occupancy
  Pu  Pu0  1  0.225249  0.750249  0.974663  1
  Pu  Pu1  1  0.974724  0.225302  0.750137  1
  Pu  Pu2  1  0.774729  0.249751  0.025303  1
  Pu  Pu3  1  0.249865  0.025320  0.774805  1
  Pu  Pu4  1  0.723982  0.749716  0.474202  1
  Pu  Pu5  1  0.750160  0.974727  0.225225  1
  Pu  Pu6  1  0.250256  0.525821  0.275947  1
  Pu  Pu7  1  0.749736  0.474156  0.724059  1
  Pu  Pu8  1  0.999978  0.499994  0.499977  1
  Pu  Pu9  1  0.276004  0.250298  0.525798  1
  Pu  Pu10  1  0.525782  0.276000  0.250232  1
  Pu  Pu11  1  0.474218  0.724006  0.749780  1
  Pu  Pu12  1  0.025317  0.774737  0.249848  1
  Pu  Pu13  1  0.999966  0.000001  0.999969  1
  Pu  Pu14  1  0.500023  0.000007  0.500012  1
  Pu  Pu15  1  0.500013  0.499999  0.000021  1
  O  O16  1  0.259520  0.991394  0.526436  1
  O  O17  1  0.759401  0.232564  0.267986  1
  O  O18  1  0.232511  0.267948  0.759299  1
  O  O19  1  0.508162  0.768567  0.535251  1
  O  O20  1  0.768461  0.535303  0.508292  1
  O  O21  1  0.264318  0.027177  0.035369  1
  O  O22  1  0.035448  0.264252  0.027171  1
  O  O23  1  0.473607  0.740477  0.008679  1
  O  O24  1  0.732031  0.240667  0.767446  1
  O  O25  1  0.464750  0.491803  0.231492  1
  O  O26  1  0.027225  0.035258  0.264248  1
  O  O27  1  0.767512  0.732032  0.240691  1
  O  O28  1  0.991274  0.526422  0.259443  1
  O  O29  1  0.735665  0.972819  0.964666  1
  O  O30  1  0.231527  0.464711  0.491749  1
  O  O31  1  0.535243  0.508184  0.768487  1
  O  O32  1  0.008721  0.473571  0.740524  1
  O  O33  1  0.972784  0.964692  0.735727  1
  O  O34  1  0.740481  0.008605  0.473573  1
  O  O35  1  0.964504  0.735675  0.972776  1
  O  O36  1  0.267953  0.759319  0.232520  1
  O  O37  1  0.491836  0.231444  0.464779  1
  O  O38  1  0.526416  0.259549  0.991358  1
  O  O39  1  0.240648  0.767485  0.732062  1
