# generated using pymatgen
data_CuMoF6
_symmetry_space_group_name_H-M   'P 1'
_cell_length_a   5.11856583
_cell_length_b   5.27667784
_cell_length_c   5.49952253
_cell_angle_alpha   62.79748253
_cell_angle_beta   89.26170438
_cell_angle_gamma   62.08989426
_symmetry_Int_Tables_number   1
_chemical_formula_structural   CuMoF6
_chemical_formula_sum   'Cu1 Mo1 F6'
_cell_volume   112.85565298
_cell_formula_units_Z   1
loop_
 _symmetry_equiv_pos_site_id
 _symmetry_equiv_pos_as_xyz
  1  'x, y, z'
loop_
 _atom_site_type_symbol
 _atom_site_label
 _atom_site_symmetry_multiplicity
 _atom_site_fract_x
 _atom_site_fract_y
 _atom_site_fract_z
 _atom_site_occupancy
  F  F0  1  0.757735  0.870796  0.242710  1
  F  F1  1  0.242265  0.129204  0.757290  1
  F  F2  1  0.598468  0.540447  0.732437  1
  F  F3  1  0.401532  0.459553  0.267563  1
  F  F4  1  0.131828  0.111909  0.258731  1
  F  F5  1  0.868172  0.888091  0.741269  1
  Cu  Cu6  1  0.000000  0.000000  0.000000  1
  Mo  Mo7  1  0.500000  0.000000  0.500000  1
