# generated using pymatgen
data_CsLi2Br3
_symmetry_space_group_name_H-M   'P 1'
_cell_length_a   4.69173229
_cell_length_b   5.70265202
_cell_length_c   7.72612005
_cell_angle_alpha   111.78007610
_cell_angle_beta   107.70380665
_cell_angle_gamma   89.99052552
_symmetry_Int_Tables_number   1
_chemical_formula_structural   CsLi2Br3
_chemical_formula_sum   'Cs1 Li2 Br3'
_cell_volume   181.37833872
_cell_formula_units_Z   1
loop_
 _symmetry_equiv_pos_site_id
 _symmetry_equiv_pos_as_xyz
  1  'x, y, z'
loop_
 _atom_site_type_symbol
 _atom_site_label
 _atom_site_symmetry_multiplicity
 _atom_site_fract_x
 _atom_site_fract_y
 _atom_site_fract_z
 _atom_site_occupancy
  Cs  Cs0  1  0.500872  0.000245  0.002470  1
  Li  Li1  1  0.809702  0.304048  0.619699  1
  Li  Li2  1  0.191428  0.694146  0.384639  1
  Br  Br3  1  0.782080  0.779127  0.563375  1
  Br  Br4  1  0.220839  0.218373  0.441486  1
  Br  Br5  1  0.000861  0.501546  0.002651  1
