# generated using pymatgen
data_ReC5ClO5
_symmetry_space_group_name_H-M   'P 1'
_cell_length_a   6.08787051
_cell_length_b   11.77609180
_cell_length_c   11.76267458
_cell_angle_alpha   90.00000000
_cell_angle_beta   90.00000000
_cell_angle_gamma   90.00000000
_symmetry_Int_Tables_number   1
_chemical_formula_structural   ReC5ClO5
_chemical_formula_sum   'Re4 C20 Cl4 O20'
_cell_volume   843.28169081
_cell_formula_units_Z   4
loop_
 _symmetry_equiv_pos_site_id
 _symmetry_equiv_pos_as_xyz
  1  'x, y, z'
loop_
 _atom_site_type_symbol
 _atom_site_label
 _atom_site_symmetry_multiplicity
 _atom_site_fract_x
 _atom_site_fract_y
 _atom_site_fract_z
 _atom_site_occupancy
  Re  Re0  1  0.050664  0.250000  0.874958  1
  Re  Re1  1  0.550664  0.750000  0.625042  1
  Re  Re2  1  0.449336  0.250000  0.374958  1
  Re  Re3  1  0.949336  0.750000  0.125042  1
  C  C4  1  0.204922  0.750000  0.026591  1
  C  C5  1  0.306908  0.372096  0.470085  1
  C  C6  1  0.806908  0.872096  0.029915  1
  C  C7  1  0.583830  0.128432  0.275395  1
  C  C8  1  0.916170  0.371568  0.775395  1
  C  C9  1  0.193092  0.127904  0.970085  1
  C  C10  1  0.693092  0.627904  0.529915  1
  C  C11  1  0.583830  0.371568  0.275395  1
  C  C12  1  0.916170  0.128432  0.775395  1
  C  C13  1  0.693092  0.872096  0.529915  1
  C  C14  1  0.416170  0.871568  0.724605  1
  C  C15  1  0.306908  0.127904  0.470085  1
  C  C16  1  0.795078  0.250000  0.973409  1
  C  C17  1  0.416170  0.628432  0.724605  1
  C  C18  1  0.806908  0.627904  0.029915  1
  C  C19  1  0.083830  0.628432  0.224605  1
  C  C20  1  0.295078  0.750000  0.526591  1
  C  C21  1  0.704922  0.250000  0.473409  1
  C  C22  1  0.193092  0.372096  0.970085  1
  C  C23  1  0.083830  0.871568  0.224605  1
  Cl  Cl24  1  0.382795  0.250000  0.748090  1
  Cl  Cl25  1  0.117205  0.250000  0.248090  1
  Cl  Cl26  1  0.617205  0.750000  0.251910  1
  Cl  Cl27  1  0.882795  0.750000  0.751910  1
  O  O28  1  0.765447  0.554864  0.476622  1
  O  O29  1  0.265447  0.445136  0.023378  1
  O  O30  1  0.156396  0.557473  0.280393  1
  O  O31  1  0.141288  0.750000  0.467724  1
  O  O32  1  0.358712  0.750000  0.967724  1
  O  O33  1  0.765447  0.945136  0.476622  1
  O  O34  1  0.843604  0.057473  0.719607  1
  O  O35  1  0.343604  0.942527  0.780393  1
  O  O36  1  0.734553  0.945136  0.976622  1
  O  O37  1  0.641288  0.250000  0.032276  1
  O  O38  1  0.656396  0.442527  0.219607  1
  O  O39  1  0.858712  0.250000  0.532276  1
  O  O40  1  0.343604  0.557473  0.780393  1
  O  O41  1  0.734553  0.554864  0.976622  1
  O  O42  1  0.156396  0.942527  0.280393  1
  O  O43  1  0.265447  0.054864  0.023378  1
  O  O44  1  0.843604  0.442527  0.719607  1
  O  O45  1  0.656396  0.057473  0.219607  1
  O  O46  1  0.234553  0.445136  0.523378  1
  O  O47  1  0.234553  0.054864  0.523378  1
