# generated using pymatgen
data_Na2UF6
_symmetry_space_group_name_H-M   'P 1'
_cell_length_a   7.94011632
_cell_length_b   11.68359880
_cell_length_c   6.72665662
_cell_angle_alpha   30.27648708
_cell_angle_beta   55.83828204
_cell_angle_gamma   60.99150579
_symmetry_Int_Tables_number   1
_chemical_formula_structural   Na2UF6
_chemical_formula_sum   'Na4 U2 F12'
_cell_volume   260.33193695
_cell_formula_units_Z   2
loop_
 _symmetry_equiv_pos_site_id
 _symmetry_equiv_pos_as_xyz
  1  'x, y, z'
loop_
 _atom_site_type_symbol
 _atom_site_label
 _atom_site_symmetry_multiplicity
 _atom_site_fract_x
 _atom_site_fract_y
 _atom_site_fract_z
 _atom_site_occupancy
  Na  Na0  1  0.000000  0.000188  0.999718  1
  Na  Na1  1  1.000000  0.657260  0.014110  1
  Na  Na2  1  0.500000  0.333145  0.000282  1
  Na  Na3  1  0.500000  0.676074  0.985890  1
  U  U4  1  1.000000  0.346455  0.980317  1
  U  U5  1  0.500000  0.986878  0.019683  1
  F  F6  1  0.121190  0.330117  0.231776  1
  F  F7  1  0.125463  0.650328  0.286951  1
  F  F8  1  0.365702  0.319051  0.762560  1
  F  F9  1  0.634298  0.319051  0.280287  1
  F  F10  1  0.134298  0.014282  0.237440  1
  F  F11  1  0.625463  0.683006  0.237935  1
  F  F12  1  0.374537  0.683006  0.713049  1
  F  F13  1  0.878810  0.330117  0.777874  1
  F  F14  1  0.378810  0.003216  0.768224  1
  F  F15  1  0.621190  0.003216  0.222126  1
  F  F16  1  0.874537  0.650328  0.762065  1
  F  F17  1  0.865702  0.014282  0.719713  1
