# generated using pymatgen
data_In2(HgTe2)3
_symmetry_space_group_name_H-M   'P 1'
_cell_length_a   4.60748073
_cell_length_b   4.61743904
_cell_length_c   60.56405857
_cell_angle_alpha   61.39355134
_cell_angle_beta   61.06551023
_cell_angle_gamma   59.99991578
_symmetry_Int_Tables_number   1
_chemical_formula_structural   In2(HgTe2)3
_chemical_formula_sum   'In4 Hg6 Te12'
_cell_volume   927.64788486
_cell_formula_units_Z   2
loop_
 _symmetry_equiv_pos_site_id
 _symmetry_equiv_pos_as_xyz
  1  'x, y, z'
loop_
 _atom_site_type_symbol
 _atom_site_label
 _atom_site_symmetry_multiplicity
 _atom_site_fract_x
 _atom_site_fract_y
 _atom_site_fract_z
 _atom_site_occupancy
  In  In0  1  0.258182  0.259794  0.434211  1
  In  In1  1  0.242255  0.244900  0.520134  1
  In  In2  1  0.226933  0.239980  0.607487  1
  In  In3  1  0.202145  0.204106  0.699668  1
  Hg  Hg4  1  0.233196  0.237522  0.107008  1
  Hg  Hg5  1  0.257405  0.259534  0.268270  1
  Hg  Hg6  1  0.274010  0.276470  0.347424  1
  Hg  Hg7  1  0.215130  0.214240  0.779308  1
  Hg  Hg8  1  0.232078  0.231511  0.858311  1
  Hg  Hg9  1  0.242004  0.243542  0.938694  1
  Te  Te10  1  0.025851  0.027370  0.992464  1
  Te  Te11  1  0.997554  0.994972  0.085169  1
  Te  Te12  1  0.022207  0.021226  0.161234  1
  Te  Te13  1  0.002694  0.999506  0.250426  1
  Te  Te14  1  0.013665  0.011714  0.330538  1
  Te  Te15  1  0.028290  0.025467  0.410153  1
  Te  Te16  1  0.036093  0.030942  0.491378  1
  Te  Te17  1  0.023045  0.027483  0.578903  1
  Te  Te18  1  0.975299  0.969884  0.675760  1
  Te  Te19  1  0.981404  0.976433  0.756154  1
  Te  Te20  1  0.997790  0.993110  0.834964  1
  Te  Te21  1  0.012771  0.010292  0.914011  1
