# generated using pymatgen
data_Na3GdI6
_symmetry_space_group_name_H-M   'P 1'
_cell_length_a   7.86606442
_cell_length_b   7.89485782
_cell_length_c   7.89485737
_cell_angle_alpha   119.75564544
_cell_angle_beta   99.73461074
_cell_angle_gamma   99.73460745
_symmetry_Int_Tables_number   1
_chemical_formula_structural   Na3GdI6
_chemical_formula_sum   'Na3 Gd1 I6'
_cell_volume   400.75184803
_cell_formula_units_Z   1
loop_
 _symmetry_equiv_pos_site_id
 _symmetry_equiv_pos_as_xyz
  1  'x, y, z'
loop_
 _atom_site_type_symbol
 _atom_site_label
 _atom_site_symmetry_multiplicity
 _atom_site_fract_x
 _atom_site_fract_y
 _atom_site_fract_z
 _atom_site_occupancy
  Na  Na0  1  0.000000  0.332841  0.667159  1
  Na  Na1  1  0.500000  0.828520  0.171480  1
  Na  Na2  1  0.000000  0.667085  0.332915  1
  Gd  Gd3  1  1.000000  0.000162  0.999838  1
  I  I4  1  0.240072  0.763141  0.764686  1
  I  I5  1  0.243641  0.401098  0.082389  1
  I  I6  1  0.244749  0.081356  0.399528  1
  I  I7  1  0.756359  0.917611  0.598902  1
  I  I8  1  0.755251  0.600472  0.918644  1
  I  I9  1  0.759928  0.235314  0.236859  1
