# generated using pymatgen
data_Rb2CrCl4
_symmetry_space_group_name_H-M   'P 1'
_cell_length_a   7.39335811
_cell_length_b   7.39230739
_cell_length_c   8.77786609
_cell_angle_alpha   90.00000000
_cell_angle_beta   114.37826953
_cell_angle_gamma   90.00000000
_symmetry_Int_Tables_number   1
_chemical_formula_structural   Rb2CrCl4
_chemical_formula_sum   'Rb4 Cr2 Cl8'
_cell_volume   436.97132282
_cell_formula_units_Z   2
loop_
 _symmetry_equiv_pos_site_id
 _symmetry_equiv_pos_as_xyz
  1  'x, y, z'
loop_
 _atom_site_type_symbol
 _atom_site_label
 _atom_site_symmetry_multiplicity
 _atom_site_fract_x
 _atom_site_fract_y
 _atom_site_fract_z
 _atom_site_occupancy
  Cl  Cl0  1  0.650968  0.499907  0.308917  1
  Cl  Cl1  1  0.732230  0.732596  0.999534  1
  Cl  Cl2  1  0.849032  0.999907  0.691083  1
  Cl  Cl3  1  0.150968  0.000093  0.308917  1
  Cl  Cl4  1  0.232230  0.767404  0.999534  1
  Cl  Cl5  1  0.267770  0.267404  0.000466  1
  Cl  Cl6  1  0.349032  0.500093  0.691083  1
  Cl  Cl7  1  0.767770  0.232596  0.000466  1
  Cr  Cr8  1  0.000000  0.000000  0.000000  1
  Cr  Cr9  1  0.500000  0.500000  0.000000  1
  Rb  Rb10  1  0.865533  0.499696  0.723778  1
  Rb  Rb11  1  0.634467  0.999696  0.276222  1
  Rb  Rb12  1  0.365533  0.000304  0.723778  1
  Rb  Rb13  1  0.134467  0.500304  0.276222  1
