# generated using pymatgen
data_KEuAsS3
_symmetry_space_group_name_H-M   'P 1'
_cell_length_a   8.36529119
_cell_length_b   8.80229370
_cell_length_c   8.98523090
_cell_angle_alpha   104.30673199
_cell_angle_beta   90.00000000
_cell_angle_gamma   90.00000000
_symmetry_Int_Tables_number   1
_chemical_formula_structural   KEuAsS3
_chemical_formula_sum   'K4 Eu4 As4 S12'
_cell_volume   641.09734427
_cell_formula_units_Z   4
loop_
 _symmetry_equiv_pos_site_id
 _symmetry_equiv_pos_as_xyz
  1  'x, y, z'
loop_
 _atom_site_type_symbol
 _atom_site_label
 _atom_site_symmetry_multiplicity
 _atom_site_fract_x
 _atom_site_fract_y
 _atom_site_fract_z
 _atom_site_occupancy
  Eu  Eu0  1  0.715863  0.972625  0.434922  1
  Eu  Eu1  1  0.784137  0.472625  0.434922  1
  Eu  Eu2  1  0.215863  0.527375  0.565078  1
  Eu  Eu3  1  0.284137  0.027375  0.565078  1
  K  K4  1  0.579044  0.776949  0.907708  1
  K  K5  1  0.920956  0.276949  0.907708  1
  K  K6  1  0.079044  0.723051  0.092292  1
  K  K7  1  0.420956  0.223051  0.092292  1
  As  As8  1  0.547452  0.352358  0.729990  1
  As  As9  1  0.952548  0.852358  0.729990  1
  As  As10  1  0.047452  0.147642  0.270010  1
  As  As11  1  0.452548  0.647642  0.270010  1
  S  S12  1  0.692921  0.579508  0.161730  1
  S  S13  1  0.518150  0.716045  0.529194  1
  S  S14  1  0.414011  0.895453  0.246606  1
  S  S15  1  0.307079  0.420492  0.838270  1
  S  S16  1  0.018150  0.783955  0.470806  1
  S  S17  1  0.914011  0.604547  0.753394  1
  S  S18  1  0.585989  0.104547  0.753394  1
  S  S19  1  0.192921  0.920492  0.838270  1
  S  S20  1  0.481850  0.283955  0.470806  1
  S  S21  1  0.981850  0.216045  0.529194  1
  S  S22  1  0.807079  0.079508  0.161730  1
  S  S23  1  0.085989  0.395453  0.246606  1
