# generated using pymatgen
data_H16PtC4(NCl3)2
_symmetry_space_group_name_H-M   'P 1'
_cell_length_a   7.37880403
_cell_length_b   8.06498188
_cell_length_c   8.06498168
_cell_angle_alpha   75.02302346
_cell_angle_beta   64.11546633
_cell_angle_gamma   64.11547503
_symmetry_Int_Tables_number   1
_chemical_formula_structural   H16PtC4(NCl3)2
_chemical_formula_sum   'H16 Pt1 C4 N2 Cl6'
_cell_volume   387.10931572
_cell_formula_units_Z   1
loop_
 _symmetry_equiv_pos_site_id
 _symmetry_equiv_pos_as_xyz
  1  'x, y, z'
loop_
 _atom_site_type_symbol
 _atom_site_label
 _atom_site_symmetry_multiplicity
 _atom_site_fract_x
 _atom_site_fract_y
 _atom_site_fract_z
 _atom_site_occupancy
  H  H0  1  0.718694  0.064395  0.495943  1
  H  H1  1  0.718694  0.495943  0.064395  1
  H  H2  1  0.281306  0.504057  0.935605  1
  H  H3  1  0.281306  0.935605  0.504057  1
  H  H4  1  0.042134  0.710031  0.968297  1
  H  H5  1  0.042134  0.968297  0.710031  1
  H  H6  1  0.242757  0.645982  0.645982  1
  H  H7  1  0.537245  0.350302  0.350302  1
  H  H8  1  0.718338  0.027073  0.286084  1
  H  H9  1  0.718338  0.286084  0.027073  1
  H  H10  1  0.281662  0.713916  0.972927  1
  H  H11  1  0.281662  0.972927  0.713916  1
  H  H12  1  0.462755  0.649698  0.649698  1
  H  H13  1  0.757243  0.354018  0.354018  1
  H  H14  1  0.957866  0.031703  0.289969  1
  H  H15  1  0.957866  0.289969  0.031703  1
  Pt  Pt16  1  0.000000  0.500000  0.500000  1
  C  C17  1  0.780355  0.090514  0.344312  1
  C  C18  1  0.780355  0.344312  0.090514  1
  C  C19  1  0.219645  0.655688  0.909486  1
  C  C20  1  0.219645  0.909486  0.655688  1
  N  N21  1  0.705259  0.292821  0.292821  1
  N  N22  1  0.294741  0.707179  0.707179  1
  Cl  Cl23  1  0.230807  0.665937  0.335942  1
  Cl  Cl24  1  0.230807  0.335942  0.665937  1
  Cl  Cl25  1  0.769193  0.334063  0.664058  1
  Cl  Cl26  1  0.769193  0.664058  0.334063  1
  Cl  Cl27  1  0.213287  0.278314  0.278314  1
  Cl  Cl28  1  0.786713  0.721686  0.721686  1
