# generated using pymatgen
data_Er5Si3C
_symmetry_space_group_name_H-M   'P 1'
_cell_length_a   14.60548776
_cell_length_b   14.60548793
_cell_length_c   18.86077235
_cell_angle_alpha   90.00000000
_cell_angle_beta   90.00000000
_cell_angle_gamma   119.99999962
_symmetry_Int_Tables_number   1
_chemical_formula_structural   Er5Si3C
_chemical_formula_sum   'Er90 Si54 C18'
_cell_volume   3484.35376059
_cell_formula_units_Z   18
loop_
 _symmetry_equiv_pos_site_id
 _symmetry_equiv_pos_as_xyz
  1  'x, y, z'
loop_
 _atom_site_type_symbol
 _atom_site_label
 _atom_site_symmetry_multiplicity
 _atom_site_fract_x
 _atom_site_fract_y
 _atom_site_fract_z
 _atom_site_occupancy
  Er  Er0  1  0.156333  0.078166  0.759423  1
  Er  Er1  1  0.822959  0.411480  0.406973  1
  Er  Er2  1  0.495031  0.747515  0.093317  1
  Er  Er3  1  0.851047  0.925524  0.917645  1
  Er  Er4  1  0.246856  0.493712  0.418805  1
  Er  Er5  1  0.332809  0.326250  0.167113  1
  Er  Er6  1  0.579215  0.420785  0.747937  1
  Er  Er7  1  0.259498  0.518996  0.756821  1
  Er  Er8  1  0.664955  0.664955  0.000000  1
  Er  Er9  1  0.326250  0.993441  0.832887  1
  Er  Er10  1  0.921834  0.078166  0.759423  1
  Er  Er11  1  0.993441  0.667191  0.167113  1
  Er  Er12  1  0.740502  0.481004  0.243179  1
  Er  Er13  1  0.661404  0.000000  0.500000  1
  Er  Er14  1  0.000000  0.335045  0.000000  1
  Er  Er15  1  1.000000  0.661404  0.500000  1
  Er  Er16  1  0.411480  0.588520  0.593027  1
  Er  Er17  1  0.074476  0.925524  0.917645  1
  Er  Er18  1  0.747515  0.495031  0.906683  1
  Er  Er19  1  0.078166  0.156333  0.240577  1
  Er  Er20  1  0.842057  0.921029  0.573524  1
  Er  Er21  1  0.921834  0.843667  0.759423  1
  Er  Er22  1  0.664955  0.000000  0.000000  1
  Er  Er23  1  0.588520  0.177041  0.406973  1
  Er  Er24  1  0.259498  0.740502  0.756821  1
  Er  Er25  1  0.078971  0.921029  0.573524  1
  Er  Er26  1  0.588520  0.411480  0.406973  1
  Er  Er27  1  0.925524  0.074476  0.082355  1
  Er  Er28  1  0.252485  0.747515  0.093317  1
  Er  Er29  1  0.322768  0.323498  0.332469  1
  Er  Er30  1  0.493712  0.246856  0.581195  1
  Er  Er31  1  0.335045  0.335045  0.000000  1
  Er  Er32  1  1.000000  0.664955  0.000000  1
  Er  Er33  1  0.661404  0.661404  0.500000  1
  Er  Er34  1  0.326250  0.332809  0.832887  1
  Er  Er35  1  0.677232  0.676502  0.667531  1
  Er  Er36  1  0.078166  0.921834  0.240577  1
  Er  Er37  1  0.411325  0.588675  0.920814  1
  Er  Er38  1  0.338596  0.338596  0.500000  1
  Er  Er39  1  0.481004  0.740502  0.756821  1
  Er  Er40  1  0.078971  0.157943  0.573524  1
  Er  Er41  1  0.993441  0.326250  0.167113  1
  Er  Er42  1  0.843667  0.921834  0.240577  1
  Er  Er43  1  0.753144  0.246856  0.581195  1
  Er  Er44  1  0.246856  0.753144  0.418805  1
  Er  Er45  1  0.252485  0.504969  0.093317  1
  Er  Er46  1  0.925524  0.851047  0.082355  1
  Er  Er47  1  0.000730  0.323498  0.332469  1
  Er  Er48  1  0.999270  0.322768  0.667531  1
  Er  Er49  1  0.157943  0.078971  0.426476  1
  Er  Er50  1  0.177350  0.588675  0.920814  1
  Er  Er51  1  0.006559  0.332809  0.832887  1
  Er  Er52  1  0.676502  0.677232  0.332469  1
  Er  Er53  1  0.667191  0.673750  0.832887  1
  Er  Er54  1  0.506288  0.753144  0.418805  1
  Er  Er55  1  0.677232  0.000730  0.667531  1
  Er  Er56  1  0.518996  0.259498  0.243179  1
  Er  Er57  1  0.323498  0.322768  0.667531  1
  Er  Er58  1  0.177041  0.588520  0.593027  1
  Er  Er59  1  0.921029  0.078971  0.426476  1
  Er  Er60  1  0.753144  0.506288  0.581195  1
  Er  Er61  1  0.000730  0.677232  0.332469  1
  Er  Er62  1  0.148952  0.074476  0.082355  1
  Er  Er63  1  0.335045  0.000000  0.000000  1
  Er  Er64  1  0.588675  0.177350  0.079186  1
  Er  Er65  1  0.000000  0.338596  0.500000  1
  Er  Er66  1  0.420785  0.841570  0.252063  1
  Er  Er67  1  0.322768  0.999270  0.332469  1
  Er  Er68  1  0.841570  0.420785  0.747937  1
  Er  Er69  1  0.504969  0.252485  0.906683  1
  Er  Er70  1  0.673750  0.667191  0.167113  1
  Er  Er71  1  0.338596  0.000000  0.500000  1
  Er  Er72  1  0.411325  0.822650  0.920814  1
  Er  Er73  1  0.074476  0.148952  0.917645  1
  Er  Er74  1  0.676502  0.999270  0.332469  1
  Er  Er75  1  0.822650  0.411325  0.079186  1
  Er  Er76  1  0.999270  0.676502  0.667531  1
  Er  Er77  1  0.411480  0.822959  0.593027  1
  Er  Er78  1  0.588675  0.411325  0.079186  1
  Er  Er79  1  0.740502  0.259498  0.243179  1
  Er  Er80  1  0.006559  0.673750  0.832887  1
  Er  Er81  1  0.747515  0.252485  0.906683  1
  Er  Er82  1  0.921029  0.842057  0.426476  1
  Er  Er83  1  0.579215  0.158430  0.747937  1
  Er  Er84  1  0.332809  0.006559  0.167113  1
  Er  Er85  1  0.323498  0.000730  0.667531  1
  Er  Er86  1  0.158430  0.579215  0.252063  1
  Er  Er87  1  0.420785  0.579215  0.252063  1
  Er  Er88  1  0.673750  0.006559  0.167113  1
  Er  Er89  1  0.667191  0.993441  0.832887  1
  Si  Si90  1  0.200297  0.400594  0.580323  1
  Si  Si91  1  0.866916  0.133084  0.248088  1
  Si  Si92  1  0.733831  0.866916  0.751912  1
  Si  Si93  1  0.464815  0.929631  0.412495  1
  Si  Si94  1  0.464815  0.535184  0.412495  1
  Si  Si95  1  0.800123  0.199877  0.752215  1
  Si  Si96  1  0.067667  0.533833  0.749579  1
  Si  Si97  1  0.533833  0.067667  0.250421  1
  Si  Si98  1  0.133084  0.266169  0.751912  1
  Si  Si99  1  0.400594  0.200297  0.419677  1
  Si  Si100  1  0.799882  0.599765  0.079085  1
  Si  Si101  1  0.931632  0.465816  0.914072  1
  Si  Si102  1  0.200118  0.400235  0.920915  1
  Si  Si103  1  0.131156  0.868844  0.419558  1
  Si  Si104  1  0.731878  0.865939  0.089280  1
  Si  Si105  1  0.268122  0.134061  0.910720  1
  Si  Si106  1  0.866916  0.733831  0.248088  1
  Si  Si107  1  0.533833  0.466167  0.250421  1
  Si  Si108  1  0.262312  0.131156  0.580442  1
  Si  Si109  1  0.131156  0.262312  0.419558  1
  Si  Si110  1  0.865939  0.731878  0.910720  1
  Si  Si111  1  0.068368  0.534184  0.085928  1
  Si  Si112  1  0.799703  0.200297  0.419677  1
  Si  Si113  1  0.266169  0.133084  0.248088  1
  Si  Si114  1  0.800123  0.600246  0.752215  1
  Si  Si115  1  0.199877  0.399754  0.247785  1
  Si  Si116  1  0.466167  0.533833  0.749579  1
  Si  Si117  1  0.929631  0.464815  0.587505  1
  Si  Si118  1  0.133084  0.866916  0.751912  1
  Si  Si119  1  0.534184  0.068368  0.914072  1
  Si  Si120  1  0.134061  0.268122  0.089280  1
  Si  Si121  1  0.070369  0.535184  0.412495  1
  Si  Si122  1  0.466167  0.932333  0.749579  1
  Si  Si123  1  0.799703  0.599406  0.419677  1
  Si  Si124  1  0.200297  0.799703  0.580323  1
  Si  Si125  1  0.200118  0.799882  0.920915  1
  Si  Si126  1  0.535184  0.464815  0.587505  1
  Si  Si127  1  0.868844  0.737688  0.580442  1
  Si  Si128  1  0.932333  0.466167  0.250421  1
  Si  Si129  1  0.535184  0.070369  0.587505  1
  Si  Si130  1  0.400235  0.200118  0.079085  1
  Si  Si131  1  0.737688  0.868844  0.419558  1
  Si  Si132  1  0.600246  0.800123  0.247785  1
  Si  Si133  1  0.134061  0.865939  0.089280  1
  Si  Si134  1  0.599765  0.799882  0.920915  1
  Si  Si135  1  0.399754  0.199877  0.752215  1
  Si  Si136  1  0.599406  0.799703  0.580323  1
  Si  Si137  1  0.534184  0.465816  0.914072  1
  Si  Si138  1  0.865939  0.134061  0.910720  1
  Si  Si139  1  0.199877  0.800123  0.247785  1
  Si  Si140  1  0.799882  0.200118  0.079085  1
  Si  Si141  1  0.868844  0.131156  0.580442  1
  Si  Si142  1  0.465816  0.931632  0.085928  1
  Si  Si143  1  0.465816  0.534184  0.085928  1
  C  C144  1  0.500000  0.500000  0.500000  1
  C  C145  1  0.666667  0.333333  0.154363  1
  C  C146  1  0.000000  0.000000  0.827450  1
  C  C147  1  0.333333  0.666667  0.167154  1
  C  C148  1  0.000000  0.000000  0.172550  1
  C  C149  1  0.666667  0.333333  0.832846  1
  C  C150  1  0.500000  0.500000  0.000000  1
  C  C151  1  0.333333  0.666667  0.238869  1
  C  C152  1  0.000000  0.000000  0.000000  1
  C  C153  1  0.333333  0.666667  0.845637  1
  C  C154  1  0.000000  0.500000  0.500000  1
  C  C155  1  0.333333  0.666667  0.667625  1
  C  C156  1  0.500000  0.000000  0.000000  1
  C  C157  1  0.666667  0.333333  0.761131  1
  C  C158  1  0.500000  0.000000  0.500000  1
  C  C159  1  0.000000  0.000000  0.500000  1
  C  C160  1  0.000000  0.500000  0.000000  1
  C  C161  1  0.666667  0.333333  0.332375  1
