# generated using pymatgen
data_Mo2H2O7
_symmetry_space_group_name_H-M   'P 1'
_cell_length_a   9.46779574
_cell_length_b   3.80801414
_cell_length_c   7.40245656
_cell_angle_alpha   90.00000000
_cell_angle_beta   104.39288827
_cell_angle_gamma   90.00000000
_symmetry_Int_Tables_number   1
_chemical_formula_structural   Mo2H2O7
_chemical_formula_sum   'Mo4 H4 O14'
_cell_volume   258.50803814
_cell_formula_units_Z   2
loop_
 _symmetry_equiv_pos_site_id
 _symmetry_equiv_pos_as_xyz
  1  'x, y, z'
loop_
 _atom_site_type_symbol
 _atom_site_label
 _atom_site_symmetry_multiplicity
 _atom_site_fract_x
 _atom_site_fract_y
 _atom_site_fract_z
 _atom_site_occupancy
  Mo  Mo0  1  0.974995  0.250895  0.183981  1
  Mo  Mo1  1  0.025005  0.750895  0.816019  1
  Mo  Mo2  1  0.440491  0.716775  0.167481  1
  Mo  Mo3  1  0.559509  0.216775  0.832519  1
  H  H4  1  0.718357  0.949633  0.311539  1
  H  H5  1  0.281643  0.449633  0.688461  1
  H  H6  1  0.296110  0.857798  0.401189  1
  H  H7  1  0.703890  0.357798  0.598811  1
  O  O8  1  0.643591  0.763706  0.285800  1
  O  O9  1  0.356409  0.263706  0.714200  1
  O  O10  1  0.879706  0.225163  0.355422  1
  O  O11  1  0.120294  0.725163  0.644578  1
  O  O12  1  0.966602  0.751090  0.100340  1
  O  O13  1  0.033398  0.251090  0.899660  1
  O  O14  1  0.154398  0.242117  0.313224  1
  O  O15  1  0.845602  0.742117  0.686776  1
  O  O16  1  0.469627  0.246944  0.110112  1
  O  O17  1  0.530373  0.746944  0.889888  1
  O  O18  1  0.739355  0.268101  0.976084  1
  O  O19  1  0.260645  0.768101  0.023916  1
  O  O20  1  0.390719  0.754507  0.394754  1
  O  O21  1  0.609281  0.254507  0.605246  1
