# generated using pymatgen
data_CaSiO3
_symmetry_space_group_name_H-M   'P 1'
_cell_length_a   8.36318454
_cell_length_b   9.57995917
_cell_length_c   14.75996971
_cell_angle_alpha   90.00000000
_cell_angle_beta   101.71115227
_cell_angle_gamma   90.00000000
_symmetry_Int_Tables_number   1
_chemical_formula_structural   CaSiO3
_chemical_formula_sum   'Ca12 Si12 O36'
_cell_volume   1157.93668014
_cell_formula_units_Z   12
loop_
 _symmetry_equiv_pos_site_id
 _symmetry_equiv_pos_as_xyz
  1  'x, y, z'
loop_
 _atom_site_type_symbol
 _atom_site_label
 _atom_site_symmetry_multiplicity
 _atom_site_fract_x
 _atom_site_fract_y
 _atom_site_fract_z
 _atom_site_occupancy
  Ca  Ca0  1  0.035560  0.115429  0.190779  1
  Ca  Ca1  1  0.645240  0.622964  -0.003633  1
  Ca  Ca2  1  0.293617  0.624980  0.500968  1
  Ca  Ca3  1  0.354760  0.122964  0.503633  1
  Ca  Ca4  1  0.964440  0.615429  0.309221  1
  Ca  Ca5  1  0.035560  0.384571  0.690779  1
  Ca  Ca6  1  0.964440  0.884571  0.809221  1
  Ca  Ca7  1  0.706383  0.124980  -0.000968  1
  Ca  Ca8  1  0.645240  0.877036  0.496367  1
  Ca  Ca9  1  0.706383  0.375020  0.499032  1
  Ca  Ca10  1  0.354760  0.377036  0.003633  1
  Ca  Ca11  1  0.293617  0.875020  0.000968  1
  Si  Si12  1  0.323873  0.363265  0.638838  1
  Si  Si13  1  0.499867  0.865512  0.659109  1
  Si  Si14  1  0.499867  0.634488  0.159109  1
  Si  Si15  1  0.323873  0.136735  0.138838  1
  Si  Si16  1  0.301512  0.871386  0.811582  1
  Si  Si17  1  0.500133  0.134488  0.340891  1
  Si  Si18  1  0.500133  0.365512  0.840891  1
  Si  Si19  1  0.301512  0.628614  0.311582  1
  Si  Si20  1  0.698488  0.128614  0.188418  1
  Si  Si21  1  0.676127  0.863265  0.861162  1
  Si  Si22  1  0.676127  0.636735  0.361162  1
  Si  Si23  1  0.698488  0.371386  0.688418  1
  O  O24  1  0.489763  0.871611  0.884971  1
  O  O25  1  0.798714  0.993044  0.163308  1
  O  O26  1  0.787881  0.764830  0.408389  1
  O  O27  1  0.510237  0.371611  0.615029  1
  O  O28  1  0.193631  0.753587  0.345378  1
  O  O29  1  0.787881  0.735170  0.908389  1
  O  O30  1  0.472587  0.992628  0.394806  1
  O  O31  1  0.472587  0.507372  0.894806  1
  O  O32  1  0.784678  0.003876  0.889178  1
  O  O33  1  0.212119  0.264830  0.091611  1
  O  O34  1  0.527413  0.492628  0.105194  1
  O  O35  1  0.806369  0.246413  0.654622  1
  O  O36  1  0.340557  0.345307  0.752785  1
  O  O37  1  0.335319  0.862493  0.705725  1
  O  O38  1  0.489763  0.628389  0.384971  1
  O  O39  1  0.659443  0.654693  0.247215  1
  O  O40  1  0.494879  0.743369  0.581908  1
  O  O41  1  0.212119  0.235170  0.591611  1
  O  O42  1  0.201286  0.006956  0.836692  1
  O  O43  1  0.664681  0.137507  0.294275  1
  O  O44  1  0.505121  0.256631  0.418092  1
  O  O45  1  0.505121  0.243369  0.918092  1
  O  O46  1  0.510237  0.128389  0.115029  1
  O  O47  1  0.494879  0.756631  0.081907  1
  O  O48  1  0.527413  0.007372  0.605194  1
  O  O49  1  0.193631  0.746413  0.845378  1
  O  O50  1  0.806369  0.253587  0.154622  1
  O  O51  1  0.784678  0.496124  0.389178  1
  O  O52  1  0.201286  0.493044  0.336692  1
  O  O53  1  0.340557  0.154693  0.252785  1
  O  O54  1  0.659443  0.845307  0.747215  1
  O  O55  1  0.215321  0.996124  0.110822  1
  O  O56  1  0.335319  0.637507  0.205725  1
  O  O57  1  0.215321  0.503876  0.610822  1
  O  O58  1  0.798714  0.506956  0.663308  1
  O  O59  1  0.664681  0.362493  0.794275  1
