# generated using pymatgen
data_SiO2
_symmetry_space_group_name_H-M   'P 1'
_cell_length_a   9.74869808
_cell_length_b   20.48621833
_cell_length_c   20.59819551
_cell_angle_alpha   90.00000000
_cell_angle_beta   90.00000000
_cell_angle_gamma   90.00000000
_symmetry_Int_Tables_number   1
_chemical_formula_structural   SiO2
_chemical_formula_sum   'Si64 O128'
_cell_volume   4113.74713854
_cell_formula_units_Z   64
loop_
 _symmetry_equiv_pos_site_id
 _symmetry_equiv_pos_as_xyz
  1  'x, y, z'
loop_
 _atom_site_type_symbol
 _atom_site_label
 _atom_site_symmetry_multiplicity
 _atom_site_fract_x
 _atom_site_fract_y
 _atom_site_fract_z
 _atom_site_occupancy
  Si  Si0  1  0.500000  0.422434  0.322691  1
  Si  Si1  1  0.163494  0.427251  0.104119  1
  Si  Si2  1  0.352580  0.392583  0.208019  1
  Si  Si3  1  0.646020  0.312366  0.901617  1
  Si  Si4  1  0.836506  0.427251  0.895881  1
  Si  Si5  1  0.836506  0.427251  0.104119  1
  Si  Si6  1  0.353980  0.687634  0.098383  1
  Si  Si7  1  0.646020  0.687634  0.098383  1
  Si  Si8  1  0.647198  0.209801  0.605958  1
  Si  Si9  1  0.500000  0.925102  0.188294  1
  Si  Si10  1  0.500000  0.325856  0.422992  1
  Si  Si11  1  0.163494  0.572749  0.104119  1
  Si  Si12  1  0.500000  0.674144  0.422992  1
  Si  Si13  1  0.352580  0.607417  0.791981  1
  Si  Si14  1  0.500000  0.812946  0.073880  1
  Si  Si15  1  0.500000  0.422434  0.677309  1
  Si  Si16  1  0.352802  0.209801  0.605958  1
  Si  Si17  1  0.646020  0.100063  0.686825  1
  Si  Si18  1  0.500000  0.325856  0.577008  1
  Si  Si19  1  0.646020  0.899937  0.686825  1
  Si  Si20  1  0.352802  0.209801  0.394042  1
  Si  Si21  1  0.352580  0.392583  0.791981  1
  Si  Si22  1  0.836505  0.894965  0.572407  1
  Si  Si23  1  0.647198  0.790199  0.394042  1
  Si  Si24  1  0.836505  0.105035  0.572407  1
  Si  Si25  1  0.163495  0.894965  0.427593  1
  Si  Si26  1  0.163495  0.105035  0.572407  1
  Si  Si27  1  0.353980  0.100063  0.686825  1
  Si  Si28  1  0.500000  0.577566  0.677309  1
  Si  Si29  1  0.647420  0.392583  0.791981  1
  Si  Si30  1  0.500000  0.674144  0.577008  1
  Si  Si31  1  0.500000  0.074898  0.811706  1
  Si  Si32  1  0.500000  0.925102  0.811706  1
  Si  Si33  1  0.353980  0.899937  0.686825  1
  Si  Si34  1  0.500000  0.187054  0.073880  1
  Si  Si35  1  0.163494  0.572749  0.895881  1
  Si  Si36  1  0.500000  0.812946  0.926120  1
  Si  Si37  1  0.646020  0.312366  0.098383  1
  Si  Si38  1  0.647198  0.790199  0.605958  1
  Si  Si39  1  0.500000  0.187054  0.926120  1
  Si  Si40  1  0.500000  0.074898  0.188294  1
  Si  Si41  1  0.647420  0.607417  0.791981  1
  Si  Si42  1  0.352802  0.790199  0.605958  1
  Si  Si43  1  0.353980  0.312366  0.098383  1
  Si  Si44  1  0.352802  0.790199  0.394042  1
  Si  Si45  1  0.353980  0.687634  0.901617  1
  Si  Si46  1  0.647420  0.392583  0.208019  1
  Si  Si47  1  0.647420  0.607417  0.208019  1
  Si  Si48  1  0.163494  0.427251  0.895881  1
  Si  Si49  1  0.836505  0.105035  0.427593  1
  Si  Si50  1  0.352580  0.607417  0.208019  1
  Si  Si51  1  0.646020  0.899937  0.313175  1
  Si  Si52  1  0.353980  0.100063  0.313175  1
  Si  Si53  1  0.647198  0.209801  0.394042  1
  Si  Si54  1  0.836505  0.894965  0.427593  1
  Si  Si55  1  0.353980  0.899937  0.313175  1
  Si  Si56  1  0.163495  0.105035  0.427593  1
  Si  Si57  1  0.163495  0.894965  0.572407  1
  Si  Si58  1  0.646020  0.100063  0.313175  1
  Si  Si59  1  0.353980  0.312366  0.901617  1
  Si  Si60  1  0.646020  0.687634  0.901617  1
  Si  Si61  1  0.836506  0.572749  0.104119  1
  Si  Si62  1  0.836506  0.572749  0.895881  1
  Si  Si63  1  0.500000  0.577566  0.322691  1
  O  O64  1  0.360274  0.083092  0.234846  1
  O  O65  1  0.655167  0.180147  0.680190  1
  O  O66  1  0.236006  0.637223  0.069845  1
  O  O67  1  0.220033  0.431042  0.820868  1
  O  O68  1  0.500000  0.843210  0.000000  1
  O  O69  1  0.220033  0.431042  0.179132  1
  O  O70  1  0.360188  0.233839  0.081007  1
  O  O71  1  0.500000  0.425166  0.816115  1
  O  O72  1  0.779967  0.568958  0.179132  1
  O  O73  1  0.235782  0.929002  0.636910  1
  O  O74  1  0.359900  0.605196  0.286893  1
  O  O75  1  0.500000  0.072991  0.657930  1
  O  O76  1  0.500000  0.658051  0.928024  1
  O  O77  1  0.500000  0.599888  0.602608  1
  O  O78  1  0.344048  0.681829  0.821891  1
  O  O79  1  0.639726  0.083092  0.234846  1
  O  O80  1  0.000000  0.103919  0.414070  1
  O  O81  1  0.764218  0.929002  0.363090  1
  O  O82  1  0.500000  0.599888  0.397392  1
  O  O83  1  0.500000  0.127950  0.128139  1
  O  O84  1  0.500000  0.328883  0.500000  1
  O  O85  1  0.360188  0.766161  0.918993  1
  O  O86  1  0.359900  0.394804  0.286893  1
  O  O87  1  0.655952  0.681829  0.178109  1
  O  O88  1  0.500000  0.156790  0.000000  1
  O  O89  1  0.779744  0.819658  0.431938  1
  O  O90  1  0.220033  0.568958  0.179132  1
  O  O91  1  0.763994  0.637223  0.069845  1
  O  O92  1  0.500000  0.814936  0.573890  1
  O  O93  1  0.500000  0.927009  0.657930  1
  O  O94  1  0.640100  0.605196  0.713107  1
  O  O95  1  0.764218  0.929002  0.636910  1
  O  O96  1  0.500000  0.574834  0.816115  1
  O  O97  1  0.359900  0.605196  0.713107  1
  O  O98  1  0.344048  0.318171  0.821891  1
  O  O99  1  0.344833  0.180147  0.680190  1
  O  O100  1  0.236006  0.362777  0.069845  1
  O  O101  1  0.655167  0.819853  0.680190  1
  O  O102  1  0.500000  0.185064  0.426110  1
  O  O103  1  0.000000  0.586093  0.102955  1
  O  O104  1  0.500000  0.500000  0.678179  1
  O  O105  1  0.344833  0.819853  0.319810  1
  O  O106  1  0.500000  0.000000  0.840313  1
  O  O107  1  0.655167  0.819853  0.319810  1
  O  O108  1  0.779744  0.180342  0.568062  1
  O  O109  1  0.359921  0.710982  0.603151  1
  O  O110  1  0.639812  0.766161  0.918993  1
  O  O111  1  0.500000  0.671117  0.500000  1
  O  O112  1  0.000000  0.413907  0.102955  1
  O  O113  1  0.344048  0.681829  0.178109  1
  O  O114  1  0.220256  0.819658  0.431938  1
  O  O115  1  0.000000  0.586093  0.897045  1
  O  O116  1  0.763994  0.362777  0.069845  1
  O  O117  1  0.360188  0.766161  0.081007  1
  O  O118  1  0.359900  0.394804  0.713107  1
  O  O119  1  0.500000  0.400112  0.397392  1
  O  O120  1  0.655167  0.180147  0.319810  1
  O  O121  1  0.764218  0.070998  0.363090  1
  O  O122  1  0.639812  0.766161  0.081007  1
  O  O123  1  0.639812  0.233839  0.081007  1
  O  O124  1  0.359921  0.710982  0.396849  1
  O  O125  1  0.640079  0.710982  0.396849  1
  O  O126  1  0.000000  0.413907  0.897045  1
  O  O127  1  0.220256  0.180342  0.431938  1
  O  O128  1  0.360274  0.916908  0.234846  1
  O  O129  1  0.640079  0.289018  0.396849  1
  O  O130  1  0.500000  0.341949  0.928024  1
  O  O131  1  0.640100  0.605196  0.286893  1
  O  O132  1  0.779744  0.819658  0.568062  1
  O  O133  1  0.655952  0.318171  0.821891  1
  O  O134  1  0.764218  0.070998  0.636910  1
  O  O135  1  0.639726  0.916908  0.234846  1
  O  O136  1  0.193033  0.500000  0.072010  1
  O  O137  1  0.639812  0.233839  0.918993  1
  O  O138  1  0.220256  0.819658  0.568062  1
  O  O139  1  0.806967  0.500000  0.927990  1
  O  O140  1  0.236006  0.637223  0.930155  1
  O  O141  1  0.779967  0.568958  0.820868  1
  O  O142  1  0.806959  0.927289  0.500000  1
  O  O143  1  0.000000  0.103919  0.585930  1
  O  O144  1  0.360274  0.083092  0.765154  1
  O  O145  1  0.360188  0.233839  0.918993  1
  O  O146  1  0.500000  0.574834  0.183885  1
  O  O147  1  0.779744  0.180342  0.431938  1
  O  O148  1  0.500000  0.072991  0.342070  1
  O  O149  1  0.500000  0.927009  0.342070  1
  O  O150  1  0.500000  0.000000  0.159687  1
  O  O151  1  0.655952  0.318171  0.178109  1
  O  O152  1  0.655952  0.681829  0.821891  1
  O  O153  1  0.500000  0.500000  0.321821  1
  O  O154  1  0.344048  0.318171  0.178109  1
  O  O155  1  0.344833  0.819853  0.680190  1
  O  O156  1  0.193033  0.500000  0.927990  1
  O  O157  1  0.500000  0.814936  0.426110  1
  O  O158  1  0.763994  0.637223  0.930155  1
  O  O159  1  0.806959  0.072711  0.500000  1
  O  O160  1  0.500000  0.872050  0.871861  1
  O  O161  1  0.344833  0.180147  0.319810  1
  O  O162  1  0.220256  0.180342  0.568062  1
  O  O163  1  0.640079  0.289018  0.603151  1
  O  O164  1  0.235782  0.070998  0.363090  1
  O  O165  1  0.640100  0.394804  0.713107  1
  O  O166  1  0.500000  0.185064  0.573890  1
  O  O167  1  0.806967  0.500000  0.072010  1
  O  O168  1  0.779967  0.431042  0.179132  1
  O  O169  1  0.500000  0.425166  0.183885  1
  O  O170  1  0.000000  0.896081  0.585930  1
  O  O171  1  0.640079  0.710982  0.603151  1
  O  O172  1  0.236006  0.362777  0.930155  1
  O  O173  1  0.193041  0.072711  0.500000  1
  O  O174  1  0.000000  0.896081  0.414070  1
  O  O175  1  0.500000  0.400112  0.602608  1
  O  O176  1  0.220033  0.568958  0.820868  1
  O  O177  1  0.500000  0.341949  0.071976  1
  O  O178  1  0.779967  0.431042  0.820868  1
  O  O179  1  0.235782  0.070998  0.636910  1
  O  O180  1  0.359921  0.289018  0.396849  1
  O  O181  1  0.639726  0.083092  0.765154  1
  O  O182  1  0.500000  0.658051  0.071976  1
  O  O183  1  0.359921  0.289018  0.603151  1
  O  O184  1  0.763994  0.362777  0.930155  1
  O  O185  1  0.639726  0.916908  0.765154  1
  O  O186  1  0.235782  0.929002  0.363090  1
  O  O187  1  0.360274  0.916908  0.765154  1
  O  O188  1  0.193041  0.927289  0.500000  1
  O  O189  1  0.500000  0.127950  0.871861  1
  O  O190  1  0.640100  0.394804  0.286893  1
  O  O191  1  0.500000  0.872050  0.128139  1
