# generated using pymatgen
data_La(Mo3Se4)2
_symmetry_space_group_name_H-M   'P 1'
_cell_length_a   6.90463147
_cell_length_b   6.90463199
_cell_length_c   6.90463171
_cell_angle_alpha   88.70385883
_cell_angle_beta   88.70385212
_cell_angle_gamma   88.70385219
_symmetry_Int_Tables_number   1
_chemical_formula_structural   La(Mo3Se4)2
_chemical_formula_sum   'La1 Mo6 Se8'
_cell_volume   328.92206977
_cell_formula_units_Z   1
loop_
 _symmetry_equiv_pos_site_id
 _symmetry_equiv_pos_as_xyz
  1  'x, y, z'
loop_
 _atom_site_type_symbol
 _atom_site_label
 _atom_site_symmetry_multiplicity
 _atom_site_fract_x
 _atom_site_fract_y
 _atom_site_fract_z
 _atom_site_occupancy
  La  La0  1  0.000000  0.000000  0.000000  1
  Mo  Mo1  1  0.439443  0.759520  0.575721  1
  Mo  Mo2  1  0.575721  0.439443  0.759520  1
  Mo  Mo3  1  0.759520  0.575721  0.439443  1
  Mo  Mo4  1  0.240480  0.424279  0.560557  1
  Mo  Mo5  1  0.424279  0.560557  0.240480  1
  Mo  Mo6  1  0.560557  0.240480  0.424279  1
  Se  Se7  1  0.245443  0.623693  0.881137  1
  Se  Se8  1  0.623693  0.881137  0.245443  1
  Se  Se9  1  0.758792  0.758792  0.758792  1
  Se  Se10  1  0.881137  0.245443  0.623693  1
  Se  Se11  1  0.118863  0.754557  0.376307  1
  Se  Se12  1  0.241208  0.241208  0.241208  1
  Se  Se13  1  0.376307  0.118863  0.754557  1
  Se  Se14  1  0.754557  0.376307  0.118863  1
