# generated using pymatgen
data_Sb26O53
_symmetry_space_group_name_H-M   'P 1'
_cell_length_a   4.96556593
_cell_length_b   5.54939466
_cell_length_c   44.53798397
_cell_angle_alpha   102.05261920
_cell_angle_beta   113.43711308
_cell_angle_gamma   89.96867863
_symmetry_Int_Tables_number   1
_chemical_formula_structural   Sb26O53
_chemical_formula_sum   'Sb26 O53'
_cell_volume   1096.54198474
_cell_formula_units_Z   1
loop_
 _symmetry_equiv_pos_site_id
 _symmetry_equiv_pos_as_xyz
  1  'x, y, z'
loop_
 _atom_site_type_symbol
 _atom_site_label
 _atom_site_symmetry_multiplicity
 _atom_site_fract_x
 _atom_site_fract_y
 _atom_site_fract_z
 _atom_site_occupancy
  Sb  Sb0  1  0.244130  0.712182  0.868939  1
  Sb  Sb1  1  0.574851  0.400208  0.937761  1
  Sb  Sb2  1  0.230160  0.737669  0.721465  1
  Sb  Sb3  1  0.528138  0.476500  0.795740  1
  Sb  Sb4  1  0.822745  0.198761  0.868748  1
  Sb  Sb5  1  0.047324  0.902997  0.945954  1
  Sb  Sb6  1  0.216389  0.748780  0.572734  1
  Sb  Sb7  1  0.511638  0.492354  0.646543  1
  Sb  Sb8  1  0.807940  0.235366  0.720104  1
  Sb  Sb9  1  0.027805  0.977507  0.795218  1
  Sb  Sb10  1  0.206386  0.753091  0.424035  1
  Sb  Sb11  1  0.498524  0.499123  0.497582  1
  Sb  Sb12  1  0.792647  0.244621  0.571034  1
  Sb  Sb13  1  0.011602  0.992457  0.646561  1
  Sb  Sb14  1  0.193543  0.751335  0.275562  1
  Sb  Sb15  1  0.489862  0.501730  0.348595  1
  Sb  Sb16  1  0.781259  0.248001  0.421842  1
  Sb  Sb17  1  0.998604  0.999178  0.497547  1
  Sb  Sb18  1  0.464824  0.525559  0.200909  1
  Sb  Sb19  1  0.765049  0.252737  0.272849  1
  Sb  Sb20  1  0.989404  0.001837  0.348529  1
  Sb  Sb21  1  0.600387  0.514360  0.081262  1
  Sb  Sb22  1  0.759855  0.286889  0.142284  1
  Sb  Sb23  1  -0.013624  0.003909  0.200631  1
  Sb  Sb24  1  0.800714  0.433604  0.012840  1
  Sb  Sb25  1  0.963632  -0.002429  0.060505  1
  O  O26  1  0.074642  0.931746  0.899285  1
  O  O27  1  0.406387  0.319103  0.968100  1
  O  O28  1  0.202040  0.430006  0.899647  1
  O  O29  1  0.018022  0.945075  0.748257  1
  O  O30  1  0.284245  0.296485  0.812231  1
  O  O31  1  0.207103  0.447758  0.748761  1
  O  O32  1  0.697421  0.085896  0.922681  1
  O  O33  1  0.390315  0.798254  0.812450  1
  O  O34  1  0.893042  0.574459  0.979324  1
  O  O35  1  0.731271  0.605524  0.916119  1
  O  O36  1  0.007848  0.958661  0.599812  1
  O  O37  1  0.922590  0.096298  0.994615  1
  O  O38  1  0.280981  0.307470  0.664225  1
  O  O39  1  0.187912  0.460458  0.599949  1
  O  O40  1  0.666032  0.157318  0.778242  1
  O  O41  1  0.367157  0.807178  0.664311  1
  O  O42  1  0.839878  0.503688  0.842912  1
  O  O43  1  0.769816  0.657565  0.778754  1
  O  O44  1  -0.003702  0.963599  0.450878  1
  O  O45  1  0.046294  0.011035  0.842502  1
  O  O46  1  0.269817  0.313416  0.515371  1
  O  O47  1  0.175110  0.465738  0.451047  1
  O  O48  1  0.655869  0.177138  0.628899  1
  O  O49  1  0.353073  0.813413  0.515436  1
  O  O50  1  0.834905  0.522929  0.693026  1
  O  O51  1  0.742281  0.677506  0.628929  1
  O  O52  1  -0.013455  0.965522  0.302122  1
  O  O53  1  0.016035  0.024521  0.693184  1
  O  O54  1  0.261885  0.315742  0.366441  1
  O  O55  1  0.166407  0.467460  0.302202  1
  O  O56  1  0.643808  0.184352  0.479977  1
  O  O57  1  0.344112  0.815861  0.366472  1
  O  O58  1  0.821737  0.532516  0.544155  1
  O  O59  1  0.728313  0.685035  0.480020  1
  O  O60  1  0.948100  0.982258  0.154234  1
  O  O61  1  0.002485  0.034149  0.544315  1
  O  O62  1  0.260086  0.322100  0.219591  1
  O  O63  1  0.127103  0.491934  0.157547  1
  O  O64  1  0.635402  0.187473  0.331120  1
  O  O65  1  0.355287  0.844867  0.220396  1
  O  O66  1  0.813205  0.536008  0.395203  1
  O  O67  1  0.717491  0.688028  0.330889  1
  O  O68  1  0.120151  0.017630  0.024275  1
  O  O69  1  0.993000  0.037707  0.395341  1
  O  O70  1  0.183761  0.546100  0.052164  1
  O  O71  1  0.628947  0.220294  0.180383  1
  O  O72  1  0.796715  0.535463  0.246521  1
  O  O73  1  0.741198  0.688063  0.187510  1
  O  O74  1  0.977853  0.047789  0.246531  1
  O  O75  1  0.676443  0.251634  0.040206  1
  O  O76  1  0.458920  0.490400  0.119990  1
  O  O77  1  0.641781  0.730882  0.028859  1
  O  O78  1  0.712490  0.167868  0.094473  1
