# generated using pymatgen
data_B3H12CN4O
_symmetry_space_group_name_H-M   'P 1'
_cell_length_a   7.15999904
_cell_length_b   10.48945073
_cell_length_c   10.35215564
_cell_angle_alpha   93.72073015
_cell_angle_beta   95.32038047
_cell_angle_gamma   100.19164231
_symmetry_Int_Tables_number   1
_chemical_formula_structural   B3H12CN4O
_chemical_formula_sum   'B12 H48 C4 N16 O4'
_cell_volume   759.30201810
_cell_formula_units_Z   4
loop_
 _symmetry_equiv_pos_site_id
 _symmetry_equiv_pos_as_xyz
  1  'x, y, z'
loop_
 _atom_site_type_symbol
 _atom_site_label
 _atom_site_symmetry_multiplicity
 _atom_site_fract_x
 _atom_site_fract_y
 _atom_site_fract_z
 _atom_site_occupancy
  B  B0  1  0.663579  0.978301  0.514089  1
  B  B1  1  0.336421  0.021699  0.485911  1
  B  B2  1  0.474741  0.942668  0.392327  1
  B  B3  1  0.525259  0.057332  0.607673  1
  B  B4  1  0.440238  0.897559  0.547380  1
  B  B5  1  0.559762  0.102441  0.452620  1
  B  B6  1  0.489805  0.549311  0.895399  1
  B  B7  1  0.510195  0.450689  0.104601  1
  B  B8  1  0.419294  0.582092  0.048379  1
  B  B9  1  0.580706  0.417908  0.951621  1
  B  B10  1  0.654408  0.571035  0.032416  1
  B  B11  1  0.345592  0.428965  0.967584  1
  H  H12  1  0.825829  0.961721  0.527898  1
  H  H13  1  0.174171  0.038279  0.472102  1
  H  H14  1  0.446183  0.883597  0.285758  1
  H  H15  1  0.553817  0.116403  0.714242  1
  H  H16  1  0.377821  0.797106  0.592747  1
  H  H17  1  0.622179  0.202894  0.407253  1
  H  H18  1  0.480631  0.595479  0.792084  1
  H  H19  1  0.519369  0.404521  0.207916  1
  H  H20  1  0.343079  0.663910  0.097287  1
  H  H21  1  0.656921  0.336090  0.902713  1
  H  H22  1  0.805142  0.643076  0.063936  1
  H  H23  1  0.194858  0.356924  0.936064  1
  H  H24  1  0.679281  0.826466  0.096801  1
  H  H25  1  0.320719  0.173534  0.903199  1
  H  H26  1  0.613099  0.917787  0.779296  1
  H  H27  1  0.386901  0.082213  0.220704  1
  H  H28  1  0.596169  0.788163  0.880528  1
  H  H29  1  0.403831  0.211837  0.119472  1
  H  H30  1  0.861185  0.156317  0.026552  1
  H  H31  1  0.138815  0.843683  0.973448  1
  H  H32  1  0.776250  0.117488  0.860226  1
  H  H33  1  0.223750  0.882512  0.139774  1
  H  H34  1  0.746174  0.009602  0.267607  1
  H  H35  1  0.253826  0.990398  0.732393  1
  H  H36  1  0.946743  0.961836  0.233771  1
  H  H37  1  0.053257  0.038164  0.766229  1
  H  H38  1  0.091465  0.573352  0.271612  1
  H  H39  1  0.908535  0.426648  0.728388  1
  H  H40  1  0.058141  0.239091  0.291254  1
  H  H41  1  0.941859  0.760909  0.708746  1
  H  H42  1  0.201108  0.257109  0.443321  1
  H  H43  1  0.798892  0.742891  0.556679  1
  H  H44  1  0.270809  0.599130  0.470830  1
  H  H45  1  0.729191  0.400870  0.529170  1
  H  H46  1  0.305399  0.456576  0.545929  1
  H  H47  1  0.694601  0.543424  0.454071  1
  H  H48  1  0.095818  0.457187  0.089156  1
  H  H49  1  0.904182  0.542813  0.910844  1
  H  H50  1  0.853721  0.429745  0.115867  1
  H  H51  1  0.146279  0.570255  0.884133  1
  H  H52  1  0.999070  0.758939  0.325646  1
  H  H53  1  0.000930  0.241061  0.674354  1
  H  H54  1  0.100487  0.793805  0.346124  1
  H  H55  1  0.899513  0.206195  0.653876  1
  H  H56  1  0.608105  0.642383  0.263944  1
  H  H57  1  0.391895  0.357617  0.736056  1
  H  H58  1  0.608045  0.758755  0.369781  1
  H  H59  1  0.391955  0.241245  0.630219  1
  C  C60  1  0.725157  0.965633  0.969918  1
  C  C61  1  0.274843  0.034367  0.030082  1
  C  C62  1  0.141900  0.422763  0.372954  1
  C  C63  1  0.858100  0.577237  0.627046  1
  N  N64  1  0.736469  0.922000  0.089357  1
  N  N65  1  0.263531  0.078000  0.910643  1
  N  N66  1  0.038920  0.477399  0.280375  1
  N  N67  1  0.961080  0.522601  0.719625  1
  N  N68  1  0.636948  0.884414  0.869165  1
  N  N69  1  0.363052  0.115586  0.130835  1
  N  N70  1  0.799455  0.088263  0.951079  1
  N  N71  1  0.200545  0.911737  0.048921  1
  N  N72  1  0.835372  0.001712  0.196228  1
  N  N73  1  0.164628  0.998288  0.803772  1
  N  N74  1  0.121708  0.294703  0.374425  1
  N  N75  1  0.878292  0.705297  0.625575  1
  N  N76  1  0.250028  0.500532  0.468729  1
  N  N77  1  0.749972  0.499468  0.531271  1
  N  N78  1  0.989550  0.407394  0.141368  1
  N  N79  1  0.010450  0.592606  0.858632  1
  O  O80  1  0.010406  0.718380  0.869472  1
  O  O81  1  0.989594  0.281620  0.130528  1
  O  O82  1  0.657144  0.677653  0.353417  1
  O  O83  1  0.342856  0.322347  0.646583  1
