# generated using pymatgen
data_Cr(CO)6
_symmetry_space_group_name_H-M   'P 1'
_cell_length_a   6.54875354
_cell_length_b   11.43347387
_cell_length_c   12.21296412
_cell_angle_alpha   90.00000000
_cell_angle_beta   90.00000000
_cell_angle_gamma   90.00000000
_symmetry_Int_Tables_number   1
_chemical_formula_structural   Cr(CO)6
_chemical_formula_sum   'Cr4 C24 O24'
_cell_volume   914.44571878
_cell_formula_units_Z   4
loop_
 _symmetry_equiv_pos_site_id
 _symmetry_equiv_pos_as_xyz
  1  'x, y, z'
loop_
 _atom_site_type_symbol
 _atom_site_label
 _atom_site_symmetry_multiplicity
 _atom_site_fract_x
 _atom_site_fract_y
 _atom_site_fract_z
 _atom_site_occupancy
  Cr  Cr0  1  0.064919  0.250000  0.128025  1
  Cr  Cr1  1  0.935081  0.750000  0.871975  1
  Cr  Cr2  1  0.564919  0.750000  0.371975  1
  Cr  Cr3  1  0.435081  0.250000  0.628025  1
  C  C4  1  0.628788  0.447778  0.778760  1
  C  C5  1  0.628788  0.052222  0.778760  1
  C  C6  1  0.371212  0.552222  0.221240  1
  C  C7  1  0.247261  0.054664  0.472288  1
  C  C8  1  0.252739  0.445336  0.972288  1
  C  C9  1  0.752739  0.554664  0.527712  1
  C  C10  1  0.156987  0.750000  0.513300  1
  C  C11  1  0.128788  0.947778  0.721240  1
  C  C12  1  0.752739  0.945336  0.527712  1
  C  C13  1  0.871212  0.052222  0.278760  1
  C  C14  1  0.343013  0.750000  0.013300  1
  C  C15  1  0.535327  0.750000  0.727068  1
  C  C16  1  0.252739  0.054664  0.972288  1
  C  C17  1  0.371212  0.947778  0.221240  1
  C  C18  1  0.964673  0.750000  0.227068  1
  C  C19  1  0.247261  0.445336  0.472288  1
  C  C20  1  0.747261  0.945336  0.027712  1
  C  C21  1  0.871212  0.447778  0.278760  1
  C  C22  1  0.464673  0.250000  0.272932  1
  C  C23  1  0.656987  0.250000  0.986700  1
  C  C24  1  0.035327  0.250000  0.772932  1
  C  C25  1  0.747261  0.554664  0.027712  1
  C  C26  1  0.843013  0.250000  0.486700  1
  C  C27  1  0.128788  0.552222  0.721240  1
  O  O28  1  0.944636  0.124911  0.225281  1
  O  O29  1  0.555364  0.124911  0.725281  1
  O  O30  1  0.444636  0.624911  0.274719  1
  O  O31  1  0.683767  0.626219  0.470989  1
  O  O32  1  0.816233  0.626219  0.970989  1
  O  O33  1  0.816233  0.873781  0.970989  1
  O  O34  1  0.804871  0.250000  0.039269  1
  O  O35  1  0.183767  0.373781  0.029011  1
  O  O36  1  0.944636  0.375089  0.225281  1
  O  O37  1  0.316233  0.126219  0.529011  1
  O  O38  1  0.318984  0.250000  0.218417  1
  O  O39  1  0.681016  0.750000  0.781583  1
  O  O40  1  0.316233  0.373781  0.529011  1
  O  O41  1  0.683767  0.873781  0.470989  1
  O  O42  1  0.304871  0.750000  0.460731  1
  O  O43  1  0.055364  0.875089  0.774719  1
  O  O44  1  0.183767  0.126219  0.029011  1
  O  O45  1  0.695129  0.250000  0.539269  1
  O  O46  1  0.181016  0.250000  0.718417  1
  O  O47  1  0.818984  0.750000  0.281583  1
  O  O48  1  0.055364  0.624911  0.774719  1
  O  O49  1  0.195129  0.750000  0.960731  1
  O  O50  1  0.444636  0.875089  0.274719  1
  O  O51  1  0.555364  0.375089  0.725281  1
