# generated using pymatgen
data_CaZn2(PO)2
_symmetry_space_group_name_H-M   'P 1'
_cell_length_a   4.50146077
_cell_length_b   4.50077302
_cell_length_c   6.98263646
_cell_angle_alpha   90.00000000
_cell_angle_beta   89.90683714
_cell_angle_gamma   119.99494286
_symmetry_Int_Tables_number   1
_chemical_formula_structural   CaZn2(PO)2
_chemical_formula_sum   'Ca1 Zn2 P2 O2'
_cell_volume   122.52141596
_cell_formula_units_Z   1
loop_
 _symmetry_equiv_pos_site_id
 _symmetry_equiv_pos_as_xyz
  1  'x, y, z'
loop_
 _atom_site_type_symbol
 _atom_site_label
 _atom_site_symmetry_multiplicity
 _atom_site_fract_x
 _atom_site_fract_y
 _atom_site_fract_z
 _atom_site_occupancy
  Ca  Ca0  1  0.000000  0.000000  0.000000  1
  Zn  Zn1  1  0.333860  0.666930  0.253519  1
  Zn  Zn2  1  0.666140  0.333070  0.746481  1
  P  P3  1  0.334196  0.667098  0.751927  1
  P  P4  1  0.665804  0.332902  0.248073  1
  O  O5  1  0.332697  0.666348  0.529590  1
  O  O6  1  0.667303  0.333652  0.470410  1
