# generated using pymatgen
data_AgN3O4
_symmetry_space_group_name_H-M   'P 1'
_cell_length_a   5.96703802
_cell_length_b   9.91720677
_cell_length_c   14.08381406
_cell_angle_alpha   90.00000000
_cell_angle_beta   90.00000000
_cell_angle_gamma   90.00000000
_symmetry_Int_Tables_number   1
_chemical_formula_structural   AgN3O4
_chemical_formula_sum   'Ag8 N24 O32'
_cell_volume   833.42870802
_cell_formula_units_Z   8
loop_
 _symmetry_equiv_pos_site_id
 _symmetry_equiv_pos_as_xyz
  1  'x, y, z'
loop_
 _atom_site_type_symbol
 _atom_site_label
 _atom_site_symmetry_multiplicity
 _atom_site_fract_x
 _atom_site_fract_y
 _atom_site_fract_z
 _atom_site_occupancy
  Ag  Ag0  1  0.079042  0.394927  0.641408  1
  Ag  Ag1  1  0.920958  0.894927  0.858592  1
  Ag  Ag2  1  0.579042  0.105073  0.358592  1
  Ag  Ag3  1  0.579042  0.394927  0.858592  1
  Ag  Ag4  1  0.079042  0.105073  0.141408  1
  Ag  Ag5  1  0.420958  0.605073  0.141408  1
  Ag  Ag6  1  0.920958  0.605073  0.358592  1
  Ag  Ag7  1  0.420958  0.894927  0.641408  1
  N  N8  1  0.402781  0.411734  0.301220  1
  N  N9  1  0.402781  0.088266  0.801220  1
  N  N10  1  0.097219  0.588266  0.801220  1
  N  N11  1  0.097219  0.911734  0.301220  1
  N  N12  1  0.344366  0.357152  0.461070  1
  N  N13  1  0.655634  0.857152  0.038930  1
  N  N14  1  0.902781  0.088266  0.698780  1
  N  N15  1  0.406869  0.315942  0.370529  1
  N  N16  1  0.906869  0.184058  0.629471  1
  N  N17  1  0.344366  0.142848  0.961070  1
  N  N18  1  0.844366  0.142848  0.538930  1
  N  N19  1  0.593131  0.815942  0.129471  1
  N  N20  1  0.906869  0.315942  0.129471  1
  N  N21  1  0.406869  0.184058  0.870529  1
  N  N22  1  0.155634  0.857152  0.461070  1
  N  N23  1  0.093131  0.684058  0.870529  1
  N  N24  1  0.597219  0.911734  0.198780  1
  N  N25  1  0.655634  0.642848  0.538930  1
  N  N26  1  0.593131  0.684058  0.629471  1
  N  N27  1  0.093131  0.815942  0.370529  1
  N  N28  1  0.597219  0.588266  0.698780  1
  N  N29  1  0.902781  0.411734  0.198780  1
  N  N30  1  0.844366  0.357152  0.038930  1
  N  N31  1  0.155634  0.642848  0.961070  1
  O  O32  1  0.910657  0.135014  0.781684  1
  O  O33  1  0.110656  0.728018  0.023155  1
  O  O34  1  0.389344  0.228018  0.023155  1
  O  O35  1  0.089343  0.864986  0.218316  1
  O  O36  1  0.889344  0.228018  0.476845  1
  O  O37  1  0.262244  0.537064  0.977917  1
  O  O38  1  0.096705  0.036542  0.316964  1
  O  O39  1  0.096705  0.463458  0.816964  1
  O  O40  1  0.737756  0.462936  0.022083  1
  O  O41  1  0.237756  0.037064  0.977917  1
  O  O42  1  0.403295  0.536542  0.316964  1
  O  O43  1  0.903295  0.963458  0.683036  1
  O  O44  1  0.110656  0.771982  0.523155  1
  O  O45  1  0.596705  0.463458  0.683036  1
  O  O46  1  0.089343  0.635014  0.718316  1
  O  O47  1  0.237756  0.462936  0.477917  1
  O  O48  1  0.903295  0.536542  0.183036  1
  O  O49  1  0.589343  0.635014  0.781684  1
  O  O50  1  0.596705  0.036542  0.183036  1
  O  O51  1  0.910657  0.364986  0.281684  1
  O  O52  1  0.610656  0.728018  0.476845  1
  O  O53  1  0.737756  0.037064  0.522083  1
  O  O54  1  0.389344  0.271982  0.523155  1
  O  O55  1  0.889344  0.271982  0.976845  1
  O  O56  1  0.410657  0.364986  0.218316  1
  O  O57  1  0.403295  0.963458  0.816964  1
  O  O58  1  0.762244  0.537064  0.522083  1
  O  O59  1  0.610656  0.771982  0.976845  1
  O  O60  1  0.762244  0.962936  0.022083  1
  O  O61  1  0.410657  0.135014  0.718316  1
  O  O62  1  0.589343  0.864986  0.281684  1
  O  O63  1  0.262244  0.962936  0.477917  1
