# generated using pymatgen
data_CdI2
_symmetry_space_group_name_H-M   'P 1'
_cell_length_a   4.34483066
_cell_length_b   4.34483093
_cell_length_c   80.94515234
_cell_angle_alpha   90.00000000
_cell_angle_beta   90.00000000
_cell_angle_gamma   119.99999793
_symmetry_Int_Tables_number   1
_chemical_formula_structural   CdI2
_chemical_formula_sum   'Cd11 I22'
_cell_volume   1323.32714622
_cell_formula_units_Z   11
loop_
 _symmetry_equiv_pos_site_id
 _symmetry_equiv_pos_as_xyz
  1  'x, y, z'
loop_
 _atom_site_type_symbol
 _atom_site_label
 _atom_site_symmetry_multiplicity
 _atom_site_fract_x
 _atom_site_fract_y
 _atom_site_fract_z
 _atom_site_occupancy
  Cd  Cd0  1  0.666667  0.333333  0.204536  1
  Cd  Cd1  1  0.666667  0.333333  0.022731  1
  Cd  Cd2  1  0.333333  0.666667  0.113656  1
  Cd  Cd3  1  0.000000  0.000000  0.840921  1
  Cd  Cd4  1  0.666667  0.333333  0.386386  1
  Cd  Cd5  1  0.333333  0.666667  0.295458  1
  Cd  Cd6  1  0.333333  0.666667  0.477278  1
  Cd  Cd7  1  0.333333  0.666667  0.749995  1
  Cd  Cd8  1  0.333333  0.666667  0.931810  1
  Cd  Cd9  1  0.666667  0.333333  0.568170  1
  Cd  Cd10  1  0.333333  0.666667  0.659067  1
  I  I11  1  0.000000  0.000000  0.092266  1
  I  I12  1  0.333333  0.666667  0.589532  1
  I  I13  1  0.666667  0.333333  0.862295  1
  I  I14  1  0.666667  0.333333  0.680446  1
  I  I15  1  0.000000  0.000000  0.455891  1
  I  I16  1  0.333333  0.666667  0.407766  1
  I  I17  1  0.000000  0.000000  0.183162  1
  I  I18  1  0.000000  0.000000  0.637699  1
  I  I19  1  0.666667  0.333333  0.771366  1
  I  I20  1  0.666667  0.333333  0.953181  1
  I  I21  1  0.000000  0.000000  0.728606  1
  I  I22  1  0.000000  0.000000  0.546804  1
  I  I23  1  0.333333  0.666667  0.044110  1
  I  I24  1  0.333333  0.666667  0.819541  1
  I  I25  1  0.333333  0.666667  0.225908  1
  I  I26  1  0.000000  0.000000  0.910402  1
  I  I27  1  0.000000  0.000000  0.274091  1
  I  I28  1  0.000000  0.000000  0.001389  1
  I  I29  1  0.000000  0.000000  0.365015  1
  I  I30  1  0.666667  0.333333  0.498645  1
  I  I31  1  0.666667  0.333333  0.316846  1
  I  I32  1  0.666667  0.333333  0.135030  1
