# generated using pymatgen
data_H3NO4
_symmetry_space_group_name_H-M   'P 1'
_cell_length_a   5.30974613
_cell_length_b   8.37238643
_cell_length_c   6.61443938
_cell_angle_alpha   90.00000000
_cell_angle_beta   90.00000000
_cell_angle_gamma   90.00000000
_symmetry_Int_Tables_number   1
_chemical_formula_structural   H3NO4
_chemical_formula_sum   'H12 N4 O16'
_cell_volume   294.04653274
_cell_formula_units_Z   4
loop_
 _symmetry_equiv_pos_site_id
 _symmetry_equiv_pos_as_xyz
  1  'x, y, z'
loop_
 _atom_site_type_symbol
 _atom_site_label
 _atom_site_symmetry_multiplicity
 _atom_site_fract_x
 _atom_site_fract_y
 _atom_site_fract_z
 _atom_site_occupancy
  H  H0  1  0.666605  0.169662  0.898919  1
  H  H1  1  0.357653  0.181431  0.908196  1
  H  H2  1  0.522443  0.337642  0.855708  1
  H  H3  1  0.857653  0.818569  0.091804  1
  H  H4  1  0.022443  0.662358  0.144292  1
  H  H5  1  0.166605  0.830338  0.101081  1
  H  H6  1  0.857653  0.681431  0.591804  1
  H  H7  1  0.022443  0.837642  0.644292  1
  H  H8  1  0.166605  0.669662  0.601081  1
  H  H9  1  0.522443  0.162358  0.355708  1
  H  H10  1  0.666605  0.330338  0.398919  1
  H  H11  1  0.357653  0.318569  0.408195  1
  N  N12  1  0.022311  0.395937  0.784875  1
  N  N13  1  0.522311  0.604063  0.215125  1
  N  N14  1  0.522311  0.895937  0.715125  1
  N  N15  1  0.022311  0.104063  0.284875  1
  O  O16  1  0.814054  0.457978  0.733826  1
  O  O17  1  0.314054  0.542022  0.266174  1
  O  O18  1  0.314054  0.957978  0.766174  1
  O  O19  1  0.814054  0.042022  0.233826  1
  O  O20  1  0.228512  0.466606  0.742857  1
  O  O21  1  0.728512  0.533394  0.257143  1
  O  O22  1  0.728512  0.966606  0.757143  1
  O  O23  1  0.228512  0.033394  0.242857  1
  O  O24  1  0.025648  0.263756  0.878043  1
  O  O25  1  0.525648  0.736244  0.121957  1
  O  O26  1  0.525648  0.763756  0.621957  1
  O  O27  1  0.025648  0.236244  0.378043  1
  O  O28  1  0.519850  0.238087  0.940947  1
  O  O29  1  0.019850  0.761913  0.059053  1
  O  O30  1  0.019850  0.738087  0.559053  1
  O  O31  1  0.519850  0.261913  0.440947  1
