# generated using pymatgen
data_LiAlSiH2O5
_symmetry_space_group_name_H-M   'P 1'
_cell_length_a   4.87992281
_cell_length_b   8.86554321
_cell_length_c   12.06616820
_cell_angle_alpha   90.00000000
_cell_angle_beta   90.00000000
_cell_angle_gamma   90.00000000
_symmetry_Int_Tables_number   1
_chemical_formula_structural   LiAlSiH2O5
_chemical_formula_sum   'Li4 Al4 Si4 H8 O20'
_cell_volume   522.02064426
_cell_formula_units_Z   4
loop_
 _symmetry_equiv_pos_site_id
 _symmetry_equiv_pos_as_xyz
  1  'x, y, z'
loop_
 _atom_site_type_symbol
 _atom_site_label
 _atom_site_symmetry_multiplicity
 _atom_site_fract_x
 _atom_site_fract_y
 _atom_site_fract_z
 _atom_site_occupancy
  Li  Li0  1  0.071177  0.922473  0.617636  1
  Li  Li1  1  0.071177  0.577527  0.117636  1
  Li  Li2  1  0.571177  0.077527  0.382364  1
  Li  Li3  1  0.571177  0.422473  0.882364  1
  Al  Al4  1  0.605905  0.680201  0.274780  1
  Al  Al5  1  0.105905  0.180201  0.225220  1
  Al  Al6  1  0.605905  0.819799  0.774780  1
  Al  Al7  1  0.105905  0.319799  0.725220  1
  Si  Si8  1  0.829865  0.631144  0.703683  1
  Si  Si9  1  0.329865  0.368856  0.296317  1
  Si  Si10  1  0.329865  0.131144  0.796317  1
  Si  Si11  1  0.829865  0.868856  0.203683  1
  H  H12  1  0.220104  0.823851  0.427675  1
  H  H13  1  0.412805  0.124691  0.578769  1
  H  H14  1  0.912805  0.875309  0.421231  1
  H  H15  1  0.720104  0.323851  0.072325  1
  H  H16  1  0.720104  0.176149  0.572325  1
  H  H17  1  0.412805  0.375309  0.078769  1
  H  H18  1  0.912805  0.624691  0.921231  1
  H  H19  1  0.220104  0.676149  0.927675  1
  O  O20  1  0.576078  0.779630  0.140007  1
  O  O21  1  0.158352  0.375193  0.169401  1
  O  O22  1  0.658352  0.624807  0.830599  1
  O  O23  1  0.576078  0.720370  0.640007  1
  O  O24  1  0.088543  0.610913  0.963974  1
  O  O25  1  0.494704  0.291438  0.759506  1
  O  O26  1  0.994704  0.791438  0.740494  1
  O  O27  1  0.076078  0.279630  0.359993  1
  O  O28  1  0.482367  0.519547  0.334018  1
  O  O29  1  0.076078  0.220370  0.859993  1
  O  O30  1  0.482367  0.980453  0.834018  1
  O  O31  1  0.994704  0.708562  0.240494  1
  O  O32  1  0.982367  0.019547  0.165982  1
  O  O33  1  0.588543  0.110913  0.536026  1
  O  O34  1  0.658352  0.875193  0.330599  1
  O  O35  1  0.494704  0.208562  0.259506  1
  O  O36  1  0.158352  0.124807  0.669401  1
  O  O37  1  0.088543  0.889087  0.463974  1
  O  O38  1  0.588543  0.389087  0.036026  1
  O  O39  1  0.982367  0.480453  0.665982  1
