# generated using pymatgen
data_Al2P3H11O13
_symmetry_space_group_name_H-M   'P 1'
_cell_length_a   7.72197001
_cell_length_b   8.18792004
_cell_length_c   10.04941372
_cell_angle_alpha   90.00000000
_cell_angle_beta   90.00000000
_cell_angle_gamma   111.75224880
_symmetry_Int_Tables_number   1
_chemical_formula_structural   Al2P3H11O13
_chemical_formula_sum   'Al4 P6 H22 O26'
_cell_volume   590.14985134
_cell_formula_units_Z   2
loop_
 _symmetry_equiv_pos_site_id
 _symmetry_equiv_pos_as_xyz
  1  'x, y, z'
loop_
 _atom_site_type_symbol
 _atom_site_label
 _atom_site_symmetry_multiplicity
 _atom_site_fract_x
 _atom_site_fract_y
 _atom_site_fract_z
 _atom_site_occupancy
  Al  Al0  1  0.436115  0.975158  0.146487  1
  Al  Al1  1  0.912749  0.631688  0.423232  1
  Al  Al2  1  0.563885  0.024842  0.646487  1
  Al  Al3  1  0.087251  0.368312  0.923232  1
  P  P4  1  0.254103  0.009042  0.419595  1
  P  P5  1  0.745896  0.990958  0.919595  1
  P  P6  1  0.955786  0.348964  0.624965  1
  P  P7  1  0.281255  0.082122  0.868820  1
  P  P8  1  0.044214  0.651036  0.124965  1
  P  P9  1  0.718745  0.917878  0.368820  1
  H  H10  1  0.039928  0.226996  0.599997  1
  H  H11  1  0.206659  0.378049  0.182072  1
  H  H12  1  0.149816  0.918068  0.828877  1
  H  H13  1  0.960072  0.773004  0.099998  1
  H  H14  1  0.850184  0.081932  0.328877  1
  H  H15  1  0.785707  0.786818  0.598515  1
  H  H16  1  0.266248  0.761281  0.588085  1
  H  H17  1  0.865622  0.901767  0.949003  1
  H  H18  1  0.551172  0.465091  0.389481  1
  H  H19  1  0.214293  0.213182  0.098515  1
  H  H20  1  0.604415  0.376642  0.807876  1
  H  H21  1  0.627566  0.334982  0.468845  1
  H  H22  1  0.670354  0.298629  0.229259  1
  H  H23  1  0.733752  0.238719  0.088085  1
  H  H24  1  0.236961  0.489432  0.392450  1
  H  H25  1  0.395585  0.623358  0.307876  1
  H  H26  1  0.372434  0.665018  0.968845  1
  H  H27  1  0.448828  0.534909  0.889481  1
  H  H28  1  0.134378  0.098233  0.449003  1
  H  H29  1  0.329646  0.701371  0.729259  1
  H  H30  1  0.763039  0.510568  0.892450  1
  H  H31  1  0.793341  0.621951  0.682072  1
  O  O32  1  0.836824  0.692153  0.600017  1
  O  O33  1  0.743105  0.253199  0.627714  1
  O  O34  1  0.577763  0.917288  0.013409  1
  O  O35  1  0.303724  0.051052  0.272929  1
  O  O36  1  0.364150  0.789165  0.657718  1
  O  O37  1  0.422237  0.082712  0.513409  1
  O  O38  1  0.315304  0.069165  0.018501  1
  O  O39  1  0.662642  0.433282  0.404759  1
  O  O40  1  0.343215  0.498594  0.334792  1
  O  O41  1  0.635850  0.210835  0.157718  1
  O  O42  1  0.656785  0.501406  0.834792  1
  O  O43  1  0.989473  0.520876  0.007424  1
  O  O44  1  0.163176  0.307847  0.100017  1
  O  O45  1  0.543884  0.880340  0.283336  1
  O  O46  1  0.684696  0.930835  0.518501  1
  O  O47  1  0.851599  0.187814  0.947904  1
  O  O48  1  0.148401  0.812186  0.447904  1
  O  O49  1  0.965820  0.558813  0.256375  1
  O  O50  1  0.256895  0.746801  0.127714  1
  O  O51  1  0.010527  0.479124  0.507424  1
  O  O52  1  0.337358  0.566718  0.904759  1
  O  O53  1  0.803730  0.778240  0.345871  1
  O  O54  1  0.456116  0.119660  0.783336  1
  O  O55  1  0.034180  0.441187  0.756375  1
  O  O56  1  0.196270  0.221760  0.845871  1
  O  O57  1  0.696276  0.948948  0.772929  1
