# generated using pymatgen
data_Na2CdO2
_symmetry_space_group_name_H-M   'P 1'
_cell_length_a   9.40939875
_cell_length_b   9.41654842
_cell_length_c   9.40170064
_cell_angle_alpha   109.44225954
_cell_angle_beta   109.66507862
_cell_angle_gamma   109.44296626
_symmetry_Int_Tables_number   1
_chemical_formula_structural   Na2CdO2
_chemical_formula_sum   'Na16 Cd8 O16'
_cell_volume   640.17980195
_cell_formula_units_Z   8
loop_
 _symmetry_equiv_pos_site_id
 _symmetry_equiv_pos_as_xyz
  1  'x, y, z'
loop_
 _atom_site_type_symbol
 _atom_site_label
 _atom_site_symmetry_multiplicity
 _atom_site_fract_x
 _atom_site_fract_y
 _atom_site_fract_z
 _atom_site_occupancy
  Na  Na0  1  0.034815  0.490134  0.768215  1
  Na  Na1  1  0.233546  0.965848  0.509573  1
  Na  Na2  1  0.227489  0.274907  0.738308  1
  Na  Na3  1  0.011169  0.045574  0.269671  1
  Na  Na4  1  0.225182  0.450362  0.463649  1
  Na  Na5  1  0.043023  0.272840  0.009153  1
  Na  Na6  1  0.279709  0.746483  0.232472  1
  Na  Na7  1  0.728766  0.986011  0.950147  1
  Na  Na8  1  0.529512  0.762254  0.541980  1
  Na  Na9  1  0.499898  0.236171  0.957025  1
  Na  Na10  1  0.489928  0.768275  0.039654  1
  Na  Na11  1  0.450090  0.458786  0.225404  1
  Na  Na12  1  0.277976  0.015431  0.049627  1
  Na  Na13  1  0.732160  0.267434  0.783522  1
  Na  Na14  1  0.966261  0.733057  0.996294  1
  Na  Na15  1  0.775334  0.548862  0.535159  1
  Cd  Cd16  1  0.264943  0.770061  0.729805  1
  Cd  Cd17  1  0.542004  0.538681  0.777937  1
  Cd  Cd18  1  0.456100  0.224140  0.451404  1
  Cd  Cd19  1  0.001335  0.962685  0.740363  1
  Cd  Cd20  1  0.768064  0.721744  0.255122  1
  Cd  Cd21  1  0.730168  0.216992  0.261323  1
  Cd  Cd22  1  0.753389  0.030397  0.490504  1
  Cd  Cd23  1  0.971612  0.514249  0.233955  1
  O  O24  1  0.041855  0.755516  0.777789  1
  O  O25  1  0.225750  0.975599  0.257817  1
  O  O26  1  0.983219  0.988745  0.494895  1
  O  O27  1  0.288942  0.542715  0.752289  1
  O  O28  1  0.242544  0.714323  0.472618  1
  O  O29  1  0.244377  0.212313  0.960711  1
  O  O30  1  0.470245  0.262560  0.712170  1
  O  O31  1  0.503664  0.492138  0.507937  1
  O  O32  1  0.546142  0.753801  0.290078  1
  O  O33  1  0.747603  0.772498  0.033220  1
  O  O34  1  0.739665  0.269555  0.514605  1
  O  O35  1  0.727125  0.471502  0.249418  1
  O  O36  1  0.501842  0.001627  0.997442  1
  O  O37  1  0.788839  0.027960  0.741292  1
  O  O38  1  0.953383  0.252917  0.217884  1
  O  O39  1  0.002333  0.504856  0.009567  1
