# generated using pymatgen
data_Yb(CeS2)2
_symmetry_space_group_name_H-M   'P 1'
_cell_length_a   7.38294883
_cell_length_b   7.38294904
_cell_length_c   7.38294868
_cell_angle_alpha   109.67949436
_cell_angle_beta   109.05547697
_cell_angle_gamma   109.67949369
_symmetry_Int_Tables_number   1
_chemical_formula_structural   Yb(CeS2)2
_chemical_formula_sum   'Yb2 Ce4 S8'
_cell_volume   309.77796809
_cell_formula_units_Z   2
loop_
 _symmetry_equiv_pos_site_id
 _symmetry_equiv_pos_as_xyz
  1  'x, y, z'
loop_
 _atom_site_type_symbol
 _atom_site_label
 _atom_site_symmetry_multiplicity
 _atom_site_fract_x
 _atom_site_fract_y
 _atom_site_fract_z
 _atom_site_occupancy
  Yb  Yb0  1  0.125000  0.750000  0.875000  1
  Yb  Yb1  1  0.375000  0.250000  0.625000  1
  Ce  Ce2  1  0.250000  0.628168  0.378168  1
  Ce  Ce3  1  0.621832  0.371832  0.250000  1
  Ce  Ce4  1  0.750000  0.871832  0.121832  1
  Ce  Ce5  1  0.878168  0.128168  0.750000  1
  S  S6  1  0.000997  0.853506  0.499215  1
  S  S7  1  0.999215  0.353506  0.500997  1
  S  S8  1  0.147491  0.146494  0.145709  1
  S  S9  1  0.352509  0.498218  0.999003  1
  S  S10  1  0.645709  0.646494  0.647491  1
  S  S11  1  0.499003  0.998218  0.852509  1
  S  S12  1  0.500785  0.001782  0.354291  1
  S  S13  1  0.854291  0.501782  0.000785  1
