# generated using pymatgen
data_SbC(N3Cl2)3
_symmetry_space_group_name_H-M   'P 1'
_cell_length_a   9.43194298
_cell_length_b   11.14275686
_cell_length_c   14.58928946
_cell_angle_alpha   90.00000000
_cell_angle_beta   102.94156545
_cell_angle_gamma   90.00000000
_symmetry_Int_Tables_number   1
_chemical_formula_structural   SbC(N3Cl2)3
_chemical_formula_sum   'Sb4 C4 N36 Cl24'
_cell_volume   1494.35545799
_cell_formula_units_Z   4
loop_
 _symmetry_equiv_pos_site_id
 _symmetry_equiv_pos_as_xyz
  1  'x, y, z'
loop_
 _atom_site_type_symbol
 _atom_site_label
 _atom_site_symmetry_multiplicity
 _atom_site_fract_x
 _atom_site_fract_y
 _atom_site_fract_z
 _atom_site_occupancy
  Sb  Sb0  1  0.089115  0.728651  0.874316  1
  Sb  Sb1  1  0.589115  0.771349  0.374316  1
  Sb  Sb2  1  0.410885  0.228651  0.625684  1
  Sb  Sb3  1  0.910885  0.271349  0.125684  1
  C  C4  1  0.597799  0.751224  0.899160  1
  C  C5  1  0.402201  0.248776  0.100840  1
  C  C6  1  0.902201  0.251224  0.600840  1
  C  C7  1  0.097799  0.748776  0.399160  1
  N  N8  1  0.159028  0.884508  0.605563  1
  N  N9  1  0.863023  0.184432  0.453026  1
  N  N10  1  0.400142  0.363006  0.132613  1
  N  N11  1  0.888074  0.273046  0.507973  1
  N  N12  1  0.589296  0.044777  0.892909  1
  N  N13  1  0.089296  0.455223  0.392909  1
  N  N14  1  0.080311  0.656832  0.336757  1
  N  N15  1  0.591584  0.601644  0.705067  1
  N  N16  1  0.419689  0.156832  0.163243  1
  N  N17  1  0.919689  0.343168  0.663243  1
  N  N18  1  0.388074  0.226954  0.007973  1
  N  N19  1  0.611926  0.773046  0.992027  1
  N  N20  1  0.410704  0.955223  0.107091  1
  N  N21  1  0.900142  0.136994  0.632613  1
  N  N22  1  0.091584  0.898356  0.205067  1
  N  N23  1  0.414201  0.052644  0.129324  1
  N  N24  1  0.580311  0.843168  0.836757  1
  N  N25  1  0.599858  0.636994  0.867387  1
  N  N26  1  0.905845  0.125804  0.719240  1
  N  N27  1  0.594155  0.625804  0.780760  1
  N  N28  1  0.363023  0.315568  0.953026  1
  N  N29  1  0.405845  0.374196  0.219240  1
  N  N30  1  0.636977  0.684432  0.046974  1
  N  N31  1  0.340972  0.384508  0.894437  1
  N  N32  1  0.908416  0.101644  0.794933  1
  N  N33  1  0.408416  0.398356  0.294933  1
  N  N34  1  0.585799  0.947356  0.870676  1
  N  N35  1  0.094155  0.874196  0.280760  1
  N  N36  1  0.840972  0.115492  0.394437  1
  N  N37  1  0.136977  0.815568  0.546974  1
  N  N38  1  0.659028  0.615492  0.105563  1
  N  N39  1  0.099858  0.863006  0.367387  1
  N  N40  1  0.111926  0.726954  0.492027  1
  N  N41  1  0.085799  0.552644  0.370676  1
  N  N42  1  0.910704  0.544777  0.607091  1
  N  N43  1  0.914201  0.447356  0.629324  1
  Cl  Cl44  1  0.218269  0.917916  0.881524  1
  Cl  Cl45  1  0.724652  0.846351  0.262997  1
  Cl  Cl46  1  0.903424  0.805886  0.745061  1
  Cl  Cl47  1  0.403424  0.694114  0.245061  1
  Cl  Cl48  1  0.718269  0.582084  0.381524  1
  Cl  Cl49  1  0.224652  0.653649  0.762997  1
  Cl  Cl50  1  0.596576  0.305886  0.754939  1
  Cl  Cl51  1  0.040949  0.459668  0.136522  1
  Cl  Cl52  1  0.727708  0.349009  0.996641  1
  Cl  Cl53  1  0.956017  0.806724  0.984587  1
  Cl  Cl54  1  0.772292  0.849009  0.503359  1
  Cl  Cl55  1  0.959051  0.540332  0.863478  1
  Cl  Cl56  1  0.459051  0.959668  0.363478  1
  Cl  Cl57  1  0.775348  0.346351  0.237003  1
  Cl  Cl58  1  0.543983  0.306724  0.515413  1
  Cl  Cl59  1  0.096576  0.194114  0.254939  1
  Cl  Cl60  1  0.540949  0.040332  0.636522  1
  Cl  Cl61  1  0.227708  0.150991  0.496641  1
  Cl  Cl62  1  0.272292  0.650991  0.003359  1
  Cl  Cl63  1  0.043983  0.193276  0.015413  1
  Cl  Cl64  1  0.281731  0.417916  0.618476  1
  Cl  Cl65  1  0.781731  0.082084  0.118476  1
  Cl  Cl66  1  0.275348  0.153649  0.737003  1
  Cl  Cl67  1  0.456017  0.693276  0.484587  1
