# generated using pymatgen
data_V3(HO4)2
_symmetry_space_group_name_H-M   'P 1'
_cell_length_a   17.02714974
_cell_length_b   9.34771016
_cell_length_c   3.72412464
_cell_angle_alpha   90.00000000
_cell_angle_beta   91.49346211
_cell_angle_gamma   90.00000000
_symmetry_Int_Tables_number   1
_chemical_formula_structural   V3(HO4)2
_chemical_formula_sum   'V12 H8 O32'
_cell_volume   592.54842566
_cell_formula_units_Z   4
loop_
 _symmetry_equiv_pos_site_id
 _symmetry_equiv_pos_as_xyz
  1  'x, y, z'
loop_
 _atom_site_type_symbol
 _atom_site_label
 _atom_site_symmetry_multiplicity
 _atom_site_fract_x
 _atom_site_fract_y
 _atom_site_fract_z
 _atom_site_occupancy
  V  V0  1  0.547489  0.376774  0.251473  1
  V  V1  1  0.047489  0.123226  0.251473  1
  V  V2  1  0.452511  0.623226  0.748527  1
  V  V3  1  0.952511  0.876774  0.748527  1
  V  V4  1  0.345016  0.441362  0.227915  1
  V  V5  1  0.845016  0.058638  0.227915  1
  V  V6  1  0.654984  0.558638  0.772085  1
  V  V7  1  0.154984  0.941362  0.772085  1
  V  V8  1  0.950030  0.406936  0.249791  1
  V  V9  1  0.450030  0.093064  0.249791  1
  V  V10  1  0.049970  0.593064  0.750209  1
  V  V11  1  0.549970  0.906936  0.750209  1
  H  H12  1  0.252749  0.221515  0.015603  1
  H  H13  1  0.752749  0.278485  0.015603  1
  H  H14  1  0.747251  0.778486  0.984397  1
  H  H15  1  0.247251  0.721514  0.984397  1
  H  H16  1  0.252951  0.619776  0.445210  1
  H  H17  1  0.752951  0.880224  0.445210  1
  H  H18  1  0.747049  0.380224  0.554790  1
  H  H19  1  0.247049  0.119776  0.554790  1
  O  O20  1  0.456360  0.570605  0.243934  1
  O  O21  1  0.956360  0.929395  0.243934  1
  O  O22  1  0.543640  0.429395  0.756066  1
  O  O23  1  0.043640  0.070605  0.756066  1
  O  O24  1  0.594869  0.226307  0.257036  1
  O  O25  1  0.094869  0.273693  0.257036  1
  O  O26  1  0.405131  0.773693  0.742964  1
  O  O27  1  0.905131  0.726307  0.742964  1
  O  O28  1  0.627892  0.520413  0.269740  1
  O  O29  1  0.127892  0.979587  0.269740  1
  O  O30  1  0.372108  0.479587  0.730260  1
  O  O31  1  0.872108  0.020413  0.730260  1
  O  O32  1  0.443764  0.290554  0.247709  1
  O  O33  1  0.943764  0.209446  0.247709  1
  O  O34  1  0.556236  0.709446  0.752291  1
  O  O35  1  0.056236  0.790554  0.752291  1
  O  O36  1  0.279733  0.300929  0.181742  1
  O  O37  1  0.779733  0.199071  0.181742  1
  O  O38  1  0.720267  0.699071  0.818258  1
  O  O39  1  0.220267  0.800929  0.818258  1
  O  O40  1  0.279218  0.606547  0.217242  1
  O  O41  1  0.779218  0.893453  0.217242  1
  O  O42  1  0.720782  0.393453  0.782758  1
  O  O43  1  0.220782  0.106547  0.782758  1
  O  O44  1  0.020559  0.575033  0.250201  1
  O  O45  1  0.520559  0.924967  0.250201  1
  O  O46  1  0.979441  0.424967  0.749799  1
  O  O47  1  0.479441  0.075033  0.749799  1
  O  O48  1  0.860927  0.460821  0.248415  1
  O  O49  1  0.360927  0.039179  0.248415  1
  O  O50  1  0.139073  0.539179  0.751585  1
  O  O51  1  0.639073  0.960821  0.751585  1
