# generated using pymatgen
data_Ce(NiAs)2
_symmetry_space_group_name_H-M   'P 1'
_cell_length_a   4.14301775
_cell_length_b   4.14311703
_cell_length_c   9.12948794
_cell_angle_alpha   89.99973580
_cell_angle_beta   90.00038868
_cell_angle_gamma   89.99632237
_symmetry_Int_Tables_number   1
_chemical_formula_structural   Ce(NiAs)2
_chemical_formula_sum   'Ce2 Ni4 As4'
_cell_volume   156.70772784
_cell_formula_units_Z   2
loop_
 _symmetry_equiv_pos_site_id
 _symmetry_equiv_pos_as_xyz
  1  'x, y, z'
loop_
 _atom_site_type_symbol
 _atom_site_label
 _atom_site_symmetry_multiplicity
 _atom_site_fract_x
 _atom_site_fract_y
 _atom_site_fract_z
 _atom_site_occupancy
  Ce  Ce0  1  0.250004  0.250015  0.252571  1
  Ce  Ce1  1  0.749993  0.750005  0.747462  1
  Ni  Ni2  1  0.249988  0.250005  0.882809  1
  Ni  Ni3  1  0.250002  0.749997  0.499960  1
  Ni  Ni4  1  0.750007  0.749994  0.117230  1
  Ni  Ni5  1  0.749987  0.249998  0.499953  1
  As  As6  1  0.750012  0.749995  0.370298  1
  As  As7  1  0.249992  0.749991  0.000030  1
  As  As8  1  0.750012  0.250003  0.000034  1
  As  As9  1  0.250002  0.249996  0.629652  1
