# generated using pymatgen
data_K2Mn2Be3F12
_symmetry_space_group_name_H-M   'P 1'
_cell_length_a   10.26593798
_cell_length_b   10.23496717
_cell_length_c   20.42782547
_cell_angle_alpha   89.95157887
_cell_angle_beta   90.00000000
_cell_angle_gamma   90.00000000
_symmetry_Int_Tables_number   1
_chemical_formula_structural   K2Mn2Be3F12
_chemical_formula_sum   'K16 Mn16 Be24 F96'
_cell_volume   2146.38227835
_cell_formula_units_Z   8
loop_
 _symmetry_equiv_pos_site_id
 _symmetry_equiv_pos_as_xyz
  1  'x, y, z'
loop_
 _atom_site_type_symbol
 _atom_site_label
 _atom_site_symmetry_multiplicity
 _atom_site_fract_x
 _atom_site_fract_y
 _atom_site_fract_z
 _atom_site_occupancy
  K  K0  1  0.563880  0.197978  0.969112  1
  K  K1  1  0.302593  0.039515  0.656375  1
  K  K2  1  0.785276  0.934954  0.851377  1
  K  K3  1  0.935210  0.314758  0.716971  1
  K  K4  1  0.285276  0.065046  0.148623  1
  K  K5  1  0.699897  0.539830  0.099443  1
  K  K6  1  0.687131  0.545327  0.603725  1
  K  K7  1  0.063880  0.802022  0.030888  1
  K  K8  1  0.553851  0.171405  0.476712  1
  K  K9  1  0.435210  0.685242  0.283029  1
  K  K10  1  0.927767  0.322544  0.220588  1
  K  K11  1  0.427767  0.677456  0.779412  1
  K  K12  1  0.199897  0.460170  0.900557  1
  K  K13  1  0.053851  0.828595  0.523288  1
  K  K14  1  0.802593  0.960485  0.343625  1
  K  K15  1  0.187131  0.454673  0.396275  1
  Mn  Mn16  1  0.156019  0.099506  0.333266  1
  Mn  Mn17  1  0.848962  0.585990  0.923766  1
  Mn  Mn18  1  0.083942  0.683932  0.700675  1
  Mn  Mn19  1  0.425464  0.844817  0.950168  1
  Mn  Mn20  1  0.896220  0.191656  0.540963  1
  Mn  Mn21  1  0.575514  0.325468  0.788813  1
  Mn  Mn22  1  0.633181  0.899886  0.168029  1
  Mn  Mn23  1  0.583942  0.316068  0.299325  1
  Mn  Mn24  1  0.925464  0.155183  0.049832  1
  Mn  Mn25  1  0.348961  0.414010  0.076234  1
  Mn  Mn26  1  0.338294  0.388576  0.584726  1
  Mn  Mn27  1  0.656019  0.900494  0.666734  1
  Mn  Mn28  1  0.838294  0.611424  0.415274  1
  Mn  Mn29  1  0.396220  0.808344  0.459037  1
  Mn  Mn30  1  0.075514  0.674532  0.211187  1
  Mn  Mn31  1  0.133181  0.100114  0.831971  1
  Be  Be32  1  0.247091  0.381039  0.739035  1
  Be  Be33  1  0.622681  0.215847  0.133397  1
  Be  Be34  1  0.455307  0.012423  0.805865  1
  Be  Be35  1  0.731909  0.869743  0.014717  1
  Be  Be36  1  0.955307  0.987577  0.194135  1
  Be  Be37  1  0.959062  0.992825  0.686433  1
  Be  Be38  1  0.862645  0.270120  0.888682  1
  Be  Be39  1  0.122092  0.785864  0.361494  1
  Be  Be40  1  0.034409  0.481998  0.065459  1
  Be  Be41  1  0.534409  0.518002  0.934541  1
  Be  Be42  1  0.622092  0.214136  0.638506  1
  Be  Be43  1  0.872589  0.289244  0.383033  1
  Be  Be44  1  0.541666  0.503564  0.447724  1
  Be  Be45  1  0.231909  0.130257  0.985283  1
  Be  Be46  1  0.041666  0.496436  0.552276  1
  Be  Be47  1  0.362645  0.729880  0.111318  1
  Be  Be48  1  0.763461  0.616307  0.757944  1
  Be  Be49  1  0.122681  0.784153  0.866603  1
  Be  Be50  1  0.728177  0.883148  0.509594  1
  Be  Be51  1  0.263461  0.383693  0.242056  1
  Be  Be52  1  0.228177  0.116852  0.490406  1
  Be  Be53  1  0.372589  0.710756  0.616967  1
  Be  Be54  1  0.747091  0.618961  0.260965  1
  Be  Be55  1  0.459062  0.007175  0.313567  1
  F  F56  1  0.305108  0.015864  0.794057  1
  F  F57  1  0.181169  0.518697  0.747065  1
  F  F58  1  0.501303  0.147990  0.831808  1
  F  F59  1  0.675989  0.491589  0.960814  1
  F  F60  1  0.723015  0.272488  0.589236  1
  F  F61  1  0.591226  0.070649  0.617408  1
  F  F62  1  0.560673  0.401543  0.392047  1
  F  F63  1  0.687538  0.800054  0.078712  1
  F  F64  1  0.933184  0.406189  0.889907  1
  F  F65  1  0.581497  0.887599  0.488397  1
  F  F66  1  0.800014  0.773068  0.965628  1
  F  F67  1  0.897401  0.597037  0.722594  1
  F  F68  1  0.462258  0.622468  0.421686  1
  F  F69  1  0.119995  0.768223  0.791692  1
  F  F70  1  0.495942  0.902347  0.854944  1
  F  F71  1  0.619995  0.231777  0.208308  1
  F  F72  1  0.673270  0.224106  0.710540  1
  F  F73  1  0.285214  0.974182  0.494143  1
  F  F74  1  0.432427  0.448840  0.980566  1
  F  F75  1  0.805108  0.984136  0.205943  1
  F  F76  1  0.513751  0.666813  0.930849  1
  F  F77  1  0.785214  0.025818  0.505857  1
  F  F78  1  0.495189  0.796848  0.626809  1
  F  F79  1  0.317723  0.729050  0.546786  1
  F  F80  1  0.495082  0.295039  0.633154  1
  F  F81  1  0.113604  0.064898  0.020945  1
  F  F82  1  0.893814  0.604944  0.245034  1
  F  F83  1  0.393814  0.395056  0.754966  1
  F  F84  1  0.072019  0.924880  0.883428  1
  F  F85  1  0.091226  0.929351  0.382592  1
  F  F86  1  0.678909  0.722346  0.722223  1
  F  F87  1  0.681169  0.481303  0.252935  1
  F  F88  1  0.687018  0.485081  0.748090  1
  F  F89  1  0.510828  0.459424  0.865296  1
  F  F90  1  0.060673  0.598457  0.607953  1
  F  F91  1  0.826120  0.958602  0.720646  1
  F  F92  1  0.724158  0.674236  0.331393  1
  F  F93  1  0.520279  0.133137  0.343837  1
  F  F94  1  0.177413  0.289942  0.790138  1
  F  F95  1  0.763632  0.241444  0.106037  1
  F  F96  1  0.187019  0.514919  0.251910  1
  F  F97  1  0.272692  0.757112  0.670522  1
  F  F98  1  0.010828  0.540576  0.134704  1
  F  F99  1  0.279269  0.343655  0.168728  1
  F  F100  1  0.326120  0.041398  0.279354  1
  F  F101  1  0.250665  0.175536  0.420336  1
  F  F102  1  0.933650  0.098158  0.632239  1
  F  F103  1  0.178909  0.277654  0.277777  1
  F  F104  1  0.311125  0.196506  0.541543  1
  F  F105  1  0.056887  0.056166  0.735581  1
  F  F106  1  0.962258  0.377532  0.578314  1
  F  F107  1  0.397401  0.402963  0.277406  1
  F  F108  1  0.001303  0.852010  0.168192  1
  F  F109  1  0.177583  0.448350  0.526800  1
  F  F110  1  0.339124  0.028176  0.966207  1
  F  F111  1  0.779269  0.656345  0.831272  1
  F  F112  1  0.034415  0.678911  0.901868  1
  F  F113  1  0.750665  0.824464  0.579664  1
  F  F114  1  0.223015  0.727512  0.410764  1
  F  F115  1  0.020279  0.866863  0.656163  1
  F  F116  1  0.938806  0.169598  0.845408  1
  F  F117  1  0.613604  0.935102  0.979055  1
  F  F118  1  0.811125  0.803494  0.458457  1
  F  F119  1  0.932427  0.551160  0.019434  1
  F  F120  1  0.839124  0.971824  0.033793  1
  F  F121  1  0.013751  0.333187  0.069151  1
  F  F122  1  0.175989  0.508411  0.039186  1
  F  F123  1  0.226585  0.717111  0.143842  1
  F  F124  1  0.019934  0.026622  0.260624  1
  F  F125  1  0.263632  0.758556  0.893963  1
  F  F126  1  0.995942  0.097653  0.145056  1
  F  F127  1  0.677583  0.551650  0.473200  1
  F  F128  1  0.433184  0.593811  0.110093  1
  F  F129  1  0.995082  0.704961  0.366846  1
  F  F130  1  0.995189  0.203152  0.373191  1
  F  F131  1  0.534415  0.321089  0.098132  1
  F  F132  1  0.224158  0.325764  0.668607  1
  F  F133  1  0.556887  0.943834  0.264419  1
  F  F134  1  0.572019  0.075120  0.116572  1
  F  F135  1  0.841195  0.212020  0.958914  1
  F  F136  1  0.438806  0.830402  0.154592  1
  F  F137  1  0.519934  0.973378  0.739376  1
  F  F138  1  0.726585  0.282889  0.856158  1
  F  F139  1  0.772692  0.242888  0.329478  1
  F  F140  1  0.470308  0.431367  0.505160  1
  F  F141  1  0.173270  0.775894  0.289460  1
  F  F142  1  0.677413  0.710058  0.209862  1
  F  F143  1  0.909612  0.435463  0.370858  1
  F  F144  1  0.300014  0.226932  0.034372  1
  F  F145  1  0.970308  0.568633  0.494840  1
  F  F146  1  0.081497  0.112401  0.511603  1
  F  F147  1  0.187538  0.199946  0.921288  1
  F  F148  1  0.433650  0.901842  0.367761  1
  F  F149  1  0.409612  0.564537  0.629142  1
  F  F150  1  0.341195  0.787980  0.041086  1
  F  F151  1  0.817723  0.270950  0.453214  1
