# generated using pymatgen
data_Te(HO2)2
_symmetry_space_group_name_H-M   'P 1'
_cell_length_a   5.88475656
_cell_length_b   4.89420296
_cell_length_c   5.38621877
_cell_angle_alpha   90.00000000
_cell_angle_beta   116.94729834
_cell_angle_gamma   90.00000000
_symmetry_Int_Tables_number   1
_chemical_formula_structural   Te(HO2)2
_chemical_formula_sum   'Te2 H4 O8'
_cell_volume   138.28614174
_cell_formula_units_Z   2
loop_
 _symmetry_equiv_pos_site_id
 _symmetry_equiv_pos_as_xyz
  1  'x, y, z'
loop_
 _atom_site_type_symbol
 _atom_site_label
 _atom_site_symmetry_multiplicity
 _atom_site_fract_x
 _atom_site_fract_y
 _atom_site_fract_z
 _atom_site_occupancy
  Te  Te0  1  0.000000  0.500000  0.500000  1
  Te  Te1  1  0.000000  0.000000  0.000000  1
  H  H2  1  0.393178  0.204762  0.718609  1
  H  H3  1  0.606822  0.704762  0.781391  1
  H  H4  1  0.606822  0.795238  0.281391  1
  H  H5  1  0.393178  0.295238  0.218609  1
  O  O6  1  0.353261  0.389679  0.632751  1
  O  O7  1  0.646739  0.889679  0.867249  1
  O  O8  1  0.646739  0.610321  0.367249  1
  O  O9  1  0.353261  0.110321  0.132751  1
  O  O10  1  0.893855  0.178336  0.637084  1
  O  O11  1  0.106145  0.678336  0.862916  1
  O  O12  1  0.106145  0.821664  0.362916  1
  O  O13  1  0.893855  0.321664  0.137084  1
