# generated using pymatgen
data_K23Na8(CdIn4)12
_symmetry_space_group_name_H-M   'P 1'
_cell_length_a   17.58469252
_cell_length_b   17.58293914
_cell_length_c   10.69192518
_cell_angle_alpha   90.01986204
_cell_angle_beta   89.99873756
_cell_angle_gamma   119.99234887
_symmetry_Int_Tables_number   1
_chemical_formula_structural   K23Na8(CdIn4)12
_chemical_formula_sum   'K23 Na8 Cd12 In48'
_cell_volume   2863.16409924
_cell_formula_units_Z   1
loop_
 _symmetry_equiv_pos_site_id
 _symmetry_equiv_pos_as_xyz
  1  'x, y, z'
loop_
 _atom_site_type_symbol
 _atom_site_label
 _atom_site_symmetry_multiplicity
 _atom_site_fract_x
 _atom_site_fract_y
 _atom_site_fract_z
 _atom_site_occupancy
  K  K0  1  0.791292  0.208593  0.695612  1
  K  K1  1  0.000071  0.369677  0.499995  1
  K  K2  1  0.582708  0.791471  0.695731  1
  K  K3  1  0.791309  0.582660  0.695714  1
  K  K4  1  0.630367  0.999948  0.499941  1
  K  K5  1  0.666583  0.333262  0.198872  1
  K  K6  1  0.208700  0.791350  0.304435  1
  K  K7  1  0.630389  0.630467  0.499880  1
  K  K8  1  0.333346  0.666669  0.801112  1
  K  K9  1  0.208585  0.417423  0.695745  1
  K  K10  1  0.791425  0.582692  0.304309  1
  K  K11  1  0.208709  0.791316  0.695490  1
  K  K12  1  0.369629  0.369603  0.499960  1
  K  K13  1  0.666791  0.333385  0.801147  1
  K  K14  1  0.417271  0.208604  0.695597  1
  K  K15  1  0.333396  0.666598  0.198741  1
  K  K16  1  0.582631  0.791347  0.304217  1
  K  K17  1  0.791295  0.208680  0.304505  1
  K  K18  1  0.369524  0.999848  0.499955  1
  K  K19  1  0.000091  0.630397  0.499946  1
  K  K20  1  0.208607  0.417363  0.304223  1
  K  K21  1  0.999928  0.999871  0.000010  1
  K  K22  1  0.417498  0.208763  0.304211  1
  Na  Na23  1  0.861371  0.722880  0.000070  1
  Na  Na24  1  -0.000025  0.000031  0.653621  1
  Na  Na25  1  0.138517  0.277137  0.000017  1
  Na  Na26  1  0.861450  0.138561  -0.000032  1
  Na  Na27  1  0.722891  0.861468  0.999945  1
  Na  Na28  1  0.999887  0.999886  0.346248  1
  Na  Na29  1  0.138519  0.861372  0.000050  1
  Na  Na30  1  0.277205  0.138661  -0.000063  1
  Cd  Cd31  1  0.812832  0.000044  0.254014  1
  Cd  Cd32  1  0.187274  -0.000032  0.745933  1
  Cd  Cd33  1  0.812735  0.999993  0.745987  1
  Cd  Cd34  1  0.812757  0.812704  0.254102  1
  Cd  Cd35  1  0.187330  0.999963  0.254063  1
  Cd  Cd36  1  0.000065  0.187215  0.254086  1
  Cd  Cd37  1  0.187268  0.187289  0.254063  1
  Cd  Cd38  1  0.000056  0.812894  0.745959  1
  Cd  Cd39  1  0.000052  0.187309  0.745861  1
  Cd  Cd40  1  0.187263  0.187285  0.745796  1
  Cd  Cd41  1  0.812796  0.812723  0.745874  1
  Cd  Cd42  1  0.999974  0.812738  0.253977  1
  In  In43  1  0.000060  0.352127  0.851927  1
  In  In44  1  0.333215  0.493348  0.000126  1
  In  In45  1  0.647842  0.999942  0.851661  1
  In  In46  1  0.449440  0.550328  0.250538  1
  In  In47  1  0.840003  0.332893  0.000011  1
  In  In48  1  0.100676  0.550258  0.250549  1
  In  In49  1  0.550423  0.100801  0.250466  1
  In  In50  1  0.899253  0.449617  0.250366  1
  In  In51  1  0.899196  0.449560  0.749546  1
  In  In52  1  0.352221  0.000080  0.148303  1
  In  In53  1  0.493043  0.332988  -0.000039  1
  In  In54  1  0.000003  0.647901  0.148307  1
  In  In55  1  0.666915  0.160085  0.999818  1
  In  In56  1  0.493060  0.160001  0.000193  1
  In  In57  1  0.449649  0.899200  0.749413  1
  In  In58  1  0.212394  0.606343  0.500082  1
  In  In59  1  0.893266  0.786993  0.499956  1
  In  In60  1  0.449576  0.550580  0.749510  1
  In  In61  1  0.647822  0.647941  0.851737  1
  In  In62  1  0.000065  0.352291  0.148354  1
  In  In63  1  0.352108  0.352062  0.851838  1
  In  In64  1  0.647933  0.000141  0.148324  1
  In  In65  1  0.332967  0.839808  0.000044  1
  In  In66  1  0.786928  0.893421  0.500010  1
  In  In67  1  0.647871  0.647870  0.148051  1
  In  In68  1  0.106594  0.213194  0.499910  1
  In  In69  1  0.606133  0.393710  0.500050  1
  In  In70  1  0.000028  0.647864  0.851830  1
  In  In71  1  0.213018  0.106515  0.499854  1
  In  In72  1  0.506807  0.666848  -0.000029  1
  In  In73  1  0.550311  0.449614  0.250334  1
  In  In74  1  0.159920  0.666904  0.999865  1
  In  In75  1  0.352246  -0.000038  0.851970  1
  In  In76  1  0.449586  0.899188  0.250540  1
  In  In77  1  0.893330  0.106406  0.499901  1
  In  In78  1  0.506955  0.839981  0.999960  1
  In  In79  1  0.839974  0.506788  0.000006  1
  In  In80  1  0.550411  0.100748  0.749634  1
  In  In81  1  0.393810  0.606137  0.500118  1
  In  In82  1  0.666832  0.506854  0.000003  1
  In  In83  1  0.100885  0.550556  0.749589  1
  In  In84  1  0.159928  0.493005  0.000041  1
  In  In85  1  0.606084  0.212257  0.500230  1
  In  In86  1  0.352232  0.352178  0.148469  1
  In  In87  1  0.106653  0.893447  0.500057  1
  In  In88  1  0.550418  0.449717  0.749397  1
  In  In89  1  0.787744  0.393809  0.500052  1
  In  In90  1  0.393807  0.787632  0.500212  1
