# generated using pymatgen
data_LiH8C2S2NO5
_symmetry_space_group_name_H-M   'P 1'
_cell_length_a   10.65612296
_cell_length_b   10.98719973
_cell_length_c   13.40159462
_cell_angle_alpha   90.00000000
_cell_angle_beta   90.00000000
_cell_angle_gamma   90.00000000
_symmetry_Int_Tables_number   1
_chemical_formula_structural   LiH8C2S2NO5
_chemical_formula_sum   'Li8 H64 C16 S16 N8 O40'
_cell_volume   1569.07144717
_cell_formula_units_Z   8
loop_
 _symmetry_equiv_pos_site_id
 _symmetry_equiv_pos_as_xyz
  1  'x, y, z'
loop_
 _atom_site_type_symbol
 _atom_site_label
 _atom_site_symmetry_multiplicity
 _atom_site_fract_x
 _atom_site_fract_y
 _atom_site_fract_z
 _atom_site_occupancy
  Li  Li0  1  0.750000  0.236877  0.750000  1
  Li  Li1  1  0.750000  0.263123  0.250000  1
  Li  Li2  1  0.771232  0.250000  0.500000  1
  Li  Li3  1  0.228768  0.750000  0.500000  1
  Li  Li4  1  0.250000  0.736877  0.750000  1
  Li  Li5  1  0.271232  0.750000  0.000000  1
  Li  Li6  1  0.250000  0.763123  0.250000  1
  Li  Li7  1  0.728768  0.250000  0.000000  1
  H  H8  1  0.171992  0.130688  0.822878  1
  H  H9  1  0.790215  0.932251  0.637393  1
  H  H10  1  0.425196  0.362823  0.803925  1
  H  H11  1  0.709785  0.567749  0.137393  1
  H  H12  1  0.802017  0.083617  0.361880  1
  H  H13  1  0.209785  0.067749  0.362607  1
  H  H14  1  0.911979  0.753909  0.882397  1
  H  H15  1  0.411979  0.246091  0.382397  1
  H  H16  1  0.588021  0.746091  0.382397  1
  H  H17  1  0.411979  0.253909  0.617603  1
  H  H18  1  0.709785  0.932251  0.862607  1
  H  H19  1  0.658589  0.116339  0.373112  1
  H  H20  1  0.425196  0.137177  0.196075  1
  H  H21  1  0.922346  0.884108  0.562522  1
  H  H22  1  0.140458  0.375392  0.045070  1
  H  H23  1  0.328008  0.130688  0.677122  1
  H  H24  1  0.328008  0.369312  0.322878  1
  H  H25  1  0.171992  0.369312  0.177122  1
  H  H26  1  0.422346  0.384108  0.937478  1
  H  H27  1  0.197983  0.583617  0.361880  1
  H  H28  1  0.841411  0.383661  0.873112  1
  H  H29  1  0.158589  0.616339  0.126888  1
  H  H30  1  0.574804  0.637177  0.196075  1
  H  H31  1  0.302017  0.916383  0.861880  1
  H  H32  1  0.828008  0.869312  0.177122  1
  H  H33  1  0.640458  0.624608  0.545070  1
  H  H34  1  0.697983  0.083617  0.138120  1
  H  H35  1  0.859542  0.875392  0.045070  1
  H  H36  1  0.925196  0.862823  0.696075  1
  H  H37  1  0.209785  0.432251  0.637393  1
  H  H38  1  0.671992  0.869312  0.322878  1
  H  H39  1  0.588021  0.753909  0.617603  1
  H  H40  1  0.341411  0.616339  0.373112  1
  H  H41  1  0.077654  0.115892  0.437478  1
  H  H42  1  0.925196  0.637177  0.303925  1
  H  H43  1  0.290215  0.432251  0.862607  1
  H  H44  1  0.359542  0.375392  0.454930  1
  H  H45  1  0.341411  0.883661  0.626888  1
  H  H46  1  0.077654  0.384108  0.562522  1
  H  H47  1  0.422346  0.115892  0.062522  1
  H  H48  1  0.577654  0.884108  0.937478  1
  H  H49  1  0.922346  0.615892  0.437478  1
  H  H50  1  0.140458  0.124608  0.954930  1
  H  H51  1  0.790215  0.567749  0.362607  1
  H  H52  1  0.088021  0.253909  0.882397  1
  H  H53  1  0.290215  0.067749  0.137393  1
  H  H54  1  0.577654  0.615892  0.062522  1
  H  H55  1  0.197983  0.916383  0.638120  1
  H  H56  1  0.158589  0.883661  0.873112  1
  H  H57  1  0.697983  0.416383  0.861880  1
  H  H58  1  0.074804  0.137177  0.303925  1
  H  H59  1  0.074804  0.362823  0.696075  1
  H  H60  1  0.574804  0.862823  0.803925  1
  H  H61  1  0.302017  0.583617  0.138120  1
  H  H62  1  0.841411  0.116339  0.126888  1
  H  H63  1  0.658589  0.383661  0.626888  1
  H  H64  1  0.828008  0.630688  0.822878  1
  H  H65  1  0.640458  0.875392  0.454930  1
  H  H66  1  0.911979  0.746091  0.117603  1
  H  H67  1  0.671992  0.630688  0.677122  1
  H  H68  1  0.088021  0.246091  0.117603  1
  H  H69  1  0.802017  0.416383  0.638120  1
  H  H70  1  0.359542  0.124608  0.545070  1
  H  H71  1  0.859542  0.624608  0.954930  1
  C  C72  1  0.607596  0.920815  0.865135  1
  C  C73  1  0.605931  0.844420  0.382094  1
  C  C74  1  0.105931  0.155580  0.882094  1
  C  C75  1  0.607596  0.579185  0.134865  1
  C  C76  1  0.107596  0.079185  0.365135  1
  C  C77  1  0.107596  0.420815  0.634865  1
  C  C78  1  0.394069  0.344420  0.382094  1
  C  C79  1  0.105931  0.344420  0.117906  1
  C  C80  1  0.605931  0.655580  0.617906  1
  C  C81  1  0.392404  0.079185  0.134865  1
  C  C82  1  0.894069  0.655580  0.882094  1
  C  C83  1  0.892404  0.579185  0.365135  1
  C  C84  1  0.892404  0.920815  0.634865  1
  C  C85  1  0.392404  0.420815  0.865135  1
  C  C86  1  0.894069  0.844420  0.117906  1
  C  C87  1  0.394069  0.155580  0.617906  1
  S  S88  1  0.038716  0.579282  0.858899  1
  S  S89  1  0.961284  0.079282  0.858899  1
  S  S90  1  0.537702  0.432432  0.149050  1
  S  S91  1  0.961284  0.420718  0.141101  1
  S  S92  1  0.037702  0.932432  0.350950  1
  S  S93  1  0.037702  0.567568  0.649050  1
  S  S94  1  0.962298  0.432432  0.350950  1
  S  S95  1  0.462298  0.932432  0.149050  1
  S  S96  1  0.537702  0.067568  0.850950  1
  S  S97  1  0.038716  0.920718  0.141101  1
  S  S98  1  0.461284  0.579282  0.641101  1
  S  S99  1  0.962298  0.067568  0.649050  1
  S  S100  1  0.538716  0.079282  0.641101  1
  S  S101  1  0.462298  0.567568  0.850950  1
  S  S102  1  0.461284  0.920718  0.358899  1
  S  S103  1  0.538716  0.420718  0.358899  1
  N  N104  1  0.409867  0.626137  0.748295  1
  N  N105  1  0.409867  0.873863  0.251705  1
  N  N106  1  0.090133  0.873863  0.248295  1
  N  N107  1  0.090133  0.626137  0.751705  1
  N  N108  1  0.909867  0.373863  0.248295  1
  N  N109  1  0.590133  0.126137  0.748295  1
  N  N110  1  0.590133  0.373863  0.251705  1
  N  N111  1  0.909867  0.126137  0.751705  1
  O  O112  1  0.129168  0.620513  0.932744  1
  O  O113  1  0.916991  0.355625  0.431583  1
  O  O114  1  0.370832  0.620513  0.567256  1
  O  O115  1  0.083009  0.855625  0.431583  1
  O  O116  1  0.487862  0.051890  0.359159  1
  O  O117  1  0.987862  0.551890  0.140841  1
  O  O118  1  0.400849  0.449536  0.152005  1
  O  O119  1  0.370832  0.879487  0.432744  1
  O  O120  1  0.099151  0.449536  0.347995  1
  O  O121  1  0.757027  0.152357  0.132571  1
  O  O122  1  0.757027  0.347643  0.867429  1
  O  O123  1  0.629168  0.120513  0.567256  1
  O  O124  1  0.257027  0.652357  0.367429  1
  O  O125  1  0.242973  0.652357  0.132571  1
  O  O126  1  0.400849  0.050464  0.847995  1
  O  O127  1  0.583009  0.144375  0.931583  1
  O  O128  1  0.099151  0.050464  0.652005  1
  O  O129  1  0.242973  0.847643  0.867429  1
  O  O130  1  0.870832  0.120513  0.932744  1
  O  O131  1  0.583009  0.355625  0.068417  1
  O  O132  1  0.742973  0.152357  0.367429  1
  O  O133  1  0.416991  0.644375  0.931583  1
  O  O134  1  0.987862  0.948110  0.859159  1
  O  O135  1  0.512138  0.948110  0.640841  1
  O  O136  1  0.083009  0.644375  0.568417  1
  O  O137  1  0.512138  0.551890  0.359159  1
  O  O138  1  0.599151  0.550464  0.847995  1
  O  O139  1  0.012138  0.051890  0.140841  1
  O  O140  1  0.129168  0.879487  0.067256  1
  O  O141  1  0.870832  0.379487  0.067256  1
  O  O142  1  0.416991  0.855625  0.068417  1
  O  O143  1  0.900849  0.949536  0.347995  1
  O  O144  1  0.599151  0.949536  0.152005  1
  O  O145  1  0.629168  0.379487  0.432744  1
  O  O146  1  0.916991  0.144375  0.568417  1
  O  O147  1  0.012138  0.448110  0.859159  1
  O  O148  1  0.257027  0.847643  0.632571  1
  O  O149  1  0.900849  0.550464  0.652005  1
  O  O150  1  0.742973  0.347643  0.632571  1
  O  O151  1  0.487862  0.448110  0.640841  1
