# generated using pymatgen
data_NaSm9Si6(SO12)2
_symmetry_space_group_name_H-M   'P 1'
_cell_length_a   9.85733570
_cell_length_b   19.71854740
_cell_length_c   6.79565820
_cell_angle_alpha   90.00000000
_cell_angle_beta   90.00000000
_cell_angle_gamma   119.99763577
_symmetry_Int_Tables_number   1
_chemical_formula_structural   NaSm9Si6(SO12)2
_chemical_formula_sum   'Na2 Sm18 Si12 S4 O48'
_cell_volume   1143.94980963
_cell_formula_units_Z   2
loop_
 _symmetry_equiv_pos_site_id
 _symmetry_equiv_pos_as_xyz
  1  'x, y, z'
loop_
 _atom_site_type_symbol
 _atom_site_label
 _atom_site_symmetry_multiplicity
 _atom_site_fract_x
 _atom_site_fract_y
 _atom_site_fract_z
 _atom_site_occupancy
  Na  Na0  1  0.666763  0.666657  0.992593  1
  Na  Na1  1  0.666763  0.166657  0.507407  1
  Sm  Sm2  1  0.007792  0.878539  0.755261  1
  Sm  Sm3  1  0.331591  0.833182  0.003457  1
  Sm  Sm4  1  0.335082  0.833582  0.498176  1
  Sm  Sm5  1  0.242489  0.625289  0.752563  1
  Sm  Sm6  1  0.007792  0.378539  0.744739  1
  Sm  Sm7  1  0.253695  0.508858  0.249307  1
  Sm  Sm8  1  0.749408  0.995922  0.746589  1
  Sm  Sm9  1  0.763824  0.873095  0.250803  1
  Sm  Sm10  1  0.666548  0.666703  0.505933  1
  Sm  Sm11  1  0.335082  0.333582  0.001824  1
  Sm  Sm12  1  0.331591  0.333182  0.496543  1
  Sm  Sm13  1  0.242489  0.125289  0.747437  1
  Sm  Sm14  1  0.253695  0.008858  0.250693  1
  Sm  Sm15  1  0.749408  0.495922  0.753411  1
  Sm  Sm16  1  0.982317  0.618147  0.247653  1
  Sm  Sm17  1  0.763824  0.373095  0.249197  1
  Sm  Sm18  1  0.666548  0.166703  0.994067  1
  Sm  Sm19  1  0.982317  0.118147  0.252347  1
  Si  Si20  1  0.031433  0.703605  0.745311  1
  Si  Si21  1  0.375962  0.984384  0.752413  1
  Si  Si22  1  0.413233  0.691667  0.252188  1
  Si  Si23  1  0.592850  0.812040  0.748455  1
  Si  Si24  1  0.031433  0.203605  0.754689  1
  Si  Si25  1  0.375962  0.484384  0.747587  1
  Si  Si26  1  0.616729  0.515032  0.253161  1
  Si  Si27  1  0.969956  0.793345  0.253671  1
  Si  Si28  1  0.413233  0.191667  0.247812  1
  Si  Si29  1  0.592850  0.312040  0.751545  1
  Si  Si30  1  0.616729  0.015032  0.246839  1
  Si  Si31  1  0.969956  0.293345  0.246329  1
  S  S32  1  0.998421  0.996434  0.507493  1
  S  S33  1  0.998421  0.496434  0.992507  1
  S  S34  1  0.001480  0.503358  0.500783  1
  S  S35  1  0.001480  0.003358  0.999217  1
  O  O36  1  0.256508  0.947154  0.944109  1
  O  O37  1  0.261645  0.949661  0.556164  1
  O  O38  1  0.130332  0.801192  0.750444  1
  O  O39  1  0.159055  0.827103  0.253076  1
  O  O40  1  0.107996  0.682823  0.553393  1
  O  O41  1  0.098716  0.679343  0.941017  1
  O  O42  1  0.472184  0.934867  0.752373  1
  O  O43  1  0.495201  0.920471  0.246203  1
  O  O44  1  0.346002  0.752574  0.250358  1
  O  O45  1  0.397677  0.763954  0.754487  1
  O  O46  1  0.339278  0.629539  0.069145  1
  O  O47  1  0.361305  0.633806  0.447464  1
  O  O48  1  0.632838  0.870240  0.554496  1
  O  O49  1  0.643152  0.870876  0.942022  1
  O  O50  1  0.261645  0.449661  0.943836  1
  O  O51  1  0.256508  0.447154  0.555891  1
  O  O52  1  0.130332  0.301192  0.749556  1
  O  O53  1  0.159055  0.327103  0.246924  1
  O  O54  1  0.605378  0.738576  0.256016  1
  O  O55  1  0.673979  0.758584  0.740101  1
  O  O56  1  0.098716  0.179343  0.558983  1
  O  O57  1  0.107996  0.182823  0.946607  1
  O  O58  1  0.482760  0.578420  0.740005  1
  O  O59  1  0.522707  0.564095  0.256806  1
  O  O60  1  0.472184  0.434867  0.747627  1
  O  O61  1  0.495201  0.420471  0.253797  1
  O  O62  1  0.919348  0.830161  0.070470  1
  O  O63  1  0.905992  0.819173  0.448794  1
  O  O64  1  0.346002  0.252574  0.249642  1
  O  O65  1  0.397677  0.263954  0.745513  1
  O  O66  1  0.843332  0.663042  0.738739  1
  O  O67  1  0.871754  0.697277  0.256339  1
  O  O68  1  0.733263  0.546896  0.447416  1
  O  O69  1  0.740023  0.540334  0.068834  1
  O  O70  1  0.361305  0.133806  0.052536  1
  O  O71  1  0.339278  0.129539  0.430855  1
  O  O72  1  0.632838  0.370240  0.945504  1
  O  O73  1  0.643152  0.370876  0.557978  1
  O  O74  1  0.605378  0.238576  0.243984  1
  O  O75  1  0.673979  0.258584  0.759899  1
  O  O76  1  0.482760  0.078420  0.759995  1
  O  O77  1  0.522707  0.064095  0.243194  1
  O  O78  1  0.905992  0.319173  0.051206  1
  O  O79  1  0.919348  0.330161  0.429530  1
  O  O80  1  0.843332  0.163042  0.761261  1
  O  O81  1  0.871754  0.197277  0.243661  1
  O  O82  1  0.740023  0.040334  0.431166  1
  O  O83  1  0.733263  0.046896  0.052584  1
