# generated using pymatgen
data_Cs3Bi7Se12
_symmetry_space_group_name_H-M   'P 1'
_cell_length_a   4.28419640
_cell_length_b   13.41749694
_cell_length_c   14.05665557
_cell_angle_alpha   106.90991818
_cell_angle_beta   98.76659690
_cell_angle_gamma   89.97561824
_symmetry_Int_Tables_number   1
_chemical_formula_structural   Cs3Bi7Se12
_chemical_formula_sum   'Cs3 Bi7 Se12'
_cell_volume   763.22949655
_cell_formula_units_Z   1
loop_
 _symmetry_equiv_pos_site_id
 _symmetry_equiv_pos_as_xyz
  1  'x, y, z'
loop_
 _atom_site_type_symbol
 _atom_site_label
 _atom_site_symmetry_multiplicity
 _atom_site_fract_x
 _atom_site_fract_y
 _atom_site_fract_z
 _atom_site_occupancy
  Cs  Cs0  1  0.362140  0.120630  0.724213  1
  Cs  Cs1  1  0.634561  0.867828  0.269024  1
  Cs  Cs2  1  0.973132  0.427101  0.946174  1
  Bi  Bi3  1  0.680850  0.520895  0.361561  1
  Bi  Bi4  1  0.276843  0.784878  0.554359  1
  Bi  Bi5  1  0.913478  0.741061  0.827069  1
  Bi  Bi6  1  0.722211  0.213332  0.443513  1
  Bi  Bi7  1  0.088092  0.258151  0.176078  1
  Bi  Bi8  1  0.319298  0.479048  0.638559  1
  Bi  Bi9  1  0.499735  0.998630  0.999427  1
  Se  Se10  1  0.423806  0.591334  0.846760  1
  Se  Se11  1  0.201019  0.379010  0.402718  1
  Se  Se12  1  0.769218  0.916827  0.539969  1
  Se  Se13  1  0.230333  0.082680  0.459300  1
  Se  Se14  1  0.171648  0.666915  0.344369  1
  Se  Se15  1  0.829959  0.333476  0.659843  1
  Se  Se16  1  0.393356  0.875556  0.787750  1
  Se  Se17  1  0.017410  0.857982  0.035033  1
  Se  Se18  1  0.608550  0.123909  0.215826  1
  Se  Se19  1  0.982530  0.142105  0.963750  1
  Se  Se20  1  0.575964  0.407181  0.152778  1
  Se  Se21  1  0.798466  0.620469  0.597128  1
