# generated using pymatgen
data_CsKPt6(S3O14)2
_symmetry_space_group_name_H-M   'P 1'
_cell_length_a   11.73601699
_cell_length_b   11.73601737
_cell_length_c   11.73601700
_cell_angle_alpha   62.50463918
_cell_angle_beta   62.50463823
_cell_angle_gamma   62.50463927
_symmetry_Int_Tables_number   1
_chemical_formula_structural   CsKPt6(S3O14)2
_chemical_formula_sum   'Cs2 K2 Pt12 S12 O56'
_cell_volume   1206.79879978
_cell_formula_units_Z   2
loop_
 _symmetry_equiv_pos_site_id
 _symmetry_equiv_pos_as_xyz
  1  'x, y, z'
loop_
 _atom_site_type_symbol
 _atom_site_label
 _atom_site_symmetry_multiplicity
 _atom_site_fract_x
 _atom_site_fract_y
 _atom_site_fract_z
 _atom_site_occupancy
  Cs  Cs0  1  0.414511  0.414511  0.414511  1
  Cs  Cs1  1  0.585489  0.585489  0.585489  1
  K  K2  1  0.206561  0.206561  0.206561  1
  K  K3  1  0.793439  0.793439  0.793439  1
  Pt  Pt4  1  0.750939  0.149483  0.196900  1
  Pt  Pt5  1  0.149483  0.196900  0.750939  1
  Pt  Pt6  1  0.980797  0.726704  0.038504  1
  Pt  Pt7  1  0.249061  0.850517  0.803100  1
  Pt  Pt8  1  0.850517  0.803100  0.249061  1
  Pt  Pt9  1  0.803100  0.249061  0.850517  1
  Pt  Pt10  1  0.038504  0.980797  0.726704  1
  Pt  Pt11  1  0.196900  0.750939  0.149483  1
  Pt  Pt12  1  0.019203  0.273296  0.961496  1
  Pt  Pt13  1  0.273296  0.961496  0.019203  1
  Pt  Pt14  1  0.961496  0.019203  0.273296  1
  Pt  Pt15  1  0.726704  0.038504  0.980797  1
  S  S16  1  0.512345  0.297993  0.053211  1
  S  S17  1  0.677165  0.741768  0.161025  1
  S  S18  1  0.487655  0.702007  0.946789  1
  S  S19  1  0.322835  0.258232  0.838975  1
  S  S20  1  0.161025  0.677165  0.741768  1
  S  S21  1  0.297993  0.053211  0.512345  1
  S  S22  1  0.838975  0.322835  0.258232  1
  S  S23  1  0.946789  0.487655  0.702007  1
  S  S24  1  0.741768  0.161025  0.677165  1
  S  S25  1  0.702007  0.946789  0.487655  1
  S  S26  1  0.258232  0.838975  0.322835  1
  S  S27  1  0.053211  0.512345  0.297993  1
  O  O28  1  0.377572  0.068887  0.371858  1
  O  O29  1  0.078118  0.818548  0.671995  1
  O  O30  1  0.927605  0.372657  0.117578  1
  O  O31  1  0.627343  0.882422  0.072395  1
  O  O32  1  0.239955  0.003122  0.847018  1
  O  O33  1  0.588922  0.664711  0.210046  1
  O  O34  1  0.847018  0.239955  0.003122  1
  O  O35  1  0.692219  0.747709  0.280948  1
  O  O36  1  0.082091  0.396725  0.634984  1
  O  O37  1  0.533528  0.159574  0.052529  1
  O  O38  1  0.664711  0.210046  0.588922  1
  O  O39  1  0.834243  0.447487  0.720084  1
  O  O40  1  0.840426  0.947471  0.466472  1
  O  O41  1  0.252291  0.719052  0.307781  1
  O  O42  1  0.371858  0.377572  0.068887  1
  O  O43  1  0.280948  0.692219  0.747709  1
  O  O44  1  0.719052  0.307781  0.252291  1
  O  O45  1  0.159574  0.052529  0.533528  1
  O  O46  1  0.328005  0.921882  0.181452  1
  O  O47  1  0.396725  0.634984  0.082091  1
  O  O48  1  0.372657  0.117578  0.927605  1
  O  O49  1  0.152982  0.760045  0.996878  1
  O  O50  1  0.882422  0.072395  0.627343  1
  O  O51  1  0.068887  0.371858  0.377572  1
  O  O52  1  0.447487  0.720084  0.834243  1
  O  O53  1  0.552513  0.279916  0.165757  1
  O  O54  1  0.921882  0.181452  0.328005  1
  O  O55  1  0.906111  0.906111  0.906111  1
  O  O56  1  0.931113  0.628142  0.622428  1
  O  O57  1  0.996878  0.152982  0.760045  1
  O  O58  1  0.093889  0.093889  0.093889  1
  O  O59  1  0.335289  0.789954  0.411078  1
  O  O60  1  0.671995  0.078118  0.818548  1
  O  O61  1  0.917909  0.603275  0.365016  1
  O  O62  1  0.365016  0.917909  0.603275  1
  O  O63  1  0.072395  0.627343  0.882422  1
  O  O64  1  0.747709  0.280948  0.692219  1
  O  O65  1  0.947471  0.466472  0.840426  1
  O  O66  1  0.628142  0.622428  0.931113  1
  O  O67  1  0.411078  0.335289  0.789954  1
  O  O68  1  0.307781  0.252291  0.719052  1
  O  O69  1  0.634984  0.082091  0.396725  1
  O  O70  1  0.210046  0.588922  0.664711  1
  O  O71  1  0.181452  0.328005  0.921882  1
  O  O72  1  0.466472  0.840426  0.947471  1
  O  O73  1  0.760045  0.996878  0.152982  1
  O  O74  1  0.117578  0.927605  0.372657  1
  O  O75  1  0.789954  0.411078  0.335289  1
  O  O76  1  0.603275  0.365016  0.917909  1
  O  O77  1  0.720084  0.834243  0.447487  1
  O  O78  1  0.052529  0.533528  0.159574  1
  O  O79  1  0.622428  0.931113  0.628142  1
  O  O80  1  0.165757  0.552513  0.279916  1
  O  O81  1  0.279916  0.165757  0.552513  1
  O  O82  1  0.003122  0.847018  0.239955  1
  O  O83  1  0.818548  0.671995  0.078118  1
