# generated using pymatgen
data_SrNb4O6
_symmetry_space_group_name_H-M   'P 1'
_cell_length_a   4.21587863
_cell_length_b   4.21585887
_cell_length_c   16.41247406
_cell_angle_alpha   90.00070018
_cell_angle_beta   90.00028982
_cell_angle_gamma   90.00042647
_symmetry_Int_Tables_number   1
_chemical_formula_structural   SrNb4O6
_chemical_formula_sum   'Sr2 Nb8 O12'
_cell_volume   291.70791710
_cell_formula_units_Z   2
loop_
 _symmetry_equiv_pos_site_id
 _symmetry_equiv_pos_as_xyz
  1  'x, y, z'
loop_
 _atom_site_type_symbol
 _atom_site_label
 _atom_site_symmetry_multiplicity
 _atom_site_fract_x
 _atom_site_fract_y
 _atom_site_fract_z
 _atom_site_occupancy
  Sr  Sr0  1  0.999992  0.000008  0.875498  1
  Sr  Sr1  1  -0.000005  0.000009  0.124510  1
  Nb  Nb2  1  0.500001  0.999999  0.368502  1
  Nb  Nb3  1  -0.000000  0.499998  0.631496  1
  Nb  Nb4  1  0.499994  0.499994  -0.000018  1
  Nb  Nb5  1  0.500000  0.500000  0.247712  1
  Nb  Nb6  1  0.499996  0.500001  0.752307  1
  Nb  Nb7  1  -0.000001  0.500000  0.368502  1
  Nb  Nb8  1  0.500002  -0.000001  0.631495  1
  Nb  Nb9  1  0.500003  0.499999  0.499997  1
  O  O10  1  0.500009  -0.000003  0.762020  1
  O  O11  1  0.499996  0.499990  0.119723  1
  O  O12  1  -0.000000  0.499999  0.762020  1
  O  O13  1  0.500000  0.500006  0.880286  1
  O  O14  1  0.000002  -0.000001  0.629934  1
  O  O15  1  0.499997  0.999997  0.237974  1
  O  O16  1  0.000000  -0.000001  0.370063  1
  O  O17  1  0.500004  0.999997  0.499999  1
  O  O18  1  0.000001  0.499998  0.237974  1
  O  O19  1  -0.000002  0.500005  0.000002  1
  O  O20  1  0.000004  0.500001  0.499999  1
  O  O21  1  0.500007  0.000005  0.000004  1
