# generated using pymatgen
data_Rb2Cu2(MoO4)3
_symmetry_space_group_name_H-M   'P 1'
_cell_length_a   5.16182244
_cell_length_b   14.25789549
_cell_length_c   19.56352919
_cell_angle_alpha   106.87966939
_cell_angle_beta   90.00000000
_cell_angle_gamma   100.42896090
_symmetry_Int_Tables_number   1
_chemical_formula_structural   Rb2Cu2(MoO4)3
_chemical_formula_sum   'Rb8 Cu8 Mo12 O48'
_cell_volume   1352.90410683
_cell_formula_units_Z   4
loop_
 _symmetry_equiv_pos_site_id
 _symmetry_equiv_pos_as_xyz
  1  'x, y, z'
loop_
 _atom_site_type_symbol
 _atom_site_label
 _atom_site_symmetry_multiplicity
 _atom_site_fract_x
 _atom_site_fract_y
 _atom_site_fract_z
 _atom_site_occupancy
  Rb  Rb0  1  0.516089  0.638398  0.726590  1
  Rb  Rb1  1  0.795984  0.000000  0.750000  1
  Rb  Rb2  1  0.877691  0.361602  0.773410  1
  Rb  Rb3  1  0.204016  0.000000  0.250000  1
  Rb  Rb4  1  0.483911  0.361602  0.273410  1
  Rb  Rb5  1  0.500000  0.500000  0.000000  1
  Rb  Rb6  1  0.122309  0.638398  0.226590  1
  Rb  Rb7  1  0.000000  0.500000  0.500000  1
  Cu  Cu8  1  0.363049  0.199200  0.046680  1
  Cu  Cu9  1  0.163849  0.800800  0.453320  1
  Cu  Cu10  1  0.160190  0.845662  0.047803  1
  Cu  Cu11  1  0.636951  0.800800  0.953320  1
  Cu  Cu12  1  0.314528  0.154338  0.452197  1
  Cu  Cu13  1  0.685472  0.845662  0.547803  1
  Cu  Cu14  1  0.836151  0.199200  0.546680  1
  Cu  Cu15  1  0.839810  0.154338  0.952197  1
  Mo  Mo16  1  0.376449  0.227408  0.864482  1
  Mo  Mo17  1  0.434546  0.366643  0.610547  1
  Mo  Mo18  1  0.149041  0.772592  0.635518  1
  Mo  Mo19  1  0.565454  0.633357  0.389453  1
  Mo  Mo20  1  0.251635  0.033602  0.573461  1
  Mo  Mo21  1  0.067904  0.633357  0.889453  1
  Mo  Mo22  1  0.932096  0.366643  0.110547  1
  Mo  Mo23  1  0.623551  0.772592  0.135518  1
  Mo  Mo24  1  0.218034  0.966398  0.926539  1
  Mo  Mo25  1  0.850959  0.227408  0.364482  1
  Mo  Mo26  1  0.748365  0.966398  0.426539  1
  Mo  Mo27  1  0.781966  0.033602  0.073461  1
  O  O28  1  0.826559  0.718076  0.454224  1
  O  O29  1  0.938533  0.472816  0.081094  1
  O  O30  1  0.407089  0.695794  0.882695  1
  O  O31  1  0.985494  0.084000  0.482560  1
  O  O32  1  0.061467  0.527184  0.918906  1
  O  O33  1  0.108483  0.281924  0.045776  1
  O  O34  1  0.288705  0.695794  0.382695  1
  O  O35  1  0.031527  0.649316  0.638182  1
  O  O36  1  0.014506  0.916000  0.517440  1
  O  O37  1  0.081538  0.409524  0.198159  1
  O  O38  1  0.067420  0.109194  0.632366  1
  O  O39  1  0.490036  0.108558  0.526214  1
  O  O40  1  0.173441  0.281924  0.545776  1
  O  O41  1  0.618521  0.108558  0.026214  1
  O  O42  1  0.583846  0.234792  0.943783  1
  O  O43  1  0.592911  0.304206  0.117305  1
  O  O44  1  0.349055  0.765208  0.556217  1
  O  O45  1  0.550248  0.007315  0.373468  1
  O  O46  1  0.662564  0.165024  0.283772  1
  O  O47  1  0.381479  0.891442  0.973786  1
  O  O48  1  0.497539  0.834976  0.216228  1
  O  O49  1  0.867085  0.833237  0.629962  1
  O  O50  1  0.891517  0.718076  0.954224  1
  O  O51  1  0.534283  0.472816  0.581094  1
  O  O52  1  0.457068  0.007315  0.873468  1
  O  O53  1  0.958226  0.890806  0.867634  1
  O  O54  1  0.966152  0.833237  0.129962  1
  O  O55  1  0.327986  0.409524  0.698159  1
  O  O56  1  0.968473  0.350683  0.361818  1
  O  O57  1  0.041774  0.109194  0.132366  1
  O  O58  1  0.337436  0.834976  0.716228  1
  O  O59  1  0.509964  0.891442  0.473786  1
  O  O60  1  0.033848  0.166763  0.870038  1
  O  O61  1  0.542932  0.992685  0.126532  1
  O  O62  1  0.672014  0.590476  0.301841  1
  O  O63  1  0.650945  0.234792  0.443783  1
  O  O64  1  0.901495  0.916000  0.017440  1
  O  O65  1  0.465717  0.527184  0.418906  1
  O  O66  1  0.382210  0.350683  0.861818  1
  O  O67  1  0.932580  0.890806  0.367634  1
  O  O68  1  0.617790  0.649316  0.138182  1
  O  O69  1  0.132915  0.166763  0.370038  1
  O  O70  1  0.449752  0.992685  0.626532  1
  O  O71  1  0.918462  0.590476  0.801841  1
  O  O72  1  0.502461  0.165024  0.783772  1
  O  O73  1  0.098505  0.084000  0.982560  1
  O  O74  1  0.711295  0.304206  0.617305  1
  O  O75  1  0.416154  0.765208  0.056217  1
