# generated using pymatgen
data_K2NbO6
_symmetry_space_group_name_H-M   'P 1'
_cell_length_a   8.57524022
_cell_length_b   6.06208127
_cell_length_c   6.06208109
_cell_angle_alpha   60.29417875
_cell_angle_beta   44.98554283
_cell_angle_gamma   44.98554461
_symmetry_Int_Tables_number   1
_chemical_formula_structural   K2NbO6
_chemical_formula_sum   'K2 Nb1 O6'
_cell_volume   157.47852379
_cell_formula_units_Z   1
loop_
 _symmetry_equiv_pos_site_id
 _symmetry_equiv_pos_as_xyz
  1  'x, y, z'
loop_
 _atom_site_type_symbol
 _atom_site_label
 _atom_site_symmetry_multiplicity
 _atom_site_fract_x
 _atom_site_fract_y
 _atom_site_fract_z
 _atom_site_occupancy
  K  K0  1  0.250416  0.521780  0.478220  1
  K  K1  1  0.749584  0.521780  0.478220  1
  Nb  Nb2  1  0.500000  0.012960  0.987040  1
  O  O3  1  0.265776  0.030368  0.438080  1
  O  O4  1  0.269472  0.036563  0.963437  1
  O  O5  1  0.726788  0.031745  0.514680  1
  O  O6  1  0.273212  0.485320  0.968255  1
  O  O7  1  0.730528  0.036563  0.963437  1
  O  O8  1  0.734224  0.561920  0.969632  1
