# generated using pymatgen
data_NaNb13O33
_symmetry_space_group_name_H-M   'P 1'
_cell_length_a   3.87772715
_cell_length_b   11.61018002
_cell_length_c   15.66350778
_cell_angle_alpha   91.48914520
_cell_angle_beta   90.03150726
_cell_angle_gamma   99.62424500
_symmetry_Int_Tables_number   1
_chemical_formula_structural   NaNb13O33
_chemical_formula_sum   'Na1 Nb13 O33'
_cell_volume   695.01986541
_cell_formula_units_Z   1
loop_
 _symmetry_equiv_pos_site_id
 _symmetry_equiv_pos_as_xyz
  1  'x, y, z'
loop_
 _atom_site_type_symbol
 _atom_site_label
 _atom_site_symmetry_multiplicity
 _atom_site_fract_x
 _atom_site_fract_y
 _atom_site_fract_z
 _atom_site_occupancy
  Na  Na0  1  0.507794  0.999490  0.502600  1
  Nb  Nb1  1  0.869220  0.725402  0.532563  1
  Nb  Nb2  1  0.915918  0.859450  0.771215  1
  Nb  Nb3  1  0.158113  0.309836  0.904912  1
  Nb  Nb4  1  0.057456  0.140312  0.228402  1
  Nb  Nb5  1  0.295426  0.584420  0.374685  1
  Nb  Nb6  1  0.779167  0.551465  0.863086  1
  Nb  Nb7  1  0.917640  0.826473  0.325381  1
  Nb  Nb8  1  0.708144  0.414126  0.626031  1
  Nb  Nb9  1  0.138449  0.273143  0.467230  1
  Nb  Nb10  1  0.222116  0.448545  0.137722  1
  Nb  Nb11  1  0.840933  0.689036  0.096143  1
  Nb  Nb12  1  0.093477  0.173977  0.675313  1
  Nb  Nb13  1  0.011628  0.998844  0.000187  1
  O  O14  1  0.809059  0.612155  0.972908  1
  O  O15  1  0.082674  0.162444  0.950267  1
  O  O16  1  0.747662  0.498426  0.137726  1
  O  O17  1  0.183580  0.362541  0.610693  1
  O  O18  1  0.654280  0.303457  0.494389  1
  O  O19  1  0.965344  0.930195  0.879801  1
  O  O20  1  0.934880  0.861914  0.455589  1
  O  O21  1  0.574657  0.140275  0.244726  1
  O  O22  1  0.995232  0.976205  0.291415  1
  O  O23  1  0.266672  0.532811  0.265197  1
  O  O24  1  0.131955  0.257259  0.786765  1
  O  O25  1  0.908489  0.799453  0.634682  1
  O  O26  1  0.393240  0.780551  0.336697  1
  O  O27  1  0.153947  0.305547  0.194846  1
  O  O28  1  0.911059  0.835813  0.048640  1
  O  O29  1  0.436314  0.859663  0.753708  1
  O  O30  1  0.251693  0.501775  0.862717  1
  O  O31  1  0.822075  0.636478  0.389083  1
  O  O32  1  0.613866  0.218166  0.661559  1
  O  O33  1  0.318849  0.639189  0.099992  1
  O  O34  1  0.070324  0.137587  0.544099  1
  O  O35  1  0.853275  0.693622  0.804837  1
  O  O36  1  0.189984  0.387807  0.027688  1
  O  O37  1  0.353369  0.695573  0.504490  1
  O  O38  1  0.226706  0.446715  0.433090  1
  O  O39  1  0.870277  0.744198  0.212668  1
  O  O40  1  0.779208  0.554260  0.569912  1
  O  O41  1  0.020176  0.023693  0.708954  1
  O  O42  1  0.498731  0.998542  0.999735  1
  O  O43  1  0.728199  0.462644  0.736190  1
  O  O44  1  0.104706  0.200442  0.364393  1
  O  O45  1  0.680433  0.359280  0.901780  1
  O  O46  1  0.039251  0.070730  0.118943  1
