# generated using pymatgen
data_NaSi2(HO2)3
_symmetry_space_group_name_H-M   'P 1'
_cell_length_a   12.26037069
_cell_length_b   9.88681234
_cell_length_c   8.85976649
_cell_angle_alpha   81.54476699
_cell_angle_beta   52.93979188
_cell_angle_gamma   45.60372279
_symmetry_Int_Tables_number   1
_chemical_formula_structural   NaSi2(HO2)3
_chemical_formula_sum   'Na4 Si8 H12 O24'
_cell_volume   536.66524420
_cell_formula_units_Z   4
loop_
 _symmetry_equiv_pos_site_id
 _symmetry_equiv_pos_as_xyz
  1  'x, y, z'
loop_
 _atom_site_type_symbol
 _atom_site_label
 _atom_site_symmetry_multiplicity
 _atom_site_fract_x
 _atom_site_fract_y
 _atom_site_fract_z
 _atom_site_occupancy
  Na  Na0  1  0.266091  0.758321  0.513832  1
  Na  Na1  1  0.464669  0.510001  0.759998  1
  Na  Na2  1  0.736632  0.787880  0.984645  1
  Na  Na3  1  0.490790  0.984462  0.788220  1
  Si  Si4  1  0.751852  0.296629  0.953875  1
  Si  Si5  1  0.998634  0.953466  0.296113  1
  Si  Si6  1  0.295807  0.253267  0.498101  1
  Si  Si7  1  0.951770  0.499417  0.252648  1
  Si  Si8  1  0.013109  0.304404  0.935928  1
  Si  Si9  1  0.746003  0.937237  0.304217  1
  Si  Si10  1  0.313333  0.504069  0.237774  1
  Si  Si11  1  0.945226  0.237809  0.503731  1
  H  H12  1  0.405878  0.868544  0.124107  1
  H  H13  1  0.604064  0.121644  0.866945  1
  H  H14  1  0.127657  0.650119  0.840671  1
  H  H15  1  0.388974  0.835640  0.644583  1
  H  H16  1  0.612488  0.649032  0.902561  1
  H  H17  1  0.839836  0.899503  0.647861  1
  H  H18  1  0.347328  0.412556  0.639139  1
  H  H19  1  0.604703  0.632641  0.408450  1
  H  H20  1  0.299420  0.053113  0.377163  1
  H  H21  1  0.268509  0.377976  0.053657  1
  H  H22  1  0.868468  0.981714  0.953441  1
  H  H23  1  0.199877  0.950251  0.979641  1
  O  O24  1  0.828135  0.346908  0.010675  1
  O  O25  1  0.816898  0.008525  0.344730  1
  O  O26  1  0.238153  0.437388  0.423508  1
  O  O27  1  0.900733  0.423787  0.436100  1
  O  O28  1  0.069105  0.381609  0.748699  1
  O  O29  1  0.798220  0.750532  0.381181  1
  O  O30  1  0.500158  0.451718  0.180765  1
  O  O31  1  0.868476  0.180261  0.451004  1
  O  O32  1  0.545122  0.786183  0.972146  1
  O  O33  1  0.699752  0.969504  0.783810  1
  O  O34  1  0.281296  0.550499  0.702384  1
  O  O35  1  0.470451  0.697314  0.548791  1
  O  O36  1  0.183501  0.027960  0.402102  1
  O  O37  1  0.387962  0.399617  0.028156  1
  O  O38  1  0.847592  0.863542  0.066233  1
  O  O39  1  0.222624  0.066504  0.863339  1
  O  O40  1  0.394974  0.056310  0.343135  1
  O  O41  1  0.204186  0.344717  0.054951  1
  O  O42  1  0.904449  0.044611  0.855726  1
  O  O43  1  0.196848  0.854865  0.045173  1
  O  O44  1  0.755590  0.374167  0.773156  1
  O  O45  1  0.097290  0.773408  0.374190  1
  O  O46  1  0.476392  0.153626  0.494902  1
  O  O47  1  0.874444  0.497258  0.151834  1
