# generated using pymatgen
data_H8C2NCl
_symmetry_space_group_name_H-M   'P 1'
_cell_length_a   9.63485104
_cell_length_b   9.63485104
_cell_length_c   9.63485104
_cell_angle_alpha   80.94120289
_cell_angle_beta   135.20682741
_cell_angle_gamma   116.60218940
_symmetry_Int_Tables_number   1
_chemical_formula_structural   H8C2NCl
_chemical_formula_sum   'H32 C8 N4 Cl4'
_cell_volume   544.89020733
_cell_formula_units_Z   4
loop_
 _symmetry_equiv_pos_site_id
 _symmetry_equiv_pos_as_xyz
  1  'x, y, z'
loop_
 _atom_site_type_symbol
 _atom_site_label
 _atom_site_symmetry_multiplicity
 _atom_site_fract_x
 _atom_site_fract_y
 _atom_site_fract_z
 _atom_site_occupancy
  H  H0  1  0.924639  0.855948  0.780586  1
  H  H1  1  0.075361  0.144052  0.219414  1
  H  H2  1  0.424639  0.644052  0.068691  1
  H  H3  1  0.575361  0.355948  0.931309  1
  H  H4  1  0.750643  0.780820  0.531463  1
  H  H5  1  0.249357  0.219180  0.468537  1
  H  H6  1  0.250643  0.719180  0.969823  1
  H  H7  1  0.749357  0.280820  0.030177  1
  H  H8  1  0.568548  0.652705  0.638582  1
  H  H9  1  0.014122  0.929965  0.361418  1
  H  H10  1  0.485878  0.847295  0.915843  1
  H  H11  1  0.931452  0.570035  0.084157  1
  H  H12  1  0.431452  0.347295  0.361418  1
  H  H13  1  0.985878  0.070035  0.638582  1
  H  H14  1  0.514122  0.152705  0.084157  1
  H  H15  1  0.068548  0.429965  0.915843  1
  H  H16  1  0.433962  0.753838  0.444407  1
  H  H17  1  0.309431  0.989555  0.555593  1
  H  H18  1  0.190569  0.746162  0.680124  1
  H  H19  1  0.066038  0.510445  0.319876  1
  H  H20  1  0.566038  0.246162  0.555593  1
  H  H21  1  0.690569  0.010445  0.444407  1
  H  H22  1  0.809431  0.253838  0.319876  1
  H  H23  1  0.933962  0.489555  0.680124  1
  H  H24  1  0.618000  0.844818  0.705976  1
  H  H25  1  0.138842  0.912024  0.294024  1
  H  H26  1  0.361158  0.655182  0.773182  1
  H  H27  1  0.882000  0.587976  0.226818  1
  H  H28  1  0.382000  0.155182  0.294024  1
  H  H29  1  0.861158  0.087976  0.705976  1
  H  H30  1  0.638842  0.344818  0.226818  1
  H  H31  1  0.118000  0.412024  0.773182  1
  C  C32  1  0.586573  0.769784  0.603108  1
  C  C33  1  0.166676  0.983466  0.396892  1
  C  C34  1  0.333324  0.730216  0.816790  1
  C  C35  1  0.913427  0.516534  0.183210  1
  C  C36  1  0.413427  0.230216  0.396892  1
  C  C37  1  0.833324  0.016534  0.603108  1
  C  C38  1  0.666676  0.269784  0.183210  1
  C  C39  1  0.086573  0.483466  0.816790  1
  N  N40  1  0.780948  0.851480  0.632429  1
  N  N41  1  0.219052  0.148519  0.367571  1
  N  N42  1  0.280948  0.648520  0.929468  1
  N  N43  1  0.719052  0.351480  0.070532  1
  Cl  Cl44  1  0.203196  0.855644  0.058840  1
  Cl  Cl45  1  0.796804  0.144356  0.941160  1
  Cl  Cl46  1  0.703196  0.644356  0.347551  1
  Cl  Cl47  1  0.296804  0.355644  0.652449  1
