# generated using pymatgen
data_YbHO2
_symmetry_space_group_name_H-M   'P 1'
_cell_length_a   5.42429518
_cell_length_b   5.42490077
_cell_length_c   5.77551372
_cell_angle_alpha   90.00016828
_cell_angle_beta   89.99965340
_cell_angle_gamma   89.99084488
_symmetry_Int_Tables_number   1
_chemical_formula_structural   YbHO2
_chemical_formula_sum   'Yb4 H4 O8'
_cell_volume   169.95178391
_cell_formula_units_Z   4
loop_
 _symmetry_equiv_pos_site_id
 _symmetry_equiv_pos_as_xyz
  1  'x, y, z'
loop_
 _atom_site_type_symbol
 _atom_site_label
 _atom_site_symmetry_multiplicity
 _atom_site_fract_x
 _atom_site_fract_y
 _atom_site_fract_z
 _atom_site_occupancy
  Yb  Yb0  1  0.788604  0.288421  0.234706  1
  Yb  Yb1  1  0.712137  0.788087  0.765194  1
  Yb  Yb2  1  0.211395  0.711581  0.234709  1
  Yb  Yb3  1  0.287861  0.211910  0.765196  1
  H  H4  1  0.795616  0.294517  0.714842  1
  H  H5  1  0.705529  0.795584  0.284915  1
  H  H6  1  0.204393  0.705494  0.714833  1
  H  H7  1  0.294473  0.204415  0.284914  1
  O  O8  1  0.500000  1.000000  0.071083  1
  O  O9  1  0.000002  0.500002  0.928763  1
  O  O10  1  0.499999  0.500000  0.000152  1
  O  O11  1  -0.000000  -0.000000  0.000177  1
  O  O12  1  0.691232  0.191099  0.615721  1
  O  O13  1  0.809000  0.691062  0.384533  1
  O  O14  1  0.308759  0.808890  0.615729  1
  O  O15  1  0.191001  0.308938  0.384532  1
