# generated using pymatgen
data_LaH13C3S3O11
_symmetry_space_group_name_H-M   'P 1'
_cell_length_a   5.28868650
_cell_length_b   10.23386907
_cell_length_c   13.17964944
_cell_angle_alpha   98.59634596
_cell_angle_beta   91.44868857
_cell_angle_gamma   104.01709568
_symmetry_Int_Tables_number   1
_chemical_formula_structural   LaH13C3S3O11
_chemical_formula_sum   'La2 H26 C6 S6 O22'
_cell_volume   682.90920671
_cell_formula_units_Z   2
loop_
 _symmetry_equiv_pos_site_id
 _symmetry_equiv_pos_as_xyz
  1  'x, y, z'
loop_
 _atom_site_type_symbol
 _atom_site_label
 _atom_site_symmetry_multiplicity
 _atom_site_fract_x
 _atom_site_fract_y
 _atom_site_fract_z
 _atom_site_occupancy
  La  La0  1  0.971075  0.424831  0.256318  1
  La  La1  1  0.028925  0.575169  0.743682  1
  H  H2  1  0.521001  0.553344  0.390603  1
  H  H3  1  0.478999  0.446656  0.609397  1
  H  H4  1  0.470753  0.398440  0.395626  1
  H  H5  1  0.529247  0.601560  0.604374  1
  H  H6  1  0.769410  0.333013  0.019323  1
  H  H7  1  0.230590  0.666987  0.980677  1
  H  H8  1  0.070798  0.337116  0.024948  1
  H  H9  1  0.929202  0.662884  0.975052  1
  H  H10  1  0.680911  0.889223  0.956432  1
  H  H11  1  0.319089  0.110777  0.043568  1
  H  H12  1  0.915796  0.024595  0.910633  1
  H  H13  1  0.084204  0.975405  0.089367  1
  H  H14  1  0.578950  0.026254  0.908481  1
  H  H15  1  0.421050  0.973746  0.091519  1
  H  H16  1  0.638047  0.756979  0.324632  1
  H  H17  1  0.361953  0.243021  0.675368  1
  H  H18  1  0.881007  0.845244  0.248955  1
  H  H19  1  0.118993  0.154756  0.751045  1
  H  H20  1  0.551624  0.866682  0.244272  1
  H  H21  1  0.448376  0.133318  0.755728  1
  H  H22  1  0.281500  0.925447  0.584118  1
  H  H23  1  0.718500  0.074553  0.415882  1
  H  H24  1  0.249465  0.925765  0.447054  1
  H  H25  1  0.750535  0.074235  0.552946  1
  H  H26  1  0.962518  0.877340  0.518716  1
  H  H27  1  0.037482  0.122660  0.481284  1
  C  C28  1  0.715476  0.960736  0.901104  1
  C  C29  1  0.284524  0.039264  0.098896  1
  C  C30  1  0.673485  0.795592  0.251775  1
  C  C31  1  0.326515  0.204408  0.748225  1
  C  C32  1  0.168498  0.876967  0.511669  1
  C  C33  1  0.831502  0.123033  0.488331  1
  S  S34  1  0.667999  0.864624  0.775287  1
  S  S35  1  0.332001  0.135376  0.224713  1
  S  S36  1  0.579601  0.653780  0.151166  1
  S  S37  1  0.420399  0.346220  0.848834  1
  S  S38  1  0.184525  0.704495  0.488703  1
  S  S39  1  0.815475  0.295505  0.511297  1
  O  O40  1  0.709007  0.961057  0.702591  1
  O  O41  1  0.290993  0.038943  0.297409  1
  O  O42  1  0.602115  0.221837  0.233065  1
  O  O43  1  0.397885  0.778163  0.766935  1
  O  O44  1  0.139901  0.219424  0.228886  1
  O  O45  1  0.860099  0.780576  0.771114  1
  O  O46  1  0.308356  0.583401  0.167144  1
  O  O47  1  0.691644  0.416599  0.832856  1
  O  O48  1  0.763044  0.567837  0.162012  1
  O  O49  1  0.236956  0.432163  0.837988  1
  O  O50  1  0.598354  0.704985  0.052119  1
  O  O51  1  0.401646  0.295015  0.947881  1
  O  O52  1  0.036491  0.639704  0.569388  1
  O  O53  1  0.963509  0.360296  0.430612  1
  O  O54  1  0.461132  0.699264  0.494655  1
  O  O55  1  0.538868  0.300736  0.505345  1
  O  O56  1  0.056663  0.647350  0.384733  1
  O  O57  1  0.943337  0.352650  0.615267  1
  O  O58  1  0.488038  0.463446  0.346162  1
  O  O59  1  0.511962  0.536554  0.653838  1
  O  O60  1  0.913442  0.323518  0.063708  1
  O  O61  1  0.086558  0.676482  0.936292  1
