# generated using pymatgen
data_AgClO2
_symmetry_space_group_name_H-M   'P 1'
_cell_length_a   5.07166844
_cell_length_b   9.69444275
_cell_length_c   7.30724916
_cell_angle_alpha   30.57443608
_cell_angle_beta   57.27802601
_cell_angle_gamma   62.32387813
_symmetry_Int_Tables_number   1
_chemical_formula_structural   AgClO2
_chemical_formula_sum   'Ag2 Cl2 O4'
_cell_volume   153.74627244
_cell_formula_units_Z   2
loop_
 _symmetry_equiv_pos_site_id
 _symmetry_equiv_pos_as_xyz
  1  'x, y, z'
loop_
 _atom_site_type_symbol
 _atom_site_label
 _atom_site_symmetry_multiplicity
 _atom_site_fract_x
 _atom_site_fract_y
 _atom_site_fract_z
 _atom_site_occupancy
  Ag  Ag0  1  0.516880  0.500836  0.493729  1
  Ag  Ag1  1  0.469928  0.968869  0.529333  1
  Cl  Cl2  1  0.094505  0.079179  0.925683  1
  Cl  Cl3  1  0.993319  0.490408  0.007112  1
  O  O4  1  0.367267  0.302370  0.018157  1
  O  O5  1  0.073478  0.094803  0.701401  1
  O  O6  1  0.878214  0.854397  0.347817  1
  O  O7  1  0.632446  0.693295  0.981062  1
