# generated using pymatgen
data_Fe3O4
_symmetry_space_group_name_H-M   'P 1'
_cell_length_a   6.76493607
_cell_length_b   5.10076550
_cell_length_c   7.81067630
_cell_angle_alpha   49.92994461
_cell_angle_beta   47.35984203
_cell_angle_gamma   57.72840574
_symmetry_Int_Tables_number   1
_chemical_formula_structural   Fe3O4
_chemical_formula_sum   'Fe6 O8'
_cell_volume   149.41167123
_cell_formula_units_Z   2
loop_
 _symmetry_equiv_pos_site_id
 _symmetry_equiv_pos_as_xyz
  1  'x, y, z'
loop_
 _atom_site_type_symbol
 _atom_site_label
 _atom_site_symmetry_multiplicity
 _atom_site_fract_x
 _atom_site_fract_y
 _atom_site_fract_z
 _atom_site_occupancy
  Fe  Fe0  1  0.606710  0.104394  0.607132  1
  Fe  Fe1  1  0.109335  0.613505  0.606420  1
  Fe  Fe2  1  0.103796  0.105302  0.109267  1
  Fe  Fe3  1  0.607041  0.607514  0.107382  1
  Fe  Fe4  1  0.601522  0.853826  0.359333  1
  Fe  Fe5  1  0.614131  0.356669  0.853657  1
  O  O6  1  0.394433  0.752082  0.961298  1
  O  O7  1  0.843589  0.251133  0.987586  1
  O  O8  1  0.369181  0.986618  0.208110  1
  O  O9  1  0.396859  0.265087  0.458093  1
  O  O10  1  0.816685  0.966438  0.754191  1
  O  O11  1  0.844990  0.746777  0.487143  1
  O  O12  1  0.367952  0.443983  0.747447  1
  O  O13  1  0.823776  0.446672  0.252940  1
