# generated using pymatgen
data_AgC2N3
_symmetry_space_group_name_H-M   'P 1'
_cell_length_a   3.67362148
_cell_length_b   3.67362103
_cell_length_c   23.10325207
_cell_angle_alpha   90.00000000
_cell_angle_beta   90.00000000
_cell_angle_gamma   120.00000402
_symmetry_Int_Tables_number   1
_chemical_formula_structural   AgC2N3
_chemical_formula_sum   'Ag3 C6 N9'
_cell_volume   270.01785899
_cell_formula_units_Z   3
loop_
 _symmetry_equiv_pos_site_id
 _symmetry_equiv_pos_as_xyz
  1  'x, y, z'
loop_
 _atom_site_type_symbol
 _atom_site_label
 _atom_site_symmetry_multiplicity
 _atom_site_fract_x
 _atom_site_fract_y
 _atom_site_fract_z
 _atom_site_occupancy
  Ag  Ag0  1  0.000000  0.342942  0.666667  1
  Ag  Ag1  1  0.342942  0.000000  0.333333  1
  Ag  Ag2  1  0.657058  0.657058  0.000000  1
  C  C3  1  0.052376  0.434678  0.215822  1
  C  C4  1  0.947624  0.382302  0.117512  1
  C  C5  1  0.565322  0.617698  0.549155  1
  C  C6  1  0.434678  0.052376  0.784178  1
  C  C7  1  0.617698  0.565322  0.450845  1
  C  C8  1  0.382302  0.947624  0.882488  1
  N  N9  1  0.430556  0.531438  0.596666  1
  N  N10  1  0.247862  0.000000  0.833333  1
  N  N11  1  0.531438  0.430556  0.403334  1
  N  N12  1  0.000000  0.247862  0.166667  1
  N  N13  1  0.752138  0.752138  0.500000  1
  N  N14  1  0.899118  0.468562  0.070001  1
  N  N15  1  0.100882  0.569444  0.263333  1
  N  N16  1  0.468562  0.899118  0.929999  1
  N  N17  1  0.569444  0.100882  0.736667  1
