# generated using pymatgen
data_SiO2
_symmetry_space_group_name_H-M   'P 1'
_cell_length_a   8.99493869
_cell_length_b   9.28613370
_cell_length_c   16.22765095
_cell_angle_alpha   90.00000000
_cell_angle_beta   90.00000000
_cell_angle_gamma   90.00000000
_symmetry_Int_Tables_number   1
_chemical_formula_structural   SiO2
_chemical_formula_sum   'Si24 O48'
_cell_volume   1355.46652761
_cell_formula_units_Z   24
loop_
 _symmetry_equiv_pos_site_id
 _symmetry_equiv_pos_as_xyz
  1  'x, y, z'
loop_
 _atom_site_type_symbol
 _atom_site_label
 _atom_site_symmetry_multiplicity
 _atom_site_fract_x
 _atom_site_fract_y
 _atom_site_fract_z
 _atom_site_occupancy
  Si  Si0  1  0.154683  0.860243  0.389193  1
  Si  Si1  1  0.845317  0.139757  0.889193  1
  Si  Si2  1  0.345317  0.860243  0.889193  1
  Si  Si3  1  0.654683  0.139757  0.389193  1
  Si  Si4  1  0.045211  0.643722  0.072410  1
  Si  Si5  1  0.954789  0.356278  0.572410  1
  Si  Si6  1  0.454789  0.643722  0.572410  1
  Si  Si7  1  0.545211  0.356278  0.072410  1
  Si  Si8  1  0.199299  0.417415  0.342078  1
  Si  Si9  1  0.800701  0.582585  0.842078  1
  Si  Si10  1  0.300701  0.417415  0.842078  1
  Si  Si11  1  0.699299  0.582585  0.342078  1
  Si  Si12  1  0.984461  0.332958  0.762269  1
  Si  Si13  1  0.015539  0.667042  0.262269  1
  Si  Si14  1  0.515539  0.332958  0.262269  1
  Si  Si15  1  0.484461  0.667042  0.762269  1
  Si  Si16  1  0.149843  0.598443  0.501605  1
  Si  Si17  1  0.850157  0.401557  0.001605  1
  Si  Si18  1  0.350157  0.598443  0.001605  1
  Si  Si19  1  0.649843  0.401557  0.501605  1
  Si  Si20  1  0.007178  0.170146  0.414455  1
  Si  Si21  1  0.992822  0.829854  0.914455  1
  Si  Si22  1  0.492822  0.170146  0.914455  1
  Si  Si23  1  0.507178  0.829854  0.414455  1
  O  O24  1  0.335501  0.856146  0.387115  1
  O  O25  1  0.664499  0.143854  0.887115  1
  O  O26  1  0.164499  0.856146  0.887115  1
  O  O27  1  0.835501  0.143854  0.387115  1
  O  O28  1  0.091349  0.745795  0.457767  1
  O  O29  1  0.908651  0.254205  0.957767  1
  O  O30  1  0.408651  0.745795  0.957767  1
  O  O31  1  0.591349  0.254205  0.457767  1
  O  O32  1  0.089947  0.814221  0.298859  1
  O  O33  1  0.910053  0.185779  0.798859  1
  O  O34  1  0.410053  0.814221  0.798859  1
  O  O35  1  0.589947  0.185779  0.298859  1
  O  O36  1  0.097919  0.019788  0.412911  1
  O  O37  1  0.902081  0.980212  0.912911  1
  O  O38  1  0.402081  0.019788  0.912911  1
  O  O39  1  0.597919  0.980212  0.412911  1
  O  O40  1  0.141936  0.362075  0.808380  1
  O  O41  1  0.858064  0.637925  0.308380  1
  O  O42  1  0.358064  0.362075  0.308380  1
  O  O43  1  0.641936  0.637925  0.808380  1
  O  O44  1  0.870711  0.467046  0.777745  1
  O  O45  1  0.129289  0.532954  0.277745  1
  O  O46  1  0.629289  0.467046  0.277745  1
  O  O47  1  0.370711  0.532954  0.777745  1
  O  O48  1  0.012144  0.314287  0.663972  1
  O  O49  1  0.987856  0.685713  0.163972  1
  O  O50  1  0.487856  0.314287  0.163972  1
  O  O51  1  0.512144  0.685713  0.663972  1
  O  O52  1  0.984905  0.763645  0.007416  1
  O  O53  1  0.015095  0.236355  0.507416  1
  O  O54  1  0.515095  0.763645  0.507416  1
  O  O55  1  0.484905  0.236355  0.007416  1
  O  O56  1  0.226303  0.640221  0.070696  1
  O  O57  1  0.773697  0.359779  0.570696  1
  O  O58  1  0.273697  0.640221  0.570696  1
  O  O59  1  0.726303  0.359779  0.070696  1
  O  O60  1  0.986508  0.483355  0.046712  1
  O  O61  1  0.013492  0.516645  0.546712  1
  O  O62  1  0.513492  0.483355  0.546712  1
  O  O63  1  0.486508  0.516645  0.046712  1
  O  O64  1  0.084975  0.282563  0.350535  1
  O  O65  1  0.915025  0.717437  0.850535  1
  O  O66  1  0.415025  0.282563  0.850535  1
  O  O67  1  0.584975  0.717437  0.350535  1
  O  O68  1  0.224327  0.493214  0.431983  1
  O  O69  1  0.775673  0.506786  0.931983  1
  O  O70  1  0.275673  0.493214  0.931983  1
  O  O71  1  0.724327  0.506786  0.431983  1
