# generated using pymatgen
data_NaHF2
_symmetry_space_group_name_H-M   'P 1'
_cell_length_a   8.74947529
_cell_length_b   3.18458547
_cell_length_c   5.02736650
_cell_angle_alpha   135.05189231
_cell_angle_beta   150.87054050
_cell_angle_gamma   35.83114658
_symmetry_Int_Tables_number   1
_chemical_formula_structural   NaHF2
_chemical_formula_sum   'Na1 H1 F2'
_cell_volume   39.91749834
_cell_formula_units_Z   1
loop_
 _symmetry_equiv_pos_site_id
 _symmetry_equiv_pos_as_xyz
  1  'x, y, z'
loop_
 _atom_site_type_symbol
 _atom_site_label
 _atom_site_symmetry_multiplicity
 _atom_site_fract_x
 _atom_site_fract_y
 _atom_site_fract_z
 _atom_site_occupancy
  Na  Na0  1  0.781263  -0.004645  0.558680  1
  H  H1  1  0.102823  0.495331  0.200468  1
  F  F2  1  0.848735  0.035098  0.122475  1
  F  F3  1  0.277912  0.954932  0.121357  1
