# generated using pymatgen
data_Pr(HO)3
_symmetry_space_group_name_H-M   'P 1'
_cell_length_a   6.65757305
_cell_length_b   6.59709253
_cell_length_c   3.77059121
_cell_angle_alpha   90.00000000
_cell_angle_beta   90.00000000
_cell_angle_gamma   120.66052434
_symmetry_Int_Tables_number   1
_chemical_formula_structural   Pr(HO)3
_chemical_formula_sum   'Pr2 H6 O6'
_cell_volume   142.45553702
_cell_formula_units_Z   2
loop_
 _symmetry_equiv_pos_site_id
 _symmetry_equiv_pos_as_xyz
  1  'x, y, z'
loop_
 _atom_site_type_symbol
 _atom_site_label
 _atom_site_symmetry_multiplicity
 _atom_site_fract_x
 _atom_site_fract_y
 _atom_site_fract_z
 _atom_site_occupancy
  Pr  Pr0  1  0.334543  0.669848  0.250000  1
  Pr  Pr1  1  0.660463  0.336407  0.750000  1
  H  H2  1  0.859733  0.718631  0.250000  1
  H  H3  1  0.858620  0.170401  0.250000  1
  H  H4  1  0.281900  0.141893  0.250000  1
  H  H5  1  0.135930  0.282202  0.750000  1
  H  H6  1  0.141141  0.855604  0.750000  1
  H  H7  1  0.719630  0.862089  0.750000  1
  O  O8  1  0.911375  0.604374  0.250000  1
  O  O9  1  0.689823  0.097421  0.250000  1
  O  O10  1  0.392211  0.310528  0.250000  1
  O  O11  1  0.087839  0.399236  0.750000  1
  O  O12  1  0.307855  0.913798  0.750000  1
  O  O13  1  0.603340  0.694920  0.750000  1
