# generated using pymatgen
data_Ca11Cr7O28
_symmetry_space_group_name_H-M   'P 1'
_cell_length_a   14.27816496
_cell_length_b   14.27816497
_cell_length_c   14.27816521
_cell_angle_alpha   44.68348270
_cell_angle_beta   44.68348268
_cell_angle_gamma   44.68348191
_symmetry_Int_Tables_number   1
_chemical_formula_structural   Ca11Cr7O28
_chemical_formula_sum   'Ca22 Cr14 O56'
_cell_volume   1309.17940071
_cell_formula_units_Z   2
loop_
 _symmetry_equiv_pos_site_id
 _symmetry_equiv_pos_as_xyz
  1  'x, y, z'
loop_
 _atom_site_type_symbol
 _atom_site_label
 _atom_site_symmetry_multiplicity
 _atom_site_fract_x
 _atom_site_fract_y
 _atom_site_fract_z
 _atom_site_occupancy
  Ca  Ca0  1  0.079774  0.079774  0.079774  1
  Ca  Ca1  1  0.273436  0.273436  0.273436  1
  Ca  Ca2  1  0.194941  0.212871  0.619313  1
  Ca  Ca3  1  0.212871  0.619313  0.194941  1
  Ca  Ca4  1  0.619313  0.194941  0.212871  1
  Ca  Ca5  1  0.305629  0.334517  0.705452  1
  Ca  Ca6  1  0.119313  0.712871  0.694941  1
  Ca  Ca7  1  0.334517  0.705452  0.305629  1
  Ca  Ca8  1  0.705452  0.305629  0.334517  1
  Ca  Ca9  1  0.339127  0.920015  0.369290  1
  Ca  Ca10  1  0.694941  0.119313  0.712871  1
  Ca  Ca11  1  0.369290  0.339127  0.920015  1
  Ca  Ca12  1  0.712871  0.694941  0.119313  1
  Ca  Ca13  1  0.205452  0.834517  0.805629  1
  Ca  Ca14  1  0.920015  0.369290  0.339127  1
  Ca  Ca15  1  0.579774  0.579774  0.579774  1
  Ca  Ca16  1  0.805629  0.205452  0.834517  1
  Ca  Ca17  1  0.834517  0.805629  0.205452  1
  Ca  Ca18  1  0.420015  0.839127  0.869290  1
  Ca  Ca19  1  0.839127  0.869290  0.420015  1
  Ca  Ca20  1  0.869290  0.420015  0.839127  1
  Ca  Ca21  1  0.773436  0.773436  0.773436  1
  Cr  Cr22  1  0.006301  0.006301  0.006301  1
  Cr  Cr23  1  0.971610  0.006909  0.445674  1
  Cr  Cr24  1  0.006909  0.445674  0.971610  1
  Cr  Cr25  1  0.445674  0.971610  0.006909  1
  Cr  Cr26  1  0.044831  0.089699  0.591529  1
  Cr  Cr27  1  0.089699  0.591529  0.044831  1
  Cr  Cr28  1  0.591529  0.044831  0.089699  1
  Cr  Cr29  1  0.506301  0.506301  0.506301  1
  Cr  Cr30  1  0.471610  0.945674  0.506909  1
  Cr  Cr31  1  0.506909  0.471610  0.945674  1
  Cr  Cr32  1  0.945674  0.506909  0.471610  1
  Cr  Cr33  1  0.544831  0.091529  0.589699  1
  Cr  Cr34  1  0.589699  0.544831  0.091529  1
  Cr  Cr35  1  0.091529  0.589699  0.544831  1
  O  O36  1  0.960239  0.960239  0.960239  1
  O  O37  1  0.874830  0.028616  0.174950  1
  O  O38  1  0.028616  0.174950  0.874830  1
  O  O39  1  0.174950  0.874830  0.028616  1
  O  O40  1  0.941378  0.020339  0.336744  1
  O  O41  1  0.020339  0.336744  0.941378  1
  O  O42  1  0.336744  0.941378  0.020339  1
  O  O43  1  0.911498  0.404704  0.153769  1
  O  O44  1  0.912765  0.634322  0.893994  1
  O  O45  1  0.893994  0.912765  0.634322  1
  O  O46  1  0.872153  0.184199  0.429334  1
  O  O47  1  0.184199  0.429334  0.872153  1
  O  O48  1  0.153769  0.911498  0.404704  1
  O  O49  1  0.429334  0.872153  0.184199  1
  O  O50  1  0.404704  0.153769  0.911498  1
  O  O51  1  0.905278  0.661175  0.108879  1
  O  O52  1  0.861728  0.199075  0.631405  1
  O  O53  1  0.108879  0.905278  0.661175  1
  O  O54  1  0.634322  0.893994  0.912765  1
  O  O55  1  0.135590  0.152267  0.403598  1
  O  O56  1  0.152267  0.403598  0.135590  1
  O  O57  1  0.199075  0.631405  0.861728  1
  O  O58  1  0.087220  0.107186  0.663850  1
  O  O59  1  0.107186  0.663850  0.087220  1
  O  O60  1  0.403598  0.135590  0.152267  1
  O  O61  1  0.661175  0.108879  0.905278  1
  O  O62  1  0.631405  0.861728  0.199075  1
  O  O63  1  0.663850  0.087220  0.107186  1
  O  O64  1  0.460239  0.460239  0.460239  1
  O  O65  1  0.374830  0.674950  0.528616  1
  O  O66  1  0.528616  0.374830  0.674950  1
  O  O67  1  0.674950  0.528616  0.374830  1
  O  O68  1  0.441378  0.836744  0.520339  1
  O  O69  1  0.520339  0.441378  0.836744  1
  O  O70  1  0.836744  0.520339  0.441378  1
  O  O71  1  0.411498  0.653769  0.904704  1
  O  O72  1  0.372153  0.929334  0.684199  1
  O  O73  1  0.412765  0.393994  0.134322  1
  O  O74  1  0.393994  0.134322  0.412765  1
  O  O75  1  0.653769  0.904704  0.411498  1
  O  O76  1  0.684199  0.372153  0.929334  1
  O  O77  1  0.904704  0.411498  0.653769  1
  O  O78  1  0.929334  0.684199  0.372153  1
  O  O79  1  0.405278  0.608879  0.161175  1
  O  O80  1  0.361728  0.131405  0.699075  1
  O  O81  1  0.608879  0.161175  0.405278  1
  O  O82  1  0.134322  0.412765  0.393994  1
  O  O83  1  0.635590  0.903598  0.652267  1
  O  O84  1  0.652267  0.635590  0.903598  1
  O  O85  1  0.699075  0.361728  0.131405  1
  O  O86  1  0.587220  0.163850  0.607186  1
  O  O87  1  0.607186  0.587220  0.163850  1
  O  O88  1  0.903598  0.652267  0.635590  1
  O  O89  1  0.161175  0.405278  0.608879  1
  O  O90  1  0.131405  0.699075  0.361728  1
  O  O91  1  0.163850  0.607186  0.587220  1
