# generated using pymatgen
data_BaCuAs2O7
_symmetry_space_group_name_H-M   'P 1'
_cell_length_a   6.01172420
_cell_length_b   8.52500233
_cell_length_c   13.22687401
_cell_angle_alpha   90.00000000
_cell_angle_beta   92.03841165
_cell_angle_gamma   90.00000000
_symmetry_Int_Tables_number   1
_chemical_formula_structural   BaCuAs2O7
_chemical_formula_sum   'Ba4 Cu4 As8 O28'
_cell_volume   677.44784426
_cell_formula_units_Z   4
loop_
 _symmetry_equiv_pos_site_id
 _symmetry_equiv_pos_as_xyz
  1  'x, y, z'
loop_
 _atom_site_type_symbol
 _atom_site_label
 _atom_site_symmetry_multiplicity
 _atom_site_fract_x
 _atom_site_fract_y
 _atom_site_fract_z
 _atom_site_occupancy
  O  O0  1  0.693490  0.588098  0.893596  1
  O  O1  1  0.806510  0.088098  0.606404  1
  O  O2  1  0.306510  0.411902  0.106404  1
  O  O3  1  0.193490  0.911902  0.393596  1
  O  O4  1  0.114310  0.649418  0.986966  1
  O  O5  1  0.385690  0.149418  0.513034  1
  O  O6  1  0.885690  0.350582  0.013034  1
  O  O7  1  0.614310  0.850582  0.486966  1
  O  O8  1  0.714881  0.658201  0.107779  1
  O  O9  1  0.785119  0.158201  0.392221  1
  O  O10  1  0.285119  0.341799  0.892221  1
  O  O11  1  0.214881  0.841799  0.607779  1
  O  O12  1  0.793824  0.886587  0.966765  1
  O  O13  1  0.706176  0.386587  0.533235  1
  O  O14  1  0.206176  0.113412  0.033235  1
  O  O15  1  0.293824  0.613413  0.466765  1
  O  O16  1  0.424498  0.627310  0.261087  1
  O  O17  1  0.075502  0.127310  0.238913  1
  O  O18  1  0.575502  0.372690  0.738913  1
  O  O19  1  0.924498  0.872690  0.761087  1
  O  O20  1  0.023318  0.443506  0.689973  1
  O  O21  1  0.476682  0.943506  0.810027  1
  O  O22  1  0.976682  0.556494  0.310027  1
  O  O23  1  0.523318  0.056494  0.189973  1
  O  O24  1  0.347309  0.346316  0.348808  1
  O  O25  1  0.152691  0.846316  0.151192  1
  O  O26  1  0.652691  0.653684  0.651192  1
  O  O27  1  0.847309  0.153684  0.848808  1
  Cu  Cu28  1  0.725934  0.358751  0.878921  1
  Cu  Cu29  1  0.225934  0.141249  0.378921  1
  Cu  Cu30  1  0.274066  0.641249  0.121079  1
  Cu  Cu31  1  0.774066  0.858751  0.621079  1
  As  As32  1  0.751684  0.465814  0.657126  1
  As  As33  1  0.829915  0.680568  0.994506  1
  As  As34  1  0.251684  0.034186  0.157126  1
  As  As35  1  0.248316  0.534186  0.342874  1
  As  As36  1  0.170085  0.319432  0.005494  1
  As  As37  1  0.329915  0.819432  0.494506  1
  As  As38  1  0.670085  0.180568  0.505494  1
  As  As39  1  0.748316  0.965814  0.842874  1
  Ba  Ba40  1  0.710842  0.349001  0.212797  1
  Ba  Ba41  1  0.789158  0.849001  0.287203  1
  Ba  Ba42  1  0.289158  0.650999  0.787203  1
  Ba  Ba43  1  0.210842  0.150999  0.712797  1
