# generated using pymatgen
data_NaHO
_symmetry_space_group_name_H-M   'P 1'
_cell_length_a   5.97040236
_cell_length_b   3.35204054
_cell_length_c   5.97040236
_cell_angle_alpha   99.12276700
_cell_angle_beta   34.93846880
_cell_angle_gamma   99.12276700
_symmetry_Int_Tables_number   1
_chemical_formula_structural   NaHO
_chemical_formula_sum   'Na2 H2 O2'
_cell_volume   67.47721459
_cell_formula_units_Z   2
loop_
 _symmetry_equiv_pos_site_id
 _symmetry_equiv_pos_as_xyz
  1  'x, y, z'
loop_
 _atom_site_type_symbol
 _atom_site_label
 _atom_site_symmetry_multiplicity
 _atom_site_fract_x
 _atom_site_fract_y
 _atom_site_fract_z
 _atom_site_occupancy
  Na  Na0  1  0.361130  0.251202  0.361130  1
  Na  Na1  1  0.649440  0.806365  0.649440  1
  H  H2  1  0.183485  0.478203  0.183485  1
  H  H3  1  0.944069  0.875890  0.944069  1
  O  O4  1  0.133545  0.214568  0.133545  1
  O  O5  1  0.859826  0.751325  0.859826  1
