# generated using pymatgen
data_As5Pb3S10
_symmetry_space_group_name_H-M   'P 1'
_cell_length_a   8.17179442
_cell_length_b   8.74002427
_cell_length_c   25.77954068
_cell_angle_alpha   95.17254520
_cell_angle_beta   90.00000000
_cell_angle_gamma   90.00000000
_symmetry_Int_Tables_number   1
_chemical_formula_structural   As5Pb3S10
_chemical_formula_sum   'As20 Pb12 S40'
_cell_volume   1833.72017767
_cell_formula_units_Z   4
loop_
 _symmetry_equiv_pos_site_id
 _symmetry_equiv_pos_as_xyz
  1  'x, y, z'
loop_
 _atom_site_type_symbol
 _atom_site_label
 _atom_site_symmetry_multiplicity
 _atom_site_fract_x
 _atom_site_fract_y
 _atom_site_fract_z
 _atom_site_occupancy
  As  As0  1  0.162409  0.836919  0.547274  1
  As  As1  1  0.837591  0.163081  0.452726  1
  As  As2  1  0.337591  0.336919  0.047274  1
  As  As3  1  0.694636  0.074554  0.932513  1
  As  As4  1  0.343050  0.104695  0.851761  1
  As  As5  1  0.508158  0.841199  0.452186  1
  As  As6  1  0.991842  0.341199  0.952186  1
  As  As7  1  0.008158  0.658801  0.047814  1
  As  As8  1  0.850597  0.969053  0.660637  1
  As  As9  1  0.649403  0.469053  0.160637  1
  As  As10  1  0.656950  0.895305  0.148239  1
  As  As11  1  0.805364  0.574554  0.432513  1
  As  As12  1  0.305364  0.925446  0.067487  1
  As  As13  1  0.156950  0.604695  0.351761  1
  As  As14  1  0.194636  0.425446  0.567487  1
  As  As15  1  0.491842  0.158801  0.547814  1
  As  As16  1  0.662409  0.663081  0.952726  1
  As  As17  1  0.350597  0.530947  0.839363  1
  As  As18  1  0.149403  0.030947  0.339363  1
  As  As19  1  0.843050  0.395305  0.648239  1
  Pb  Pb20  1  0.773607  0.285799  0.301318  1
  Pb  Pb21  1  0.737179  0.265812  0.790812  1
  Pb  Pb22  1  0.086715  0.823145  0.920820  1
  Pb  Pb23  1  0.586715  0.676855  0.579180  1
  Pb  Pb24  1  0.237179  0.234188  0.709188  1
  Pb  Pb25  1  0.262821  0.734188  0.209188  1
  Pb  Pb26  1  0.413285  0.323145  0.420820  1
  Pb  Pb27  1  0.762821  0.765812  0.290812  1
  Pb  Pb28  1  0.226393  0.714201  0.698682  1
  Pb  Pb29  1  0.273607  0.214201  0.198682  1
  Pb  Pb30  1  0.726393  0.785799  0.801318  1
  Pb  Pb31  1  0.913285  0.176855  0.079180  1
  S  S32  1  0.184969  0.307560  0.824713  1
  S  S33  1  0.480846  0.142927  0.088545  1
  S  S34  1  0.002922  0.002309  0.264607  1
  S  S35  1  0.670478  0.329598  0.506586  1
  S  S36  1  0.487081  0.035920  0.778152  1
  S  S37  1  0.170478  0.170402  0.993414  1
  S  S38  1  0.844245  0.597102  0.888765  1
  S  S39  1  0.470272  0.739563  0.101505  1
  S  S40  1  0.816391  0.421849  0.014441  1
  S  S41  1  0.675642  0.790368  0.682784  1
  S  S42  1  0.875345  0.030744  0.866383  1
  S  S43  1  0.329522  0.670402  0.493414  1
  S  S44  1  0.315031  0.807560  0.324713  1
  S  S45  1  0.497078  0.502309  0.764607  1
  S  S46  1  0.175642  0.709632  0.817216  1
  S  S47  1  0.684969  0.192440  0.675287  1
  S  S48  1  0.019154  0.642927  0.588545  1
  S  S49  1  0.316391  0.078151  0.485559  1
  S  S50  1  0.824358  0.290368  0.182784  1
  S  S51  1  0.519154  0.857073  0.911455  1
  S  S52  1  0.324358  0.209632  0.317216  1
  S  S53  1  0.987081  0.464080  0.721848  1
  S  S54  1  0.183609  0.578151  0.985559  1
  S  S55  1  0.655755  0.097102  0.388765  1
  S  S56  1  0.029728  0.239563  0.601505  1
  S  S57  1  0.502922  0.497691  0.235393  1
  S  S58  1  0.155755  0.402898  0.111235  1
  S  S59  1  0.970272  0.760437  0.398495  1
  S  S60  1  0.624655  0.530744  0.366383  1
  S  S61  1  0.829522  0.829598  0.006586  1
  S  S62  1  0.997078  0.997691  0.735393  1
  S  S63  1  0.124655  0.969256  0.133617  1
  S  S64  1  0.375345  0.469256  0.633617  1
  S  S65  1  0.344245  0.902898  0.611235  1
  S  S66  1  0.529728  0.260437  0.898495  1
  S  S67  1  0.512919  0.964080  0.221848  1
  S  S68  1  0.815031  0.692440  0.175287  1
  S  S69  1  0.980846  0.357073  0.411455  1
  S  S70  1  0.683609  0.921849  0.514441  1
  S  S71  1  0.012919  0.535920  0.278152  1
