# generated using pymatgen
data_UInNi4
_symmetry_space_group_name_H-M   'P 1'
_cell_length_a   4.91134482
_cell_length_b   4.90633770
_cell_length_c   4.91366974
_cell_angle_alpha   60.00094254
_cell_angle_beta   59.91873455
_cell_angle_gamma   60.04720281
_symmetry_Int_Tables_number   1
_chemical_formula_structural   UInNi4
_chemical_formula_sum   'U1 In1 Ni4'
_cell_volume   83.70260629
_cell_formula_units_Z   1
loop_
 _symmetry_equiv_pos_site_id
 _symmetry_equiv_pos_as_xyz
  1  'x, y, z'
loop_
 _atom_site_type_symbol
 _atom_site_label
 _atom_site_symmetry_multiplicity
 _atom_site_fract_x
 _atom_site_fract_y
 _atom_site_fract_z
 _atom_site_occupancy
  U  U0  1  0.000027  0.999920  0.000257  1
  In  In1  1  0.250160  0.249979  0.249866  1
  Ni  Ni2  1  0.624183  0.624394  0.127154  1
  Ni  Ni3  1  0.624217  0.624255  0.624325  1
  Ni  Ni4  1  0.127202  0.624218  0.624162  1
  Ni  Ni5  1  0.624212  0.127234  0.624237  1
