# generated using pymatgen
data_ZrCl3
_symmetry_space_group_name_H-M   'P 1'
_cell_length_a   10.89638006
_cell_length_b   6.29102818
_cell_length_c   7.48026954
_cell_angle_alpha   65.13333041
_cell_angle_beta   60.95077001
_cell_angle_gamma   30.00000345
_symmetry_Int_Tables_number   1
_chemical_formula_structural   ZrCl3
_chemical_formula_sum   'Zr2 Cl6'
_cell_volume   224.13174666
_cell_formula_units_Z   2
loop_
 _symmetry_equiv_pos_site_id
 _symmetry_equiv_pos_as_xyz
  1  'x, y, z'
loop_
 _atom_site_type_symbol
 _atom_site_label
 _atom_site_symmetry_multiplicity
 _atom_site_fract_x
 _atom_site_fract_y
 _atom_site_fract_z
 _atom_site_occupancy
  Zr  Zr0  1  0.333636  0.000000  -0.000909  1
  Zr  Zr1  1  0.666364  0.000000  0.000909  1
  Cl  Cl2  1  0.077320  0.339909  0.768839  1
  Cl  Cl3  1  0.263388  0.659293  0.231161  1
  Cl  Cl4  1  0.417229  0.319383  0.768839  1
  Cl  Cl5  1  0.582771  0.680617  0.231161  1
  Cl  Cl6  1  0.736612  0.340707  0.768839  1
  Cl  Cl7  1  0.922680  0.660091  0.231161  1
