# generated using pymatgen
data_Ba(HO)2
_symmetry_space_group_name_H-M   'P 1'
_cell_length_a   9.13888913
_cell_length_b   8.26256204
_cell_length_c   7.04470116
_cell_angle_alpha   90.00000000
_cell_angle_beta   97.72643384
_cell_angle_gamma   90.00000000
_symmetry_Int_Tables_number   1
_chemical_formula_structural   Ba(HO)2
_chemical_formula_sum   'Ba8 H16 O16'
_cell_volume   527.12045710
_cell_formula_units_Z   8
loop_
 _symmetry_equiv_pos_site_id
 _symmetry_equiv_pos_as_xyz
  1  'x, y, z'
loop_
 _atom_site_type_symbol
 _atom_site_label
 _atom_site_symmetry_multiplicity
 _atom_site_fract_x
 _atom_site_fract_y
 _atom_site_fract_z
 _atom_site_occupancy
  Ba  Ba0  1  0.904439  0.133808  0.236480  1
  Ba  Ba1  1  0.404439  0.366192  0.736480  1
  Ba  Ba2  1  0.095561  0.866192  0.763520  1
  Ba  Ba3  1  0.595561  0.633808  0.263520  1
  Ba  Ba4  1  0.328841  0.039691  0.294635  1
  Ba  Ba5  1  0.828841  0.460309  0.794635  1
  Ba  Ba6  1  0.671159  0.960309  0.705365  1
  Ba  Ba7  1  0.171159  0.539691  0.205365  1
  H  H8  1  0.616618  0.016465  0.189430  1
  H  H9  1  0.116618  0.483535  0.689430  1
  H  H10  1  0.383382  0.983535  0.810570  1
  H  H11  1  0.883382  0.516465  0.310570  1
  H  H12  1  0.176084  0.800847  0.415252  1
  H  H13  1  0.676084  0.699153  0.915252  1
  H  H14  1  0.823916  0.199153  0.584748  1
  H  H15  1  0.323916  0.300847  0.084748  1
  H  H16  1  0.924771  0.813854  0.105263  1
  H  H17  1  0.424771  0.686146  0.605263  1
  H  H18  1  0.075229  0.186146  0.894737  1
  H  H19  1  0.575229  0.313854  0.394737  1
  H  H20  1  0.397953  0.751972  0.947991  1
  H  H21  1  0.897953  0.748028  0.447991  1
  H  H22  1  0.602047  0.248028  0.052009  1
  H  H23  1  0.102047  0.251972  0.552009  1
  O  O24  1  0.623078  0.968645  0.317403  1
  O  O25  1  0.123078  0.531355  0.817403  1
  O  O26  1  0.376922  0.031355  0.682597  1
  O  O27  1  0.876922  0.468645  0.182597  1
  O  O28  1  0.084986  0.855834  0.356957  1
  O  O29  1  0.584986  0.644166  0.856957  1
  O  O30  1  0.915014  0.144166  0.643043  1
  O  O31  1  0.415014  0.355834  0.143043  1
  O  O32  1  0.865265  0.841956  0.984004  1
  O  O33  1  0.365265  0.658044  0.484004  1
  O  O34  1  0.134735  0.158044  0.015996  1
  O  O35  1  0.634735  0.341956  0.515996  1
  O  O36  1  0.334721  0.802812  0.033160  1
  O  O37  1  0.834721  0.697188  0.533160  1
  O  O38  1  0.665279  0.197188  0.966840  1
  O  O39  1  0.165279  0.302812  0.466840  1
