# generated using pymatgen
data_NaH4CNO2
_symmetry_space_group_name_H-M   'P 1'
_cell_length_a   6.82790136
_cell_length_b   10.89076719
_cell_length_c   6.15340508
_cell_angle_alpha   90.00000000
_cell_angle_beta   100.95233673
_cell_angle_gamma   90.00000000
_symmetry_Int_Tables_number   1
_chemical_formula_structural   NaH4CNO2
_chemical_formula_sum   'Na4 H16 C4 N4 O8'
_cell_volume   449.23942732
_cell_formula_units_Z   4
loop_
 _symmetry_equiv_pos_site_id
 _symmetry_equiv_pos_as_xyz
  1  'x, y, z'
loop_
 _atom_site_type_symbol
 _atom_site_label
 _atom_site_symmetry_multiplicity
 _atom_site_fract_x
 _atom_site_fract_y
 _atom_site_fract_z
 _atom_site_occupancy
  Na  Na0  1  0.435081  0.349553  0.058997  1
  Na  Na1  1  0.064919  0.849553  0.941003  1
  Na  Na2  1  0.564919  0.650447  0.941003  1
  Na  Na3  1  0.935081  0.150447  0.058997  1
  H  H4  1  0.216255  0.987552  0.354134  1
  H  H5  1  0.283745  0.487552  0.645866  1
  H  H6  1  0.783745  0.012448  0.645866  1
  H  H7  1  0.716255  0.512448  0.354134  1
  H  H8  1  0.318599  0.056615  0.181695  1
  H  H9  1  0.181401  0.556615  0.818305  1
  H  H10  1  0.681401  0.943385  0.818305  1
  H  H11  1  0.818599  0.443385  0.181695  1
  H  H12  1  0.222951  0.238728  0.626843  1
  H  H13  1  0.277049  0.738728  0.373157  1
  H  H14  1  0.777049  0.761272  0.373157  1
  H  H15  1  0.722951  0.261272  0.626843  1
  H  H16  1  0.087043  0.294567  0.770525  1
  H  H17  1  0.412957  0.794567  0.229475  1
  H  H18  1  0.912957  0.705433  0.229475  1
  H  H19  1  0.587043  0.205433  0.770525  1
  C  C20  1  0.121577  0.343140  0.256659  1
  C  C21  1  0.378423  0.843140  0.743341  1
  C  C22  1  0.878423  0.656860  0.743341  1
  C  C23  1  0.621577  0.156860  0.256659  1
  N  N24  1  0.215544  0.410649  0.385203  1
  N  N25  1  0.284456  0.910649  0.614797  1
  N  N26  1  0.784456  0.589351  0.614797  1
  N  N27  1  0.715544  0.089351  0.385203  1
  O  O28  1  0.193058  0.234049  0.776377  1
  O  O29  1  0.306942  0.734049  0.223623  1
  O  O30  1  0.806942  0.765951  0.223623  1
  O  O31  1  0.693058  0.265951  0.776377  1
  O  O32  1  0.192731  0.017783  0.197903  1
  O  O33  1  0.307269  0.517783  0.802097  1
  O  O34  1  0.807269  0.982217  0.802097  1
  O  O35  1  0.692731  0.482217  0.197903  1
