# generated using pymatgen
data_Ca6TiAl5Si6(O5F)5
_symmetry_space_group_name_H-M   'P 1'
_cell_length_a   5.40725762
_cell_length_b   5.40492666
_cell_length_c   42.35299646
_cell_angle_alpha   104.63021039
_cell_angle_beta   104.65577827
_cell_angle_gamma   105.71598629
_symmetry_Int_Tables_number   1
_chemical_formula_structural   Ca6TiAl5Si6(O5F)5
_chemical_formula_sum   'Ca12 Ti2 Al10 Si12 O50 F10'
_cell_volume   1082.06705223
_cell_formula_units_Z   2
loop_
 _symmetry_equiv_pos_site_id
 _symmetry_equiv_pos_as_xyz
  1  'x, y, z'
loop_
 _atom_site_type_symbol
 _atom_site_label
 _atom_site_symmetry_multiplicity
 _atom_site_fract_x
 _atom_site_fract_y
 _atom_site_fract_z
 _atom_site_occupancy
  Ca  Ca0  1  0.154216  0.825172  0.956538  1
  Ca  Ca1  1  0.162829  0.836557  0.790831  1
  Ca  Ca2  1  0.163126  0.836393  0.624564  1
  Ca  Ca3  1  0.163193  0.836439  0.457948  1
  Ca  Ca4  1  0.834280  0.160923  0.873379  1
  Ca  Ca5  1  0.163663  0.836882  0.291762  1
  Ca  Ca6  1  0.836379  0.162971  0.707819  1
  Ca  Ca7  1  0.176525  0.844453  0.128119  1
  Ca  Ca8  1  0.836425  0.163156  0.541268  1
  Ca  Ca9  1  0.836651  0.163264  0.374682  1
  Ca  Ca10  1  0.839479  0.166430  0.209191  1
  Ca  Ca11  1  0.834709  0.163008  0.044117  1
  Ti  Ti12  1  0.502543  0.511296  0.087232  1
  Ti  Ti13  1  0.503194  0.486439  0.002521  1
  Al  Al14  1  0.493038  0.496449  0.915028  1
  Al  Al15  1  0.498602  0.499345  0.832594  1
  Al  Al16  1  0.499588  0.499299  0.749661  1
  Al  Al17  1  0.499457  0.499739  0.666525  1
  Al  Al18  1  0.499821  0.499548  0.583278  1
  Al  Al19  1  0.499594  0.499819  0.499978  1
  Al  Al20  1  0.499912  0.499672  0.416704  1
  Al  Al21  1  0.500149  0.500199  0.333514  1
  Al  Al22  1  0.501549  0.501239  0.250548  1
  Al  Al23  1  0.503255  0.508793  0.167409  1
  Si  Si24  1  0.183628  0.811870  0.873745  1
  Si  Si25  1  0.186331  0.813392  0.708166  1
  Si  Si26  1  0.186517  0.813568  0.541657  1
  Si  Si27  1  0.801918  0.174934  0.955110  1
  Si  Si28  1  0.186873  0.813858  0.375130  1
  Si  Si29  1  0.813336  0.186387  0.791255  1
  Si  Si30  1  0.190008  0.817563  0.209886  1
  Si  Si31  1  0.813638  0.186559  0.624992  1
  Si  Si32  1  0.183096  0.812164  0.040966  1
  Si  Si33  1  0.813725  0.186655  0.458385  1
  Si  Si34  1  0.814264  0.187118  0.292020  1
  Si  Si35  1  0.825897  0.196983  0.127994  1
  O  O36  1  0.112850  0.253578  0.982532  1
  O  O37  1  0.193035  0.602403  0.896386  1
  O  O38  1  0.128549  0.260754  0.817126  1
  O  O39  1  0.258895  0.126421  0.899937  1
  O  O40  1  0.393273  0.802341  0.851263  1
  O  O41  1  0.197521  0.605604  0.731070  1
  O  O42  1  0.595265  0.178056  0.977922  1
  O  O43  1  0.129082  0.260850  0.650855  1
  O  O44  1  0.737756  0.865189  0.929448  1
  O  O45  1  0.260855  0.128810  0.734098  1
  O  O46  1  0.394490  0.802525  0.685390  1
  O  O47  1  0.197843  0.606000  0.564619  1
  O  O48  1  0.797970  0.391904  0.933889  1
  O  O49  1  0.605659  0.197435  0.814123  1
  O  O50  1  0.129214  0.260908  0.484235  1
  O  O51  1  0.738423  0.870394  0.765565  1
  O  O52  1  0.260929  0.129194  0.567559  1
  O  O53  1  0.868906  0.738637  0.848156  1
  O  O54  1  0.394585  0.802562  0.518864  1
  O  O55  1  0.197950  0.606094  0.398052  1
  O  O56  1  0.802518  0.394636  0.768483  1
  O  O57  1  0.606045  0.197723  0.647911  1
  O  O58  1  0.129831  0.261633  0.317824  1
  O  O59  1  0.738743  0.870641  0.599240  1
  O  O60  1  0.261050  0.129437  0.400991  1
  O  O61  1  0.870552  0.738694  0.682477  1
  O  O62  1  0.395076  0.803035  0.352374  1
  O  O63  1  0.199113  0.608237  0.232452  1
  O  O64  1  0.802522  0.394651  0.602171  1
  O  O65  1  0.606163  0.197822  0.481313  1
  O  O66  1  0.133569  0.260435  0.154019  1
  O  O67  1  0.738802  0.870757  0.432621  1
  O  O68  1  0.261663  0.132042  0.235539  1
  O  O69  1  0.870755  0.738798  0.515942  1
  O  O70  1  0.399279  0.808658  0.187346  1
  O  O71  1  0.181705  0.598487  0.062520  1
  O  O72  1  0.802608  0.394738  0.435564  1
  O  O73  1  0.606543  0.198039  0.314906  1
  O  O74  1  0.432343  0.571944  0.126369  1
  O  O75  1  0.739825  0.871712  0.266248  1
  O  O76  1  0.254134  0.116319  0.068506  1
  O  O77  1  0.871322  0.738987  0.349377  1
  O  O78  1  0.393751  0.811113  0.018623  1
  O  O79  1  0.803318  0.395130  0.269209  1
  O  O80  1  0.609399  0.198171  0.149260  1
  O  O81  1  0.749281  0.890449  0.099080  1
  O  O82  1  0.574026  0.426172  0.041568  1
  O  O83  1  0.876663  0.741003  0.183576  1
  O  O84  1  0.820937  0.402553  0.104820  1
  O  O85  1  0.877605  0.745940  0.013182  1
  F  F86  1  0.426753  0.570853  0.955807  1
  F  F87  1  0.430397  0.567467  0.791181  1
  F  F88  1  0.565526  0.428291  0.873920  1
  F  F89  1  0.431656  0.568132  0.625009  1
  F  F90  1  0.568011  0.431467  0.708202  1
  F  F91  1  0.431942  0.568385  0.458441  1
  F  F92  1  0.568304  0.431818  0.541730  1
  F  F93  1  0.434335  0.570953  0.292308  1
  F  F94  1  0.568607  0.432034  0.375192  1
  F  F95  1  0.570871  0.434451  0.209094  1
