# generated using pymatgen
data_Cu2GeP2(H5O7)2
_symmetry_space_group_name_H-M   'P 1'
_cell_length_a   5.11345225
_cell_length_b   8.66627431
_cell_length_c   12.57084399
_cell_angle_alpha   90.00000000
_cell_angle_beta   90.83225715
_cell_angle_gamma   90.00000000
_symmetry_Int_Tables_number   1
_chemical_formula_structural   Cu2GeP2(H5O7)2
_chemical_formula_sum   'Cu4 Ge2 P4 H20 O28'
_cell_volume   557.01290181
_cell_formula_units_Z   2
loop_
 _symmetry_equiv_pos_site_id
 _symmetry_equiv_pos_as_xyz
  1  'x, y, z'
loop_
 _atom_site_type_symbol
 _atom_site_label
 _atom_site_symmetry_multiplicity
 _atom_site_fract_x
 _atom_site_fract_y
 _atom_site_fract_z
 _atom_site_occupancy
  Cu  Cu0  1  0.270933  0.961154  0.729035  1
  Cu  Cu1  1  0.229067  0.461154  0.770965  1
  Cu  Cu2  1  0.729067  0.038846  0.270965  1
  Cu  Cu3  1  0.770933  0.538846  0.229035  1
  Ge  Ge4  1  0.500000  0.000000  0.000000  1
  Ge  Ge5  1  0.000000  0.500000  0.500000  1
  P  P6  1  0.002120  0.174393  0.901213  1
  P  P7  1  0.502120  0.325607  0.401213  1
  P  P8  1  0.497880  0.674393  0.598787  1
  P  P9  1  0.997880  0.825607  0.098787  1
  H  H10  1  0.703220  0.752383  0.343151  1
  H  H11  1  0.689051  0.950308  0.832083  1
  H  H12  1  0.296780  0.247617  0.656849  1
  H  H13  1  0.936268  0.142694  0.434099  1
  H  H14  1  0.673126  0.413480  0.866170  1
  H  H15  1  0.563732  0.642694  0.065901  1
  H  H16  1  0.810949  0.450308  0.667917  1
  H  H17  1  0.436268  0.357306  0.934099  1
  H  H18  1  0.203220  0.747617  0.843151  1
  H  H19  1  0.945080  0.689305  0.887758  1
  H  H20  1  0.826874  0.913480  0.633830  1
  H  H21  1  0.310949  0.049692  0.167917  1
  H  H22  1  0.173126  0.086520  0.366170  1
  H  H23  1  0.189051  0.549692  0.332083  1
  H  H24  1  0.445080  0.810695  0.387758  1
  H  H25  1  0.796780  0.252383  0.156849  1
  H  H26  1  0.063732  0.857306  0.565901  1
  H  H27  1  0.554920  0.189305  0.612242  1
  H  H28  1  0.054920  0.310695  0.112242  1
  H  H29  1  0.326874  0.586520  0.133830  1
  O  O30  1  0.525678  0.840193  0.643535  1
  O  O31  1  0.225158  0.852658  0.019703  1
  O  O32  1  0.025678  0.659807  0.143535  1
  O  O33  1  0.507680  0.548212  0.684844  1
  O  O34  1  0.474322  0.159807  0.356465  1
  O  O35  1  0.735773  0.828701  0.032371  1
  O  O36  1  0.774842  0.147342  0.980297  1
  O  O37  1  0.050736  0.685650  0.823137  1
  O  O38  1  0.007427  0.943792  0.611628  1
  O  O39  1  0.993121  0.433011  0.643314  1
  O  O40  1  0.235773  0.671299  0.532371  1
  O  O41  1  0.007680  0.951788  0.184844  1
  O  O42  1  0.006879  0.566989  0.356686  1
  O  O43  1  0.974322  0.340193  0.856465  1
  O  O44  1  0.764227  0.328701  0.467629  1
  O  O45  1  0.274842  0.352658  0.480297  1
  O  O46  1  0.992320  0.048212  0.815156  1
  O  O47  1  0.506879  0.933011  0.856686  1
  O  O48  1  0.492573  0.443792  0.888372  1
  O  O49  1  0.507427  0.556208  0.111628  1
  O  O50  1  0.725158  0.647342  0.519703  1
  O  O51  1  0.550736  0.814350  0.323137  1
  O  O52  1  0.449264  0.185650  0.676863  1
  O  O53  1  0.949264  0.314350  0.176863  1
  O  O54  1  0.493121  0.066989  0.143314  1
  O  O55  1  0.492320  0.451788  0.315156  1
  O  O56  1  0.264227  0.171299  0.967629  1
  O  O57  1  0.992573  0.056208  0.388372  1
