# generated using pymatgen
data_Sc6Pb5
_symmetry_space_group_name_H-M   'P 1'
_cell_length_a   6.24751972
_cell_length_b   9.02008468
_cell_length_c   11.18353047
_cell_angle_alpha   113.78309885
_cell_angle_beta   106.21949983
_cell_angle_gamma   90.00000068
_symmetry_Int_Tables_number   1
_chemical_formula_structural   Sc6Pb5
_chemical_formula_sum   'Sc12 Pb10'
_cell_volume   549.18454614
_cell_formula_units_Z   2
loop_
 _symmetry_equiv_pos_site_id
 _symmetry_equiv_pos_as_xyz
  1  'x, y, z'
loop_
 _atom_site_type_symbol
 _atom_site_label
 _atom_site_symmetry_multiplicity
 _atom_site_fract_x
 _atom_site_fract_y
 _atom_site_fract_z
 _atom_site_occupancy
  Sc  Sc0  1  0.445376  0.695376  0.390752  1
  Sc  Sc1  1  0.642652  0.032351  0.285305  1
  Sc  Sc2  1  0.939882  0.205899  0.879765  1
  Sc  Sc3  1  0.142652  0.252954  0.285305  1
  Sc  Sc4  1  0.857348  0.747046  0.714695  1
  Sc  Sc5  1  0.560118  0.326134  0.120235  1
  Sc  Sc6  1  0.439882  0.673866  0.879765  1
  Sc  Sc7  1  0.554624  0.304624  0.609248  1
  Sc  Sc8  1  0.060118  0.794101  0.120235  1
  Sc  Sc9  1  0.054624  0.304624  0.609248  1
  Sc  Sc10  1  0.357348  0.967649  0.714695  1
  Sc  Sc11  1  0.945376  0.695376  0.390752  1
  Pb  Pb12  1  0.575140  0.676678  0.150280  1
  Pb  Pb13  1  0.793434  0.990713  0.586868  1
  Pb  Pb14  1  0.075140  0.473602  0.150280  1
  Pb  Pb15  1  0.250000  0.000000  0.000000  1
  Pb  Pb16  1  0.293434  0.596155  0.586868  1
  Pb  Pb17  1  0.424860  0.323322  0.849720  1
  Pb  Pb18  1  0.706566  0.403845  0.413132  1
  Pb  Pb19  1  0.206566  0.009287  0.413132  1
  Pb  Pb20  1  0.924860  0.526398  0.849720  1
  Pb  Pb21  1  0.750000  0.000000  0.000000  1
