# generated using pymatgen
data_AgSbPbS3
_symmetry_space_group_name_H-M   'P 1'
_cell_length_a   5.85522520
_cell_length_b   8.19797660
_cell_length_c   12.18434667
_cell_angle_alpha   90.00000000
_cell_angle_beta   90.00000000
_cell_angle_gamma   88.19180901
_symmetry_Int_Tables_number   1
_chemical_formula_structural   AgSbPbS3
_chemical_formula_sum   'Ag4 Sb4 Pb4 S12'
_cell_volume   584.56958863
_cell_formula_units_Z   4
loop_
 _symmetry_equiv_pos_site_id
 _symmetry_equiv_pos_as_xyz
  1  'x, y, z'
loop_
 _atom_site_type_symbol
 _atom_site_label
 _atom_site_symmetry_multiplicity
 _atom_site_fract_x
 _atom_site_fract_y
 _atom_site_fract_z
 _atom_site_occupancy
  Ag  Ag0  1  0.268267  0.602149  0.090815  1
  Ag  Ag1  1  0.731733  0.397851  0.909185  1
  Ag  Ag2  1  0.268267  0.102149  0.409185  1
  Ag  Ag3  1  0.731733  0.897851  0.590815  1
  Sb  Sb4  1  0.250751  0.610728  0.749222  1
  Sb  Sb5  1  0.250751  0.110728  0.750778  1
  Sb  Sb6  1  0.749249  0.389272  0.250778  1
  Sb  Sb7  1  0.749249  0.889272  0.249222  1
  Pb  Pb8  1  0.767571  0.360531  0.579726  1
  Pb  Pb9  1  0.232429  0.639469  0.420274  1
  Pb  Pb10  1  0.232429  0.139469  0.079726  1
  Pb  Pb11  1  0.767571  0.860531  0.920274  1
  S  S12  1  0.264932  0.416515  0.911756  1
  S  S13  1  0.728493  0.610887  0.404507  1
  S  S14  1  0.818953  0.143921  0.773660  1
  S  S15  1  0.264932  0.916515  0.588244  1
  S  S16  1  0.271507  0.389113  0.595493  1
  S  S17  1  0.271507  0.889113  0.904507  1
  S  S18  1  0.735068  0.083485  0.411756  1
  S  S19  1  0.181047  0.856079  0.226340  1
  S  S20  1  0.735068  0.583485  0.088244  1
  S  S21  1  0.181047  0.356079  0.273660  1
  S  S22  1  0.818953  0.643921  0.726340  1
  S  S23  1  0.728493  0.110887  0.095493  1
