# generated using pymatgen
data_H7O4
_symmetry_space_group_name_H-M   'P 1'
_cell_length_a   6.28750259
_cell_length_b   6.28750259
_cell_length_c   6.28750259
_cell_angle_alpha   88.95698617
_cell_angle_beta   126.59775058
_cell_angle_gamma   114.96153114
_symmetry_Int_Tables_number   1
_chemical_formula_structural   H7O4
_chemical_formula_sum   'H14 O8'
_cell_volume   171.36169058
_cell_formula_units_Z   2
loop_
 _symmetry_equiv_pos_site_id
 _symmetry_equiv_pos_as_xyz
  1  'x, y, z'
loop_
 _atom_site_type_symbol
 _atom_site_label
 _atom_site_symmetry_multiplicity
 _atom_site_fract_x
 _atom_site_fract_y
 _atom_site_fract_z
 _atom_site_occupancy
  H  H0  1  0.000000  0.500000  0.000000  1
  H  H1  1  0.500000  0.000000  0.000000  1
  H  H2  1  0.000000  0.000000  0.500000  1
  H  H3  1  0.500000  0.500000  0.500000  1
  H  H4  1  0.750000  0.623737  0.873737  1
  H  H5  1  0.750000  0.876263  0.126263  1
  H  H6  1  0.250000  0.376263  0.126263  1
  H  H7  1  0.250000  0.123737  0.873737  1
  H  H8  1  0.993506  0.750000  0.243506  1
  H  H9  1  0.506494  0.750000  0.756494  1
  H  H10  1  0.006494  0.250000  0.756494  1
  H  H11  1  0.493506  0.250000  0.243506  1
  H  H12  1  0.500000  0.000000  0.500000  1
  H  H13  1  0.000000  0.500000  0.500000  1
  O  O14  1  0.008661  0.678118  0.078682  1
  O  O15  1  0.599435  0.929978  0.921318  1
  O  O16  1  0.900565  0.821882  0.330543  1
  O  O17  1  0.491339  0.570022  0.669457  1
  O  O18  1  0.991339  0.321882  0.921318  1
  O  O19  1  0.400565  0.070022  0.078682  1
  O  O20  1  0.099435  0.178118  0.669457  1
  O  O21  1  0.508661  0.429978  0.330543  1
