# generated using pymatgen
data_Rb2Cd2(SO4)3
_symmetry_space_group_name_H-M   'P 1'
_cell_length_a   10.96412390
_cell_length_b   10.57318632
_cell_length_c   10.55594912
_cell_angle_alpha   90.00000000
_cell_angle_beta   90.00000000
_cell_angle_gamma   91.22920163
_symmetry_Int_Tables_number   1
_chemical_formula_structural   Rb2Cd2(SO4)3
_chemical_formula_sum   'Rb8 Cd8 S12 O48'
_cell_volume   1223.42445371
_cell_formula_units_Z   4
loop_
 _symmetry_equiv_pos_site_id
 _symmetry_equiv_pos_as_xyz
  1  'x, y, z'
loop_
 _atom_site_type_symbol
 _atom_site_label
 _atom_site_symmetry_multiplicity
 _atom_site_fract_x
 _atom_site_fract_y
 _atom_site_fract_z
 _atom_site_occupancy
  Rb  Rb0  1  0.313750  0.066806  0.401732  1
  Rb  Rb1  1  0.470402  0.702558  0.144133  1
  Rb  Rb2  1  0.686250  0.933194  0.901732  1
  Rb  Rb3  1  0.827096  0.432271  0.283751  1
  Rb  Rb4  1  0.966024  0.805793  0.556212  1
  Rb  Rb5  1  0.033976  0.194207  0.056212  1
  Rb  Rb6  1  0.529598  0.297442  0.644133  1
  Rb  Rb7  1  0.172904  0.567729  0.783751  1
  Cd  Cd8  1  0.085355  0.819377  0.199824  1
  Cd  Cd9  1  0.438006  0.321790  0.995655  1
  Cd  Cd10  1  0.818062  0.587397  0.937051  1
  Cd  Cd11  1  0.181938  0.412603  0.437051  1
  Cd  Cd12  1  0.302206  0.917358  0.750666  1
  Cd  Cd13  1  0.697794  0.082642  0.250666  1
  Cd  Cd14  1  0.914645  0.180623  0.699824  1
  Cd  Cd15  1  0.561994  0.678210  0.495655  1
  S  S16  1  0.160966  0.521027  0.126159  1
  S  S17  1  0.488712  0.374439  0.316226  1
  S  S18  1  0.988484  0.125631  0.385117  1
  S  S19  1  0.789736  0.753044  0.235964  1
  S  S20  1  0.210264  0.246956  0.735964  1
  S  S21  1  0.348975  0.036956  0.067014  1
  S  S22  1  0.651025  0.963044  0.567014  1
  S  S23  1  0.266304  0.725287  0.462754  1
  S  S24  1  0.011516  0.874369  0.885117  1
  S  S25  1  0.839034  0.478973  0.626159  1
  S  S26  1  0.733696  0.274713  0.962754  1
  S  S27  1  0.511288  0.625560  0.816226  1
  O  O28  1  0.560567  0.258680  0.333566  1
  O  O29  1  0.073932  0.234584  0.360822  1
  O  O30  1  0.747026  0.698404  0.112232  1
  O  O31  1  0.204854  0.107893  0.728155  1
  O  O32  1  0.729197  0.060069  0.625148  1
  O  O33  1  0.137456  0.834146  0.850698  1
  O  O34  1  0.602360  0.232907  0.920105  1
  O  O35  1  0.184856  0.816438  0.389172  1
  O  O36  1  0.101696  0.482765  0.248259  1
  O  O37  1  0.466775  0.059828  0.155653  1
  O  O38  1  0.085467  0.292639  0.768817  1
  O  O39  1  0.790497  0.344371  0.629900  1
  O  O40  1  0.542120  0.477543  0.396905  1
  O  O41  1  0.926068  0.765416  0.860822  1
  O  O42  1  0.795146  0.892107  0.228155  1
  O  O43  1  0.296651  0.295549  0.834851  1
  O  O44  1  0.008617  0.912299  0.021826  1
  O  O45  1  0.040361  0.556523  0.033870  1
  O  O46  1  0.439433  0.741320  0.833566  1
  O  O47  1  0.940471  0.458478  0.034756  1
  O  O48  1  0.991383  0.087701  0.521826  1
  O  O49  1  0.209503  0.655629  0.129900  1
  O  O50  1  0.608644  0.994232  0.440093  1
  O  O51  1  0.299788  0.166023  0.080765  1
  O  O52  1  0.898304  0.517235  0.748259  1
  O  O53  1  0.914533  0.707361  0.268817  1
  O  O54  1  0.561411  0.962543  0.144324  1
  O  O55  1  0.703349  0.704451  0.334851  1
  O  O56  1  0.438589  0.037457  0.644324  1
  O  O57  1  0.748418  0.234065  0.101360  1
  O  O58  1  0.508725  0.581144  0.680347  1
  O  O59  1  0.862544  0.165854  0.350698  1
  O  O60  1  0.533225  0.940172  0.655653  1
  O  O61  1  0.270803  0.939931  0.125148  1
  O  O62  1  0.252974  0.301596  0.612232  1
  O  O63  1  0.397640  0.767093  0.420105  1
  O  O64  1  0.251582  0.765935  0.601360  1
  O  O65  1  0.457880  0.522457  0.896905  1
  O  O66  1  0.973158  0.981898  0.806051  1
  O  O67  1  0.391356  0.005768  0.940093  1
  O  O68  1  0.640348  0.654086  0.853866  1
  O  O69  1  0.491275  0.418856  0.180347  1
  O  O70  1  0.700212  0.833977  0.580765  1
  O  O71  1  0.026842  0.018102  0.306051  1
  O  O72  1  0.815144  0.183562  0.889172  1
  O  O73  1  0.359652  0.345914  0.353866  1
  O  O74  1  0.059529  0.541522  0.534756  1
  O  O75  1  0.959639  0.443477  0.533870  1
