# generated using pymatgen
data_SiO2
_symmetry_space_group_name_H-M   'P 1'
_cell_length_a   18.64912121
_cell_length_b   18.64912121
_cell_length_c   5.29665487
_cell_angle_alpha   90.00000000
_cell_angle_beta   90.00000000
_cell_angle_gamma   90.00000000
_symmetry_Int_Tables_number   1
_chemical_formula_structural   SiO2
_chemical_formula_sum   'Si32 O64'
_cell_volume   1842.12212427
_cell_formula_units_Z   32
loop_
 _symmetry_equiv_pos_site_id
 _symmetry_equiv_pos_as_xyz
  1  'x, y, z'
loop_
 _atom_site_type_symbol
 _atom_site_label
 _atom_site_symmetry_multiplicity
 _atom_site_fract_x
 _atom_site_fract_y
 _atom_site_fract_z
 _atom_site_occupancy
  Si  Si0  1  0.272996  0.158093  0.500000  1
  Si  Si1  1  0.841907  0.272996  0.500000  1
  Si  Si2  1  0.158093  0.727004  0.500000  1
  Si  Si3  1  0.272996  0.841907  0.500000  1
  Si  Si4  1  0.727004  0.158093  0.500000  1
  Si  Si5  1  0.727004  0.841907  0.500000  1
  Si  Si6  1  0.158093  0.272996  0.500000  1
  Si  Si7  1  0.841907  0.727004  0.500000  1
  Si  Si8  1  0.772996  0.658093  0.000000  1
  Si  Si9  1  0.341907  0.772996  0.000000  1
  Si  Si10  1  0.658093  0.227004  0.000000  1
  Si  Si11  1  0.772996  0.341907  0.000000  1
  Si  Si12  1  0.227004  0.658093  0.000000  1
  Si  Si13  1  0.227004  0.341907  0.000000  1
  Si  Si14  1  0.658093  0.772996  0.000000  1
  Si  Si15  1  0.341907  0.227004  0.000000  1
  Si  Si16  1  0.120840  0.000000  0.000000  1
  Si  Si17  1  0.000000  0.120840  0.000000  1
  Si  Si18  1  0.000000  0.879160  0.000000  1
  Si  Si19  1  0.879160  0.000000  0.000000  1
  Si  Si20  1  0.620840  0.500000  0.500000  1
  Si  Si21  1  0.500000  0.620840  0.500000  1
  Si  Si22  1  0.500000  0.379160  0.500000  1
  Si  Si23  1  0.379160  0.500000  0.500000  1
  Si  Si24  1  0.219926  0.000000  0.500000  1
  Si  Si25  1  0.000000  0.219926  0.500000  1
  Si  Si26  1  0.000000  0.780074  0.500000  1
  Si  Si27  1  0.780074  0.000000  0.500000  1
  Si  Si28  1  0.719926  0.500000  0.000000  1
  Si  Si29  1  0.500000  0.719926  0.000000  1
  Si  Si30  1  0.500000  0.280074  0.000000  1
  Si  Si31  1  0.280074  0.500000  0.000000  1
  O  O32  1  0.191643  0.191643  0.500000  1
  O  O33  1  0.808357  0.191643  0.500000  1
  O  O34  1  0.191643  0.808357  0.500000  1
  O  O35  1  0.808357  0.808357  0.500000  1
  O  O36  1  0.691643  0.691643  0.000000  1
  O  O37  1  0.308357  0.691643  0.000000  1
  O  O38  1  0.691643  0.308357  0.000000  1
  O  O39  1  0.308357  0.308357  0.000000  1
  O  O40  1  0.315229  0.184771  0.750000  1
  O  O41  1  0.815229  0.315229  0.750000  1
  O  O42  1  0.184771  0.684771  0.750000  1
  O  O43  1  0.315229  0.815229  0.250000  1
  O  O44  1  0.684771  0.184771  0.250000  1
  O  O45  1  0.684771  0.815229  0.750000  1
  O  O46  1  0.184771  0.315229  0.250000  1
  O  O47  1  0.815229  0.684771  0.250000  1
  O  O48  1  0.684771  0.815229  0.250000  1
  O  O49  1  0.184771  0.684771  0.250000  1
  O  O50  1  0.815229  0.315229  0.250000  1
  O  O51  1  0.684771  0.184771  0.750000  1
  O  O52  1  0.315229  0.815229  0.750000  1
  O  O53  1  0.315229  0.184771  0.250000  1
  O  O54  1  0.815229  0.684771  0.750000  1
  O  O55  1  0.184771  0.315229  0.750000  1
  O  O56  1  0.270176  0.071266  0.500000  1
  O  O57  1  0.928734  0.270176  0.500000  1
  O  O58  1  0.071266  0.729824  0.500000  1
  O  O59  1  0.270176  0.928734  0.500000  1
  O  O60  1  0.729824  0.071266  0.500000  1
  O  O61  1  0.729824  0.928734  0.500000  1
  O  O62  1  0.071266  0.270176  0.500000  1
  O  O63  1  0.928734  0.729824  0.500000  1
  O  O64  1  0.770176  0.571266  0.000000  1
  O  O65  1  0.428734  0.770176  0.000000  1
  O  O66  1  0.571266  0.229824  0.000000  1
  O  O67  1  0.770176  0.428734  0.000000  1
  O  O68  1  0.229824  0.571266  0.000000  1
  O  O69  1  0.229824  0.428734  0.000000  1
  O  O70  1  0.571266  0.770176  0.000000  1
  O  O71  1  0.428734  0.229824  0.000000  1
  O  O72  1  0.170427  0.000000  0.249289  1
  O  O73  1  0.000000  0.170427  0.249289  1
  O  O74  1  0.000000  0.829573  0.249289  1
  O  O75  1  0.170427  0.000000  0.750711  1
  O  O76  1  0.829573  0.000000  0.750711  1
  O  O77  1  0.829573  0.000000  0.249289  1
  O  O78  1  0.000000  0.170427  0.750711  1
  O  O79  1  0.000000  0.829573  0.750711  1
  O  O80  1  0.670427  0.500000  0.749289  1
  O  O81  1  0.500000  0.670427  0.749289  1
  O  O82  1  0.500000  0.329573  0.749289  1
  O  O83  1  0.670427  0.500000  0.250711  1
  O  O84  1  0.329573  0.500000  0.250711  1
  O  O85  1  0.329573  0.500000  0.749289  1
  O  O86  1  0.500000  0.670427  0.250711  1
  O  O87  1  0.500000  0.329573  0.250711  1
  O  O88  1  0.071406  0.071406  0.000000  1
  O  O89  1  0.928594  0.071406  0.000000  1
  O  O90  1  0.071406  0.928594  0.000000  1
  O  O91  1  0.928594  0.928594  0.000000  1
  O  O92  1  0.571406  0.571406  0.500000  1
  O  O93  1  0.428594  0.571406  0.500000  1
  O  O94  1  0.571406  0.428594  0.500000  1
  O  O95  1  0.428594  0.428594  0.500000  1
