# generated using pymatgen
data_La5V3S6O7
_symmetry_space_group_name_H-M   'P 1'
_cell_length_a   3.82825165
_cell_length_b   10.33753869
_cell_length_c   18.10541147
_cell_angle_alpha   90.14547076
_cell_angle_beta   90.00575429
_cell_angle_gamma   90.02689203
_symmetry_Int_Tables_number   1
_chemical_formula_structural   La5V3S6O7
_chemical_formula_sum   'La10 V6 S12 O14'
_cell_volume   716.51382678
_cell_formula_units_Z   2
loop_
 _symmetry_equiv_pos_site_id
 _symmetry_equiv_pos_as_xyz
  1  'x, y, z'
loop_
 _atom_site_type_symbol
 _atom_site_label
 _atom_site_symmetry_multiplicity
 _atom_site_fract_x
 _atom_site_fract_y
 _atom_site_fract_z
 _atom_site_occupancy
  La  La0  1  0.249948  0.230139  0.751721  1
  La  La1  1  0.249862  0.031388  0.134740  1
  La  La2  1  0.249960  0.583984  0.912709  1
  La  La3  1  0.749933  0.410218  0.084894  1
  La  La4  1  0.750142  0.974422  0.864246  1
  La  La5  1  0.249628  0.026901  0.364683  1
  La  La6  1  0.750232  0.416556  0.413049  1
  La  La7  1  0.749883  0.968473  0.634348  1
  La  La8  1  0.250097  0.589764  0.585494  1
  La  La9  1  0.750355  0.770575  0.252128  1
  V  V10  1  0.750201  0.752485  0.057066  1
  V  V11  1  0.751066  0.751173  0.443256  1
  V  V12  1  0.249903  0.247250  0.556889  1
  V  V13  1  0.750037  0.688425  0.750121  1
  V  V14  1  0.249908  0.311578  0.249911  1
  V  V15  1  0.249320  0.246625  0.944661  1
  S  S16  1  0.249974  0.850413  0.987540  1
  S  S17  1  0.749874  0.142108  0.249660  1
  S  S18  1  0.249888  0.538938  0.749419  1
  S  S19  1  0.749480  0.354017  0.869010  1
  S  S20  1  0.251591  0.645434  0.368553  1
  S  S21  1  0.750073  0.351511  0.630734  1
  S  S22  1  0.750783  0.145455  0.015633  1
  S  S23  1  0.749568  0.149864  0.487638  1
  S  S24  1  0.250056  0.857987  0.749497  1
  S  S25  1  0.750204  0.461043  0.249434  1
  S  S26  1  0.248111  0.853599  0.515129  1
  S  S27  1  0.250096  0.647948  0.130952  1
  O  O28  1  0.749973  0.886710  0.126058  1
  O  O29  1  0.250209  0.903133  0.248323  1
  O  O30  1  0.249949  0.112160  0.626211  1
  O  O31  1  0.750028  0.707578  0.851388  1
  O  O32  1  0.749610  0.895741  0.370161  1
  O  O33  1  0.749965  0.609016  0.999053  1
  O  O34  1  0.749940  0.096903  0.748133  1
  O  O35  1  0.249905  0.291835  0.351653  1
  O  O36  1  0.250008  0.288651  0.149519  1
  O  O37  1  0.750035  0.596014  0.504882  1
  O  O38  1  0.249982  0.403953  0.003980  1
  O  O39  1  0.749785  0.711866  0.649363  1
  O  O40  1  0.250283  0.106011  0.869628  1
  O  O41  1  0.250155  0.392153  0.498532  1
