# generated using pymatgen
data_Dy(FeSn)6
_symmetry_space_group_name_H-M   'P 1'
_cell_length_a   5.40780513
_cell_length_b   9.00048082
_cell_length_c   23.56039954
_cell_angle_alpha   90.00000000
_cell_angle_beta   96.59005502
_cell_angle_gamma   90.00000000
_symmetry_Int_Tables_number   1
_chemical_formula_structural   Dy(FeSn)6
_chemical_formula_sum   'Dy5 Fe30 Sn30'
_cell_volume   1139.17477442
_cell_formula_units_Z   5
loop_
 _symmetry_equiv_pos_site_id
 _symmetry_equiv_pos_as_xyz
  1  'x, y, z'
loop_
 _atom_site_type_symbol
 _atom_site_label
 _atom_site_symmetry_multiplicity
 _atom_site_fract_x
 _atom_site_fract_y
 _atom_site_fract_z
 _atom_site_occupancy
  Dy  Dy0  1  0.600155  0.500000  0.200310  1
  Dy  Dy1  1  0.399845  0.500000  0.799690  1
  Dy  Dy2  1  0.800155  0.000000  0.600311  1
  Dy  Dy3  1  0.199845  0.000000  0.399689  1
  Dy  Dy4  1  0.000000  0.500000  0.000000  1
  Fe  Fe5  1  0.099952  0.750029  0.700087  1
  Fe  Fe6  1  0.300013  0.249064  0.600027  1
  Fe  Fe7  1  0.900048  0.249971  0.299913  1
  Fe  Fe8  1  0.300013  0.750936  0.600027  1
  Fe  Fe9  1  0.000000  0.751101  0.500000  1
  Fe  Fe10  1  0.600135  0.249971  0.700087  1
  Fe  Fe11  1  0.900048  0.750029  0.299913  1
  Fe  Fe12  1  0.700150  0.748801  0.900051  1
  Fe  Fe13  1  0.199901  0.748801  0.900051  1
  Fe  Fe14  1  0.800099  0.251199  0.099949  1
  Fe  Fe15  1  0.699987  0.750936  0.399973  1
  Fe  Fe16  1  0.299850  0.748801  0.099949  1
  Fe  Fe17  1  0.899939  0.749076  0.799878  1
  Fe  Fe18  1  0.899939  0.250924  0.799878  1
  Fe  Fe19  1  0.500000  0.251164  0.000000  1
  Fe  Fe20  1  0.700150  0.251199  0.900051  1
  Fe  Fe21  1  0.500000  0.248899  0.500000  1
  Fe  Fe22  1  0.500000  0.751101  0.500000  1
  Fe  Fe23  1  0.600135  0.750029  0.700087  1
  Fe  Fe24  1  0.099952  0.249971  0.700087  1
  Fe  Fe25  1  0.800099  0.748801  0.099949  1
  Fe  Fe26  1  0.100061  0.749076  0.200122  1
  Fe  Fe27  1  0.100061  0.250924  0.200122  1
  Fe  Fe28  1  0.299850  0.251199  0.099949  1
  Fe  Fe29  1  0.399865  0.750029  0.299913  1
  Fe  Fe30  1  0.199901  0.251199  0.900051  1
  Fe  Fe31  1  0.000000  0.248899  0.500000  1
  Fe  Fe32  1  0.699987  0.249064  0.399973  1
  Fe  Fe33  1  0.500000  0.748836  0.000000  1
  Fe  Fe34  1  0.399865  0.249971  0.299913  1
  Sn  Sn35  1  0.933466  0.000000  0.866933  1
  Sn  Sn36  1  0.200013  0.665753  0.400026  1
  Sn  Sn37  1  0.933377  0.500000  0.866753  1
  Sn  Sn38  1  0.666585  0.000000  0.333171  1
  Sn  Sn39  1  0.866933  0.000000  0.733866  1
  Sn  Sn40  1  0.333001  0.500000  0.666002  1
  Sn  Sn41  1  0.333415  0.000000  0.666829  1
  Sn  Sn42  1  0.466517  0.000000  0.933034  1
  Sn  Sn43  1  0.066623  0.500000  0.133247  1
  Sn  Sn44  1  0.599784  0.834432  0.199568  1
  Sn  Sn45  1  0.400216  0.834432  0.800432  1
  Sn  Sn46  1  0.666999  0.500000  0.333998  1
  Sn  Sn47  1  0.799987  0.665753  0.599974  1
  Sn  Sn48  1  0.799987  0.334247  0.599974  1
  Sn  Sn49  1  0.599784  0.165568  0.199568  1
  Sn  Sn50  1  0.733273  0.000000  0.466545  1
  Sn  Sn51  1  0.066534  0.000000  0.133067  1
  Sn  Sn52  1  0.266688  0.500000  0.533376  1
  Sn  Sn53  1  0.133528  0.500000  0.267056  1
  Sn  Sn54  1  0.866472  0.500000  0.732944  1
  Sn  Sn55  1  0.000000  0.834103  0.000000  1
  Sn  Sn56  1  0.200013  0.334247  0.400026  1
  Sn  Sn57  1  0.000000  0.165897  0.000000  1
  Sn  Sn58  1  0.266727  0.000000  0.533455  1
  Sn  Sn59  1  0.733312  0.500000  0.466624  1
  Sn  Sn60  1  0.400216  0.165568  0.800432  1
  Sn  Sn61  1  0.533483  0.000000  0.066966  1
  Sn  Sn62  1  0.466599  0.500000  0.933198  1
  Sn  Sn63  1  0.533401  0.500000  0.066802  1
  Sn  Sn64  1  0.133067  0.000000  0.266134  1
