# generated using pymatgen
data_Sr6Mg7H26
_symmetry_space_group_name_H-M   'P 1'
_cell_length_a   9.69156548
_cell_length_b   9.55491883
_cell_length_c   9.69156548
_cell_angle_alpha   83.91762164
_cell_angle_beta   146.19129655
_cell_angle_gamma   106.10965947
_symmetry_Int_Tables_number   1
_chemical_formula_structural   Sr6Mg7H26
_chemical_formula_sum   'Sr6 Mg7 H26'
_cell_volume   466.54371859
_cell_formula_units_Z   1
loop_
 _symmetry_equiv_pos_site_id
 _symmetry_equiv_pos_as_xyz
  1  'x, y, z'
loop_
 _atom_site_type_symbol
 _atom_site_label
 _atom_site_symmetry_multiplicity
 _atom_site_fract_x
 _atom_site_fract_y
 _atom_site_fract_z
 _atom_site_occupancy
  Sr  Sr0  1  0.262803  0.618337  0.355534  1
  Sr  Sr1  1  0.737197  0.381663  0.644466  1
  Sr  Sr2  1  0.255760  0.913671  0.657912  1
  Sr  Sr3  1  0.744240  0.086329  0.342088  1
  Sr  Sr4  1  0.502944  0.352723  0.849780  1
  Sr  Sr5  1  0.497056  0.647277  0.150220  1
  Mg  Mg6  1  0.012671  0.233936  0.221265  1
  Mg  Mg7  1  0.987329  0.766064  0.778735  1
  Mg  Mg8  1  0.263042  0.249921  0.986879  1
  Mg  Mg9  1  0.736958  0.750079  0.013121  1
  Mg  Mg10  1  0.743077  0.000000  0.743077  1
  Mg  Mg11  1  0.256923  0.000000  0.256923  1
  Mg  Mg12  1  0.000000  0.500000  0.500000  1
  H  H13  1  0.881006  0.369759  0.000139  1
  H  H14  1  0.630381  0.630241  0.511247  1
  H  H15  1  0.118994  0.630241  -0.000139  1
  H  H16  1  0.369619  0.369759  0.488753  1
  H  H17  1  0.870943  0.858360  0.517795  1
  H  H18  1  0.659435  0.141640  0.012583  1
  H  H19  1  0.129057  0.141640  0.482205  1
  H  H20  1  0.340565  0.858360  0.987417  1
  H  H21  1  0.137700  0.358580  0.719417  1
  H  H22  1  0.360837  0.641420  0.779119  1
  H  H23  1  0.862300  0.641420  0.280583  1
  H  H24  1  0.639163  0.358580  0.220881  1
  H  H25  1  0.890282  0.158529  0.713752  1
  H  H26  1  0.555224  0.841471  0.731753  1
  H  H27  1  0.109718  0.841471  0.286248  1
  H  H28  1  0.444776  0.158529  0.268247  1
  H  H29  1  0.286827  0.404186  0.117359  1
  H  H30  1  0.713173  0.595814  0.882641  1
  H  H31  1  0.276220  0.129698  0.853478  1
  H  H32  1  0.723780  0.870302  0.146522  1
  H  H33  1  0.512957  0.106409  0.593451  1
  H  H34  1  0.487043  0.893591  0.406549  1
  H  H35  1  0.005442  0.093258  0.087816  1
  H  H36  1  0.994558  0.906742  0.912184  1
  H  H37  1  0.042583  0.413265  0.370682  1
  H  H38  1  0.957417  0.586735  0.629318  1
