# generated using pymatgen
data_KCo(CO)4
_symmetry_space_group_name_H-M   'P 1'
_cell_length_a   5.73825170
_cell_length_b   11.36231332
_cell_length_c   12.15439772
_cell_angle_alpha   75.25860942
_cell_angle_beta   76.45720974
_cell_angle_gamma   75.31704552
_symmetry_Int_Tables_number   1
_chemical_formula_structural   KCo(CO)4
_chemical_formula_sum   'K4 Co4 C16 O16'
_cell_volume   729.05662953
_cell_formula_units_Z   4
loop_
 _symmetry_equiv_pos_site_id
 _symmetry_equiv_pos_as_xyz
  1  'x, y, z'
loop_
 _atom_site_type_symbol
 _atom_site_label
 _atom_site_symmetry_multiplicity
 _atom_site_fract_x
 _atom_site_fract_y
 _atom_site_fract_z
 _atom_site_occupancy
  K  K0  1  0.272003  0.785469  0.058686  1
  K  K1  1  0.625640  0.709755  0.444714  1
  K  K2  1  0.720269  0.213550  0.939036  1
  K  K3  1  0.377501  0.286273  0.555909  1
  Co  Co4  1  0.076550  0.488844  0.255705  1
  Co  Co5  1  0.677536  0.989810  0.755840  1
  Co  Co6  1  0.324595  0.008449  0.244618  1
  Co  Co7  1  0.918019  0.509724  0.743840  1
  C  C8  1  0.137492  0.399032  0.812292  1
  C  C9  1  0.378095  0.078443  0.346293  1
  C  C10  1  0.914655  0.375793  0.338606  1
  C  C11  1  0.303381  0.418959  0.154569  1
  C  C12  1  0.771812  0.462737  0.657591  1
  C  C13  1  0.136307  0.124337  0.161946  1
  C  C14  1  0.692798  0.579357  0.845687  1
  C  C15  1  0.872192  0.875766  0.837097  1
  C  C16  1  0.854525  0.600166  0.189462  1
  C  C17  1  0.605578  0.961609  0.159788  1
  C  C18  1  0.077079  0.624455  0.662961  1
  C  C19  1  0.230967  0.537498  0.337194  1
  C  C20  1  0.619464  0.919962  0.655296  1
  C  C21  1  0.854766  0.100159  0.687857  1
  C  C22  1  0.145385  0.898412  0.310719  1
  C  C23  1  0.395104  0.037937  0.839072  1
  O  O24  1  0.663154  0.439176  0.597297  1
  O  O25  1  0.410265  0.130890  0.411180  1
  O  O26  1  0.579535  0.870111  0.590430  1
  O  O27  1  0.295727  0.328716  0.856041  1
  O  O28  1  0.989149  0.168920  0.644284  1
  O  O29  1  0.009610  0.799160  0.888391  1
  O  O30  1  0.694048  0.671128  0.147583  1
  O  O31  1  0.800484  0.300431  0.390743  1
  O  O32  1  0.189545  0.700162  0.610023  1
  O  O33  1  0.797424  0.938985  0.098843  1
  O  O34  1  0.459055  0.370236  0.089338  1
  O  O35  1  0.547697  0.631167  0.912239  1
  O  O36  1  0.011432  0.828899  0.352091  1
  O  O37  1  0.200633  0.064694  0.896466  1
  O  O38  1  0.342440  0.564238  0.394332  1
  O  O39  1  0.003871  0.202126  0.108657  1
