# generated using pymatgen
data_Dy2PbS4
_symmetry_space_group_name_H-M   'P 1'
_cell_length_a   7.39063972
_cell_length_b   7.39063927
_cell_length_c   7.39063978
_cell_angle_alpha   109.39468289
_cell_angle_beta   109.62439918
_cell_angle_gamma   109.39468824
_symmetry_Int_Tables_number   1
_chemical_formula_structural   Dy2PbS4
_chemical_formula_sum   'Dy4 Pb2 S8'
_cell_volume   310.75766839
_cell_formula_units_Z   2
loop_
 _symmetry_equiv_pos_site_id
 _symmetry_equiv_pos_as_xyz
  1  'x, y, z'
loop_
 _atom_site_type_symbol
 _atom_site_label
 _atom_site_symmetry_multiplicity
 _atom_site_fract_x
 _atom_site_fract_y
 _atom_site_fract_z
 _atom_site_occupancy
  Dy  Dy0  1  0.250000  0.628538  0.378538  1
  Dy  Dy1  1  0.621462  0.371462  0.250000  1
  Dy  Dy2  1  0.750000  0.871462  0.121462  1
  Dy  Dy3  1  0.878538  0.128538  0.750000  1
  Pb  Pb4  1  0.125000  0.750000  0.875000  1
  Pb  Pb5  1  0.375000  0.250000  0.625000  1
  S  S6  1  0.981501  0.850515  0.486207  1
  S  S7  1  0.986207  0.350515  0.481501  1
  S  S8  1  0.130986  0.149485  0.135692  1
  S  S9  1  0.369014  0.504706  0.018499  1
  S  S10  1  0.518499  0.004706  0.869014  1
  S  S11  1  0.635692  0.649485  0.630986  1
  S  S12  1  0.513793  0.995294  0.364308  1
  S  S13  1  0.864308  0.495294  0.013793  1
