# generated using pymatgen
data_Fe2CuS3
_symmetry_space_group_name_H-M   'P 1'
_cell_length_a   6.21355702
_cell_length_b   6.53551809
_cell_length_c   10.60665397
_cell_angle_alpha   89.96859509
_cell_angle_beta   89.98005387
_cell_angle_gamma   89.99540516
_symmetry_Int_Tables_number   1
_chemical_formula_structural   Fe2CuS3
_chemical_formula_sum   'Fe8 Cu4 S12'
_cell_volume   430.72354902
_cell_formula_units_Z   4
loop_
 _symmetry_equiv_pos_site_id
 _symmetry_equiv_pos_as_xyz
  1  'x, y, z'
loop_
 _atom_site_type_symbol
 _atom_site_label
 _atom_site_symmetry_multiplicity
 _atom_site_fract_x
 _atom_site_fract_y
 _atom_site_fract_z
 _atom_site_occupancy
  Fe  Fe0  1  0.452166  0.910466  0.905657  1
  Fe  Fe1  1  0.952245  0.589675  0.905400  1
  Fe  Fe2  1  0.047868  0.410202  0.094326  1
  Fe  Fe3  1  0.047563  0.410695  0.405932  1
  Fe  Fe4  1  0.952082  0.589789  0.594741  1
  Fe  Fe5  1  0.547595  0.089169  0.093516  1
  Fe  Fe6  1  0.452032  0.910266  0.594830  1
  Fe  Fe7  1  0.547662  0.089366  0.406045  1
  Cu  Cu8  1  0.047890  0.933346  0.249957  1
  Cu  Cu9  1  0.452123  0.433370  0.749999  1
  Cu  Cu10  1  0.952297  0.066882  0.749950  1
  Cu  Cu11  1  0.547873  0.566818  0.249934  1
  S  S12  1  0.597881  0.602456  0.919278  1
  S  S13  1  0.901784  0.102516  0.419224  1
  S  S14  1  0.588469  0.106547  0.750126  1
  S  S15  1  0.412165  0.894301  0.249900  1
  S  S16  1  0.097838  0.897391  0.580761  1
  S  S17  1  0.402251  0.397174  0.080675  1
  S  S18  1  0.402024  0.397351  0.419302  1
  S  S19  1  0.598187  0.602332  0.580655  1
  S  S20  1  0.098122  0.897589  0.919204  1
  S  S21  1  0.901616  0.102416  0.080656  1
  S  S22  1  0.088481  0.393648  0.749962  1
  S  S23  1  0.911785  0.606236  0.249968  1
