# generated using pymatgen
data_K2BaNi(NO2)6
_symmetry_space_group_name_H-M   'P 1'
_cell_length_a   7.98835185
_cell_length_b   8.16308784
_cell_length_c   7.92741612
_cell_angle_alpha   56.54559122
_cell_angle_beta   60.56051033
_cell_angle_gamma   57.82462753
_symmetry_Int_Tables_number   1
_chemical_formula_structural   K2BaNi(NO2)6
_chemical_formula_sum   'K2 Ba1 Ni1 N6 O12'
_cell_volume   350.42677470
_cell_formula_units_Z   1
loop_
 _symmetry_equiv_pos_site_id
 _symmetry_equiv_pos_as_xyz
  1  'x, y, z'
loop_
 _atom_site_type_symbol
 _atom_site_label
 _atom_site_symmetry_multiplicity
 _atom_site_fract_x
 _atom_site_fract_y
 _atom_site_fract_z
 _atom_site_occupancy
  K  K0  1  0.257784  0.257394  0.248552  1
  K  K1  1  0.746298  0.746039  0.748266  1
  Ba  Ba2  1  0.499925  0.492126  0.500471  1
  Ni  Ni3  1  0.007650  0.001042  0.993402  1
  N  N4  1  0.200274  0.185888  0.811373  1
  N  N5  1  0.196744  0.774490  0.192445  1
  N  N6  1  0.192075  0.811653  0.797496  1
  N  N7  1  0.816367  0.183014  0.193930  1
  N  N8  1  0.811056  0.198256  0.802602  1
  N  N9  1  0.797153  0.808662  0.187939  1
  O  O10  1  0.127358  0.724425  0.388993  1
  O  O11  1  0.178269  0.323994  0.854753  1
  O  O12  1  0.348325  0.154452  0.655412  1
  O  O13  1  0.384367  0.674262  0.122484  1
  O  O14  1  0.670916  0.123154  0.337909  1
  O  O15  1  0.142533  0.656725  0.873442  1
  O  O16  1  0.828726  0.336175  0.184138  1
  O  O17  1  0.331953  0.837317  0.624516  1
  O  O18  1  0.635043  0.870628  0.144492  1
  O  O19  1  0.839059  0.157986  0.656098  1
  O  O20  1  0.649661  0.348403  0.840062  1
  O  O21  1  0.836933  0.635766  0.342415  1
