# generated using pymatgen
data_K2LiAlP2
_symmetry_space_group_name_H-M   'P 1'
_cell_length_a   6.12420285
_cell_length_b   6.16256130
_cell_length_c   8.62913856
_cell_angle_alpha   110.92089035
_cell_angle_beta   110.78461804
_cell_angle_gamma   90.00000004
_symmetry_Int_Tables_number   1
_chemical_formula_structural   K2LiAlP2
_chemical_formula_sum   'K4 Li2 Al2 P4'
_cell_volume   281.39355306
_cell_formula_units_Z   2
loop_
 _symmetry_equiv_pos_site_id
 _symmetry_equiv_pos_as_xyz
  1  'x, y, z'
loop_
 _atom_site_type_symbol
 _atom_site_label
 _atom_site_symmetry_multiplicity
 _atom_site_fract_x
 _atom_site_fract_y
 _atom_site_fract_z
 _atom_site_occupancy
  Li  Li0  1  0.250000  0.500000  0.000000  1
  Li  Li1  1  0.750000  0.500000  0.000000  1
  Al  Al2  1  0.250000  0.000000  0.000000  1
  Al  Al3  1  0.750000  0.000000  0.000000  1
  P  P4  1  0.911636  0.690583  0.823273  1
  P  P5  1  0.411636  0.132690  0.823273  1
  P  P6  1  0.588364  0.867310  0.176727  1
  P  P7  1  0.088364  0.309417  0.176727  1
  K  K8  1  0.826847  0.099543  0.653694  1
  K  K9  1  0.173153  0.900457  0.346306  1
  K  K10  1  0.673153  0.445849  0.346306  1
  K  K11  1  0.326847  0.554151  0.653694  1
