# generated using pymatgen
data_H6CN4O3
_symmetry_space_group_name_H-M   'P 1'
_cell_length_a   8.53608948
_cell_length_b   8.53608948
_cell_length_c   4.04548850
_cell_angle_alpha   55.23145300
_cell_angle_beta   124.76854700
_cell_angle_gamma   116.63053078
_symmetry_Int_Tables_number   1
_chemical_formula_structural   H6CN4O3
_chemical_formula_sum   'H6 C1 N4 O3'
_cell_volume   195.57921104
_cell_formula_units_Z   1
loop_
 _symmetry_equiv_pos_site_id
 _symmetry_equiv_pos_as_xyz
  1  'x, y, z'
loop_
 _atom_site_type_symbol
 _atom_site_label
 _atom_site_symmetry_multiplicity
 _atom_site_fract_x
 _atom_site_fract_y
 _atom_site_fract_z
 _atom_site_occupancy
  H  H0  1  0.689126  0.720913  -0.005457  1
  H  H1  1  0.279087  0.310874  -0.005457  1
  H  H2  1  0.537858  0.238467  0.884493  1
  H  H3  1  0.761533  0.462142  0.884493  1
  H  H4  1  0.883965  0.490764  0.089715  1
  H  H5  1  0.509236  0.116035  0.089715  1
  C  C6  1  0.314361  0.685639  0.439567  1
  N  N7  1  0.216475  0.783525  0.077624  1
  N  N8  1  0.920998  0.955342  0.006340  1
  N  N9  1  0.044658  0.079002  0.006340  1
  N  N10  1  0.436576  0.563424  0.826512  1
  O  O11  1  0.696950  0.303050  0.075585  1
  O  O12  1  0.334604  0.414126  0.091716  1
  O  O13  1  0.585874  0.665396  0.091716  1
