# generated using pymatgen
data_P(HO)3
_symmetry_space_group_name_H-M   'P 1'
_cell_length_a   7.56422208
_cell_length_b   11.96639047
_cell_length_c   7.18521230
_cell_angle_alpha   90.00000000
_cell_angle_beta   90.00000000
_cell_angle_gamma   90.00000000
_symmetry_Int_Tables_number   1
_chemical_formula_structural   P(HO)3
_chemical_formula_sum   'P8 H24 O24'
_cell_volume   650.37980219
_cell_formula_units_Z   8
loop_
 _symmetry_equiv_pos_site_id
 _symmetry_equiv_pos_as_xyz
  1  'x, y, z'
loop_
 _atom_site_type_symbol
 _atom_site_label
 _atom_site_symmetry_multiplicity
 _atom_site_fract_x
 _atom_site_fract_y
 _atom_site_fract_z
 _atom_site_occupancy
  P  P0  1  0.511070  0.385233  0.032952  1
  P  P1  1  0.488930  0.614767  0.532952  1
  P  P2  1  0.988930  0.885233  0.532952  1
  P  P3  1  0.011070  0.114767  0.032952  1
  P  P4  1  0.579826  0.136925  0.468291  1
  P  P5  1  0.420174  0.863075  0.968291  1
  P  P6  1  0.920174  0.636925  0.968291  1
  P  P7  1  0.079826  0.363075  0.468291  1
  H  H8  1  0.730305  0.418998  0.825357  1
  H  H9  1  0.269695  0.581002  0.325357  1
  H  H10  1  0.769695  0.918998  0.325357  1
  H  H11  1  0.230305  0.081002  0.825357  1
  H  H12  1  0.341368  0.243517  0.933664  1
  H  H13  1  0.658632  0.756483  0.433664  1
  H  H14  1  0.158632  0.743517  0.433664  1
  H  H15  1  0.841368  0.256483  0.933664  1
  H  H16  1  0.510814  0.572228  0.972146  1
  H  H17  1  0.489186  0.427772  0.472146  1
  H  H18  1  0.989186  0.072228  0.472146  1
  H  H19  1  0.010814  0.927772  0.972146  1
  H  H20  1  0.460681  0.267913  0.650775  1
  H  H21  1  0.539319  0.732087  0.150775  1
  H  H22  1  0.039319  0.767913  0.150775  1
  H  H23  1  0.960681  0.232087  0.650775  1
  H  H24  1  0.550064  0.083371  0.170456  1
  H  H25  1  0.449936  0.916629  0.670456  1
  H  H26  1  0.949936  0.583371  0.670456  1
  H  H27  1  0.050064  0.416629  0.170456  1
  H  H28  1  0.309792  0.045456  0.451027  1
  H  H29  1  0.690208  0.954544  0.951027  1
  H  H30  1  0.190208  0.545456  0.951027  1
  H  H31  1  0.809792  0.454544  0.451027  1
  O  O32  1  0.716243  0.381203  0.945405  1
  O  O33  1  0.283757  0.618797  0.445405  1
  O  O34  1  0.783757  0.881203  0.445405  1
  O  O35  1  0.216243  0.118797  0.945405  1
  O  O36  1  0.406510  0.307839  0.878690  1
  O  O37  1  0.593490  0.692161  0.378690  1
  O  O38  1  0.093490  0.807839  0.378690  1
  O  O39  1  0.906510  0.192161  0.878690  1
  O  O40  1  0.442358  0.504773  0.939320  1
  O  O41  1  0.557642  0.495227  0.439320  1
  O  O42  1  0.057642  0.004773  0.439320  1
  O  O43  1  0.942358  0.995227  0.939320  1
  O  O44  1  0.473980  0.254346  0.514330  1
  O  O45  1  0.526020  0.745654  0.014330  1
  O  O46  1  0.026020  0.754346  0.014330  1
  O  O47  1  0.973980  0.245654  0.514330  1
  O  O48  1  0.568262  0.153427  0.242377  1
  O  O49  1  0.431738  0.846573  0.742377  1
  O  O50  1  0.931738  0.653427  0.742377  1
  O  O51  1  0.068262  0.346573  0.242377  1
  O  O52  1  0.428189  0.038741  0.509713  1
  O  O53  1  0.571811  0.961259  0.009713  1
  O  O54  1  0.071811  0.538741  0.009713  1
  O  O55  1  0.928189  0.461259  0.509713  1
