# generated using pymatgen
data_La2SnSb4
_symmetry_space_group_name_H-M   'P 1'
_cell_length_a   12.46227150
_cell_length_b   6.54427818
_cell_length_c   9.29646728
_cell_angle_alpha   90.00000000
_cell_angle_beta   37.44008529
_cell_angle_gamma   90.00000000
_symmetry_Int_Tables_number   1
_chemical_formula_structural   La2SnSb4
_chemical_formula_sum   'La4 Sn2 Sb8'
_cell_volume   460.92635149
_cell_formula_units_Z   2
loop_
 _symmetry_equiv_pos_site_id
 _symmetry_equiv_pos_as_xyz
  1  'x, y, z'
loop_
 _atom_site_type_symbol
 _atom_site_label
 _atom_site_symmetry_multiplicity
 _atom_site_fract_x
 _atom_site_fract_y
 _atom_site_fract_z
 _atom_site_occupancy
  La  La0  1  0.901301  0.159241  0.451480  1
  La  La1  1  0.598699  0.659241  0.548520  1
  La  La2  1  0.401301  0.340759  0.451480  1
  La  La3  1  0.098699  0.840759  0.548520  1
  Sn  Sn4  1  0.000000  0.000000  0.000000  1
  Sn  Sn5  1  0.500000  0.500000  0.000000  1
  Sb  Sb6  1  0.259099  0.890355  0.031520  1
  Sb  Sb7  1  0.108531  0.341242  0.518516  1
  Sb  Sb8  1  0.391469  0.841242  0.481484  1
  Sb  Sb9  1  0.240901  0.390355  0.968480  1
  Sb  Sb10  1  0.759099  0.609645  0.031520  1
  Sb  Sb11  1  0.608531  0.158758  0.518516  1
  Sb  Sb12  1  0.891469  0.658758  0.481484  1
  Sb  Sb13  1  0.740901  0.109645  0.968480  1
