# generated using pymatgen
data_CuAs2Pb6Cl7O6
_symmetry_space_group_name_H-M   'P 1'
_cell_length_a   8.20846690
_cell_length_b   8.20846688
_cell_length_c   8.20846730
_cell_angle_alpha   75.58999195
_cell_angle_beta   75.58999198
_cell_angle_gamma   75.58998913
_symmetry_Int_Tables_number   1
_chemical_formula_structural   CuAs2Pb6Cl7O6
_chemical_formula_sum   'Cu1 As2 Pb6 Cl7 O6'
_cell_volume   508.42001872
_cell_formula_units_Z   1
loop_
 _symmetry_equiv_pos_site_id
 _symmetry_equiv_pos_as_xyz
  1  'x, y, z'
loop_
 _atom_site_type_symbol
 _atom_site_label
 _atom_site_symmetry_multiplicity
 _atom_site_fract_x
 _atom_site_fract_y
 _atom_site_fract_z
 _atom_site_occupancy
  Cu  Cu0  1  0.627200  0.627200  0.627200  1
  As  As1  1  0.238174  0.238174  0.238174  1
  As  As2  1  0.764516  0.764516  0.764516  1
  Pb  Pb3  1  0.124724  0.830525  0.362623  1
  Pb  Pb4  1  0.163686  0.628196  0.877476  1
  Pb  Pb5  1  0.362623  0.124724  0.830525  1
  Pb  Pb6  1  0.628196  0.877476  0.163686  1
  Pb  Pb7  1  0.830525  0.362623  0.124724  1
  Pb  Pb8  1  0.877476  0.163686  0.628196  1
  Cl  Cl9  1  0.000857  0.000857  0.000857  1
  Cl  Cl10  1  0.159256  0.453046  0.633003  1
  Cl  Cl11  1  0.453046  0.633003  0.159256  1
  Cl  Cl12  1  0.386404  0.829318  0.551297  1
  Cl  Cl13  1  0.633003  0.159256  0.453046  1
  Cl  Cl14  1  0.551297  0.386404  0.829318  1
  Cl  Cl15  1  0.829318  0.551297  0.386404  1
  O  O16  1  0.061475  0.131520  0.357592  1
  O  O17  1  0.131520  0.357592  0.061475  1
  O  O18  1  0.357592  0.061475  0.131520  1
  O  O19  1  0.642680  0.943861  0.860235  1
  O  O20  1  0.860235  0.642680  0.943861  1
  O  O21  1  0.943861  0.860235  0.642680  1
