# generated using pymatgen
data_V3(H3O5)2
_symmetry_space_group_name_H-M   'P 1'
_cell_length_a   8.81160222
_cell_length_b   9.11377897
_cell_length_c   5.81707741
_cell_angle_alpha   87.38705070
_cell_angle_beta   94.66676209
_cell_angle_gamma   91.39088673
_symmetry_Int_Tables_number   1
_chemical_formula_structural   V3(H3O5)2
_chemical_formula_sum   'V6 H12 O20'
_cell_volume   465.01997334
_cell_formula_units_Z   2
loop_
 _symmetry_equiv_pos_site_id
 _symmetry_equiv_pos_as_xyz
  1  'x, y, z'
loop_
 _atom_site_type_symbol
 _atom_site_label
 _atom_site_symmetry_multiplicity
 _atom_site_fract_x
 _atom_site_fract_y
 _atom_site_fract_z
 _atom_site_occupancy
  V  V0  1  0.491600  0.511801  0.266098  1
  V  V1  1  0.993960  0.997413  0.273833  1
  V  V2  1  0.372087  0.138700  0.242086  1
  V  V3  1  0.631728  0.875338  0.244295  1
  V  V4  1  0.124962  0.629514  0.299599  1
  V  V5  1  0.855809  0.357746  0.294570  1
  H  H6  1  0.611191  0.559814  0.646184  1
  H  H7  1  0.097766  0.926631  0.651535  1
  H  H8  1  0.365495  0.901120  0.696669  1
  H  H9  1  0.272353  0.751910  0.724152  1
  H  H10  1  0.712325  0.100170  0.847081  1
  H  H11  1  0.576946  0.172738  0.673446  1
  H  H12  1  0.766380  0.261466  0.688613  1
  H  H13  1  0.129147  0.215683  0.839449  1
  H  H14  1  0.099373  0.376831  0.747298  1
  H  H15  1  0.298724  0.339810  0.977689  1
  H  H16  1  0.877627  0.613394  0.703444  1
  H  H17  1  0.771688  0.748964  0.711360  1
  O  O18  1  0.513492  0.516373  0.568801  1
  O  O19  1  0.008310  0.985817  0.578893  1
  O  O20  1  0.385788  0.328280  0.114584  1
  O  O21  1  0.579367  0.693300  0.177592  1
  O  O22  1  0.071233  0.810599  0.225346  1
  O  O23  1  0.908853  0.192091  0.192107  1
  O  O24  1  0.296250  0.589942  0.183737  1
  O  O25  1  0.671082  0.405574  0.205593  1
  O  O26  1  0.804061  0.929675  0.127171  1
  O  O27  1  0.185104  0.083223  0.182260  1
  O  O28  1  0.421037  0.143265  0.521713  1
  O  O29  1  0.648317  0.890567  0.526237  1
  O  O30  1  0.140513  0.604213  0.584535  1
  O  O31  1  0.867461  0.340038  0.590182  1
  O  O32  1  0.493752  0.011744  0.123715  1
  O  O33  1  0.980656  0.499670  0.191622  1
  O  O34  1  0.272069  0.857426  0.752532  1
  O  O35  1  0.673408  0.193178  0.776518  1
  O  O36  1  0.180697  0.307127  0.791341  1
  O  O37  1  0.778813  0.642339  0.747628  1
