# generated using pymatgen
data_Ca10TaTi8Al(SiO5)10
_symmetry_space_group_name_H-M   'P 1'
_cell_length_a   27.83665780
_cell_length_b   6.67652554
_cell_length_c   7.20015248
_cell_angle_alpha   113.05808151
_cell_angle_beta   104.38068165
_cell_angle_gamma   52.85106166
_symmetry_Int_Tables_number   1
_chemical_formula_structural   Ca10TaTi8Al(SiO5)10
_chemical_formula_sum   'Ca10 Ta1 Ti8 Al1 Si10 O50'
_cell_volume   981.26706925
_cell_formula_units_Z   1
loop_
 _symmetry_equiv_pos_site_id
 _symmetry_equiv_pos_as_xyz
  1  'x, y, z'
loop_
 _atom_site_type_symbol
 _atom_site_label
 _atom_site_symmetry_multiplicity
 _atom_site_fract_x
 _atom_site_fract_y
 _atom_site_fract_z
 _atom_site_occupancy
  Ca  Ca0  1  0.132115  0.159530  0.270378  1
  Ca  Ca1  1  0.069434  0.836029  0.758340  1
  Ca  Ca2  1  0.328544  0.178078  0.255332  1
  Ca  Ca3  1  0.266274  0.834805  0.739862  1
  Ca  Ca4  1  0.521962  0.211721  0.238007  1
  Ca  Ca5  1  0.464434  0.838265  0.726232  1
  Ca  Ca6  1  0.740676  0.110561  0.193834  1
  Ca  Ca7  1  0.689836  0.667935  0.861417  1
  Ca  Ca8  1  0.938852  0.175236  0.206352  1
  Ca  Ca9  1  0.865895  0.857624  0.819314  1
  Ta  Ta10  1  0.798193  0.484008  0.551061  1
  Ti  Ti11  1  0.996506  0.542880  0.525820  1
  Ti  Ti12  1  0.005649  0.496243  0.011311  1
  Ti  Ti13  1  0.198608  0.500513  0.500879  1
  Ti  Ti14  1  0.200422  0.496971  0.002669  1
  Ti  Ti15  1  0.394961  0.513527  0.497412  1
  Ti  Ti16  1  0.392298  0.519179  -0.000285  1
  Ti  Ti17  1  0.602826  0.508782  0.490311  1
  Ti  Ti18  1  0.588250  0.570748  0.039867  1
  Al  Al19  1  0.607970  0.171844  0.682656  1
  Si  Si20  1  0.127782  0.181706  0.748972  1
  Si  Si21  1  0.075425  0.792784  0.236371  1
  Si  Si22  1  0.326009  0.186011  0.747492  1
  Si  Si23  1  0.269455  0.823761  0.247173  1
  Si  Si24  1  0.521525  0.197368  0.756028  1
  Si  Si25  1  0.466358  0.841172  0.258807  1
  Si  Si26  1  0.724535  0.112976  0.732112  1
  Si  Si27  1  0.672277  0.821486  0.281345  1
  Si  Si28  1  0.928744  0.181632  0.771335  1
  Si  Si29  1  0.879574  0.815907  0.234686  1
  O  O30  1  0.033900  0.126655  0.368392  1
  O  O31  1  0.086580  0.188276  0.886028  1
  O  O32  1  0.029815  0.444377  0.252903  1
  O  O33  1  0.083982  0.394342  0.619567  1
  O  O34  1  0.030078  0.739140  0.061706  1
  O  O35  1  0.176754  0.240627  0.893948  1
  O  O36  1  0.121962  0.577130  0.358498  1
  O  O37  1  0.173273  0.566351  0.741356  1
  O  O38  1  0.226189  0.117884  0.407561  1
  O  O39  1  0.117750  0.795126  0.106968  1
  O  O40  1  0.285366  0.192611  0.884943  1
  O  O41  1  0.171281  0.884529  0.585315  1
  O  O42  1  0.227794  0.430110  0.244588  1
  O  O43  1  0.283685  0.391537  0.612133  1
  O  O44  1  0.222880  0.758476  0.093631  1
  O  O45  1  0.374134  0.249790  0.896269  1
  O  O46  1  0.312757  0.616600  0.381491  1
  O  O47  1  0.370725  0.581602  0.750561  1
  O  O48  1  0.421261  0.132917  0.417080  1
  O  O49  1  0.311418  0.814920  0.110198  1
  O  O50  1  0.485060  0.173571  0.879893  1
  O  O51  1  0.371973  0.887400  0.590219  1
  O  O52  1  0.421660  0.446098  0.248658  1
  O  O53  1  0.483128  0.387546  0.609142  1
  O  O54  1  0.422879  0.762397  0.098515  1
  O  O55  1  0.563550  0.299123  0.911353  1
  O  O56  1  0.513036  0.632088  0.389803  1
  O  O57  1  0.578587  0.526927  0.746718  1
  O  O58  1  0.616882  0.118337  0.425379  1
  O  O59  1  0.508543  0.852750  0.136714  1
  O  O60  1  0.682017  0.040780  0.785762  1
  O  O61  1  0.582645  0.916670  0.619584  1
  O  O62  1  0.630796  0.410688  0.234132  1
  O  O63  1  0.687565  0.321922  0.600403  1
  O  O64  1  0.626228  0.763267  0.105312  1
  O  O65  1  0.746485  0.244071  0.942054  1
  O  O66  1  0.715440  0.606680  0.407493  1
  O  O67  1  0.780358  0.479682  0.767420  1
  O  O68  1  0.829436  0.124832  0.377421  1
  O  O69  1  0.712126  0.845999  0.179114  1
  O  O70  1  0.895899  0.143007  0.895395  1
  O  O71  1  0.783076  0.834658  0.601348  1
  O  O72  1  0.015150  0.004707  0.452421  1
  O  O73  1  0.882839  0.378203  0.628418  1
  O  O74  1  0.836815  0.759142  0.061203  1
  O  O75  1  0.973638  0.264590  0.921063  1
  O  O76  1  0.918262  0.617831  0.374751  1
  O  O77  1  0.971434  0.556135  0.737306  1
  O  O78  1  0.924022  0.830136  0.131739  1
  O  O79  1  0.976748  0.883298  0.615008  1
