# generated using pymatgen
data_U13O34
_symmetry_space_group_name_H-M   'P 1'
_cell_length_a   4.16444849
_cell_length_b   6.91947282
_cell_length_c   25.62343791
_cell_angle_alpha   97.75991235
_cell_angle_beta   90.00000000
_cell_angle_gamma   90.00000000
_symmetry_Int_Tables_number   1
_chemical_formula_structural   U13O34
_chemical_formula_sum   'U13 O34'
_cell_volume   731.59806945
_cell_formula_units_Z   1
loop_
 _symmetry_equiv_pos_site_id
 _symmetry_equiv_pos_as_xyz
  1  'x, y, z'
loop_
 _atom_site_type_symbol
 _atom_site_label
 _atom_site_symmetry_multiplicity
 _atom_site_fract_x
 _atom_site_fract_y
 _atom_site_fract_z
 _atom_site_occupancy
  U  U0  1  0.000000  0.138733  0.303114  1
  U  U1  1  0.000000  0.835619  0.696886  1
  U  U2  1  0.000000  0.082429  0.150905  1
  U  U3  1  0.000000  0.516403  0.078438  1
  U  U4  1  0.000000  0.599994  0.238522  1
  U  U5  1  0.000000  0.931524  0.849095  1
  U  U6  1  0.000000  0.680723  0.384745  1
  U  U7  1  0.000000  0.941587  0.000000  1
  U  U8  1  0.000000  0.361472  0.761478  1
  U  U9  1  0.000000  0.437965  0.921562  1
  U  U10  1  0.000000  0.752472  0.530759  1
  U  U11  1  0.000000  0.295978  0.615255  1
  U  U12  1  0.000000  0.221713  0.469241  1
  O  O13  1  0.000000  0.453748  0.154918  1
  O  O14  1  0.000000  0.025485  0.771289  1
  O  O15  1  0.000000  0.527532  0.453226  1
  O  O16  1  0.000000  0.447977  0.548090  1
  O  O17  1  0.000000  0.750332  0.913154  1
  O  O18  1  0.500000  0.292734  0.614929  1
  O  O19  1  0.000000  0.457348  0.318220  1
  O  O20  1  0.000000  0.789613  0.615609  1
  O  O21  1  0.500000  0.597772  0.240837  1
  O  O22  1  0.500000  0.513367  0.077138  1
  O  O23  1  0.500000  0.223176  0.470719  1
  O  O24  1  0.000000  0.074307  0.546774  1
  O  O25  1  0.000000  0.197236  0.061905  1
  O  O26  1  0.000000  0.866819  0.205657  1
  O  O27  1  0.000000  0.823189  0.312021  1
  O  O28  1  0.000000  0.174004  0.384391  1
  O  O29  1  0.000000  0.837178  0.086846  1
  O  O30  1  0.500000  0.828395  0.699180  1
  O  O31  1  0.500000  0.926499  0.000000  1
  O  O32  1  0.000000  0.298830  0.845082  1
  O  O33  1  0.500000  0.677805  0.385071  1
  O  O34  1  0.000000  0.899887  0.451910  1
  O  O35  1  0.000000  0.135331  0.938095  1
  O  O36  1  0.000000  0.139127  0.681780  1
  O  O37  1  0.500000  0.942141  0.850931  1
  O  O38  1  0.500000  0.356935  0.759163  1
  O  O39  1  0.000000  0.511168  0.687979  1
  O  O40  1  0.000000  0.582984  1.000000  1
  O  O41  1  0.500000  0.752457  0.529281  1
  O  O42  1  0.500000  0.129215  0.300820  1
  O  O43  1  0.000000  0.254197  0.228711  1
  O  O44  1  0.500000  0.436229  0.922862  1
  O  O45  1  0.500000  0.091210  0.149069  1
  O  O46  1  0.000000  0.661161  0.794343  1
