# generated using pymatgen
data_Tb(HO)3
_symmetry_space_group_name_H-M   'P 1'
_cell_length_a   6.33259458
_cell_length_b   6.52480570
_cell_length_c   3.51565815
_cell_angle_alpha   90.00000000
_cell_angle_beta   90.00000000
_cell_angle_gamma   119.90332076
_symmetry_Int_Tables_number   1
_chemical_formula_structural   Tb(HO)3
_chemical_formula_sum   'Tb2 H6 O6'
_cell_volume   125.92408596
_cell_formula_units_Z   2
loop_
 _symmetry_equiv_pos_site_id
 _symmetry_equiv_pos_as_xyz
  1  'x, y, z'
loop_
 _atom_site_type_symbol
 _atom_site_label
 _atom_site_symmetry_multiplicity
 _atom_site_fract_x
 _atom_site_fract_y
 _atom_site_fract_z
 _atom_site_occupancy
  Tb  Tb0  1  0.332917  0.674108  0.250000  1
  Tb  Tb1  1  0.667083  0.325892  0.750000  1
  H  H2  1  0.839837  0.697619  0.250000  1
  H  H3  1  0.867697  0.136750  0.250000  1
  H  H4  1  0.270604  0.141307  0.250000  1
  H  H5  1  0.160163  0.302381  0.750000  1
  H  H6  1  0.132303  0.863250  0.750000  1
  H  H7  1  0.729396  0.858693  0.750000  1
  O  O8  1  0.908863  0.593443  0.250000  1
  O  O9  1  0.693922  0.085107  0.250000  1
  O  O10  1  0.395333  0.307259  0.250000  1
  O  O11  1  0.091137  0.406557  0.750000  1
  O  O12  1  0.306078  0.914893  0.750000  1
  O  O13  1  0.604667  0.692741  0.750000  1
