# generated using pymatgen
data_Nd2PbS4
_symmetry_space_group_name_H-M   'P 1'
_cell_length_a   7.51691726
_cell_length_b   7.51691783
_cell_length_c   7.51691735
_cell_angle_alpha   109.41234359
_cell_angle_beta   109.58904490
_cell_angle_gamma   109.41233763
_symmetry_Int_Tables_number   1
_chemical_formula_structural   Nd2PbS4
_chemical_formula_sum   'Nd4 Pb2 S8'
_cell_volume   326.96109529
_cell_formula_units_Z   2
loop_
 _symmetry_equiv_pos_site_id
 _symmetry_equiv_pos_as_xyz
  1  'x, y, z'
loop_
 _atom_site_type_symbol
 _atom_site_label
 _atom_site_symmetry_multiplicity
 _atom_site_fract_x
 _atom_site_fract_y
 _atom_site_fract_z
 _atom_site_occupancy
  Nd  Nd0  1  0.250000  0.631288  0.381288  1
  Nd  Nd1  1  0.618712  0.368712  0.250000  1
  Nd  Nd2  1  0.750000  0.868712  0.118712  1
  Nd  Nd3  1  0.881288  0.131288  0.750000  1
  Pb  Pb4  1  0.125000  0.750000  0.875000  1
  Pb  Pb5  1  0.375000  0.250000  0.625000  1
  S  S6  1  0.987809  0.845576  0.490129  1
  S  S7  1  0.990129  0.345576  0.487809  1
  S  S8  1  0.509871  0.997680  0.355447  1
  S  S9  1  0.142233  0.154424  0.144553  1
  S  S10  1  0.357767  0.502320  0.012191  1
  S  S11  1  0.644553  0.654424  0.642233  1
  S  S12  1  0.512191  0.002320  0.857767  1
  S  S13  1  0.855447  0.497680  0.009871  1
