# generated using pymatgen
data_BH5CN2
_symmetry_space_group_name_H-M   'P 1'
_cell_length_a   7.97970398
_cell_length_b   6.54290510
_cell_length_c   7.06079565
_cell_angle_alpha   90.00000000
_cell_angle_beta   90.00000000
_cell_angle_gamma   90.00000000
_symmetry_Int_Tables_number   1
_chemical_formula_structural   BH5CN2
_chemical_formula_sum   'B4 H20 C4 N8'
_cell_volume   368.64728906
_cell_formula_units_Z   4
loop_
 _symmetry_equiv_pos_site_id
 _symmetry_equiv_pos_as_xyz
  1  'x, y, z'
loop_
 _atom_site_type_symbol
 _atom_site_label
 _atom_site_symmetry_multiplicity
 _atom_site_fract_x
 _atom_site_fract_y
 _atom_site_fract_z
 _atom_site_occupancy
  B  B0  1  0.721493  0.121266  0.656650  1
  B  B1  1  0.278507  0.878734  0.156650  1
  B  B2  1  0.778507  0.621266  0.156650  1
  B  B3  1  0.221493  0.378734  0.656650  1
  H  H4  1  0.877456  0.897407  0.793311  1
  H  H5  1  0.122544  0.102593  0.293311  1
  H  H6  1  0.622544  0.397407  0.293311  1
  H  H7  1  0.377456  0.602593  0.793311  1
  H  H8  1  0.941530  0.134768  0.843211  1
  H  H9  1  0.058470  0.865232  0.343211  1
  H  H10  1  0.558470  0.634768  0.343211  1
  H  H11  1  0.441530  0.365232  0.843211  1
  H  H12  1  0.775260  0.040780  0.952814  1
  H  H13  1  0.224740  0.959220  0.452814  1
  H  H14  1  0.724740  0.540780  0.452814  1
  H  H15  1  0.275260  0.459220  0.952814  1
  H  H16  1  0.667001  0.291508  0.687551  1
  H  H17  1  0.332999  0.708492  0.187551  1
  H  H18  1  0.832999  0.791508  0.187551  1
  H  H19  1  0.167001  0.208492  0.687551  1
  H  H20  1  0.802124  0.118076  0.511096  1
  H  H21  1  0.197876  0.881924  0.011096  1
  H  H22  1  0.697876  0.618076  0.011096  1
  H  H23  1  0.302124  0.381924  0.511096  1
  C  C24  1  0.571631  0.966077  0.637170  1
  C  C25  1  0.428369  0.033923  0.137170  1
  C  C26  1  0.928369  0.466077  0.137170  1
  C  C27  1  0.071631  0.533923  0.637170  1
  N  N28  1  0.837767  0.043622  0.825384  1
  N  N29  1  0.162233  0.956378  0.325384  1
  N  N30  1  0.662233  0.543622  0.325384  1
  N  N31  1  0.337767  0.456378  0.825384  1
  N  N32  1  0.460579  0.850814  0.620812  1
  N  N33  1  0.539421  0.149186  0.120812  1
  N  N34  1  0.039421  0.350814  0.120812  1
  N  N35  1  0.960579  0.649186  0.620812  1
