# generated using pymatgen
data_NaH2CSO4F3
_symmetry_space_group_name_H-M   'P 1'
_cell_length_a   7.52370190
_cell_length_b   10.27020221
_cell_length_c   10.70764246
_cell_angle_alpha   111.24988441
_cell_angle_beta   90.00000000
_cell_angle_gamma   90.00000000
_symmetry_Int_Tables_number   1
_chemical_formula_structural   NaH2CSO4F3
_chemical_formula_sum   'Na4 H8 C4 S4 O16 F12'
_cell_volume   771.12424033
_cell_formula_units_Z   4
loop_
 _symmetry_equiv_pos_site_id
 _symmetry_equiv_pos_as_xyz
  1  'x, y, z'
loop_
 _atom_site_type_symbol
 _atom_site_label
 _atom_site_symmetry_multiplicity
 _atom_site_fract_x
 _atom_site_fract_y
 _atom_site_fract_z
 _atom_site_occupancy
  Na  Na0  1  0.030971  0.501646  0.768725  1
  Na  Na1  1  0.469029  0.501646  0.268725  1
  Na  Na2  1  0.969029  0.498354  0.231275  1
  Na  Na3  1  0.530971  0.498354  0.731275  1
  H  H4  1  0.760302  0.779202  0.417173  1
  H  H5  1  0.239051  0.165345  0.514394  1
  H  H6  1  0.260302  0.220798  0.082827  1
  H  H7  1  0.739051  0.834655  0.985606  1
  H  H8  1  0.239698  0.220798  0.582827  1
  H  H9  1  0.260949  0.165345  0.014394  1
  H  H10  1  0.760949  0.834655  0.485606  1
  H  H11  1  0.739698  0.779202  0.917173  1
  C  C12  1  0.691358  0.143459  0.394666  1
  C  C13  1  0.308642  0.856541  0.605334  1
  C  C14  1  0.191358  0.856541  0.105334  1
  C  C15  1  0.808642  0.143459  0.894666  1
  S  S16  1  0.671536  0.306483  0.936766  1
  S  S17  1  0.171536  0.693517  0.563234  1
  S  S18  1  0.328464  0.693517  0.063234  1
  S  S19  1  0.828464  0.306483  0.436766  1
  O  O20  1  0.238051  0.479279  0.116268  1
  O  O21  1  0.725010  0.363515  0.337212  1
  O  O22  1  0.506204  0.734209  0.107401  1
  O  O23  1  0.261949  0.479279  0.616268  1
  O  O24  1  0.774990  0.363515  0.837212  1
  O  O25  1  0.294194  0.610444  0.923701  1
  O  O26  1  0.705806  0.389556  0.076299  1
  O  O27  1  0.274990  0.636485  0.662788  1
  O  O28  1  0.738051  0.520721  0.383732  1
  O  O29  1  0.761949  0.520721  0.883732  1
  O  O30  1  0.205806  0.610444  0.423701  1
  O  O31  1  0.493796  0.265791  0.892599  1
  O  O32  1  0.225010  0.636485  0.162788  1
  O  O33  1  0.006204  0.265791  0.392599  1
  O  O34  1  0.794194  0.389556  0.576299  1
  O  O35  1  0.993796  0.734209  0.607401  1
  F  F36  1  0.270824  0.944351  0.730114  1
  F  F37  1  0.766742  0.082254  0.983135  1
  F  F38  1  0.229176  0.944351  0.230114  1
  F  F39  1  0.233258  0.917746  0.016865  1
  F  F40  1  0.017070  0.824620  0.095922  1
  F  F41  1  0.733258  0.082254  0.483135  1
  F  F42  1  0.982930  0.175380  0.904078  1
  F  F43  1  0.266742  0.917746  0.516865  1
  F  F44  1  0.517070  0.175380  0.404078  1
  F  F45  1  0.482930  0.824620  0.595922  1
  F  F46  1  0.770824  0.055649  0.769886  1
  F  F47  1  0.729176  0.055649  0.269886  1
