# generated using pymatgen
data_CSO
_symmetry_space_group_name_H-M   'P 1'
_cell_length_a   4.81888411
_cell_length_b   3.81651401
_cell_length_c   4.05394675
_cell_angle_alpha   92.58373439
_cell_angle_beta   126.39303304
_cell_angle_gamma   85.81433077
_symmetry_Int_Tables_number   1
_chemical_formula_structural   CSO
_chemical_formula_sum   'C1 S1 O1'
_cell_volume   59.85603161
_cell_formula_units_Z   1
loop_
 _symmetry_equiv_pos_site_id
 _symmetry_equiv_pos_as_xyz
  1  'x, y, z'
loop_
 _atom_site_type_symbol
 _atom_site_label
 _atom_site_symmetry_multiplicity
 _atom_site_fract_x
 _atom_site_fract_y
 _atom_site_fract_z
 _atom_site_occupancy
  C  C0  1  0.419217  0.248233  0.000327  1
  S  S1  1  0.688099  0.998732  0.998427  1
  O  O2  1  0.216237  0.436314  0.002951  1
