# generated using pymatgen
data_SiH2O
_symmetry_space_group_name_H-M   'P 1'
_cell_length_a   3.06875642
_cell_length_b   3.65675514
_cell_length_c   5.01323288
_cell_angle_alpha   89.99999971
_cell_angle_beta   87.35140578
_cell_angle_gamma   126.56996873
_symmetry_Int_Tables_number   1
_chemical_formula_structural   SiH2O
_chemical_formula_sum   'Si1 H2 O1'
_cell_volume   45.10678566
_cell_formula_units_Z   1
loop_
 _symmetry_equiv_pos_site_id
 _symmetry_equiv_pos_as_xyz
  1  'x, y, z'
loop_
 _atom_site_type_symbol
 _atom_site_label
 _atom_site_symmetry_multiplicity
 _atom_site_fract_x
 _atom_site_fract_y
 _atom_site_fract_z
 _atom_site_occupancy
  Si  Si0  1  0.362088  0.681044  0.267235  1
  H  H1  1  0.622325  0.811162  0.697954  1
  H  H2  1  0.672723  0.336361  0.220575  1
  O  O3  1  0.284997  0.642499  0.604236  1
