# generated using pymatgen
data_SrAl12O19
_symmetry_space_group_name_H-M   'P 1'
_cell_length_a   5.62655671
_cell_length_b   5.62655671
_cell_length_c   22.15984005
_cell_angle_alpha   90.00000000
_cell_angle_beta   90.00000000
_cell_angle_gamma   119.99999994
_symmetry_Int_Tables_number   1
_chemical_formula_structural   SrAl12O19
_chemical_formula_sum   'Sr2 Al24 O38'
_cell_volume   607.55088003
_cell_formula_units_Z   2
loop_
 _symmetry_equiv_pos_site_id
 _symmetry_equiv_pos_as_xyz
  1  'x, y, z'
loop_
 _atom_site_type_symbol
 _atom_site_label
 _atom_site_symmetry_multiplicity
 _atom_site_fract_x
 _atom_site_fract_y
 _atom_site_fract_z
 _atom_site_occupancy
  O  O0  1  0.502466  0.497534  0.351756  1
  O  O1  1  0.502466  0.004931  0.351756  1
  O  O2  1  0.995069  0.497534  0.351756  1
  O  O3  1  0.004931  0.502466  0.851756  1
  O  O4  1  0.497534  0.995069  0.648244  1
  O  O5  1  0.497534  0.502466  0.851756  1
  O  O6  1  0.497534  0.995069  0.851756  1
  O  O7  1  0.502466  0.497534  0.148244  1
  O  O8  1  0.995069  0.497534  0.148244  1
  O  O9  1  0.004931  0.502466  0.648244  1
  O  O10  1  0.497534  0.502466  0.648244  1
  O  O11  1  0.502466  0.004931  0.148244  1
  O  O12  1  0.154933  0.845067  0.448082  1
  O  O13  1  0.154933  0.309866  0.448082  1
  O  O14  1  0.690134  0.845067  0.448082  1
  O  O15  1  0.636806  0.818403  0.250000  1
  O  O16  1  0.309866  0.154933  0.948082  1
  O  O17  1  0.845067  0.154933  0.948082  1
  O  O18  1  0.845067  0.690134  0.948082  1
  O  O19  1  0.154933  0.845067  0.051918  1
  O  O20  1  0.690134  0.845067  0.051918  1
  O  O21  1  0.309866  0.154933  0.551918  1
  O  O22  1  0.845067  0.154933  0.551918  1
  O  O23  1  0.154933  0.309866  0.051918  1
  O  O24  1  0.818403  0.636806  0.750000  1
  O  O25  1  0.181597  0.818403  0.250000  1
  O  O26  1  0.000000  0.000000  0.149288  1
  O  O27  1  0.000000  0.000000  0.649288  1
  O  O28  1  0.000000  0.000000  0.850712  1
  O  O29  1  0.000000  0.000000  0.350712  1
  O  O30  1  0.333333  0.666667  0.945665  1
  O  O31  1  0.666667  0.333333  0.445665  1
  O  O32  1  0.666667  0.333333  0.054335  1
  O  O33  1  0.333333  0.666667  0.554335  1
  O  O34  1  0.181597  0.363194  0.250000  1
  O  O35  1  0.818403  0.181597  0.750000  1
  O  O36  1  0.363194  0.181597  0.750000  1
  O  O37  1  0.845067  0.690134  0.551918  1
  Al  Al38  1  0.333333  0.666667  0.309568  1
  Al  Al39  1  0.666667  0.333333  0.809568  1
  Al  Al40  1  0.666667  0.333333  0.690432  1
  Al  Al41  1  0.333333  0.666667  0.190432  1
  Al  Al42  1  0.168256  0.831744  0.608786  1
  Al  Al43  1  0.168256  0.336511  0.608786  1
  Al  Al44  1  0.663489  0.831744  0.608786  1
  Al  Al45  1  0.336511  0.168256  0.108786  1
  Al  Al46  1  0.831744  0.663489  0.391214  1
  Al  Al47  1  0.831744  0.168256  0.108786  1
  Al  Al48  1  0.831744  0.663489  0.108786  1
  Al  Al49  1  0.168256  0.831744  0.891214  1
  Al  Al50  1  0.663489  0.831744  0.891214  1
  Al  Al51  1  0.336511  0.168256  0.391214  1
  Al  Al52  1  0.831744  0.168256  0.391214  1
  Al  Al53  1  0.168256  0.336511  0.891214  1
  Al  Al54  1  0.333333  0.666667  0.471792  1
  Al  Al55  1  0.666667  0.333333  0.971792  1
  Al  Al56  1  0.666667  0.333333  0.528208  1
  Al  Al57  1  0.333333  0.666667  0.028208  1
  Al  Al58  1  0.000000  0.000000  0.750000  1
  Al  Al59  1  0.000000  0.000000  0.250000  1
  Al  Al60  1  0.000000  0.000000  0.500000  1
  Al  Al61  1  0.000000  0.000000  0.000000  1
  Sr  Sr62  1  0.333333  0.666667  0.750000  1
  Sr  Sr63  1  0.666667  0.333333  0.250000  1
