# generated using pymatgen
data_NpNiSn
_symmetry_space_group_name_H-M   'P 1'
_cell_length_a   4.49507659
_cell_length_b   7.18648434
_cell_length_c   7.42084556
_cell_angle_alpha   90.00232740
_cell_angle_beta   89.99964682
_cell_angle_gamma   90.00053515
_symmetry_Int_Tables_number   1
_chemical_formula_structural   NpNiSn
_chemical_formula_sum   'Np4 Ni4 Sn4'
_cell_volume   239.72149230
_cell_formula_units_Z   4
loop_
 _symmetry_equiv_pos_site_id
 _symmetry_equiv_pos_as_xyz
  1  'x, y, z'
loop_
 _atom_site_type_symbol
 _atom_site_label
 _atom_site_symmetry_multiplicity
 _atom_site_fract_x
 _atom_site_fract_y
 _atom_site_fract_z
 _atom_site_occupancy
  Np  Np0  1  0.249999  0.476479  0.815069  1
  Np  Np1  1  0.250004  0.976437  0.684918  1
  Np  Np2  1  0.749995  0.023520  0.315037  1
  Np  Np3  1  0.750004  0.523510  0.184918  1
  Ni  Ni4  1  0.249999  0.700820  0.414931  1
  Ni  Ni5  1  0.749999  0.799220  0.914915  1
  Ni  Ni6  1  0.749997  0.299230  0.585072  1
  Ni  Ni7  1  0.250002  0.200834  0.085075  1
  Sn  Sn8  1  0.250003  0.823255  0.088648  1
  Sn  Sn9  1  0.749998  0.176763  0.911407  1
  Sn  Sn10  1  0.750000  0.676736  0.588606  1
  Sn  Sn11  1  0.250000  0.323196  0.411405  1
