# generated using pymatgen
data_S(IN)2
_symmetry_space_group_name_H-M   'P 1'
_cell_length_a   6.82403180
_cell_length_b   8.51186783
_cell_length_c   11.71362459
_cell_angle_alpha   72.58695849
_cell_angle_beta   87.08656833
_cell_angle_gamma   64.67202271
_symmetry_Int_Tables_number   1
_chemical_formula_structural   S(IN)2
_chemical_formula_sum   'S4 I8 N8'
_cell_volume   584.44694951
_cell_formula_units_Z   4
loop_
 _symmetry_equiv_pos_site_id
 _symmetry_equiv_pos_as_xyz
  1  'x, y, z'
loop_
 _atom_site_type_symbol
 _atom_site_label
 _atom_site_symmetry_multiplicity
 _atom_site_fract_x
 _atom_site_fract_y
 _atom_site_fract_z
 _atom_site_occupancy
  S  S0  1  0.751635  0.485952  0.385504  1
  S  S1  1  0.248365  0.514048  0.614496  1
  S  S2  1  0.751822  0.256423  0.113472  1
  S  S3  1  0.248178  0.743577  0.886528  1
  I  I4  1  0.111659  0.260566  0.948123  1
  I  I5  1  0.377886  0.816688  0.214643  1
  I  I6  1  0.888341  0.739434  0.051877  1
  I  I7  1  0.840954  0.952810  0.369245  1
  I  I8  1  0.622114  0.183312  0.785357  1
  I  I9  1  0.159046  0.047190  0.630755  1
  I  I10  1  0.250955  0.312153  0.321213  1
  I  I11  1  0.749045  0.687847  0.678787  1
  N  N12  1  0.000122  0.859740  0.893257  1
  N  N13  1  0.297239  0.386403  0.748187  1
  N  N14  1  0.702761  0.613597  0.251813  1
  N  N15  1  0.345351  0.813646  0.769464  1
  N  N16  1  0.991255  0.343801  0.426779  1
  N  N17  1  0.008745  0.656199  0.573221  1
  N  N18  1  0.999878  0.140260  0.106743  1
  N  N19  1  0.654649  0.186354  0.230536  1
