# generated using pymatgen
data_Li5SiN3
_symmetry_space_group_name_H-M   'P 1'
_cell_length_a   8.16117358
_cell_length_b   8.17147054
_cell_length_c   24.54324847
_cell_angle_alpha   109.52397446
_cell_angle_beta   109.25506998
_cell_angle_gamma   109.28207956
_symmetry_Int_Tables_number   1
_chemical_formula_structural   Li5SiN3
_chemical_formula_sum   'Li80 Si16 N48'
_cell_volume   1265.42393543
_cell_formula_units_Z   16
loop_
 _symmetry_equiv_pos_site_id
 _symmetry_equiv_pos_as_xyz
  1  'x, y, z'
loop_
 _atom_site_type_symbol
 _atom_site_label
 _atom_site_symmetry_multiplicity
 _atom_site_fract_x
 _atom_site_fract_y
 _atom_site_fract_z
 _atom_site_occupancy
  Li  Li0  1  0.981190  0.519061  0.920161  1
  Li  Li1  1  0.042558  0.010500  0.922387  1
  Li  Li2  1  0.259056  0.718772  0.921406  1
  Li  Li3  1  0.265557  0.540782  0.827377  1
  Li  Li4  1  0.998348  0.539030  0.588262  1
  Li  Li5  1  0.939778  0.219491  0.643262  1
  Li  Li6  1  0.278224  0.253348  0.907177  1
  Li  Li7  1  0.260863  0.728704  0.760585  1
  Li  Li8  1  0.516527  0.548255  0.921009  1
  Li  Li9  1  0.246594  0.987981  0.823386  1
  Li  Li10  1  0.567492  0.764142  0.841792  1
  Li  Li11  1  0.286734  0.703938  0.586495  1
  Li  Li12  1  0.521239  0.497242  0.751666  1
  Li  Li13  1  0.251510  0.945387  0.664476  1
  Li  Li14  1  0.495320  0.270189  0.839258  1
  Li  Li15  1  0.540724  0.795126  0.685516  1
  Li  Li16  1  0.254328  0.498638  0.481283  1
  Li  Li17  1  0.973660  0.223577  0.320864  1
  Li  Li18  1  0.997962  0.542287  0.253948  1
  Li  Li19  1  0.281726  0.258273  0.579088  1
  Li  Li20  1  0.245941  0.746583  0.422461  1
  Li  Li21  1  0.787080  0.771655  0.926426  1
  Li  Li22  1  0.509802  0.016992  0.429811  1
  Li  Li23  1  0.497272  0.000172  0.763989  1
  Li  Li24  1  0.222609  0.223680  0.402853  1
  Li  Li25  1  0.728786  0.267366  0.915573  1
  Li  Li26  1  0.460403  0.227596  0.663034  1
  Li  Li27  1  0.749726  0.758370  0.755953  1
  Li  Li28  1  0.492752  0.525769  0.584330  1
  Li  Li29  1  0.733534  0.499319  0.840325  1
  Li  Li30  1  0.242642  0.999320  0.495333  1
  Li  Li31  1  0.515901  0.743325  0.487435  1
  Li  Li32  1  0.282182  0.731375  0.258407  1
  Li  Li33  1  0.715793  0.499730  0.668083  1
  Li  Li34  1  0.693991  0.246190  0.746733  1
  Li  Li35  1  0.779510  0.022049  0.843677  1
  Li  Li36  1  0.457204  0.258653  0.493585  1
  Li  Li37  1  0.255695  0.972197  0.339631  1
  Li  Li38  1  0.478413  0.460125  0.408713  1
  Li  Li39  1  0.545925  0.800278  0.352733  1
  Li  Li40  1  0.260002  0.540609  0.157518  1
  Li  Li41  1  0.953661  0.215219  0.981641  1
  Li  Li42  1  0.279445  0.256920  0.245606  1
  Li  Li43  1  0.230846  0.729572  0.085415  1
  Li  Li44  1  0.722850  0.292541  0.578822  1
  Li  Li45  1  0.755886  0.763334  0.428242  1
  Li  Li46  1  0.955701  0.448978  0.732917  1
  Li  Li47  1  0.477351  0.229747  0.333228  1
  Li  Li48  1  0.773528  0.042143  0.681078  1
  Li  Li49  1  0.015483  0.730555  0.681896  1
  Li  Li50  1  0.241587  0.990516  0.158509  1
  Li  Li51  1  0.722657  0.469828  0.496797  1
  Li  Li52  1  0.485370  0.529656  0.250564  1
  Li  Li53  1  0.521709  0.748884  0.154234  1
  Li  Li54  1  0.710415  0.498982  0.333525  1
  Li  Li55  1  0.716039  0.239913  0.411419  1
  Li  Li56  1  0.975244  0.971262  0.748269  1
  Li  Li57  1  0.487989  0.264933  0.172501  1
  Li  Li58  1  0.243549  0.955023  0.001227  1
  Li  Li59  1  0.523136  0.493668  0.082675  1
  Li  Li60  1  0.530301  0.791252  0.010347  1
  Li  Li61  1  0.775510  0.033159  0.513922  1
  Li  Li62  1  0.497475  -0.000049  0.095103  1
  Li  Li63  1  0.753485  0.291392  0.251627  1
  Li  Li64  1  0.749569  0.763509  0.088651  1
  Li  Li65  1  0.965221  0.458655  0.398901  1
  Li  Li66  1  0.064440  0.036041  0.592433  1
  Li  Li67  1  0.000809  0.738182  0.344256  1
  Li  Li68  1  0.776033  0.027242  0.344251  1
  Li  Li69  1  0.724978  0.463529  0.163376  1
  Li  Li70  1  0.454677  0.228997  0.994652  1
  Li  Li71  1  0.706429  0.484626  0.995309  1
  Li  Li72  1  0.689866  0.221538  0.071743  1
  Li  Li73  1  0.995381  0.990638  0.417474  1
  Li  Li74  1  0.781441  0.033019  0.180186  1
  Li  Li75  1  0.946075  0.445696  0.064315  1
  Li  Li76  1  0.983275  0.728466  0.004990  1
  Li  Li77  1  0.059276  0.026427  0.259500  1
  Li  Li78  1  0.767677  0.014158  0.006543  1
  Li  Li79  1  0.985235  0.981295  0.081833  1
  Si  Si80  1  0.495843  0.983182  0.913391  1
  Si  Si81  1  0.020575  0.729098  0.503833  1
  Si  Si82  1  0.220060  0.230313  0.737693  1
  Si  Si83  1  0.254563  0.494877  0.662911  1
  Si  Si84  1  0.512320  0.996063  0.580137  1
  Si  Si85  1  0.013384  0.730695  0.167552  1
  Si  Si86  1  0.258410  0.512594  0.331140  1
  Si  Si87  1  0.512746  0.995087  0.245315  1
  Si  Si88  1  0.005491  0.732433  0.831380  1
  Si  Si89  1  0.787155  0.775450  0.591405  1
  Si  Si90  1  0.000588  0.275057  0.828872  1
  Si  Si91  1  0.233141  0.240565  0.074026  1
  Si  Si92  1  0.258408  0.499955  0.994937  1
  Si  Si93  1  0.774658  0.761167  0.253562  1
  Si  Si94  1  0.012557  0.271556  0.500942  1
  Si  Si95  1  0.005669  0.275449  0.163973  1
  N  N96  1  0.245161  0.949774  0.903056  1
  N  N97  1  0.048126  0.290795  0.910565  1
  N  N98  1  0.201127  0.257864  0.812831  1
  N  N99  1  0.260323  0.717703  0.674054  1
  N  N100  1  0.262791  0.941081  0.574802  1
  N  N101  1  0.217027  0.437638  0.726562  1
  N  N102  1  0.509172  0.778964  0.917222  1
  N  N103  1  0.037124  0.291310  0.582180  1
  N  N104  1  0.436823  0.226290  0.745881  1
  N  N105  1  0.222414  0.269360  0.498587  1
  N  N106  1  0.689346  0.207125  0.986768  1
  N  N107  1  0.738636  0.508154  0.920184  1
  N  N108  1  0.473624  0.502648  0.666945  1
  N  N109  1  0.504298  0.988721  0.843350  1
  N  N110  1  0.257845  0.945909  0.237455  1
  N  N111  1  0.258544  0.730561  0.337144  1
  N  N112  1  0.228039  0.478376  0.395191  1
  N  N113  1  0.561612  0.794163  0.583497  1
  N  N114  1  0.806708  0.754754  0.839015  1
  N  N115  1  0.044610  0.296646  0.245186  1
  N  N116  1  0.995197  0.728482  0.758790  1
  N  N117  1  0.780959  0.053189  0.765948  1
  N  N118  1  0.482364  0.236557  0.415731  1
  N  N119  1  0.218110  0.274359  0.153582  1
  N  N120  1  0.694775  0.218611  0.653168  1
  N  N121  1  0.757773  0.558016  0.592086  1
  N  N122  1  0.994288  0.496089  0.829411  1
  N  N123  1  0.474611  0.511649  0.332972  1
  N  N124  1  0.504434  0.002962  0.509756  1
  N  N125  1  0.023876  0.022210  0.007549  1
  N  N126  1  0.826235  0.770853  0.521801  1
  N  N127  1  0.232869  0.455467  0.063699  1
  N  N128  1  0.542474  0.780985  0.243982  1
  N  N129  1  0.252189  0.718167  0.005329  1
  N  N130  1  0.991174  0.734539  0.431266  1
  N  N131  1  0.793568  0.051780  0.436222  1
  N  N132  1  0.454478  0.239929  0.083843  1
  N  N133  1  0.738989  0.536578  0.251890  1
  N  N134  1  0.704150  0.213857  0.318595  1
  N  N135  1  0.009934  0.500375  0.501056  1
  N  N136  1  0.000492  0.000599  0.666072  1
  N  N137  1  0.504771  0.003204  0.175154  1
  N  N138  1  0.475846  0.506039  0.000129  1
  N  N139  1  0.807692  0.753562  0.180585  1
  N  N140  1  0.987407  0.731291  0.094933  1
  N  N141  1  0.787852  0.052795  0.100921  1
  N  N142  1  0.978912  0.970462  0.324853  1
  N  N143  1  0.001506  0.500499  0.165154  1
