# generated using pymatgen
data_Ce5AgSe8
_symmetry_space_group_name_H-M   'P 1'
_cell_length_a   7.71367299
_cell_length_b   7.71367290
_cell_length_c   7.71367260
_cell_angle_alpha   110.00776593
_cell_angle_beta   110.00776575
_cell_angle_gamma   108.40337544
_symmetry_Int_Tables_number   1
_chemical_formula_structural   Ce5AgSe8
_chemical_formula_sum   'Ce5 Ag1 Se8'
_cell_volume   353.22291557
_cell_formula_units_Z   1
loop_
 _symmetry_equiv_pos_site_id
 _symmetry_equiv_pos_as_xyz
  1  'x, y, z'
loop_
 _atom_site_type_symbol
 _atom_site_label
 _atom_site_symmetry_multiplicity
 _atom_site_fract_x
 _atom_site_fract_y
 _atom_site_fract_z
 _atom_site_occupancy
  Ce  Ce0  1  0.112880  0.743006  0.870684  1
  Ce  Ce1  1  0.256994  0.627678  0.369874  1
  Ce  Ce2  1  0.372322  0.242196  0.629316  1
  Ce  Ce3  1  0.625000  0.375000  0.250000  1
  Ce  Ce4  1  0.757804  0.887120  0.130126  1
  Ag  Ag5  1  0.875000  0.125000  0.750000  1
  Se  Se6  1  0.988626  0.850282  0.498624  1
  Se  Se7  1  0.481671  0.991970  0.852351  1
  Se  Se8  1  0.149718  0.148342  0.138345  1
  Se  Se9  1  0.370681  0.518329  0.010299  1
  Se  Se10  1  0.639618  0.629319  0.647649  1
  Se  Se11  1  0.509998  0.011374  0.361655  1
  Se  Se12  1  0.851658  0.490002  0.001376  1
  Se  Se13  1  0.008030  0.360382  0.489701  1
