# generated using pymatgen
data_Yb(NdS2)2
_symmetry_space_group_name_H-M   'P 1'
_cell_length_a   7.41414899
_cell_length_b   7.41414873
_cell_length_c   7.41414856
_cell_angle_alpha   109.56887306
_cell_angle_beta   109.27609795
_cell_angle_gamma   109.56886602
_symmetry_Int_Tables_number   1
_chemical_formula_structural   Yb(NdS2)2
_chemical_formula_sum   'Yb2 Nd4 S8'
_cell_volume   313.73157140
_cell_formula_units_Z   2
loop_
 _symmetry_equiv_pos_site_id
 _symmetry_equiv_pos_as_xyz
  1  'x, y, z'
loop_
 _atom_site_type_symbol
 _atom_site_label
 _atom_site_symmetry_multiplicity
 _atom_site_fract_x
 _atom_site_fract_y
 _atom_site_fract_z
 _atom_site_occupancy
  Yb  Yb0  1  0.125000  0.750000  0.875000  1
  Yb  Yb1  1  0.375000  0.250000  0.625000  1
  Nd  Nd2  1  0.250000  0.628476  0.378476  1
  Nd  Nd3  1  0.621524  0.371524  0.250000  1
  Nd  Nd4  1  0.750000  0.871524  0.121524  1
  Nd  Nd5  1  0.878476  0.128476  0.750000  1
  S  S6  1  0.147600  0.146593  0.145409  1
  S  S7  1  0.501184  0.002191  0.354591  1
  S  S8  1  0.352400  0.497809  0.998993  1
  S  S9  1  0.645409  0.646593  0.647600  1
  S  S10  1  0.498993  0.997809  0.852400  1
  S  S11  1  0.001007  0.853407  0.498816  1
  S  S12  1  0.854591  0.502191  0.001184  1
  S  S13  1  -0.001184  0.353407  0.501007  1
