# generated using pymatgen
data_SiO2
_symmetry_space_group_name_H-M   'P 1'
_cell_length_a   14.11416182
_cell_length_b   14.11416182
_cell_length_c   10.04278388
_cell_angle_alpha   90.00000000
_cell_angle_beta   90.00000000
_cell_angle_gamma   90.00000000
_symmetry_Int_Tables_number   1
_chemical_formula_structural   SiO2
_chemical_formula_sum   'Si32 O64'
_cell_volume   2000.61859689
_cell_formula_units_Z   32
loop_
 _symmetry_equiv_pos_site_id
 _symmetry_equiv_pos_as_xyz
  1  'x, y, z'
loop_
 _atom_site_type_symbol
 _atom_site_label
 _atom_site_symmetry_multiplicity
 _atom_site_fract_x
 _atom_site_fract_y
 _atom_site_fract_z
 _atom_site_occupancy
  Si  Si0  1  0.110466  0.267179  0.155293  1
  Si  Si1  1  0.732821  0.110466  0.155293  1
  Si  Si2  1  0.267179  0.889534  0.155293  1
  Si  Si3  1  0.110466  0.732821  0.844707  1
  Si  Si4  1  0.889534  0.267179  0.844707  1
  Si  Si5  1  0.889534  0.732821  0.155293  1
  Si  Si6  1  0.267179  0.110466  0.844707  1
  Si  Si7  1  0.732821  0.889534  0.844707  1
  Si  Si8  1  0.889534  0.732821  0.844707  1
  Si  Si9  1  0.267179  0.889534  0.844707  1
  Si  Si10  1  0.732821  0.110466  0.844707  1
  Si  Si11  1  0.889534  0.267179  0.155293  1
  Si  Si12  1  0.110466  0.732821  0.155293  1
  Si  Si13  1  0.110466  0.267179  0.844707  1
  Si  Si14  1  0.732821  0.889534  0.155293  1
  Si  Si15  1  0.267179  0.110466  0.155293  1
  Si  Si16  1  0.610466  0.767179  0.655293  1
  Si  Si17  1  0.232821  0.610466  0.655293  1
  Si  Si18  1  0.767179  0.389534  0.655293  1
  Si  Si19  1  0.610466  0.232821  0.344707  1
  Si  Si20  1  0.389534  0.767179  0.344707  1
  Si  Si21  1  0.389534  0.232821  0.655293  1
  Si  Si22  1  0.767179  0.610466  0.344707  1
  Si  Si23  1  0.232821  0.389534  0.344707  1
  Si  Si24  1  0.389534  0.232821  0.344707  1
  Si  Si25  1  0.767179  0.389534  0.344707  1
  Si  Si26  1  0.232821  0.610466  0.344707  1
  Si  Si27  1  0.389534  0.767179  0.655293  1
  Si  Si28  1  0.610466  0.232821  0.655293  1
  Si  Si29  1  0.610466  0.767179  0.344707  1
  Si  Si30  1  0.232821  0.389534  0.655293  1
  Si  Si31  1  0.767179  0.610466  0.655293  1
  O  O32  1  0.171763  0.171763  0.184883  1
  O  O33  1  0.828237  0.171763  0.184883  1
  O  O34  1  0.171763  0.828237  0.184883  1
  O  O35  1  0.171763  0.828237  0.815117  1
  O  O36  1  0.828237  0.171763  0.815117  1
  O  O37  1  0.828237  0.828237  0.184883  1
  O  O38  1  0.171763  0.171763  0.815117  1
  O  O39  1  0.828237  0.828237  0.815117  1
  O  O40  1  0.671763  0.671763  0.684883  1
  O  O41  1  0.328237  0.671763  0.684883  1
  O  O42  1  0.671763  0.328237  0.684883  1
  O  O43  1  0.671763  0.328237  0.315117  1
  O  O44  1  0.328237  0.671763  0.315117  1
  O  O45  1  0.328237  0.328237  0.684883  1
  O  O46  1  0.671763  0.671763  0.315117  1
  O  O47  1  0.328237  0.328237  0.315117  1
  O  O48  1  0.122708  0.298756  0.000000  1
  O  O49  1  0.701244  0.122708  0.000000  1
  O  O50  1  0.298756  0.877292  0.000000  1
  O  O51  1  0.122708  0.701244  0.000000  1
  O  O52  1  0.877292  0.298756  0.000000  1
  O  O53  1  0.877292  0.701244  0.000000  1
  O  O54  1  0.298756  0.122708  0.000000  1
  O  O55  1  0.701244  0.877292  0.000000  1
  O  O56  1  0.622708  0.798756  0.500000  1
  O  O57  1  0.201244  0.622708  0.500000  1
  O  O58  1  0.798756  0.377292  0.500000  1
  O  O59  1  0.622708  0.201244  0.500000  1
  O  O60  1  0.377292  0.798756  0.500000  1
  O  O61  1  0.377292  0.201244  0.500000  1
  O  O62  1  0.798756  0.622708  0.500000  1
  O  O63  1  0.201244  0.377292  0.500000  1
  O  O64  1  0.000000  0.245107  0.187580  1
  O  O65  1  0.754893  0.000000  0.187580  1
  O  O66  1  0.245107  0.000000  0.187580  1
  O  O67  1  0.000000  0.754893  0.812420  1
  O  O68  1  0.000000  0.245107  0.812420  1
  O  O69  1  0.000000  0.754893  0.187580  1
  O  O70  1  0.245107  0.000000  0.812420  1
  O  O71  1  0.754893  0.000000  0.812420  1
  O  O72  1  0.500000  0.745107  0.687580  1
  O  O73  1  0.254893  0.500000  0.687580  1
  O  O74  1  0.745107  0.500000  0.687580  1
  O  O75  1  0.500000  0.254893  0.312420  1
  O  O76  1  0.500000  0.745107  0.312420  1
  O  O77  1  0.500000  0.254893  0.687580  1
  O  O78  1  0.745107  0.500000  0.312420  1
  O  O79  1  0.254893  0.500000  0.312420  1
  O  O80  1  0.146940  0.353060  0.250000  1
  O  O81  1  0.646940  0.146940  0.250000  1
  O  O82  1  0.353060  0.853060  0.250000  1
  O  O83  1  0.146940  0.646940  0.750000  1
  O  O84  1  0.853060  0.353060  0.750000  1
  O  O85  1  0.853060  0.646940  0.250000  1
  O  O86  1  0.353060  0.146940  0.750000  1
  O  O87  1  0.646940  0.853060  0.750000  1
  O  O88  1  0.853060  0.646940  0.750000  1
  O  O89  1  0.353060  0.853060  0.750000  1
  O  O90  1  0.646940  0.146940  0.750000  1
  O  O91  1  0.853060  0.353060  0.250000  1
  O  O92  1  0.146940  0.646940  0.250000  1
  O  O93  1  0.146940  0.353060  0.750000  1
  O  O94  1  0.646940  0.853060  0.250000  1
  O  O95  1  0.353060  0.146940  0.250000  1
