# generated using pymatgen
data_Ba3Ce2C5O15F2
_symmetry_space_group_name_H-M   'P 1'
_cell_length_a   5.32587517
_cell_length_b   13.96798645
_cell_length_c   21.20963572
_cell_angle_alpha   94.95142839
_cell_angle_beta   90.00000000
_cell_angle_gamma   90.00000000
_symmetry_Int_Tables_number   1
_chemical_formula_structural   Ba3Ce2C5O15F2
_chemical_formula_sum   'Ba12 Ce8 C20 O60 F8'
_cell_volume   1571.93388865
_cell_formula_units_Z   4
loop_
 _symmetry_equiv_pos_site_id
 _symmetry_equiv_pos_as_xyz
  1  'x, y, z'
loop_
 _atom_site_type_symbol
 _atom_site_label
 _atom_site_symmetry_multiplicity
 _atom_site_fract_x
 _atom_site_fract_y
 _atom_site_fract_z
 _atom_site_occupancy
  Ba  Ba0  1  0.999187  0.407427  0.813450  1
  Ba  Ba1  1  0.999187  0.592573  0.186550  1
  Ba  Ba2  1  0.988518  0.102729  0.693198  1
  Ba  Ba3  1  0.495178  0.094887  0.191918  1
  Ba  Ba4  1  0.988518  0.897271  0.306802  1
  Ba  Ba5  1  0.479334  0.403502  0.315479  1
  Ba  Ba6  1  0.495178  0.905112  0.808082  1
  Ba  Ba7  1  0.518405  0.500000  0.000000  1
  Ba  Ba8  1  0.009332  0.500000  0.500000  1
  Ba  Ba9  1  0.481126  0.000000  0.500000  1
  Ba  Ba10  1  0.479334  0.596498  0.684521  1
  Ba  Ba11  1  0.997976  0.000000  0.000000  1
  Ce  Ce12  1  0.991878  0.209840  0.395295  1
  Ce  Ce13  1  0.494581  0.785089  0.106360  1
  Ce  Ce14  1  0.997353  0.316759  0.099824  1
  Ce  Ce15  1  0.504019  0.315210  0.600738  1
  Ce  Ce16  1  0.494581  0.214911  0.893640  1
  Ce  Ce17  1  0.997353  0.683241  0.900176  1
  Ce  Ce18  1  0.991878  0.790160  0.604705  1
  Ce  Ce19  1  0.504019  0.684790  0.399262  1
  C  C20  1  0.498893  0.778850  0.246996  1
  C  C21  1  0.498893  0.221150  0.753004  1
  C  C22  1  0.002184  0.600766  0.338202  1
  C  C23  1  0.002184  0.399234  0.661798  1
  C  C24  1  0.997176  0.696202  0.044096  1
  C  C25  1  0.998659  0.770218  0.745285  1
  C  C26  1  0.002828  0.851779  0.450910  1
  C  C27  1  0.499250  0.596378  0.839948  1
  C  C28  1  0.501963  0.707196  0.540013  1
  C  C29  1  0.997176  0.303798  0.955904  1
  C  C30  1  0.998659  0.229782  0.254715  1
  C  C31  1  0.501449  0.961099  0.651507  1
  C  C32  1  0.497793  0.142731  0.047757  1
  C  C33  1  0.998890  0.956398  0.149279  1
  C  C34  1  0.501449  0.038901  0.348493  1
  C  C35  1  0.501963  0.292804  0.459987  1
  C  C36  1  0.998890  0.043602  0.850721  1
  C  C37  1  0.499250  0.403622  0.160052  1
  C  C38  1  0.002828  0.148221  0.549090  1
  C  C39  1  0.497793  0.857269  0.952243  1
  O  O40  1  0.703676  0.219019  0.786595  1
  O  O41  1  0.297404  0.056777  0.380888  1
  O  O42  1  0.713479  0.302269  0.490221  1
  O  O43  1  0.784024  0.061732  0.878336  1
  O  O44  1  0.703676  0.780981  0.213405  1
  O  O45  1  0.993663  0.728076  0.103230  1
  O  O46  1  0.285960  0.774214  0.217073  1
  O  O47  1  0.713479  0.697731  0.509779  1
  O  O48  1  0.500432  0.368021  0.101055  1
  O  O49  1  0.500432  0.631979  0.898945  1
  O  O50  1  0.006220  0.001538  0.204971  1
  O  O51  1  0.709142  0.423518  0.188727  1
  O  O52  1  0.786097  0.757829  0.716219  1
  O  O53  1  0.283068  0.151460  0.077004  1
  O  O54  1  0.501604  0.742102  0.598599  1
  O  O55  1  0.788435  0.314989  0.987261  1
  O  O56  1  0.285745  0.413333  0.189429  1
  O  O57  1  0.719674  0.937286  0.626659  1
  O  O58  1  0.004644  0.634764  0.397201  1
  O  O59  1  0.013223  0.224368  0.193646  1
  O  O60  1  0.208788  0.680999  0.014961  1
  O  O61  1  0.198924  0.780295  0.710987  1
  O  O62  1  0.285960  0.225786  0.782927  1
  O  O63  1  0.792899  0.837092  0.420568  1
  O  O64  1  0.705963  0.842204  0.920750  1
  O  O65  1  0.709142  0.576482  0.811273  1
  O  O66  1  0.501604  0.257898  0.401401  1
  O  O67  1  0.297404  0.943223  0.619112  1
  O  O68  1  0.198924  0.219705  0.289013  1
  O  O69  1  0.006220  0.998462  0.795029  1
  O  O70  1  0.788473  0.418428  0.689378  1
  O  O71  1  0.002974  0.116551  0.489585  1
  O  O72  1  0.788435  0.685011  0.012739  1
  O  O73  1  0.492349  0.007189  0.707031  1
  O  O74  1  0.208788  0.319001  0.985039  1
  O  O75  1  0.002974  0.883449  0.510415  1
  O  O76  1  0.293637  0.313340  0.489511  1
  O  O77  1  0.503876  0.112607  0.988275  1
  O  O78  1  0.786097  0.242171  0.283781  1
  O  O79  1  0.215246  0.840267  0.421079  1
  O  O80  1  0.293637  0.686660  0.510489  1
  O  O81  1  0.285745  0.586667  0.810571  1
  O  O82  1  0.213773  0.410697  0.692172  1
  O  O83  1  0.206807  0.064899  0.881415  1
  O  O84  1  0.788473  0.581572  0.310622  1
  O  O85  1  0.719674  0.062714  0.373341  1
  O  O86  1  0.510097  0.214628  0.692106  1
  O  O87  1  0.784024  0.938268  0.121664  1
  O  O88  1  0.215246  0.159733  0.578921  1
  O  O89  1  0.206807  0.935101  0.118585  1
  O  O90  1  0.004644  0.365236  0.602799  1
  O  O91  1  0.705963  0.157796  0.079250  1
  O  O92  1  0.993663  0.271924  0.896770  1
  O  O93  1  0.510097  0.785372  0.307894  1
  O  O94  1  0.792899  0.162908  0.579432  1
  O  O95  1  0.013223  0.775632  0.806354  1
  O  O96  1  0.492349  0.992811  0.292969  1
  O  O97  1  0.283068  0.848540  0.922996  1
  O  O98  1  0.213773  0.589303  0.307828  1
  O  O99  1  0.503876  0.887393  0.011725  1
  F  F100  1  0.486821  0.613402  0.128484  1
  F  F101  1  0.493503  0.515876  0.426333  1
  F  F102  1  0.007477  0.619199  0.620628  1
  F  F103  1  0.493503  0.484124  0.573667  1
  F  F104  1  0.990352  0.479268  0.074382  1
  F  F105  1  0.486821  0.386598  0.871516  1
  F  F106  1  0.007477  0.380801  0.379372  1
  F  F107  1  0.990352  0.520732  0.925618  1
