# generated using pymatgen
data_Tm(HO)3
_symmetry_space_group_name_H-M   'P 1'
_cell_length_a   6.33405578
_cell_length_b   6.26879767
_cell_length_c   3.43215948
_cell_angle_alpha   90.00000000
_cell_angle_beta   90.00000000
_cell_angle_gamma   117.55476959
_symmetry_Int_Tables_number   1
_chemical_formula_structural   Tm(HO)3
_chemical_formula_sum   'Tm2 H6 O6'
_cell_volume   120.82203775
_cell_formula_units_Z   2
loop_
 _symmetry_equiv_pos_site_id
 _symmetry_equiv_pos_as_xyz
  1  'x, y, z'
loop_
 _atom_site_type_symbol
 _atom_site_label
 _atom_site_symmetry_multiplicity
 _atom_site_fract_x
 _atom_site_fract_y
 _atom_site_fract_z
 _atom_site_occupancy
  Tm  Tm0  1  0.322446  0.655542  0.250000  1
  Tm  Tm1  1  0.677554  0.344458  0.750000  1
  H  H2  1  0.857748  0.728119  0.250000  1
  H  H3  1  0.863907  0.136266  0.250000  1
  H  H4  1  0.311404  0.139418  0.250000  1
  H  H5  1  0.142252  0.271881  0.750000  1
  H  H6  1  0.136093  0.863734  0.750000  1
  H  H7  1  0.688596  0.860582  0.750000  1
  O  O8  1  0.912848  0.606369  0.250000  1
  O  O9  1  0.695669  0.093983  0.250000  1
  O  O10  1  0.410314  0.314236  0.250000  1
  O  O11  1  0.087152  0.393631  0.750000  1
  O  O12  1  0.304331  0.906017  0.750000  1
  O  O13  1  0.589686  0.685764  0.750000  1
