# generated using pymatgen
data_Ce2Si2O7
_symmetry_space_group_name_H-M   'P 1'
_cell_length_a   6.87153241
_cell_length_b   6.87153241
_cell_length_c   24.94392174
_cell_angle_alpha   90.00000000
_cell_angle_beta   90.00000000
_cell_angle_gamma   90.00000000
_symmetry_Int_Tables_number   1
_chemical_formula_structural   Ce2Si2O7
_chemical_formula_sum   'Ce16 Si16 O56'
_cell_volume   1177.80104064
_cell_formula_units_Z   8
loop_
 _symmetry_equiv_pos_site_id
 _symmetry_equiv_pos_as_xyz
  1  'x, y, z'
loop_
 _atom_site_type_symbol
 _atom_site_label
 _atom_site_symmetry_multiplicity
 _atom_site_fract_x
 _atom_site_fract_y
 _atom_site_fract_z
 _atom_site_occupancy
  Ce  Ce0  1  0.771962  0.883787  0.891594  1
  Ce  Ce1  1  0.828759  0.517800  0.398786  1
  Ce  Ce2  1  0.767525  0.298134  0.000990  1
  Ce  Ce3  1  0.482200  0.828759  0.648786  1
  Ce  Ce4  1  0.232475  0.701866  0.500990  1
  Ce  Ce5  1  0.517800  0.171241  0.148786  1
  Ce  Ce6  1  0.916080  0.661924  0.751916  1
  Ce  Ce7  1  0.701866  0.767525  0.250990  1
  Ce  Ce8  1  0.083920  0.338076  0.251916  1
  Ce  Ce9  1  0.338076  0.916080  0.001916  1
  Ce  Ce10  1  0.298134  0.232475  0.750990  1
  Ce  Ce11  1  0.116213  0.771962  0.141594  1
  Ce  Ce12  1  0.171241  0.482200  0.898786  1
  Ce  Ce13  1  0.228038  0.116213  0.391594  1
  Ce  Ce14  1  0.883787  0.228038  0.641594  1
  Ce  Ce15  1  0.661924  0.083920  0.501916  1
  Si  Si16  1  0.593921  0.698645  0.114679  1
  Si  Si17  1  0.406079  0.301355  0.614679  1
  Si  Si18  1  0.261664  0.377047  0.021724  1
  Si  Si19  1  0.148585  0.233321  0.516730  1
  Si  Si20  1  0.766679  0.148585  0.766730  1
  Si  Si21  1  0.703055  0.010246  0.372088  1
  Si  Si22  1  0.989754  0.703055  0.622088  1
  Si  Si23  1  0.851415  0.766679  0.016730  1
  Si  Si24  1  0.622953  0.261664  0.271724  1
  Si  Si25  1  0.296945  0.989754  0.872088  1
  Si  Si26  1  0.698645  0.406079  0.864679  1
  Si  Si27  1  0.301355  0.593921  0.364679  1
  Si  Si28  1  0.738336  0.622953  0.521724  1
  Si  Si29  1  0.233321  0.851415  0.266730  1
  Si  Si30  1  0.010246  0.296945  0.122088  1
  Si  Si31  1  0.377047  0.738336  0.771724  1
  O  O32  1  0.189218  0.784073  0.595521  1
  O  O33  1  0.843812  0.957211  0.798496  1
  O  O34  1  0.888527  0.615817  0.966607  1
  O  O35  1  0.957211  0.156188  0.548496  1
  O  O36  1  0.873975  0.755204  0.481029  1
  O  O37  1  0.287551  0.366103  0.558337  1
  O  O38  1  0.515904  0.519371  0.890249  1
  O  O39  1  0.460593  0.024977  0.918476  1
  O  O40  1  0.327876  0.573511  0.990715  1
  O  O41  1  0.244796  0.873975  0.731029  1
  O  O42  1  0.712449  0.633897  0.058337  1
  O  O43  1  0.156188  0.042789  0.298496  1
  O  O44  1  0.444035  0.236579  0.039619  1
  O  O45  1  0.429060  0.876440  0.824695  1
  O  O46  1  0.152305  0.130917  0.148507  1
  O  O47  1  0.763421  0.444035  0.289619  1
  O  O48  1  0.274642  0.052417  0.492019  1
  O  O49  1  0.810782  0.215927  0.095521  1
  O  O50  1  0.784073  0.810782  0.345521  1
  O  O51  1  0.748572  0.811677  0.154187  1
  O  O52  1  0.725358  0.947583  0.992019  1
  O  O53  1  0.052417  0.725358  0.242019  1
  O  O54  1  0.555965  0.763421  0.539619  1
  O  O55  1  0.947583  0.274642  0.742019  1
  O  O56  1  0.811677  0.251428  0.904187  1
  O  O57  1  0.570940  0.123560  0.324695  1
  O  O58  1  0.573511  0.672124  0.740715  1
  O  O59  1  0.864066  0.569833  0.846236  1
  O  O60  1  0.135934  0.430167  0.346236  1
  O  O61  1  0.847695  0.869083  0.648507  1
  O  O62  1  0.384183  0.888527  0.216607  1
  O  O63  1  0.236579  0.555965  0.789619  1
  O  O64  1  0.126025  0.244796  0.981029  1
  O  O65  1  0.519371  0.484096  0.640249  1
  O  O66  1  0.633897  0.287551  0.808337  1
  O  O67  1  0.215927  0.189218  0.845521  1
  O  O68  1  0.042789  0.843812  0.048496  1
  O  O69  1  0.672124  0.426489  0.490715  1
  O  O70  1  0.569833  0.135934  0.596236  1
  O  O71  1  0.366103  0.712449  0.308337  1
  O  O72  1  0.426489  0.327876  0.240715  1
  O  O73  1  0.869083  0.152305  0.398507  1
  O  O74  1  0.876440  0.570940  0.574695  1
  O  O75  1  0.430167  0.864066  0.096236  1
  O  O76  1  0.251428  0.188323  0.654187  1
  O  O77  1  0.188323  0.748572  0.404187  1
  O  O78  1  0.024977  0.539407  0.668476  1
  O  O79  1  0.539407  0.975023  0.418476  1
  O  O80  1  0.480629  0.515904  0.140249  1
  O  O81  1  0.123560  0.429060  0.074695  1
  O  O82  1  0.130917  0.847695  0.898507  1
  O  O83  1  0.111473  0.384183  0.466607  1
  O  O84  1  0.975023  0.460593  0.168476  1
  O  O85  1  0.755204  0.126025  0.231029  1
  O  O86  1  0.484096  0.480629  0.390249  1
  O  O87  1  0.615817  0.111473  0.716607  1
