# generated using pymatgen
data_Ca10Ti8NbAl(SiO5)10
_symmetry_space_group_name_H-M   'P 1'
_cell_length_a   27.44222081
_cell_length_b   6.62619016
_cell_length_c   7.11638280
_cell_angle_alpha   113.81305026
_cell_angle_beta   103.90950240
_cell_angle_gamma   53.06625827
_symmetry_Int_Tables_number   1
_chemical_formula_structural   Ca10Ti8NbAl(SiO5)10
_chemical_formula_sum   'Ca10 Ti8 Nb1 Al1 Si10 O50'
_cell_volume   946.29244162
_cell_formula_units_Z   1
loop_
 _symmetry_equiv_pos_site_id
 _symmetry_equiv_pos_as_xyz
  1  'x, y, z'
loop_
 _atom_site_type_symbol
 _atom_site_label
 _atom_site_symmetry_multiplicity
 _atom_site_fract_x
 _atom_site_fract_y
 _atom_site_fract_z
 _atom_site_occupancy
  Ca  Ca0  1  0.132349  0.169176  0.250018  1
  Ca  Ca1  1  0.067626  0.831350  0.751893  1
  Ca  Ca2  1  0.332284  0.169287  0.250266  1
  Ca  Ca3  1  0.267525  0.831351  0.753226  1
  Ca  Ca4  1  0.532183  0.172261  0.249836  1
  Ca  Ca5  1  0.467441  0.830512  0.750969  1
  Ca  Ca6  1  0.732318  0.156938  0.238838  1
  Ca  Ca7  1  0.667682  0.831870  0.759251  1
  Ca  Ca8  1  0.932626  0.170710  0.236945  1
  Ca  Ca9  1  0.867687  0.841889  0.760144  1
  Ti  Ti10  1  -0.000233  0.500276  0.502781  1
  Ti  Ti11  1  0.200015  0.500079  0.500597  1
  Ti  Ti12  1  0.200017  0.500479  0.000557  1
  Ti  Ti13  1  0.399603  0.501333  0.501205  1
  Ti  Ti14  1  0.400207  0.500596  0.001254  1
  Ti  Ti15  1  0.600254  0.500534  0.501105  1
  Ti  Ti16  1  0.599664  0.502137  0.000696  1
  Ti  Ti17  1  0.000250  0.499602  0.003052  1
  Nb  Nb18  1  0.800108  0.499689  0.498472  1
  Al  Al19  1  0.800121  0.499360  0.998610  1
  Si  Si20  1  0.127089  0.182582  0.750449  1
  Si  Si21  1  0.073032  0.817999  0.253265  1
  Si  Si22  1  0.326997  0.183239  0.750155  1
  Si  Si23  1  0.272855  0.818369  0.251824  1
  Si  Si24  1  0.527009  0.182601  0.749376  1
  Si  Si25  1  0.472852  0.819582  0.252056  1
  Si  Si26  1  0.727191  0.193277  0.756707  1
  Si  Si27  1  0.672851  0.820217  0.245129  1
  Si  Si28  1  0.927319  0.179624  0.752539  1
  Si  Si29  1  0.872948  0.806871  0.243498  1
  O  O30  1  0.026199  0.118252  0.413286  1
  O  O31  1  0.084480  0.186009  0.882364  1
  O  O32  1  0.028189  0.426292  0.249782  1
  O  O33  1  0.084468  0.391872  0.620060  1
  O  O34  1  0.026718  0.748448  0.090514  1
  O  O35  1  0.173638  0.250556  0.911701  1
  O  O36  1  0.115474  0.608134  0.383144  1
  O  O37  1  0.171743  0.571562  0.751975  1
  O  O38  1  0.226089  0.119266  0.412597  1
  O  O39  1  0.115768  0.814323  0.121784  1
  O  O40  1  0.284408  0.186737  0.881713  1
  O  O41  1  0.173680  0.881282  0.589683  1
  O  O42  1  0.228154  0.428968  0.250701  1
  O  O43  1  0.284506  0.392110  0.619313  1
  O  O44  1  0.226577  0.749756  0.089478  1
  O  O45  1  0.373493  0.252190  0.911166  1
  O  O46  1  0.315325  0.609173  0.382443  1
  O  O47  1  0.371633  0.575160  0.752020  1
  O  O48  1  0.425806  0.120798  0.412181  1
  O  O49  1  0.315698  0.815167  0.120912  1
  O  O50  1  0.484204  0.186069  0.880284  1
  O  O51  1  0.373731  0.882378  0.588992  1
  O  O52  1  0.427977  0.432263  0.250490  1
  O  O53  1  0.484633  0.390032  0.617679  1
  O  O54  1  0.426807  0.750074  0.088954  1
  O  O55  1  0.573111  0.252806  0.912181  1
  O  O56  1  0.515257  0.611228  0.383132  1
  O  O57  1  0.571574  0.569631  0.750011  1
  O  O58  1  0.626344  0.118690  0.409288  1
  O  O59  1  0.515801  0.817090  0.122142  1
  O  O60  1  0.684597  0.187818  0.881890  1
  O  O61  1  0.574205  0.880818  0.590595  1
  O  O62  1  0.628118  0.428639  0.248935  1
  O  O63  1  0.684286  0.394181  0.620058  1
  O  O64  1  0.626249  0.750817  0.085842  1
  O  O65  1  0.774046  0.256684  0.913655  1
  O  O66  1  0.714104  0.611484  0.380457  1
  O  O67  1  0.772331  0.568885  0.754612  1
  O  O68  1  0.826209  0.112047  0.407294  1
  O  O69  1  0.717245  0.808637  0.118357  1
  O  O70  1  0.882572  0.190822  0.879107  1
  O  O71  1  0.773360  0.888924  0.591074  1
  O  O72  1  0.828026  0.429741  0.242694  1
  O  O73  1  0.886085  0.387203  0.616549  1
  O  O74  1  0.826468  0.741654  0.085083  1
  O  O75  1  0.973271  0.250473  0.914128  1
  O  O76  1  0.915466  0.608186  0.381344  1
  O  O77  1  0.971818  0.570166  0.752073  1
  O  O78  1  0.915655  0.813572  0.119709  1
  O  O79  1  0.973999  0.880349  0.591415  1
