# generated using pymatgen
data_Bi24Ru3Br20
_symmetry_space_group_name_H-M   'P 1'
_cell_length_a   14.18413685
_cell_length_b   14.18239397
_cell_length_c   33.16762697
_cell_angle_alpha   90.00000000
_cell_angle_beta   90.00000000
_cell_angle_gamma   90.00000000
_symmetry_Int_Tables_number   1
_chemical_formula_structural   Bi24Ru3Br20
_chemical_formula_sum   'Bi96 Ru12 Br80'
_cell_volume   6672.16624098
_cell_formula_units_Z   4
loop_
 _symmetry_equiv_pos_site_id
 _symmetry_equiv_pos_as_xyz
  1  'x, y, z'
loop_
 _atom_site_type_symbol
 _atom_site_label
 _atom_site_symmetry_multiplicity
 _atom_site_fract_x
 _atom_site_fract_y
 _atom_site_fract_z
 _atom_site_occupancy
  Bi  Bi0  1  0.090300  0.845930  0.749590  1
  Bi  Bi1  1  0.299998  0.398179  0.639871  1
  Bi  Bi2  1  0.846403  0.090180  0.249463  1
  Bi  Bi3  1  0.590540  0.153755  0.250465  1
  Bi  Bi4  1  0.182174  0.397489  0.557129  1
  Bi  Bi5  1  0.693891  0.911315  0.541225  1
  Bi  Bi6  1  0.749798  0.249328  0.830908  1
  Bi  Bi7  1  0.909460  0.153755  0.750465  1
  Bi  Bi8  1  0.249956  0.249937  0.788153  1
  Bi  Bi9  1  0.210096  0.789990  0.999934  1
  Bi  Bi10  1  0.193891  0.411315  0.958775  1
  Bi  Bi11  1  0.250202  0.749328  0.169092  1
  Bi  Bi12  1  0.789904  0.289990  0.000066  1
  Bi  Bi13  1  0.389612  0.315989  0.358267  1
  Bi  Bi14  1  0.315902  0.102247  0.557412  1
  Bi  Bi15  1  0.104848  0.199939  0.140031  1
  Bi  Bi16  1  0.604848  0.699939  0.359969  1
  Bi  Bi17  1  0.196871  0.104909  0.639973  1
  Bi  Bi18  1  0.601860  0.803194  0.860139  1
  Bi  Bi19  1  0.587101  0.806331  0.041762  1
  Bi  Bi20  1  0.682174  0.897489  0.942871  1
  Bi  Bi21  1  0.890162  0.685131  0.641610  1
  Bi  Bi22  1  0.102766  0.182454  0.557176  1
  Bi  Bi23  1  0.249564  0.750022  0.830958  1
  Bi  Bi24  1  0.395152  0.199939  0.640031  1
  Bi  Bi25  1  0.307901  0.088110  0.958467  1
  Bi  Bi26  1  0.109838  0.185131  0.358390  1
  Bi  Bi27  1  0.750044  0.749937  0.211847  1
  Bi  Bi28  1  0.696871  0.604909  0.860027  1
  Bi  Bi29  1  0.895152  0.699939  0.859969  1
  Bi  Bi30  1  0.200002  0.398179  0.139871  1
  Bi  Bi31  1  0.184098  0.102247  0.057412  1
  Bi  Bi32  1  0.807901  0.588110  0.541533  1
  Bi  Bi33  1  0.654264  0.409395  0.249595  1
  Bi  Bi34  1  0.250436  0.750022  0.330958  1
  Bi  Bi35  1  0.806109  0.911315  0.041225  1
  Bi  Bi36  1  0.684512  0.890320  0.141887  1
  Bi  Bi37  1  0.845736  0.409395  0.749595  1
  Bi  Bi38  1  0.390162  0.185131  0.858390  1
  Bi  Bi39  1  0.154264  0.909395  0.250405  1
  Bi  Bi40  1  0.089949  0.192211  0.958963  1
  Bi  Bi41  1  0.750202  0.249328  0.330908  1
  Bi  Bi42  1  0.817826  0.897489  0.442871  1
  Bi  Bi43  1  0.602140  0.815969  0.442616  1
  Bi  Bi44  1  0.610388  0.815989  0.641733  1
  Bi  Bi45  1  0.110388  0.315989  0.858267  1
  Bi  Bi46  1  0.306109  0.411315  0.458775  1
  Bi  Bi47  1  0.410051  0.192211  0.458963  1
  Bi  Bi48  1  0.315488  0.390320  0.858113  1
  Bi  Bi49  1  0.101860  0.303194  0.639861  1
  Bi  Bi50  1  0.315321  0.110482  0.358434  1
  Bi  Bi51  1  0.153597  0.590180  0.750537  1
  Bi  Bi52  1  0.345736  0.909395  0.750405  1
  Bi  Bi53  1  0.799998  0.898179  0.860129  1
  Bi  Bi54  1  0.303129  0.104909  0.139973  1
  Bi  Bi55  1  0.692099  0.588110  0.041533  1
  Bi  Bi56  1  0.289904  0.789990  0.499934  1
  Bi  Bi57  1  0.684679  0.610483  0.641566  1
  Bi  Bi58  1  0.397234  0.182454  0.057176  1
  Bi  Bi59  1  0.653597  0.090180  0.749463  1
  Bi  Bi60  1  0.700002  0.898179  0.360129  1
  Bi  Bi61  1  0.409460  0.653755  0.749535  1
  Bi  Bi62  1  0.749956  0.749937  0.711847  1
  Bi  Bi63  1  0.889612  0.815989  0.141733  1
  Bi  Bi64  1  0.912899  0.806331  0.541762  1
  Bi  Bi65  1  0.087101  0.306331  0.458238  1
  Bi  Bi66  1  0.803129  0.604909  0.360027  1
  Bi  Bi67  1  0.409700  0.845930  0.249590  1
  Bi  Bi68  1  0.750436  0.250022  0.169042  1
  Bi  Bi69  1  0.250044  0.249937  0.288153  1
  Bi  Bi70  1  0.102140  0.315969  0.057384  1
  Bi  Bi71  1  0.397860  0.315969  0.557384  1
  Bi  Bi72  1  0.909700  0.345930  0.250410  1
  Bi  Bi73  1  0.684098  0.602247  0.442588  1
  Bi  Bi74  1  0.815488  0.890320  0.641887  1
  Bi  Bi75  1  0.398140  0.303194  0.139861  1
  Bi  Bi76  1  0.249798  0.749328  0.669092  1
  Bi  Bi77  1  0.898140  0.803194  0.360139  1
  Bi  Bi78  1  0.589949  0.692211  0.541037  1
  Bi  Bi79  1  0.346403  0.590180  0.250537  1
  Bi  Bi80  1  0.910051  0.692211  0.041037  1
  Bi  Bi81  1  0.090540  0.653755  0.249535  1
  Bi  Bi82  1  0.815902  0.602247  0.942588  1
  Bi  Bi83  1  0.317826  0.397489  0.057129  1
  Bi  Bi84  1  0.815321  0.610483  0.141566  1
  Bi  Bi85  1  0.602766  0.682454  0.942824  1
  Bi  Bi86  1  0.749564  0.250022  0.669042  1
  Bi  Bi87  1  0.590300  0.345930  0.750410  1
  Bi  Bi88  1  0.897234  0.682454  0.442824  1
  Bi  Bi89  1  0.609838  0.685131  0.141610  1
  Bi  Bi90  1  0.897860  0.815969  0.942616  1
  Bi  Bi91  1  0.412899  0.306331  0.958238  1
  Bi  Bi92  1  0.184512  0.390320  0.358113  1
  Bi  Bi93  1  0.192099  0.088110  0.458467  1
  Bi  Bi94  1  0.710096  0.289990  0.500066  1
  Bi  Bi95  1  0.184679  0.110482  0.858434  1
  Ru  Ru96  1  0.250229  0.250106  0.417050  1
  Ru  Ru97  1  0.750229  0.750106  0.082950  1
  Ru  Ru98  1  0.250191  0.249868  0.004660  1
  Ru  Ru99  1  0.249809  0.249868  0.504660  1
  Ru  Ru100  1  0.749971  0.249739  0.249979  1
  Ru  Ru101  1  0.249771  0.250106  0.917050  1
  Ru  Ru102  1  0.749809  0.749868  0.995340  1
  Ru  Ru103  1  0.249971  0.749739  0.250021  1
  Ru  Ru104  1  0.749771  0.750106  0.582950  1
  Ru  Ru105  1  0.250029  0.749739  0.750021  1
  Ru  Ru106  1  0.750191  0.749868  0.495340  1
  Ru  Ru107  1  0.750029  0.249739  0.749979  1
  Br  Br108  1  0.823332  0.550368  0.257544  1
  Br  Br109  1  0.979700  0.370878  0.952337  1
  Br  Br110  1  0.374719  0.509786  0.951517  1
  Br  Br111  1  0.990090  0.121409  0.451123  1
  Br  Br112  1  0.571262  0.368485  0.660056  1
  Br  Br113  1  0.949743  0.676827  0.757179  1
  Br  Br114  1  0.568997  0.137000  0.342926  1
  Br  Br115  1  0.124797  0.979649  0.952233  1
  Br  Br116  1  0.550257  0.676827  0.257179  1
  Br  Br117  1  0.363409  0.568375  0.341690  1
  Br  Br118  1  0.479700  0.870878  0.547663  1
  Br  Br119  1  0.949852  0.823317  0.257537  1
  Br  Br120  1  0.520300  0.370878  0.452336  1
  Br  Br121  1  0.449743  0.176827  0.742821  1
  Br  Br122  1  0.067751  0.861696  0.658614  1
  Br  Br123  1  0.130613  0.571008  0.660032  1
  Br  Br124  1  0.509910  0.121409  0.951123  1
  Br  Br125  1  0.550148  0.823317  0.757537  1
  Br  Br126  1  0.677522  0.411292  0.950052  1
  Br  Br127  1  0.429367  0.631206  0.839731  1
  Br  Br128  1  0.676668  0.550368  0.757544  1
  Br  Br129  1  0.071262  0.868485  0.839944  1
  Br  Br130  1  0.630613  0.071008  0.839968  1
  Br  Br131  1  0.932249  0.361696  0.341386  1
  Br  Br132  1  0.068997  0.637000  0.157074  1
  Br  Br133  1  0.323339  0.449990  0.742843  1
  Br  Br134  1  0.361304  0.931613  0.842795  1
  Br  Br135  1  0.780179  0.137830  0.950343  1
  Br  Br136  1  0.676661  0.949990  0.257157  1
  Br  Br137  1  0.570633  0.131206  0.160269  1
  Br  Br138  1  0.177522  0.911292  0.549948  1
  Br  Br139  1  0.428738  0.868485  0.339944  1
  Br  Br140  1  0.567751  0.361696  0.841386  1
  Br  Br141  1  0.009910  0.621409  0.548877  1
  Br  Br142  1  0.070633  0.631206  0.339731  1
  Br  Br143  1  0.449852  0.323317  0.242463  1
  Br  Br144  1  0.490090  0.621409  0.048877  1
  Br  Br145  1  0.861304  0.431613  0.657205  1
  Br  Br146  1  0.322478  0.911292  0.049948  1
  Br  Br147  1  0.136591  0.568375  0.841690  1
  Br  Br148  1  0.632172  0.429192  0.339772  1
  Br  Br149  1  0.137927  0.780295  0.450144  1
  Br  Br150  1  0.863409  0.068375  0.158310  1
  Br  Br151  1  0.869387  0.071008  0.339968  1
  Br  Br152  1  0.588160  0.178625  0.549928  1
  Br  Br153  1  0.625281  0.009786  0.048483  1
  Br  Br154  1  0.862073  0.280295  0.549856  1
  Br  Br155  1  0.050257  0.176827  0.242821  1
  Br  Br156  1  0.088160  0.678625  0.950072  1
  Br  Br157  1  0.624797  0.479649  0.547767  1
  Br  Br158  1  0.431003  0.637000  0.657074  1
  Br  Br159  1  0.176668  0.050368  0.742456  1
  Br  Br160  1  0.432249  0.861696  0.158614  1
  Br  Br161  1  0.911840  0.178625  0.049928  1
  Br  Br162  1  0.375203  0.979649  0.452233  1
  Br  Br163  1  0.280179  0.637830  0.549657  1
  Br  Br164  1  0.822478  0.411292  0.450052  1
  Br  Br165  1  0.125281  0.509786  0.451517  1
  Br  Br166  1  0.369387  0.571008  0.160032  1
  Br  Br167  1  0.637927  0.280295  0.049856  1
  Br  Br168  1  0.875203  0.479649  0.047767  1
  Br  Br169  1  0.931003  0.137000  0.842926  1
  Br  Br170  1  0.411840  0.678625  0.450072  1
  Br  Br171  1  0.636591  0.068375  0.658310  1
  Br  Br172  1  0.928738  0.368485  0.160056  1
  Br  Br173  1  0.176661  0.449990  0.242843  1
  Br  Br174  1  0.132172  0.929192  0.160228  1
  Br  Br175  1  0.138696  0.931613  0.342795  1
  Br  Br176  1  0.367828  0.929192  0.660228  1
  Br  Br177  1  0.719821  0.137830  0.450343  1
  Br  Br178  1  0.874719  0.009786  0.548483  1
  Br  Br179  1  0.050148  0.323317  0.742463  1
  Br  Br180  1  0.362073  0.780295  0.950144  1
  Br  Br181  1  0.823339  0.949990  0.757157  1
  Br  Br182  1  0.219821  0.637830  0.049657  1
  Br  Br183  1  0.020300  0.870878  0.047663  1
  Br  Br184  1  0.867828  0.429192  0.839772  1
  Br  Br185  1  0.323332  0.050368  0.242456  1
  Br  Br186  1  0.638696  0.431613  0.157205  1
  Br  Br187  1  0.929367  0.131206  0.660269  1
