# generated using pymatgen
data_MnTeC5O6F5
_symmetry_space_group_name_H-M   'P 1'
_cell_length_a   7.79429325
_cell_length_b   12.63115342
_cell_length_c   12.73005892
_cell_angle_alpha   90.00000000
_cell_angle_beta   90.00000000
_cell_angle_gamma   90.00000000
_symmetry_Int_Tables_number   1
_chemical_formula_structural   MnTeC5O6F5
_chemical_formula_sum   'Mn4 Te4 C20 O24 F20'
_cell_volume   1253.28593393
_cell_formula_units_Z   4
loop_
 _symmetry_equiv_pos_site_id
 _symmetry_equiv_pos_as_xyz
  1  'x, y, z'
loop_
 _atom_site_type_symbol
 _atom_site_label
 _atom_site_symmetry_multiplicity
 _atom_site_fract_x
 _atom_site_fract_y
 _atom_site_fract_z
 _atom_site_occupancy
  Mn  Mn0  1  0.482640  0.363974  0.177636  1
  Mn  Mn1  1  0.017360  0.863974  0.177636  1
  Mn  Mn2  1  0.517360  0.636026  0.677636  1
  Mn  Mn3  1  0.982640  0.136026  0.677636  1
  Te  Te4  1  0.864996  0.571372  0.498806  1
  Te  Te5  1  0.135004  0.428628  0.998806  1
  Te  Te6  1  0.364996  0.928628  0.998806  1
  Te  Te7  1  0.635004  0.071372  0.498806  1
  C  C8  1  0.918754  0.997835  0.150319  1
  C  C9  1  0.081246  0.002165  0.650319  1
  C  C10  1  0.138151  0.736732  0.204013  1
  C  C11  1  0.316403  0.682657  0.739473  1
  C  C12  1  0.898837  0.084238  0.807389  1
  C  C13  1  0.434472  0.688902  0.548443  1
  C  C14  1  0.816403  0.817343  0.239473  1
  C  C15  1  0.861849  0.263268  0.704013  1
  C  C16  1  0.398837  0.415762  0.307389  1
  C  C17  1  0.183597  0.182657  0.739473  1
  C  C18  1  0.065528  0.188902  0.548443  1
  C  C19  1  0.638151  0.763268  0.704013  1
  C  C20  1  0.601163  0.584238  0.807389  1
  C  C21  1  0.361849  0.236732  0.204013  1
  C  C22  1  0.581246  0.497835  0.150319  1
  C  C23  1  0.101163  0.915762  0.307389  1
  C  C24  1  0.565528  0.311098  0.048442  1
  C  C25  1  0.683597  0.317343  0.239473  1
  C  C26  1  0.418754  0.502165  0.650319  1
  C  C27  1  0.934472  0.811098  0.048442  1
  O  O28  1  0.123340  0.223053  0.472479  1
  O  O29  1  0.280987  0.162956  0.222137  1
  O  O30  1  0.219013  0.662956  0.222137  1
  O  O31  1  0.312431  0.209922  0.775086  1
  O  O32  1  0.687569  0.790078  0.275086  1
  O  O33  1  0.376660  0.723053  0.472479  1
  O  O34  1  0.253558  0.429490  0.123794  1
  O  O35  1  0.863667  0.080697  0.134373  1
  O  O36  1  0.780987  0.337044  0.722137  1
  O  O37  1  0.343720  0.447356  0.385030  1
  O  O38  1  0.719013  0.837044  0.722137  1
  O  O39  1  0.843720  0.052644  0.885030  1
  O  O40  1  0.623340  0.276947  0.972479  1
  O  O41  1  0.246442  0.929490  0.123794  1
  O  O42  1  0.156280  0.947356  0.385030  1
  O  O43  1  0.363667  0.419303  0.634373  1
  O  O44  1  0.636333  0.580697  0.134373  1
  O  O45  1  0.746442  0.570510  0.623794  1
  O  O46  1  0.136333  0.919303  0.634373  1
  O  O47  1  0.753558  0.070510  0.623794  1
  O  O48  1  0.876660  0.776947  0.972479  1
  O  O49  1  0.656280  0.552644  0.885030  1
  O  O50  1  0.812431  0.290078  0.275086  1
  O  O51  1  0.187569  0.709922  0.775086  1
  F  F52  1  0.493442  0.933391  0.872214  1
  F  F53  1  0.506558  0.066609  0.372214  1
  F  F54  1  0.331344  0.437188  0.908169  1
  F  F55  1  0.419038  0.080710  0.568149  1
  F  F56  1  0.168656  0.937188  0.908169  1
  F  F57  1  0.080962  0.580709  0.568149  1
  F  F58  1  0.919038  0.419291  0.068149  1
  F  F59  1  0.867153  0.721857  0.481239  1
  F  F60  1  0.388157  0.078537  0.998452  1
  F  F61  1  0.132847  0.278143  0.981239  1
  F  F62  1  0.888157  0.421463  0.498452  1
  F  F63  1  0.668656  0.562812  0.408169  1
  F  F64  1  0.580962  0.919291  0.068149  1
  F  F65  1  0.611843  0.921463  0.498452  1
  F  F66  1  0.831344  0.062812  0.408169  1
  F  F67  1  0.006558  0.433391  0.872214  1
  F  F68  1  0.111843  0.578537  0.998452  1
  F  F69  1  0.632847  0.221857  0.481239  1
  F  F70  1  0.367153  0.778143  0.981239  1
  F  F71  1  0.993442  0.566609  0.372214  1
