# generated using pymatgen
data_Ba(H2O3)2
_symmetry_space_group_name_H-M   'P 1'
_cell_length_a   6.06976476
_cell_length_b   6.06976476
_cell_length_c   8.78726107
_cell_angle_alpha   78.73908170
_cell_angle_beta   101.26091830
_cell_angle_gamma   118.57919129
_symmetry_Int_Tables_number   1
_chemical_formula_structural   Ba(H2O3)2
_chemical_formula_sum   'Ba2 H8 O12'
_cell_volume   276.86484266
_cell_formula_units_Z   2
loop_
 _symmetry_equiv_pos_site_id
 _symmetry_equiv_pos_as_xyz
  1  'x, y, z'
loop_
 _atom_site_type_symbol
 _atom_site_label
 _atom_site_symmetry_multiplicity
 _atom_site_fract_x
 _atom_site_fract_y
 _atom_site_fract_z
 _atom_site_occupancy
  Ba  Ba0  1  0.861293  0.861293  0.750000  1
  Ba  Ba1  1  0.138707  0.138707  0.250000  1
  H  H2  1  0.267531  0.601385  0.627171  1
  H  H3  1  0.601385  0.267531  0.872829  1
  H  H4  1  0.732469  0.398615  0.372829  1
  H  H5  1  0.398615  0.732469  0.127171  1
  H  H6  1  0.582734  0.335011  0.514403  1
  H  H7  1  0.335011  0.582734  0.985597  1
  H  H8  1  0.417266  0.664989  0.485597  1
  H  H9  1  0.664989  0.417266  0.014403  1
  O  O10  1  0.196008  0.935219  0.555142  1
  O  O11  1  0.935219  0.196008  0.944858  1
  O  O12  1  0.803992  0.064781  0.444858  1
  O  O13  1  0.064781  0.803992  0.055142  1
  O  O14  1  0.344441  0.975771  0.693353  1
  O  O15  1  0.975771  0.344441  0.806647  1
  O  O16  1  0.655559  0.024229  0.306647  1
  O  O17  1  0.024229  0.655559  0.193353  1
  O  O18  1  0.381864  0.561335  0.586407  1
  O  O19  1  0.561335  0.381864  0.913593  1
  O  O20  1  0.618136  0.438665  0.413593  1
  O  O21  1  0.438665  0.618136  0.086407  1
