# generated using pymatgen
data_Cs7Ni4F15
_symmetry_space_group_name_H-M   'P 1'
_cell_length_a   7.95385512
_cell_length_b   11.04250384
_cell_length_c   11.63106098
_cell_angle_alpha   90.00000000
_cell_angle_beta   92.46582459
_cell_angle_gamma   90.00000000
_symmetry_Int_Tables_number   1
_chemical_formula_structural   Cs7Ni4F15
_chemical_formula_sum   'Cs14 Ni8 F30'
_cell_volume   1020.61571636
_cell_formula_units_Z   2
loop_
 _symmetry_equiv_pos_site_id
 _symmetry_equiv_pos_as_xyz
  1  'x, y, z'
loop_
 _atom_site_type_symbol
 _atom_site_label
 _atom_site_symmetry_multiplicity
 _atom_site_fract_x
 _atom_site_fract_y
 _atom_site_fract_z
 _atom_site_occupancy
  Cs  Cs0  1  0.497437  0.319019  0.528562  1
  Cs  Cs1  1  0.502563  0.680981  0.471438  1
  Cs  Cs2  1  0.497437  0.180981  0.028562  1
  Cs  Cs3  1  0.838040  0.653619  0.196742  1
  Cs  Cs4  1  0.329863  0.004115  0.667441  1
  Cs  Cs5  1  0.161960  0.346381  0.803258  1
  Cs  Cs6  1  0.670137  0.995885  0.332559  1
  Cs  Cs7  1  0.000000  0.000000  0.000000  1
  Cs  Cs8  1  0.838040  0.846381  0.696742  1
  Cs  Cs9  1  0.670137  0.504115  0.832559  1
  Cs  Cs10  1  0.502563  0.819019  0.971438  1
  Cs  Cs11  1  0.000000  0.500000  0.500000  1
  Cs  Cs12  1  0.161960  0.153619  0.303258  1
  Cs  Cs13  1  0.329863  0.495885  0.167441  1
  Ni  Ni14  1  0.258567  0.826955  0.228964  1
  Ni  Ni15  1  0.076945  0.662285  0.929664  1
  Ni  Ni16  1  0.923055  0.162285  0.570336  1
  Ni  Ni17  1  0.741433  0.173045  0.771036  1
  Ni  Ni18  1  0.076945  0.837715  0.429664  1
  Ni  Ni19  1  0.923055  0.337715  0.070336  1
  Ni  Ni20  1  0.258567  0.673045  0.728964  1
  Ni  Ni21  1  0.741433  0.326955  0.271036  1
  F  F22  1  0.669117  0.472084  0.357785  1
  F  F23  1  0.170475  0.808620  0.837094  1
  F  F24  1  0.669117  0.027916  0.857785  1
  F  F25  1  0.689447  0.407113  0.107109  1
  F  F26  1  0.147880  0.235637  0.554150  1
  F  F27  1  0.310553  0.592887  0.892891  1
  F  F28  1  0.829525  0.308620  0.662906  1
  F  F29  1  0.978092  0.397303  0.238479  1
  F  F30  1  0.485609  0.748520  0.721501  1
  F  F31  1  0.978092  0.102697  0.738479  1
  F  F32  1  0.829525  0.191380  0.162906  1
  F  F33  1  0.310553  0.907113  0.392891  1
  F  F34  1  0.168256  0.733902  0.083534  1
  F  F35  1  0.021908  0.602697  0.761521  1
  F  F36  1  0.514391  0.248520  0.778499  1
  F  F37  1  0.831744  0.233902  0.416466  1
  F  F38  1  0.021908  0.897303  0.261521  1
  F  F39  1  0.831744  0.266098  0.916466  1
  F  F40  1  0.330883  0.972084  0.142215  1
  F  F41  1  0.689447  0.092887  0.607109  1
  F  F42  1  0.147880  0.264363  0.054150  1
  F  F43  1  0.852120  0.764363  0.445850  1
  F  F44  1  0.170475  0.691380  0.337094  1
  F  F45  1  0.852120  0.735637  0.945850  1
  F  F46  1  0.514391  0.251480  0.278499  1
  F  F47  1  0.330883  0.527916  0.642215  1
  F  F48  1  0.485609  0.751480  0.221501  1
  F  F49  1  0.168256  0.766098  0.583534  1
  F  F50  1  0.000000  0.000000  0.500000  1
  F  F51  1  0.000000  0.500000  0.000000  1
