# generated using pymatgen
data_IF7
_symmetry_space_group_name_H-M   'P 1'
_cell_length_a   7.53771406
_cell_length_b   7.59647146
_cell_length_c   7.80272067
_cell_angle_alpha   89.80120146
_cell_angle_beta   89.98775972
_cell_angle_gamma   90.06332945
_symmetry_Int_Tables_number   1
_chemical_formula_structural   IF7
_chemical_formula_sum   'I4 F28'
_cell_volume   446.78104421
_cell_formula_units_Z   4
loop_
 _symmetry_equiv_pos_site_id
 _symmetry_equiv_pos_as_xyz
  1  'x, y, z'
loop_
 _atom_site_type_symbol
 _atom_site_label
 _atom_site_symmetry_multiplicity
 _atom_site_fract_x
 _atom_site_fract_y
 _atom_site_fract_z
 _atom_site_occupancy
  I  I0  1  0.266653  0.000155  0.249772  1
  I  I1  1  0.265522  0.500204  0.750375  1
  I  I2  1  0.734008  -0.000077  0.750214  1
  I  I3  1  0.732911  0.500668  0.250336  1
  F  F4  1  0.983354  0.003457  0.750816  1
  F  F5  1  0.982054  0.497191  0.251375  1
  F  F6  1  0.246879  0.260651  0.705928  1
  F  F7  1  0.242748  0.739063  0.790450  1
  F  F8  1  0.243022  0.241421  0.222418  1
  F  F9  1  0.239785  0.759013  0.274620  1
  F  F10  1  0.205436  0.001070  0.016560  1
  F  F11  1  0.203154  0.486766  -0.016397  1
  F  F12  1  0.206738  0.995082  0.484047  1
  F  F13  1  0.201262  0.517460  0.517888  1
  F  F14  1  0.530816  0.415251  0.368561  1
  F  F15  1  0.531190  0.584972  0.132206  1
  F  F16  1  0.531921  0.087333  0.865733  1
  F  F17  1  0.532055  0.912377  0.634809  1
  F  F18  1  0.469256  0.084564  0.367731  1
  F  F19  1  0.469215  0.915108  0.133088  1
  F  F20  1  0.468153  0.412363  0.866062  1
  F  F21  1  0.467996  0.587476  0.634809  1
  F  F22  1  0.793045  0.503999  0.484408  1
  F  F23  1  0.795114  0.499436  0.016620  1
  F  F24  1  0.797045  0.013338  -0.017032  1
  F  F25  1  0.798604  0.983514  0.517873  1
  F  F26  1  0.756531  0.258102  0.223365  1
  F  F27  1  0.753606  0.239646  0.705273  1
  F  F28  1  0.757184  0.760694  0.791632  1
  F  F29  1  0.760235  0.741674  0.273967  1
  F  F30  1  0.017898  0.002280  0.251132  1
  F  F31  1  0.016608  0.495748  0.751361  1
