# generated using pymatgen
data_Eu2GeSe4
_symmetry_space_group_name_H-M   'P 1'
_cell_length_a   6.97736821
_cell_length_b   7.13106318
_cell_length_c   8.34932238
_cell_angle_alpha   89.97027303
_cell_angle_beta   107.78661783
_cell_angle_gamma   89.75524041
_symmetry_Int_Tables_number   1
_chemical_formula_structural   Eu2GeSe4
_chemical_formula_sum   'Eu4 Ge2 Se8'
_cell_volume   395.56779293
_cell_formula_units_Z   2
loop_
 _symmetry_equiv_pos_site_id
 _symmetry_equiv_pos_as_xyz
  1  'x, y, z'
loop_
 _atom_site_type_symbol
 _atom_site_label
 _atom_site_symmetry_multiplicity
 _atom_site_fract_x
 _atom_site_fract_y
 _atom_site_fract_z
 _atom_site_occupancy
  Eu  Eu0  1  0.273886  0.722367  0.944194  1
  Eu  Eu1  1  0.248775  0.705582  0.436882  1
  Eu  Eu2  1  0.727577  0.217464  0.056059  1
  Eu  Eu3  1  0.749439  0.203672  0.563004  1
  Ge  Ge4  1  0.266534  0.248174  0.194374  1
  Ge  Ge5  1  0.733425  0.745782  0.805354  1
  Se  Se6  1  0.519175  0.476490  0.750077  1
  Se  Se7  1  0.071847  0.283163  0.385510  1
  Se  Se8  1  0.482222  0.976367  0.251412  1
  Se  Se9  1  0.079829  0.297780  0.904982  1
  Se  Se10  1  0.516685  0.489548  0.261894  1
  Se  Se11  1  0.928086  0.787258  0.615035  1
  Se  Se12  1  0.921931  0.799440  0.093930  1
  Se  Se13  1  0.480589  0.989514  0.737292  1
