# generated using pymatgen
data_BaSm2ZnO5
_symmetry_space_group_name_H-M   'P 1'
_cell_length_a   5.85958533
_cell_length_b   7.29040795
_cell_length_c   12.67919188
_cell_angle_alpha   90.00000000
_cell_angle_beta   90.00000000
_cell_angle_gamma   90.00000000
_symmetry_Int_Tables_number   1
_chemical_formula_structural   BaSm2ZnO5
_chemical_formula_sum   'Ba4 Sm8 Zn4 O20'
_cell_volume   541.63944967
_cell_formula_units_Z   4
loop_
 _symmetry_equiv_pos_site_id
 _symmetry_equiv_pos_as_xyz
  1  'x, y, z'
loop_
 _atom_site_type_symbol
 _atom_site_label
 _atom_site_symmetry_multiplicity
 _atom_site_fract_x
 _atom_site_fract_y
 _atom_site_fract_z
 _atom_site_occupancy
  O  O0  1  0.250000  0.431388  0.598552  1
  O  O1  1  0.750000  0.568612  0.401448  1
  O  O2  1  0.750000  0.931388  0.901448  1
  O  O3  1  0.250000  0.068612  0.098552  1
  O  O4  1  0.003476  0.853072  0.275485  1
  O  O5  1  0.503476  0.146928  0.724515  1
  O  O6  1  0.996524  0.353072  0.224515  1
  O  O7  1  0.496524  0.646928  0.775485  1
  O  O8  1  0.996524  0.146928  0.724515  1
  O  O9  1  0.496524  0.853072  0.275485  1
  O  O10  1  0.003476  0.646928  0.775485  1
  O  O11  1  0.503476  0.353072  0.224515  1
  O  O12  1  0.494970  0.666023  0.065863  1
  O  O13  1  0.994970  0.333977  0.934137  1
  O  O14  1  0.505030  0.166023  0.434137  1
  O  O15  1  0.005030  0.833977  0.565863  1
  O  O16  1  0.994970  0.166023  0.434137  1
  O  O17  1  0.494970  0.833977  0.565863  1
  O  O18  1  0.005030  0.666023  0.065863  1
  O  O19  1  0.505030  0.333977  0.934137  1
  Zn  Zn20  1  0.250000  0.808223  0.149685  1
  Zn  Zn21  1  0.750000  0.191777  0.850315  1
  Zn  Zn22  1  0.750000  0.308223  0.350315  1
  Zn  Zn23  1  0.250000  0.691777  0.649685  1
  Ba  Ba24  1  0.750000  0.076603  0.099938  1
  Ba  Ba25  1  0.750000  0.423397  0.599938  1
  Ba  Ba26  1  0.250000  0.576603  0.400062  1
  Ba  Ba27  1  0.250000  0.923397  0.900062  1
  Sm  Sm28  1  0.250000  0.398464  0.074682  1
  Sm  Sm29  1  0.750000  0.617168  0.207785  1
  Sm  Sm30  1  0.750000  0.882832  0.707785  1
  Sm  Sm31  1  0.250000  0.117168  0.292215  1
  Sm  Sm32  1  0.750000  0.601536  0.925318  1
  Sm  Sm33  1  0.750000  0.898464  0.425318  1
  Sm  Sm34  1  0.250000  0.101536  0.574682  1
  Sm  Sm35  1  0.250000  0.382832  0.792215  1
