# generated using pymatgen
data_Ba2LaTa(CuO4)2
_symmetry_space_group_name_H-M   'P 1'
_cell_length_a   3.99960062
_cell_length_b   3.99960128
_cell_length_c   12.23232635
_cell_angle_alpha   89.99977624
_cell_angle_beta   90.00051595
_cell_angle_gamma   89.99975862
_symmetry_Int_Tables_number   1
_chemical_formula_structural   Ba2LaTa(CuO4)2
_chemical_formula_sum   'Ba2 La1 Ta1 Cu2 O8'
_cell_volume   195.67817306
_cell_formula_units_Z   1
loop_
 _symmetry_equiv_pos_site_id
 _symmetry_equiv_pos_as_xyz
  1  'x, y, z'
loop_
 _atom_site_type_symbol
 _atom_site_label
 _atom_site_symmetry_multiplicity
 _atom_site_fract_x
 _atom_site_fract_y
 _atom_site_fract_z
 _atom_site_occupancy
  Ba  Ba0  1  0.499997  0.500000  0.194808  1
  Ba  Ba1  1  0.500006  0.499999  0.805185  1
  La  La2  1  0.499999  0.500000  0.499992  1
  Ta  Ta3  1  -0.000001  0.000001  0.000004  1
  Cu  Cu4  1  0.000002  0.000003  0.640637  1
  Cu  Cu5  1  0.999998  -0.000001  0.359429  1
  O  O6  1  0.000004  0.000000  0.162085  1
  O  O7  1  0.499999  0.000001  0.628023  1
  O  O8  1  0.999996  0.500001  0.628024  1
  O  O9  1  0.999998  0.500000  0.371942  1
  O  O10  1  0.499997  0.999999  0.371944  1
  O  O11  1  0.500001  0.999995  0.000002  1
  O  O12  1  0.000001  0.000004  0.837924  1
  O  O13  1  0.000002  0.499998  0.000003  1
