# generated using pymatgen
data_Ho2B4O9
_symmetry_space_group_name_H-M   'P 1'
_cell_length_a   4.42019358
_cell_length_b   12.82455663
_cell_length_c   24.89752605
_cell_angle_alpha   99.86639295
_cell_angle_beta   90.03698787
_cell_angle_gamma   99.95226465
_symmetry_Int_Tables_number   1
_chemical_formula_structural   Ho2B4O9
_chemical_formula_sum   'Ho20 B40 O90'
_cell_volume   1368.90246143
_cell_formula_units_Z   10
loop_
 _symmetry_equiv_pos_site_id
 _symmetry_equiv_pos_as_xyz
  1  'x, y, z'
loop_
 _atom_site_type_symbol
 _atom_site_label
 _atom_site_symmetry_multiplicity
 _atom_site_fract_x
 _atom_site_fract_y
 _atom_site_fract_z
 _atom_site_occupancy
  Ho  Ho0  1  0.007183  0.430467  0.128903  1
  Ho  Ho1  1  0.393407  0.305994  0.460307  1
  Ho  Ho2  1  0.683707  0.023505  0.678284  1
  Ho  Ho3  1  0.660726  0.976816  0.820750  1
  Ho  Ho4  1  0.344026  0.023238  0.178952  1
  Ho  Ho5  1  0.178762  0.719015  0.206832  1
  Ho  Ho6  1  0.853303  0.130027  0.073111  1
  Ho  Ho7  1  0.608719  0.694573  0.537634  1
  Ho  Ho8  1  0.728860  0.870928  0.427471  1
  Ho  Ho9  1  0.141432  0.870164  0.927090  1
  Ho  Ho10  1  0.539043  0.718616  0.707566  1
  Ho  Ho11  1  0.813929  0.280579  0.793067  1
  Ho  Ho12  1  0.315149  0.976816  0.321178  1
  Ho  Ho13  1  0.988615  0.566751  0.870660  1
  Ho  Ho14  1  0.083131  0.692047  0.036749  1
  Ho  Ho15  1  0.270024  0.132052  0.573013  1
  Ho  Ho16  1  0.580088  0.570483  0.371085  1
  Ho  Ho17  1  0.460510  0.280737  0.292621  1
  Ho  Ho18  1  0.420997  0.431887  0.628302  1
  Ho  Ho19  1  0.913831  0.304646  0.962062  1
  B  B20  1  0.588523  0.497534  0.217909  1
  B  B21  1  0.965642  0.484741  0.538309  1
  B  B22  1  0.042484  0.391240  0.366010  1
  B  B23  1  0.158119  0.943337  0.065985  1
  B  B24  1  0.222884  0.183766  0.876822  1
  B  B25  1  0.779852  0.818032  0.122927  1
  B  B26  1  0.871647  0.105646  0.275227  1
  B  B27  1  0.156777  0.708399  0.336756  1
  B  B28  1  0.121887  0.707034  0.441229  1
  B  B29  1  0.127452  0.896010  0.724141  1
  B  B30  1  0.033792  0.516038  0.460687  1
  B  B31  1  0.839061  0.293359  0.663110  1
  B  B32  1  0.346841  0.390674  0.866346  1
  B  B33  1  0.271433  0.200357  0.692302  1
  B  B34  1  0.414421  0.501829  0.782030  1
  B  B35  1  0.515436  0.483171  0.038881  1
  B  B36  1  0.074982  0.800710  0.807265  1
  B  B37  1  0.451444  0.291664  0.162350  1
  B  B38  1  0.927412  0.199221  0.192206  1
  B  B39  1  0.771985  0.143758  0.469931  1
  B  B40  1  0.959662  0.609716  0.633457  1
  B  B41  1  0.546674  0.707867  0.837023  1
  B  B42  1  0.232882  0.105635  0.775021  1
  B  B43  1  0.090081  0.501949  0.281597  1
  B  B44  1  0.628749  0.857313  0.030055  1
  B  B45  1  0.843940  0.057864  0.934044  1
  B  B46  1  0.722524  0.801834  0.307542  1
  B  B47  1  0.912035  0.498142  0.718754  1
  B  B48  1  0.038633  0.817222  0.622719  1
  B  B49  1  0.215850  0.057656  0.434335  1
  B  B50  1  0.483151  0.516029  0.961126  1
  B  B51  1  0.769121  0.895636  0.224661  1
  B  B52  1  0.783677  0.943672  0.565580  1
  B  B53  1  0.415618  0.292650  0.058757  1
  B  B54  1  0.650047  0.609368  0.132929  1
  B  B55  1  0.958674  0.182575  0.376512  1
  B  B56  1  0.225854  0.857538  0.529763  1
  B  B57  1  0.875432  0.294655  0.558721  1
  B  B58  1  0.370918  0.143607  0.969774  1
  B  B59  1  0.580625  0.706923  0.940866  1
  O  O60  1  0.388155  0.195604  0.747013  1
  O  O61  1  0.194668  0.805611  0.752214  1
  O  O62  1  0.791222  0.543374  0.580787  1
  O  O63  1  0.271886  0.604758  0.635087  1
  O  O64  1  0.859376  0.716032  0.636116  1
  O  O65  1  0.316427  0.876893  0.020467  1
  O  O66  1  0.026704  0.762138  0.298287  1
  O  O67  1  0.909772  0.102789  0.773897  1
  O  O68  1  0.805245  0.215077  0.427398  1
  O  O69  1  0.029416  0.790089  0.483760  1
  O  O70  1  0.755253  0.789075  0.983946  1
  O  O71  1  0.786928  0.443632  0.485091  1
  O  O72  1  0.221209  0.094017  0.659625  1
  O  O73  1  0.904574  0.602482  0.444863  1
  O  O74  1  0.791078  0.877192  0.610202  1
  O  O75  1  0.255192  0.695493  0.944210  1
  O  O76  1  0.214023  0.556128  0.513726  1
  O  O77  1  0.269149  0.240499  0.201927  1
  O  O78  1  0.250177  0.871512  0.667969  1
  O  O79  1  0.794290  0.574716  0.686396  1
  O  O80  1  0.658214  0.444084  0.985896  1
  O  O81  1  0.740729  0.302422  0.055428  1
  O  O82  1  0.787491  0.454044  0.253666  1
  O  O83  1  0.090453  0.399159  0.555296  1
  O  O84  1  0.806209  0.897694  0.725921  1
  O  O85  1  0.675434  0.454942  0.755800  1
  O  O86  1  0.333007  0.544624  0.245797  1
  O  O87  1  0.292741  0.954743  0.413678  1
  O  O88  1  0.620362  0.869712  0.168701  1
  O  O89  1  0.210211  0.459873  0.418269  1
  O  O90  1  0.665586  0.955277  0.912947  1
  O  O91  1  0.966629  0.211737  0.515805  1
  O  O92  1  0.966467  0.260584  0.609439  1
  O  O93  1  0.092189  0.897451  0.226654  1
  O  O94  1  0.779184  0.574770  0.185631  1
  O  O95  1  0.728921  0.394723  0.364456  1
  O  O96  1  0.591065  0.785681  0.072224  1
  O  O97  1  0.608030  0.805995  0.252579  1
  O  O98  1  0.745502  0.131726  0.331044  1
  O  O99  1  0.250422  0.459855  0.918485  1
  O  O100  1  0.145703  0.046679  0.956168  1
  O  O101  1  0.856306  0.954364  0.043467  1
  O  O102  1  0.776466  0.271984  0.162451  1
  O  O103  1  0.702231  0.743112  0.890765  1
  O  O104  1  0.675272  0.000415  0.250169  1
  O  O105  1  0.291797  0.256914  0.108933  1
  O  O106  1  0.136549  0.285219  0.865233  1
  O  O107  1  0.205602  0.425629  0.314137  1
  O  O108  1  0.803895  0.195098  0.246930  1
  O  O109  1  0.436530  0.696819  0.444809  1
  O  O110  1  0.682515  0.123884  0.979613  1
  O  O111  1  0.500147  0.726716  0.335978  1
  O  O112  1  0.875712  0.092529  0.160133  1
  O  O113  1  0.439553  0.124195  0.479535  1
  O  O114  1  0.333539  0.606492  0.134515  1
  O  O115  1  0.709298  0.046722  0.586514  1
  O  O116  1  0.663942  0.393470  0.865368  1
  O  O117  1  0.083201  0.880616  0.111743  1
  O  O118  1  0.220342  0.424444  0.813919  1
  O  O119  1  0.189612  0.783304  0.571396  1
  O  O120  1  0.773391  0.908152  0.340472  1
  O  O121  1  0.218173  0.544927  0.745781  1
  O  O122  1  0.030011  0.740824  0.390629  1
  O  O123  1  0.495082  0.274865  0.663620  1
  O  O124  1  0.541771  0.589783  0.828175  1
  O  O125  1  0.304049  0.397671  0.055951  1
  O  O126  1  0.410818  0.216141  0.927706  1
  O  O127  1  0.860947  0.715197  0.134306  1
  O  O128  1  0.462207  0.409840  0.171352  1
  O  O129  1  0.967100  0.239310  0.701830  1
  O  O130  1  0.220501  0.725036  0.835561  1
  O  O131  1  0.384517  0.132537  0.831100  1
  O  O132  1  0.203528  0.121573  0.388534  1
  O  O133  1  0.748859  0.540169  0.081222  1
  O  O134  1  0.560538  0.304573  0.555172  1
  O  O135  1  0.192956  0.104023  0.274138  1
  O  O136  1  0.340571  0.045664  0.086885  1
  O  O137  1  0.047385  0.590142  0.327284  1
  O  O138  1  0.918383  0.122671  0.889111  1
  O  O139  1  0.695033  0.602566  0.944667  1
  O  O140  1  0.951336  0.411040  0.672532  1
  O  O141  1  0.097875  0.954394  0.544081  1
  O  O142  1  0.134071  0.907194  0.840006  1
  O  O143  1  0.240502  0.211639  0.015383  1
  O  O144  1  0.556927  0.877980  0.520063  1
  O  O145  1  0.143359  0.285045  0.364883  1
  O  O146  1  0.326656  0.000945  0.749546  1
  O  O147  1  0.340344  0.555013  0.014161  1
  O  O148  1  0.730648  0.761325  0.798205  1
  O  O149  1  0.900566  0.046706  0.455742  1
