# generated using pymatgen
data_Ga4P4O17
_symmetry_space_group_name_H-M   'P 1'
_cell_length_a   17.28639937
_cell_length_b   17.28639944
_cell_length_c   17.28639892
_cell_angle_alpha   60.00000100
_cell_angle_beta   60.00000085
_cell_angle_gamma   60.00000070
_symmetry_Int_Tables_number   1
_chemical_formula_structural   Ga4P4O17
_chemical_formula_sum   'Ga24 P24 O102'
_cell_volume   3652.57067427
_cell_formula_units_Z   6
loop_
 _symmetry_equiv_pos_site_id
 _symmetry_equiv_pos_as_xyz
  1  'x, y, z'
loop_
 _atom_site_type_symbol
 _atom_site_label
 _atom_site_symmetry_multiplicity
 _atom_site_fract_x
 _atom_site_fract_y
 _atom_site_fract_z
 _atom_site_occupancy
  Ga  Ga0  1  0.106972  0.272865  0.727135  1
  Ga  Ga1  1  0.606972  0.772865  0.393028  1
  Ga  Ga2  1  0.727135  0.893028  0.106972  1
  Ga  Ga3  1  0.606972  0.393028  0.227135  1
  Ga  Ga4  1  0.893028  0.272865  0.106972  1
  Ga  Ga5  1  0.727135  0.106972  0.272865  1
  Ga  Ga6  1  0.272865  0.106972  0.893028  1
  Ga  Ga7  1  0.272865  0.893028  0.727135  1
  Ga  Ga8  1  0.772865  0.606972  0.227135  1
  Ga  Ga9  1  0.393028  0.227135  0.606972  1
  Ga  Ga10  1  0.393028  0.606972  0.772865  1
  Ga  Ga11  1  0.227135  0.772865  0.606972  1
  Ga  Ga12  1  0.272865  0.727135  0.106972  1
  Ga  Ga13  1  0.106972  0.727135  0.893028  1
  Ga  Ga14  1  0.227135  0.606972  0.393028  1
  Ga  Ga15  1  0.772865  0.227135  0.393028  1
  Ga  Ga16  1  0.227135  0.393028  0.772865  1
  Ga  Ga17  1  0.606972  0.227135  0.772865  1
  Ga  Ga18  1  0.772865  0.393028  0.606972  1
  Ga  Ga19  1  0.393028  0.772865  0.227135  1
  Ga  Ga20  1  0.106972  0.893028  0.272865  1
  Ga  Ga21  1  0.893028  0.106972  0.727135  1
  Ga  Ga22  1  0.893028  0.727135  0.272865  1
  Ga  Ga23  1  0.727135  0.272865  0.893028  1
  P  P24  1  0.582529  0.222388  0.417471  1
  P  P25  1  0.082529  0.917471  0.722388  1
  P  P26  1  0.082529  0.277612  0.917471  1
  P  P27  1  0.722388  0.277612  0.082529  1
  P  P28  1  0.277612  0.082529  0.722388  1
  P  P29  1  0.777612  0.222388  0.582529  1
  P  P30  1  0.277612  0.917471  0.082529  1
  P  P31  1  0.917471  0.277612  0.722388  1
  P  P32  1  0.417471  0.582529  0.222388  1
  P  P33  1  0.917471  0.082529  0.277612  1
  P  P34  1  0.082529  0.722388  0.277612  1
  P  P35  1  0.777612  0.582529  0.417471  1
  P  P36  1  0.222388  0.417471  0.582529  1
  P  P37  1  0.722388  0.917471  0.277612  1
  P  P38  1  0.222388  0.777612  0.417471  1
  P  P39  1  0.277612  0.722388  0.917471  1
  P  P40  1  0.777612  0.417471  0.222388  1
  P  P41  1  0.917471  0.722388  0.082529  1
  P  P42  1  0.417471  0.777612  0.582529  1
  P  P43  1  0.582529  0.777612  0.222388  1
  P  P44  1  0.222388  0.582529  0.777612  1
  P  P45  1  0.722388  0.082529  0.917471  1
  P  P46  1  0.582529  0.417471  0.777612  1
  P  P47  1  0.417471  0.222388  0.777612  1
  O  O48  1  0.153307  0.950949  0.717654  1
  O  O49  1  0.450949  0.653307  0.217654  1
  O  O50  1  0.627198  0.144461  0.372802  1
  O  O51  1  0.701331  0.997095  0.002905  1
  O  O52  1  0.127198  0.355539  0.872802  1
  O  O53  1  0.217654  0.450949  0.653307  1
  O  O54  1  0.549051  0.346693  0.782346  1
  O  O55  1  0.497095  0.201331  0.502905  1
  O  O56  1  0.678090  0.450949  0.217654  1
  O  O57  1  0.701331  0.002905  0.298669  1
  O  O58  1  0.502905  0.798669  0.497095  1
  O  O59  1  0.002905  0.997095  0.298669  1
  O  O60  1  0.872802  0.127198  0.355539  1
  O  O61  1  0.346693  0.321910  0.782346  1
  O  O62  1  0.821910  0.846693  0.282346  1
  O  O63  1  0.997095  0.701331  0.298669  1
  O  O64  1  0.950949  0.717654  0.153307  1
  O  O65  1  0.201331  0.798669  0.502905  1
  O  O66  1  0.950949  0.153307  0.178090  1
  O  O67  1  0.346693  0.782346  0.549051  1
  O  O68  1  0.644461  0.355539  0.127198  1
  O  O69  1  0.178090  0.153307  0.717654  1
  O  O70  1  0.678090  0.653307  0.450949  1
  O  O71  1  0.821910  0.049051  0.846693  1
  O  O72  1  0.049051  0.821910  0.282346  1
  O  O73  1  0.627198  0.372802  0.855539  1
  O  O74  1  0.701331  0.298669  0.997095  1
  O  O75  1  0.282346  0.821910  0.846693  1
  O  O76  1  0.450949  0.678090  0.653307  1
  O  O77  1  0.049051  0.846693  0.821910  1
  O  O78  1  0.502905  0.497095  0.201331  1
  O  O79  1  0.872802  0.355539  0.644461  1
  O  O80  1  0.178090  0.717654  0.950949  1
  O  O81  1  0.002905  0.701331  0.997095  1
  O  O82  1  0.372802  0.855539  0.627198  1
  O  O83  1  0.846693  0.282346  0.821910  1
  O  O84  1  0.497095  0.798669  0.201331  1
  O  O85  1  0.549051  0.321910  0.346693  1
  O  O86  1  0.298669  0.997095  0.701331  1
  O  O87  1  0.049051  0.282346  0.846693  1
  O  O88  1  0.846693  0.821910  0.049051  1
  O  O89  1  0.144461  0.855539  0.372802  1
  O  O90  1  0.678090  0.217654  0.653307  1
  O  O91  1  0.846693  0.049051  0.282346  1
  O  O92  1  0.250000  0.750000  0.750000  1
  O  O93  1  0.855539  0.627198  0.372802  1
  O  O94  1  0.201331  0.502905  0.497095  1
  O  O95  1  0.821910  0.282346  0.049051  1
  O  O96  1  0.644461  0.872802  0.355539  1
  O  O97  1  0.502905  0.201331  0.798669  1
  O  O98  1  0.798669  0.497095  0.502905  1
  O  O99  1  0.750000  0.250000  0.250000  1
  O  O100  1  0.997095  0.002905  0.701331  1
  O  O101  1  0.372802  0.144461  0.855539  1
  O  O102  1  0.450949  0.217654  0.678090  1
  O  O103  1  0.717654  0.178090  0.153307  1
  O  O104  1  0.750000  0.750000  0.250000  1
  O  O105  1  0.298669  0.701331  0.002905  1
  O  O106  1  0.217654  0.653307  0.678090  1
  O  O107  1  0.178090  0.950949  0.153307  1
  O  O108  1  0.782346  0.346693  0.321910  1
  O  O109  1  0.321910  0.549051  0.782346  1
  O  O110  1  0.355539  0.644461  0.872802  1
  O  O111  1  0.717654  0.153307  0.950949  1
  O  O112  1  0.717654  0.950949  0.178090  1
  O  O113  1  0.855539  0.144461  0.627198  1
  O  O114  1  0.346693  0.549051  0.321910  1
  O  O115  1  0.355539  0.872802  0.127198  1
  O  O116  1  0.653307  0.450949  0.678090  1
  O  O117  1  0.855539  0.372802  0.144461  1
  O  O118  1  0.644461  0.127198  0.872802  1
  O  O119  1  0.355539  0.127198  0.644461  1
  O  O120  1  0.798669  0.502905  0.201331  1
  O  O121  1  0.750000  0.250000  0.750000  1
  O  O122  1  0.372802  0.627198  0.144461  1
  O  O123  1  0.627198  0.855539  0.144461  1
  O  O124  1  0.250000  0.250000  0.750000  1
  O  O125  1  0.653307  0.217654  0.450949  1
  O  O126  1  0.497095  0.502905  0.798669  1
  O  O127  1  0.201331  0.497095  0.798669  1
  O  O128  1  0.282346  0.846693  0.049051  1
  O  O129  1  0.321910  0.782346  0.346693  1
  O  O130  1  0.782346  0.321910  0.549051  1
  O  O131  1  0.127198  0.872802  0.644461  1
  O  O132  1  0.321910  0.346693  0.549051  1
  O  O133  1  0.153307  0.717654  0.178090  1
  O  O134  1  0.653307  0.678090  0.217654  1
  O  O135  1  0.798669  0.201331  0.497095  1
  O  O136  1  0.997095  0.298669  0.002905  1
  O  O137  1  0.144461  0.372802  0.627198  1
  O  O138  1  0.217654  0.678090  0.450949  1
  O  O139  1  0.250000  0.750000  0.250000  1
  O  O140  1  0.872802  0.644461  0.127198  1
  O  O141  1  0.002905  0.298669  0.701331  1
  O  O142  1  0.549051  0.782346  0.321910  1
  O  O143  1  0.950949  0.178090  0.717654  1
  O  O144  1  0.298669  0.002905  0.997095  1
  O  O145  1  0.127198  0.644461  0.355539  1
  O  O146  1  0.282346  0.049051  0.821910  1
  O  O147  1  0.782346  0.549051  0.346693  1
  O  O148  1  0.153307  0.178090  0.950949  1
  O  O149  1  0.144461  0.627198  0.855539  1
