# generated using pymatgen
data_CsMnMo(OF)3
_symmetry_space_group_name_H-M   'P 1'
_cell_length_a   7.49870566
_cell_length_b   7.48134799
_cell_length_c   7.71940708
_cell_angle_alpha   59.09214240
_cell_angle_beta   60.99893705
_cell_angle_gamma   62.03653620
_symmetry_Int_Tables_number   1
_chemical_formula_structural   CsMnMo(OF)3
_chemical_formula_sum   'Cs2 Mn2 Mo2 O6 F6'
_cell_volume   310.71185989
_cell_formula_units_Z   2
loop_
 _symmetry_equiv_pos_site_id
 _symmetry_equiv_pos_as_xyz
  1  'x, y, z'
loop_
 _atom_site_type_symbol
 _atom_site_label
 _atom_site_symmetry_multiplicity
 _atom_site_fract_x
 _atom_site_fract_y
 _atom_site_fract_z
 _atom_site_occupancy
  Cs  Cs0  1  0.372489  0.377511  0.372489  1
  Cs  Cs1  1  0.627511  0.622489  0.627511  1
  Mn  Mn2  1  0.500000  0.000000  0.000000  1
  Mn  Mn3  1  0.000000  0.000000  0.500000  1
  Mo  Mo4  1  0.000000  0.000000  0.000000  1
  Mo  Mo5  1  0.000000  0.500000  0.000000  1
  O  O6  1  0.047479  0.702521  0.047479  1
  O  O7  1  0.718967  0.067492  0.032091  1
  O  O8  1  0.032091  0.681450  0.718967  1
  O  O9  1  0.967909  0.318550  0.281033  1
  O  O10  1  0.281033  0.932508  0.967909  1
  O  O11  1  0.952521  0.297479  0.952521  1
  F  F12  1  0.081069  0.088318  0.682616  1
  F  F13  1  0.330707  0.919293  0.330707  1
  F  F14  1  0.317384  0.352003  0.918931  1
  F  F15  1  0.669293  0.080707  0.669293  1
  F  F16  1  0.682616  0.647997  0.081069  1
  F  F17  1  0.918931  0.911682  0.317384  1
