# generated using pymatgen
data_PH3O4
_symmetry_space_group_name_H-M   'P 1'
_cell_length_a   6.07274569
_cell_length_b   4.75983940
_cell_length_c   10.88351186
_cell_angle_alpha   90.00000000
_cell_angle_beta   94.40914364
_cell_angle_gamma   90.00000000
_symmetry_Int_Tables_number   1
_chemical_formula_structural   PH3O4
_chemical_formula_sum   'P4 H12 O16'
_cell_volume   313.66007868
_cell_formula_units_Z   4
loop_
 _symmetry_equiv_pos_site_id
 _symmetry_equiv_pos_as_xyz
  1  'x, y, z'
loop_
 _atom_site_type_symbol
 _atom_site_label
 _atom_site_symmetry_multiplicity
 _atom_site_fract_x
 _atom_site_fract_y
 _atom_site_fract_z
 _atom_site_occupancy
  P  P0  1  0.183909  0.204021  0.633166  1
  P  P1  1  0.816091  0.704021  0.866834  1
  P  P2  1  0.816091  0.795979  0.366834  1
  P  P3  1  0.183909  0.295979  0.133166  1
  H  H4  1  0.215153  0.526956  0.486856  1
  H  H5  1  0.784847  0.026956  0.013144  1
  H  H6  1  0.784847  0.473044  0.513144  1
  H  H7  1  0.215153  0.973044  0.986856  1
  H  H8  1  0.190916  0.481688  0.799777  1
  H  H9  1  0.809084  0.981688  0.700223  1
  H  H10  1  0.809084  0.518312  0.200223  1
  H  H11  1  0.190916  0.018312  0.299777  1
  H  H12  1  0.437271  0.865941  0.656372  1
  H  H13  1  0.562729  0.365941  0.843628  1
  H  H14  1  0.562729  0.134059  0.343628  1
  H  H15  1  0.437271  0.634059  0.156372  1
  O  O16  1  0.281600  0.348912  0.519337  1
  O  O17  1  0.718400  0.848912  0.980663  1
  O  O18  1  0.718400  0.651088  0.480663  1
  O  O19  1  0.281600  0.151088  0.019337  1
  O  O20  1  0.935840  0.202763  0.626159  1
  O  O21  1  0.064160  0.702763  0.873841  1
  O  O22  1  0.064160  0.797237  0.373841  1
  O  O23  1  0.935840  0.297237  0.126159  1
  O  O24  1  0.289376  0.341290  0.756420  1
  O  O25  1  0.710624  0.841290  0.743580  1
  O  O26  1  0.710624  0.658710  0.243580  1
  O  O27  1  0.289376  0.158710  0.256420  1
  O  O28  1  0.279290  0.898485  0.629357  1
  O  O29  1  0.720710  0.398485  0.870643  1
  O  O30  1  0.720710  0.101515  0.370643  1
  O  O31  1  0.279290  0.601515  0.129357  1
