# generated using pymatgen
data_Bi2O3
_symmetry_space_group_name_H-M   'P 1'
_cell_length_a   9.38215736
_cell_length_b   9.38215661
_cell_length_c   9.38215689
_cell_angle_alpha   109.47121862
_cell_angle_beta   109.47121703
_cell_angle_gamma   109.47122584
_symmetry_Int_Tables_number   1
_chemical_formula_structural   Bi2O3
_chemical_formula_sum   'Bi12 O18'
_cell_volume   635.74974334
_cell_formula_units_Z   6
loop_
 _symmetry_equiv_pos_site_id
 _symmetry_equiv_pos_as_xyz
  1  'x, y, z'
loop_
 _atom_site_type_symbol
 _atom_site_label
 _atom_site_symmetry_multiplicity
 _atom_site_fract_x
 _atom_site_fract_y
 _atom_site_fract_z
 _atom_site_occupancy
  Bi  Bi0  1  0.196700  0.789590  0.281839  1
  Bi  Bi1  1  0.914861  0.718161  0.507751  1
  Bi  Bi2  1  0.718161  0.507751  0.914861  1
  Bi  Bi3  1  0.407110  0.492249  0.210410  1
  Bi  Bi4  1  0.592890  0.803300  0.085139  1
  Bi  Bi5  1  0.492249  0.210410  0.407110  1
  Bi  Bi6  1  0.789590  0.281839  0.196700  1
  Bi  Bi7  1  0.281839  0.196700  0.789590  1
  Bi  Bi8  1  0.507751  0.914861  0.718161  1
  Bi  Bi9  1  0.210410  0.407110  0.492249  1
  Bi  Bi10  1  0.803300  0.085139  0.592890  1
  Bi  Bi11  1  0.085139  0.592890  0.803300  1
  O  O12  1  0.000000  0.231066  0.231066  1
  O  O13  1  0.429793  0.759777  0.831424  1
  O  O14  1  0.329984  0.570207  0.401631  1
  O  O15  1  0.231066  0.231066  1.000000  1
  O  O16  1  1.000000  0.768934  0.768934  1
  O  O17  1  0.831424  0.429793  0.759777  1
  O  O18  1  0.768934  0.000000  0.768934  1
  O  O19  1  0.759777  0.831424  0.429793  1
  O  O20  1  0.670016  0.071648  0.240223  1
  O  O21  1  0.168576  0.928352  0.598369  1
  O  O22  1  0.071648  0.240223  0.670016  1
  O  O23  1  0.928352  0.598369  0.168576  1
  O  O24  1  0.768934  0.768934  0.000000  1
  O  O25  1  0.231066  1.000000  0.231066  1
  O  O26  1  0.598369  0.168576  0.928352  1
  O  O27  1  0.240223  0.670016  0.071648  1
  O  O28  1  0.570207  0.401631  0.329984  1
  O  O29  1  0.401631  0.329984  0.570207  1
