# generated using pymatgen
data_Mg5AlH21O17
_symmetry_space_group_name_H-M   'P 1'
_cell_length_a   8.04480938
_cell_length_b   8.03137016
_cell_length_c   48.25559561
_cell_angle_alpha   22.09733550
_cell_angle_beta   22.39222072
_cell_angle_gamma   22.34674019
_symmetry_Int_Tables_number   1
_chemical_formula_structural   Mg5AlH21O17
_chemical_formula_sum   'Mg5 Al1 H21 O17'
_cell_volume   392.92763891
_cell_formula_units_Z   1
loop_
 _symmetry_equiv_pos_site_id
 _symmetry_equiv_pos_as_xyz
  1  'x, y, z'
loop_
 _atom_site_type_symbol
 _atom_site_label
 _atom_site_symmetry_multiplicity
 _atom_site_fract_x
 _atom_site_fract_y
 _atom_site_fract_z
 _atom_site_occupancy
  Mg  Mg0  1  0.002553  0.008551  0.999127  1
  Mg  Mg1  1  0.984620  0.010643  0.166986  1
  Mg  Mg2  1  0.998282  0.009330  0.499410  1
  Mg  Mg3  1  0.981705  0.013147  0.334162  1
  Mg  Mg4  1  0.028689  0.015162  0.658407  1
  Al  Al5  1  0.015032  0.009662  0.828252  1
  H  H6  1  0.382346  0.385847  0.081020  1
  H  H7  1  0.159945  0.103536  0.207513  1
  H  H8  1  0.571674  0.564520  0.101228  1
  H  H9  1  0.470578  0.371907  0.234969  1
  H  H10  1  0.156953  0.050020  0.382941  1
  H  H11  1  0.625122  0.522455  0.265895  1
  H  H12  1  0.470568  0.363526  0.403532  1
  H  H13  1  0.057616  0.201287  0.540699  1
  H  H14  1  0.818977  0.877707  0.300004  1
  H  H15  1  0.619453  0.514678  0.435656  1
  H  H16  1  0.477610  0.391118  0.565533  1
  H  H17  1  0.038987  0.300233  0.693274  1
  H  H18  1  0.733335  0.925757  0.473515  1
  H  H19  1  0.640363  0.544247  0.592101  1
  H  H20  1  0.426276  0.376640  0.739987  1
  H  H21  1  0.098362  0.270279  0.855405  1
  H  H22  1  0.704142  0.882845  0.652598  1
  H  H23  1  0.621825  0.587805  0.755726  1
  H  H24  1  0.494095  0.430762  0.887514  1
  H  H25  1  0.688691  0.576720  0.915337  1
  H  H26  1  0.863717  0.932853  0.951001  1
  O  O27  1  0.397604  0.407526  0.055413  1
  O  O28  1  0.624285  0.661755  0.096378  1
  O  O29  1  0.387326  0.409683  0.222477  1
  O  O30  1  0.807973  0.204086  0.247514  1
  O  O31  1  0.610453  0.654207  0.266266  1
  O  O32  1  0.372516  0.398179  0.394062  1
  O  O33  1  0.794933  0.224939  0.413392  1
  O  O34  1  0.609844  0.629795  0.438147  1
  O  O35  1  0.373939  0.373465  0.565187  1
  O  O36  1  0.699707  0.401588  0.566913  1
  O  O37  1  0.616093  0.601039  0.607321  1
  O  O38  1  0.345122  0.346624  0.737873  1
  O  O39  1  0.689612  0.550617  0.711185  1
  O  O40  1  0.598762  0.588183  0.779733  1
  O  O41  1  0.418275  0.404165  0.883886  1
  O  O42  1  0.778300  0.281672  0.906619  1
  O  O43  1  0.670408  0.657908  0.925285  1
