# generated using pymatgen
data_Ce4Si4N7ClO3
_symmetry_space_group_name_H-M   'P 1'
_cell_length_a   9.79124881
_cell_length_b   10.50679124
_cell_length_c   10.86901000
_cell_angle_alpha   90.00000000
_cell_angle_beta   90.00000000
_cell_angle_gamma   90.00000000
_symmetry_Int_Tables_number   1
_chemical_formula_structural   Ce4Si4N7ClO3
_chemical_formula_sum   'Ce16 Si16 N28 Cl4 O12'
_cell_volume   1118.14513468
_cell_formula_units_Z   4
loop_
 _symmetry_equiv_pos_site_id
 _symmetry_equiv_pos_as_xyz
  1  'x, y, z'
loop_
 _atom_site_type_symbol
 _atom_site_label
 _atom_site_symmetry_multiplicity
 _atom_site_fract_x
 _atom_site_fract_y
 _atom_site_fract_z
 _atom_site_occupancy
  Ce  Ce0  1  0.064374  0.195786  0.670747  1
  Ce  Ce1  1  0.094860  0.549559  0.420460  1
  Ce  Ce2  1  0.157710  0.683387  0.062670  1
  Ce  Ce3  1  0.217856  0.967016  0.302846  1
  Ce  Ce4  1  0.282144  0.467016  0.697154  1
  Ce  Ce5  1  0.342290  0.183387  0.937330  1
  Ce  Ce6  1  0.405140  0.049559  0.579540  1
  Ce  Ce7  1  0.435626  0.695786  0.329253  1
  Ce  Ce8  1  0.564374  0.804214  0.829253  1
  Ce  Ce9  1  0.594860  0.450441  0.079540  1
  Ce  Ce10  1  0.657710  0.316613  0.437330  1
  Ce  Ce11  1  0.717856  0.032984  0.197154  1
  Ce  Ce12  1  0.782144  0.532984  0.802846  1
  Ce  Ce13  1  0.842290  0.816613  0.562670  1
  Ce  Ce14  1  0.905140  0.950441  0.920460  1
  Ce  Ce15  1  0.935626  0.304214  0.170747  1
  Si  Si16  1  0.058866  0.706124  0.772922  1
  Si  Si17  1  0.051476  0.424698  0.925217  1
  Si  Si18  1  0.212328  0.263835  0.413463  1
  Si  Si19  1  0.239861  0.412206  0.174729  1
  Si  Si20  1  0.260139  0.912206  0.825271  1
  Si  Si21  1  0.287672  0.763835  0.586537  1
  Si  Si22  1  0.448524  0.924698  0.074783  1
  Si  Si23  1  0.441134  0.206124  0.227078  1
  Si  Si24  1  0.558866  0.293876  0.727078  1
  Si  Si25  1  0.551476  0.575302  0.574783  1
  Si  Si26  1  0.712328  0.736165  0.086537  1
  Si  Si27  1  0.739861  0.587794  0.325271  1
  Si  Si28  1  0.760139  0.087794  0.674729  1
  Si  Si29  1  0.787672  0.236165  0.913463  1
  Si  Si30  1  0.948524  0.075302  0.425217  1
  Si  Si31  1  0.941134  0.793876  0.272922  1
  N  N32  1  0.048282  0.560994  0.841000  1
  N  N33  1  0.124510  0.698354  0.624455  1
  N  N34  1  0.114565  0.452841  0.070066  1
  N  N35  1  0.129954  0.815227  0.877539  1
  N  N36  1  0.115787  0.127746  0.447039  1
  N  N37  1  0.142249  0.354039  0.294718  1
  N  N38  1  0.198814  0.360673  0.540866  1
  N  N39  1  0.301186  0.860673  0.459134  1
  N  N40  1  0.357751  0.854039  0.705282  1
  N  N41  1  0.384213  0.627746  0.552961  1
  N  N42  1  0.370046  0.315227  0.122461  1
  N  N43  1  0.385435  0.952841  0.929934  1
  N  N44  1  0.375490  0.198354  0.375545  1
  N  N45  1  0.451718  0.060994  0.159000  1
  N  N46  1  0.548282  0.439006  0.659000  1
  N  N47  1  0.624510  0.301646  0.875545  1
  N  N48  1  0.614565  0.547159  0.429934  1
  N  N49  1  0.629954  0.184773  0.622461  1
  N  N50  1  0.615787  0.872254  0.052961  1
  N  N51  1  0.642249  0.645961  0.205282  1
  N  N52  1  0.698814  0.639327  0.959134  1
  N  N53  1  0.801186  0.139327  0.040866  1
  N  N54  1  0.857751  0.145961  0.794718  1
  N  N55  1  0.884213  0.372254  0.947039  1
  N  N56  1  0.870046  0.684773  0.377539  1
  N  N57  1  0.885435  0.047159  0.570066  1
  N  N58  1  0.875490  0.801646  0.124455  1
  N  N59  1  0.951718  0.939006  0.341000  1
  Cl  Cl60  1  0.110931  0.086629  0.076342  1
  Cl  Cl61  1  0.389070  0.586629  0.923658  1
  Cl  Cl62  1  0.610931  0.913371  0.423658  1
  Cl  Cl63  1  0.889069  0.413371  0.576342  1
  O  O64  1  0.104930  0.742244  0.263007  1
  O  O65  1  0.152218  0.322331  0.848044  1
  O  O66  1  0.194386  0.050615  0.779249  1
  O  O67  1  0.305614  0.550615  0.220751  1
  O  O68  1  0.347782  0.822331  0.151956  1
  O  O69  1  0.395070  0.242244  0.736993  1
  O  O70  1  0.604930  0.257756  0.236993  1
  O  O71  1  0.652218  0.677669  0.651956  1
  O  O72  1  0.694386  0.949385  0.720751  1
  O  O73  1  0.805614  0.449385  0.279249  1
  O  O74  1  0.847782  0.177669  0.348044  1
  O  O75  1  0.895070  0.757756  0.763007  1
