# generated using pymatgen
data_NaIO4
_symmetry_space_group_name_H-M   'P 1'
_cell_length_a   5.49669069
_cell_length_b   5.52469539
_cell_length_c   7.31001693
_cell_angle_alpha   112.46600611
_cell_angle_beta   112.13750090
_cell_angle_gamma   89.51001100
_symmetry_Int_Tables_number   1
_chemical_formula_structural   NaIO4
_chemical_formula_sum   'Na2 I2 O8'
_cell_volume   187.62337146
_cell_formula_units_Z   2
loop_
 _symmetry_equiv_pos_site_id
 _symmetry_equiv_pos_as_xyz
  1  'x, y, z'
loop_
 _atom_site_type_symbol
 _atom_site_label
 _atom_site_symmetry_multiplicity
 _atom_site_fract_x
 _atom_site_fract_y
 _atom_site_fract_z
 _atom_site_occupancy
  Na  Na0  1  0.129411  0.374739  0.262624  1
  Na  Na1  1  0.883274  0.633447  0.764622  1
  I  I2  1  0.673310  0.921402  0.347251  1
  I  I3  1  0.419917  0.177449  0.845927  1
  O  O4  1  0.487384  0.197936  0.463124  1
  O  O5  1  0.932760  0.230265  0.491258  1
  O  O6  1  0.245939  0.432357  0.988503  1
  O  O7  1  0.732215  0.062245  0.989297  1
  O  O8  1  0.968436  0.749212  0.455297  1
  O  O9  1  0.696393  0.472155  0.956363  1
  O  O10  1  0.559893  0.745998  0.486113  1
  O  O11  1  0.252343  0.994258  0.957345  1
