# generated using pymatgen
data_Tl2HPtC5N5O
_symmetry_space_group_name_H-M   'P 1'
_cell_length_a   6.78169195
_cell_length_b   8.73614863
_cell_length_c   20.62944975
_cell_angle_alpha   90.00000000
_cell_angle_beta   90.00000000
_cell_angle_gamma   108.43817684
_symmetry_Int_Tables_number   1
_chemical_formula_structural   Tl2HPtC5N5O
_chemical_formula_sum   'Tl8 H4 Pt4 C20 N20 O4'
_cell_volume   1159.46812838
_cell_formula_units_Z   4
loop_
 _symmetry_equiv_pos_site_id
 _symmetry_equiv_pos_as_xyz
  1  'x, y, z'
loop_
 _atom_site_type_symbol
 _atom_site_label
 _atom_site_symmetry_multiplicity
 _atom_site_fract_x
 _atom_site_fract_y
 _atom_site_fract_z
 _atom_site_occupancy
  Tl  Tl0  1  0.441017  0.176410  0.718288  1
  Tl  Tl1  1  0.058983  0.323590  0.218288  1
  Tl  Tl2  1  0.941017  0.676410  0.781712  1
  Tl  Tl3  1  0.931081  0.291271  0.582156  1
  Tl  Tl4  1  0.568919  0.208729  0.082156  1
  Tl  Tl5  1  0.068919  0.708729  0.417844  1
  Tl  Tl6  1  0.431081  0.791271  0.917844  1
  Tl  Tl7  1  0.558983  0.823590  0.281712  1
  H  H8  1  0.966645  0.553444  0.915796  1
  H  H9  1  0.533355  0.946556  0.415796  1
  H  H10  1  0.466645  0.053444  0.584204  1
  H  H11  1  0.033355  0.446556  0.084204  1
  Pt  Pt12  1  0.079099  0.307681  0.880526  1
  Pt  Pt13  1  0.579099  0.807681  0.619474  1
  Pt  Pt14  1  0.920901  0.692319  0.119474  1
  Pt  Pt15  1  0.420901  0.192319  0.380526  1
  C  C16  1  0.784929  0.217167  0.914072  1
  C  C17  1  0.976018  0.296696  0.787897  1
  C  C18  1  0.099820  0.086449  0.873841  1
  C  C19  1  0.284929  0.717167  0.585928  1
  C  C20  1  0.476018  0.796696  0.712103  1
  C  C21  1  0.599820  0.586449  0.626159  1
  C  C22  1  0.178385  0.332640  0.973093  1
  C  C23  1  0.821615  0.667360  0.026907  1
  C  C24  1  0.321615  0.167360  0.473093  1
  C  C25  1  0.715071  0.282833  0.414072  1
  C  C26  1  0.873833  0.905343  0.651432  1
  C  C27  1  0.523982  0.203304  0.287897  1
  C  C28  1  0.400180  0.413551  0.373841  1
  C  C29  1  0.126167  0.094657  0.348568  1
  C  C30  1  0.373833  0.405343  0.848568  1
  C  C31  1  0.678385  0.832640  0.526907  1
  C  C32  1  0.023982  0.703304  0.212103  1
  C  C33  1  0.215071  0.782833  0.085928  1
  C  C34  1  0.900180  0.913551  0.126159  1
  C  C35  1  0.626167  0.594657  0.151432  1
  N  N36  1  0.270159  0.146539  0.527412  1
  N  N37  1  0.729841  0.853461  0.472588  1
  N  N38  1  0.891796  0.044911  0.132513  1
  N  N39  1  0.582020  0.201828  0.234460  1
  N  N40  1  0.608204  0.455089  0.632513  1
  N  N41  1  0.540309  0.471942  0.828546  1
  N  N42  1  0.959691  0.028058  0.328546  1
  N  N43  1  0.108204  0.955089  0.867487  1
  N  N44  1  0.229841  0.353461  0.027412  1
  N  N45  1  0.120027  0.660092  0.562677  1
  N  N46  1  0.917980  0.298172  0.734460  1
  N  N47  1  0.391796  0.544911  0.367487  1
  N  N48  1  0.082020  0.701828  0.265540  1
  N  N49  1  0.417980  0.798172  0.765540  1
  N  N50  1  0.379973  0.839908  0.062677  1
  N  N51  1  0.879973  0.339908  0.437323  1
  N  N52  1  0.770159  0.646539  0.972588  1
  N  N53  1  0.040309  0.971942  0.671454  1
  N  N54  1  0.620027  0.160092  0.937323  1
  N  N55  1  0.459691  0.528058  0.171454  1
  O  O56  1  0.571709  0.045411  0.615927  1
  O  O57  1  0.928291  0.454589  0.115927  1
  O  O58  1  0.071709  0.545411  0.884073  1
  O  O59  1  0.428291  0.954589  0.384073  1
