# generated using pymatgen
data_Sr2RuO6
_symmetry_space_group_name_H-M   'P 1'
_cell_length_a   6.32100996
_cell_length_b   7.20031037
_cell_length_c   6.93915355
_cell_angle_alpha   92.44307822
_cell_angle_beta   90.00000000
_cell_angle_gamma   90.00000000
_symmetry_Int_Tables_number   1
_chemical_formula_structural   Sr2RuO6
_chemical_formula_sum   'Sr4 Ru2 O12'
_cell_volume   315.53625241
_cell_formula_units_Z   2
loop_
 _symmetry_equiv_pos_site_id
 _symmetry_equiv_pos_as_xyz
  1  'x, y, z'
loop_
 _atom_site_type_symbol
 _atom_site_label
 _atom_site_symmetry_multiplicity
 _atom_site_fract_x
 _atom_site_fract_y
 _atom_site_fract_z
 _atom_site_occupancy
  Sr  Sr0  1  0.820926  0.898459  0.328986  1
  Sr  Sr1  1  0.679074  0.398459  0.828986  1
  Sr  Sr2  1  0.320926  0.601541  0.171014  1
  Sr  Sr3  1  0.179074  0.101541  0.671014  1
  Ru  Ru4  1  0.000000  0.500000  0.500000  1
  Ru  Ru5  1  0.500000  0.000000  0.000000  1
  O  O6  1  0.067293  0.423910  0.772746  1
  O  O7  1  0.774067  0.633860  0.577616  1
  O  O8  1  0.283821  0.423365  0.848353  1
  O  O9  1  0.725933  0.133860  0.077616  1
  O  O10  1  0.216179  0.923365  0.348353  1
  O  O11  1  0.432707  0.923910  0.272746  1
  O  O12  1  0.567293  0.076090  0.727254  1
  O  O13  1  0.783821  0.076635  0.651647  1
  O  O14  1  0.274067  0.866140  0.922384  1
  O  O15  1  0.716179  0.576635  0.151647  1
  O  O16  1  0.225933  0.366140  0.422384  1
  O  O17  1  0.932707  0.576090  0.227254  1
