# generated using pymatgen
data_Ba2CaWN4
_symmetry_space_group_name_H-M   'P 1'
_cell_length_a   8.16401405
_cell_length_b   8.16401366
_cell_length_c   10.56941832
_cell_angle_alpha   110.34343849
_cell_angle_beta   110.34343745
_cell_angle_gamma   95.73048108
_symmetry_Int_Tables_number   1
_chemical_formula_structural   Ba2CaWN4
_chemical_formula_sum   'Ba8 Ca4 W4 N16'
_cell_volume   599.48928069
_cell_formula_units_Z   4
loop_
 _symmetry_equiv_pos_site_id
 _symmetry_equiv_pos_as_xyz
  1  'x, y, z'
loop_
 _atom_site_type_symbol
 _atom_site_label
 _atom_site_symmetry_multiplicity
 _atom_site_fract_x
 _atom_site_fract_y
 _atom_site_fract_z
 _atom_site_occupancy
  Ba  Ba0  1  0.305131  0.055131  0.750000  1
  Ba  Ba1  1  0.944869  0.694869  0.750000  1
  Ba  Ba2  1  0.055131  0.305131  0.250000  1
  Ba  Ba3  1  0.486494  0.736494  0.472988  1
  Ba  Ba4  1  0.513506  0.263506  0.527012  1
  Ba  Ba5  1  0.736494  0.486494  0.972988  1
  Ba  Ba6  1  0.694869  0.944869  0.250000  1
  Ba  Ba7  1  0.263506  0.513506  0.027012  1
  Ca  Ca8  1  0.713389  0.963389  0.926778  1
  Ca  Ca9  1  0.286611  0.036611  0.073222  1
  Ca  Ca10  1  0.036611  0.286611  0.573222  1
  Ca  Ca11  1  0.963389  0.713389  0.426778  1
  W  W12  1  0.382330  0.617670  0.750000  1
  W  W13  1  0.867670  0.132330  0.750000  1
  W  W14  1  0.617670  0.382330  0.250000  1
  W  W15  1  0.132330  0.867670  0.250000  1
  N  N16  1  0.033858  0.117049  0.919612  1
  N  N17  1  0.657809  0.605537  0.233931  1
  N  N18  1  0.385754  0.802563  0.919612  1
  N  N19  1  0.197437  0.614246  0.580388  1
  N  N20  1  0.966142  0.882951  0.080388  1
  N  N21  1  0.802563  0.385754  0.419612  1
  N  N22  1  0.394463  0.342191  0.266069  1
  N  N23  1  0.342191  0.394463  0.766069  1
  N  N24  1  0.117049  0.033858  0.419612  1
  N  N25  1  0.923877  0.371605  0.766069  1
  N  N26  1  0.076123  0.628395  0.233931  1
  N  N27  1  0.882951  0.966142  0.580388  1
  N  N28  1  0.628395  0.076123  0.733931  1
  N  N29  1  0.614246  0.197437  0.080388  1
  N  N30  1  0.605537  0.657809  0.733931  1
  N  N31  1  0.371605  0.923877  0.266069  1
