# generated using pymatgen
data_Al2O3
_symmetry_space_group_name_H-M   'P 1'
_cell_length_a   5.59210036
_cell_length_b   6.13500712
_cell_length_c   18.71398365
_cell_angle_alpha   95.61690795
_cell_angle_beta   121.70192107
_cell_angle_gamma   120.00634843
_symmetry_Int_Tables_number   1
_chemical_formula_structural   Al2O3
_chemical_formula_sum   'Al16 O24'
_cell_volume   412.46695047
_cell_formula_units_Z   8
loop_
 _symmetry_equiv_pos_site_id
 _symmetry_equiv_pos_as_xyz
  1  'x, y, z'
loop_
 _atom_site_type_symbol
 _atom_site_label
 _atom_site_symmetry_multiplicity
 _atom_site_fract_x
 _atom_site_fract_y
 _atom_site_fract_z
 _atom_site_occupancy
  Al  Al0  1  0.017858  0.029788  0.907464  1
  Al  Al1  1  0.252001  0.486623  0.732622  1
  Al  Al2  1  0.994052  0.053118  0.572900  1
  Al  Al3  1  0.487193  0.018157  0.878751  1
  Al  Al4  1  0.910983  0.945308  0.715545  1
  Al  Al5  1  0.528475  0.059377  0.738325  1
  Al  Al6  1  0.660001  0.484936  0.557773  1
  Al  Al7  1  0.005063  0.951899  0.182010  1
  Al  Al8  1  0.616878  0.532328  0.380284  1
  Al  Al9  1  0.399682  0.957660  0.551160  1
  Al  Al10  1  0.113221  0.988856  0.344899  1
  Al  Al11  1  0.794663  0.083958  0.392449  1
  Al  Al12  1  0.463654  0.362569  0.150633  1
  Al  Al13  1  0.340627  0.797478  0.157857  1
  Al  Al14  1  0.545309  0.597382  0.948241  1
  Al  Al15  1  0.642209  0.100719  0.060941  1
  O  O16  1  0.154563  0.796762  0.749258  1
  O  O17  1  0.899449  0.240731  0.737035  1
  O  O18  1  0.444361  0.848907  0.947811  1
  O  O19  1  0.621680  0.794998  0.745906  1
  O  O20  1  0.075520  0.781545  0.418501  1
  O  O21  1  0.355723  0.216115  0.896199  1
  O  O22  1  0.256320  0.297827  0.434285  1
  O  O23  1  0.622585  0.785142  0.585391  1
  O  O24  1  0.317698  0.223935  0.720159  1
  O  O25  1  0.639362  0.693269  0.873783  1
  O  O26  1  0.680195  0.840946  0.439930  1
  O  O27  1  0.868207  0.701514  0.069391  1
  O  O28  1  0.866025  0.231412  0.885356  1
  O  O29  1  0.404719  0.260683  0.587338  1
  O  O30  1  0.100123  0.382212  0.109179  1
  O  O31  1  0.621305  0.852095  0.280479  1
  O  O32  1  0.628598  0.246522  0.406668  1
  O  O33  1  0.107248  0.798320  0.591181  1
  O  O34  1  0.549851  0.859201  0.105220  1
  O  O35  1  0.869198  0.279819  0.592402  1
  O  O36  1  0.445011  0.149908  0.206986  1
  O  O37  1  0.347530  0.173848  0.039935  1
  O  O38  1  0.915213  0.707925  0.230004  1
  O  O39  1  0.162986  0.243938  0.274225  1
