# generated using pymatgen
data_CuCSN
_symmetry_space_group_name_H-M   'P 1'
_cell_length_a   11.18522063
_cell_length_b   11.18522047
_cell_length_c   11.18522038
_cell_angle_alpha   19.83791002
_cell_angle_beta   19.83791229
_cell_angle_gamma   19.83791305
_symmetry_Int_Tables_number   1
_chemical_formula_structural   CuCSN
_chemical_formula_sum   'Cu2 C2 S2 N2'
_cell_volume   140.96216540
_cell_formula_units_Z   2
loop_
 _symmetry_equiv_pos_site_id
 _symmetry_equiv_pos_as_xyz
  1  'x, y, z'
loop_
 _atom_site_type_symbol
 _atom_site_label
 _atom_site_symmetry_multiplicity
 _atom_site_fract_x
 _atom_site_fract_y
 _atom_site_fract_z
 _atom_site_occupancy
  Cu  Cu0  1  0.000051  0.000051  0.000051  1
  Cu  Cu1  1  0.500051  0.500051  0.500051  1
  C  C2  1  0.093772  0.093772  0.093772  1
  C  C3  1  0.593772  0.593772  0.593772  1
  S  S4  1  0.144430  0.144430  0.144430  1
  S  S5  1  0.644430  0.644430  0.644430  1
  N  N6  1  0.558087  0.558087  0.558087  1
  N  N7  1  0.058087  0.058087  0.058087  1
