# generated using pymatgen
data_Ca2AlH10ClO8
_symmetry_space_group_name_H-M   'P 1'
_cell_length_a   10.94969048
_cell_length_b   8.71786940
_cell_length_c   8.71786940
_cell_angle_alpha   45.33802711
_cell_angle_beta   100.88802249
_cell_angle_gamma   100.88802249
_symmetry_Int_Tables_number   1
_chemical_formula_structural   Ca2AlH10ClO8
_chemical_formula_sum   'Ca4 Al2 H20 Cl2 O16'
_cell_volume   579.37434204
_cell_formula_units_Z   2
loop_
 _symmetry_equiv_pos_site_id
 _symmetry_equiv_pos_as_xyz
  1  'x, y, z'
loop_
 _atom_site_type_symbol
 _atom_site_label
 _atom_site_symmetry_multiplicity
 _atom_site_fract_x
 _atom_site_fract_y
 _atom_site_fract_z
 _atom_site_occupancy
  Ca  Ca0  1  0.807964  0.464262  0.562398  1
  Ca  Ca1  1  0.692036  0.937602  0.035738  1
  Ca  Ca2  1  0.192036  0.535738  0.437602  1
  Ca  Ca3  1  0.307964  0.062398  0.964262  1
  Al  Al4  1  0.500000  0.500000  0.500000  1
  Al  Al5  1  0.000000  0.000000  0.000000  1
  H  H6  1  0.547900  0.327819  0.272879  1
  H  H7  1  0.952100  0.227121  0.172181  1
  H  H8  1  0.452100  0.672181  0.727121  1
  H  H9  1  0.047900  0.772879  0.827819  1
  H  H10  1  0.785861  0.818734  0.544869  1
  H  H11  1  0.714139  0.955131  0.681266  1
  H  H12  1  0.214139  0.181266  0.455131  1
  H  H13  1  0.285861  0.044869  0.318734  1
  H  H14  1  0.327467  0.660717  0.065602  1
  H  H15  1  0.172533  0.434398  0.839283  1
  H  H16  1  0.672533  0.339283  0.934398  1
  H  H17  1  0.827467  0.565602  0.160717  1
  H  H18  1  0.899391  0.698833  0.705506  1
  H  H19  1  0.600609  0.794494  0.801167  1
  H  H20  1  0.100609  0.301167  0.294494  1
  H  H21  1  0.399391  0.205506  0.198833  1
  H  H22  1  0.998205  0.712226  0.907183  1
  H  H23  1  0.501795  0.592817  0.787774  1
  H  H24  1  0.001795  0.287774  0.092817  1
  H  H25  1  0.498205  0.407183  0.212227  1
  Cl  Cl26  1  0.750000  0.132794  0.367206  1
  Cl  Cl27  1  0.250000  0.867206  0.632794  1
  O  O28  1  0.628769  0.625585  0.350232  1
  O  O29  1  0.871231  0.149768  0.874415  1
  O  O30  1  0.371231  0.374415  0.649768  1
  O  O31  1  0.128769  0.850232  0.125585  1
  O  O32  1  0.391252  0.765149  0.050651  1
  O  O33  1  0.108748  0.449349  0.734851  1
  O  O34  1  0.608748  0.234851  0.949349  1
  O  O35  1  0.891252  0.550651  0.265149  1
  O  O36  1  0.385758  0.706000  0.257903  1
  O  O37  1  0.114242  0.242097  0.794000  1
  O  O38  1  0.614242  0.294000  0.742097  1
  O  O39  1  0.885758  0.757903  0.206000  1
  O  O40  1  0.821814  0.675162  0.645671  1
  O  O41  1  0.678186  0.854329  0.824838  1
  O  O42  1  0.178186  0.324838  0.354329  1
  O  O43  1  0.321814  0.145671  0.175162  1
