# generated using pymatgen
data_NaCoPO4
_symmetry_space_group_name_H-M   'P 1'
_cell_length_a   5.86134655
_cell_length_b   10.03430603
_cell_length_c   11.14787435
_cell_angle_alpha   90.00000000
_cell_angle_beta   90.00000000
_cell_angle_gamma   92.81280451
_symmetry_Int_Tables_number   1
_chemical_formula_structural   NaCoPO4
_chemical_formula_sum   'Na8 Co8 P8 O32'
_cell_volume   654.86721912
_cell_formula_units_Z   8
loop_
 _symmetry_equiv_pos_site_id
 _symmetry_equiv_pos_as_xyz
  1  'x, y, z'
loop_
 _atom_site_type_symbol
 _atom_site_label
 _atom_site_symmetry_multiplicity
 _atom_site_fract_x
 _atom_site_fract_y
 _atom_site_fract_z
 _atom_site_occupancy
  Na  Na0  1  0.874748  0.624593  0.632048  1
  Na  Na1  1  0.125252  0.375407  0.367952  1
  Na  Na2  1  0.620646  0.868859  0.153493  1
  Na  Na3  1  0.620646  0.368859  0.346507  1
  Na  Na4  1  0.379354  0.631141  0.653493  1
  Na  Na5  1  0.874748  0.124593  0.867952  1
  Na  Na6  1  0.379354  0.131141  0.846507  1
  Na  Na7  1  0.125252  0.875407  0.132048  1
  Co  Co8  1  0.652434  0.000702  0.621947  1
  Co  Co9  1  0.347566  0.999298  0.378053  1
  Co  Co10  1  0.889759  0.266207  0.104534  1
  Co  Co11  1  0.889759  0.766207  0.395466  1
  Co  Co12  1  0.652434  0.500702  0.878053  1
  Co  Co13  1  0.347566  0.499298  0.121947  1
  Co  Co14  1  0.110241  0.233793  0.604534  1
  Co  Co15  1  0.110241  0.733793  0.895466  1
  P  P16  1  0.124733  0.914046  0.636711  1
  P  P17  1  0.875267  0.585954  0.136711  1
  P  P18  1  0.624417  0.327997  0.615027  1
  P  P19  1  0.875267  0.085954  0.363289  1
  P  P20  1  0.375583  0.672003  0.384973  1
  P  P21  1  0.624417  0.827997  0.884973  1
  P  P22  1  0.124733  0.414046  0.863289  1
  P  P23  1  0.375583  0.172003  0.115027  1
  O  O24  1  0.617750  0.949011  0.798218  1
  O  O25  1  0.094393  0.123468  0.439610  1
  O  O26  1  0.844815  0.346647  0.535255  1
  O  O27  1  0.657396  0.075686  0.443156  1
  O  O28  1  0.094393  0.623468  0.060390  1
  O  O29  1  0.848830  0.697921  0.228687  1
  O  O30  1  0.088202  0.551230  0.802943  1
  O  O31  1  0.342604  0.424314  0.943156  1
  O  O32  1  0.364646  0.305282  0.186691  1
  O  O33  1  0.407630  0.326091  0.533040  1
  O  O34  1  0.911798  0.448770  0.197057  1
  O  O35  1  0.364646  0.805282  0.313309  1
  O  O36  1  0.635354  0.694718  0.813309  1
  O  O37  1  0.905607  0.876532  0.560390  1
  O  O38  1  0.382250  0.050989  0.201782  1
  O  O39  1  0.151170  0.302079  0.771313  1
  O  O40  1  0.407630  0.826091  0.966960  1
  O  O41  1  0.635354  0.194718  0.686691  1
  O  O42  1  0.617750  0.449011  0.701782  1
  O  O43  1  0.088202  0.051230  0.697057  1
  O  O44  1  0.592370  0.673909  0.466960  1
  O  O45  1  0.905607  0.376532  0.939610  1
  O  O46  1  0.911798  0.948770  0.302943  1
  O  O47  1  0.155185  0.153353  0.035255  1
  O  O48  1  0.382250  0.550989  0.298218  1
  O  O49  1  0.155185  0.653353  0.464745  1
  O  O50  1  0.592370  0.173909  0.033040  1
  O  O51  1  0.848830  0.197921  0.271313  1
  O  O52  1  0.657396  0.575686  0.056844  1
  O  O53  1  0.844815  0.846647  0.964745  1
  O  O54  1  0.342604  0.924314  0.556844  1
  O  O55  1  0.151170  0.802079  0.728687  1
