# generated using pymatgen
data_Rb2MnV2(ClO3)2
_symmetry_space_group_name_H-M   'P 1'
_cell_length_a   15.41276915
_cell_length_b   5.51543813
_cell_length_c   10.97809996
_cell_angle_alpha   97.49433389
_cell_angle_beta   39.55352170
_cell_angle_gamma   91.82253338
_symmetry_Int_Tables_number   1
_chemical_formula_structural   Rb2MnV2(ClO3)2
_chemical_formula_sum   'Rb4 Mn2 V4 Cl4 O12'
_cell_volume   585.69741457
_cell_formula_units_Z   2
loop_
 _symmetry_equiv_pos_site_id
 _symmetry_equiv_pos_as_xyz
  1  'x, y, z'
loop_
 _atom_site_type_symbol
 _atom_site_label
 _atom_site_symmetry_multiplicity
 _atom_site_fract_x
 _atom_site_fract_y
 _atom_site_fract_z
 _atom_site_occupancy
  Rb  Rb0  1  0.214462  0.445138  0.697291  1
  Rb  Rb1  1  0.417585  0.916568  0.200882  1
  Rb  Rb2  1  0.713302  0.399398  0.735660  1
  Rb  Rb3  1  0.934169  0.692107  0.286179  1
  Mn  Mn4  1  0.565243  0.802729  0.697981  1
  Mn  Mn5  1  0.678321  0.246637  0.388747  1
  V  V6  1  0.708910  0.189219  0.061144  1
  V  V7  1  0.146025  0.319171  0.310322  1
  V  V8  1  0.997763  0.955812  0.550758  1
  V  V9  1  0.502392  0.859091  0.471276  1
  Cl  Cl10  1  0.918260  0.079276  0.120274  1
  Cl  Cl11  1  0.191381  0.285562  0.051983  1
  Cl  Cl12  1  0.363896  0.399643  0.145155  1
  Cl  Cl13  1  0.836750  0.486614  0.007352  1
  O  O14  1  0.974584  0.107402  0.448752  1
  O  O15  1  0.852245  0.006609  0.803501  1
  O  O16  1  0.417162  0.773455  0.917712  1
  O  O17  1  0.599291  0.299208  0.080819  1
  O  O18  1  0.348784  0.964215  0.584928  1
  O  O19  1  0.512027  0.549917  0.443430  1
  O  O20  1  0.635504  0.008232  0.251788  1
  O  O21  1  0.665866  0.524550  0.533860  1
  O  O22  1  0.136699  0.111400  0.457830  1
  O  O23  1  0.545248  0.978544  0.582484  1
  O  O24  1  0.670429  0.928424  0.691546  1
  O  O25  1  0.043832  0.637264  0.458704  1
