# generated using pymatgen
data_Sb2P3(HO3)3
_symmetry_space_group_name_H-M   'P 1'
_cell_length_a   9.37769452
_cell_length_b   8.53117556
_cell_length_c   7.37513782
_cell_angle_alpha   67.74589688
_cell_angle_beta   79.70478912
_cell_angle_gamma   66.62219746
_symmetry_Int_Tables_number   1
_chemical_formula_structural   Sb2P3(HO3)3
_chemical_formula_sum   'Sb4 P6 H6 O18'
_cell_volume   500.97206633
_cell_formula_units_Z   2
loop_
 _symmetry_equiv_pos_site_id
 _symmetry_equiv_pos_as_xyz
  1  'x, y, z'
loop_
 _atom_site_type_symbol
 _atom_site_label
 _atom_site_symmetry_multiplicity
 _atom_site_fract_x
 _atom_site_fract_y
 _atom_site_fract_z
 _atom_site_occupancy
  Sb  Sb0  1  0.265061  0.511752  0.999752  1
  Sb  Sb1  1  0.734939  0.488248  0.000248  1
  Sb  Sb2  1  0.583568  0.155274  0.679069  1
  Sb  Sb3  1  0.416432  0.844726  0.320931  1
  P  P4  1  0.360882  0.890652  0.763074  1
  P  P5  1  0.639118  0.109348  0.236926  1
  P  P6  1  0.934840  0.783196  0.773332  1
  P  P7  1  0.065160  0.216804  0.226668  1
  P  P8  1  0.737589  0.499601  0.542416  1
  P  P9  1  0.262411  0.500399  0.457584  1
  H  H10  1  0.220301  0.990560  0.837552  1
  H  H11  1  0.779699  0.009440  0.162448  1
  H  H12  1  0.978508  0.845752  0.573879  1
  H  H13  1  0.021492  0.154248  0.426121  1
  H  H14  1  0.888308  0.496536  0.471878  1
  H  H15  1  0.111692  0.503464  0.528122  1
  O  O16  1  0.491540  0.942541  0.796141  1
  O  O17  1  0.508460  0.057459  0.203859  1
  O  O18  1  0.326314  0.944611  0.544493  1
  O  O19  1  0.673686  0.055389  0.455507  1
  O  O20  1  0.401567  0.686205  0.876305  1
  O  O21  1  0.598433  0.313795  0.123695  1
  O  O22  1  0.798801  0.936520  0.823367  1
  O  O23  1  0.201199  0.063480  0.176633  1
  O  O24  1  0.904721  0.609774  0.808513  1
  O  O25  1  0.095279  0.390226  0.191487  1
  O  O26  1  0.078897  0.741381  0.887809  1
  O  O27  1  0.921103  0.258619  0.112191  1
  O  O28  1  0.746705  0.407332  0.771059  1
  O  O29  1  0.253295  0.592668  0.228941  1
  O  O30  1  0.631623  0.701296  0.483423  1
  O  O31  1  0.368377  0.298704  0.516577  1
  O  O32  1  0.694525  0.384914  0.460720  1
  O  O33  1  0.305475  0.615086  0.539280  1
