# generated using pymatgen
data_NaCaGaSi2O7
_symmetry_space_group_name_H-M   'P 1'
_cell_length_a   7.26850386
_cell_length_b   10.80812002
_cell_length_c   9.55852660
_cell_angle_alpha   90.00000000
_cell_angle_beta   90.00000000
_cell_angle_gamma   90.00000000
_symmetry_Int_Tables_number   1
_chemical_formula_structural   NaCaGaSi2O7
_chemical_formula_sum   'Na4 Ca4 Ga4 Si8 O28'
_cell_volume   750.90697290
_cell_formula_units_Z   4
loop_
 _symmetry_equiv_pos_site_id
 _symmetry_equiv_pos_as_xyz
  1  'x, y, z'
loop_
 _atom_site_type_symbol
 _atom_site_label
 _atom_site_symmetry_multiplicity
 _atom_site_fract_x
 _atom_site_fract_y
 _atom_site_fract_z
 _atom_site_occupancy
  Na  Na0  1  0.392178  0.660544  0.765338  1
  Na  Na1  1  0.107822  0.839456  0.265338  1
  Na  Na2  1  0.892178  0.339456  0.234662  1
  Na  Na3  1  0.607822  0.160544  0.734662  1
  Ca  Ca4  1  0.426798  0.249552  0.142276  1
  Ca  Ca5  1  0.073202  0.250448  0.642276  1
  Ca  Ca6  1  0.926798  0.750448  0.857724  1
  Ca  Ca7  1  0.573202  0.749552  0.357724  1
  Ga  Ga8  1  0.962110  0.054137  0.105832  1
  Ga  Ga9  1  0.037890  0.554137  0.394168  1
  Ga  Ga10  1  0.462110  0.945863  0.894168  1
  Ga  Ga11  1  0.537890  0.445863  0.605832  1
  Si  Si12  1  0.740811  0.104792  0.413394  1
  Si  Si13  1  0.797776  0.891276  0.609608  1
  Si  Si14  1  0.759189  0.395208  0.913394  1
  Si  Si15  1  0.702224  0.608724  0.109608  1
  Si  Si16  1  0.297776  0.108724  0.390392  1
  Si  Si17  1  0.240811  0.895208  0.586606  1
  Si  Si18  1  0.202224  0.391276  0.890392  1
  Si  Si19  1  0.259189  0.604792  0.086606  1
  O  O20  1  0.244966  0.046684  0.543790  1
  O  O21  1  0.232958  0.052612  0.243564  1
  O  O22  1  0.312984  0.820334  0.451989  1
  O  O23  1  0.290415  0.169752  0.798385  1
  O  O24  1  0.207283  0.249431  0.425016  1
  O  O25  1  0.979652  0.361810  0.878358  1
  O  O26  1  0.156128  0.631568  0.232865  1
  O  O27  1  0.520348  0.138190  0.378358  1
  O  O28  1  0.343872  0.868432  0.732865  1
  O  O29  1  0.187016  0.679666  0.951989  1
  O  O30  1  0.209585  0.330248  0.298385  1
  O  O31  1  0.267042  0.447388  0.743564  1
  O  O32  1  0.292717  0.250569  0.925016  1
  O  O33  1  0.255034  0.453316  0.043790  1
  O  O34  1  0.744966  0.953316  0.456210  1
  O  O35  1  0.732958  0.947388  0.756436  1
  O  O36  1  0.707283  0.750569  0.574984  1
  O  O37  1  0.790415  0.830248  0.201615  1
  O  O38  1  0.812984  0.179666  0.548011  1
  O  O39  1  0.656128  0.368432  0.767135  1
  O  O40  1  0.479652  0.638190  0.121642  1
  O  O41  1  0.843872  0.131568  0.267135  1
  O  O42  1  0.020348  0.861810  0.621642  1
  O  O43  1  0.792717  0.749431  0.074984  1
  O  O44  1  0.767042  0.552612  0.256436  1
  O  O45  1  0.709585  0.669752  0.701615  1
  O  O46  1  0.687016  0.320334  0.048011  1
  O  O47  1  0.755034  0.546684  0.956210  1
