# generated using pymatgen
data_Yb3Si2ClO8
_symmetry_space_group_name_H-M   'P 1'
_cell_length_a   6.32344930
_cell_length_b   6.95484297
_cell_length_c   18.05788222
_cell_angle_alpha   89.98761991
_cell_angle_beta   90.00345132
_cell_angle_gamma   89.99822043
_symmetry_Int_Tables_number   1
_chemical_formula_structural   Yb3Si2ClO8
_chemical_formula_sum   'Yb12 Si8 Cl4 O32'
_cell_volume   794.16030362
_cell_formula_units_Z   4
loop_
 _symmetry_equiv_pos_site_id
 _symmetry_equiv_pos_as_xyz
  1  'x, y, z'
loop_
 _atom_site_type_symbol
 _atom_site_label
 _atom_site_symmetry_multiplicity
 _atom_site_fract_x
 _atom_site_fract_y
 _atom_site_fract_z
 _atom_site_occupancy
  Yb  Yb0  1  0.125325  0.015340  0.092858  1
  Yb  Yb1  1  0.625603  0.484684  0.907374  1
  Yb  Yb2  1  0.374592  0.515337  0.407218  1
  Yb  Yb3  1  0.887076  0.287843  0.249886  1
  Yb  Yb4  1  0.112764  0.712171  0.749839  1
  Yb  Yb5  1  0.612926  0.787900  0.249887  1
  Yb  Yb6  1  0.874379  0.984684  0.907390  1
  Yb  Yb7  1  0.387250  0.212095  0.749842  1
  Yb  Yb8  1  0.374704  0.515330  0.092884  1
  Yb  Yb9  1  0.125439  0.015356  0.407241  1
  Yb  Yb10  1  0.625427  0.484676  0.592734  1
  Yb  Yb11  1  0.874552  0.984662  0.592712  1
  Si  Si12  1  0.625495  0.018452  0.398874  1
  Si  Si13  1  0.625424  0.018658  0.101021  1
  Si  Si14  1  0.374393  0.981383  0.899008  1
  Si  Si15  1  0.374611  0.981523  0.601090  1
  Si  Si16  1  0.125373  0.481529  0.601111  1
  Si  Si17  1  0.874584  0.518684  0.101017  1
  Si  Si18  1  0.874516  0.518434  0.398857  1
  Si  Si19  1  0.125571  0.481343  0.899001  1
  Cl  Cl20  1  0.259867  0.536685  0.250027  1
  Cl  Cl21  1  0.759766  0.963323  0.749993  1
  Cl  Cl22  1  0.240136  0.036677  0.250025  1
  Cl  Cl23  1  0.740238  0.463315  0.749996  1
  O  O24  1  0.278446  0.462233  0.825809  1
  O  O25  1  0.025390  0.329926  0.116463  1
  O  O26  1  0.025145  0.330000  0.383563  1
  O  O27  1  0.716487  0.506380  0.470062  1
  O  O28  1  0.545465  0.805894  0.907208  1
  O  O29  1  0.783402  0.006364  0.030014  1
  O  O30  1  0.778178  0.037712  0.325850  1
  O  O31  1  0.045538  0.694146  0.407220  1
  O  O32  1  0.974950  0.669906  0.616437  1
  O  O33  1  0.525032  0.169887  0.616434  1
  O  O34  1  0.954510  0.305860  0.907204  1
  O  O35  1  0.278244  0.462296  0.674122  1
  O  O36  1  0.283529  0.493607  0.529913  1
  O  O37  1  0.474639  0.829936  0.116459  1
  O  O38  1  0.216491  0.993603  0.529938  1
  O  O39  1  0.221788  0.962323  0.674118  1
  O  O40  1  0.783482  0.006384  0.470035  1
  O  O41  1  0.216522  0.993622  0.970054  1
  O  O42  1  0.045475  0.694149  0.092808  1
  O  O43  1  0.778214  0.037622  0.174249  1
  O  O44  1  0.525160  0.170141  0.883522  1
  O  O45  1  0.954516  0.305936  0.592778  1
  O  O46  1  0.716622  0.506371  0.030013  1
  O  O47  1  0.283427  0.493623  0.970065  1
  O  O48  1  0.221578  0.962243  0.825802  1
  O  O49  1  0.974798  0.670161  0.883516  1
  O  O50  1  0.454498  0.194106  0.407214  1
  O  O51  1  0.545455  0.805976  0.592782  1
  O  O52  1  0.454540  0.194137  0.092808  1
  O  O53  1  0.721800  0.537722  0.325845  1
  O  O54  1  0.474884  0.830025  0.383564  1
  O  O55  1  0.721785  0.537625  0.174246  1
