# generated using pymatgen
data_YbCuS2
_symmetry_space_group_name_H-M   'P 1'
_cell_length_a   3.92469436
_cell_length_b   6.20760801
_cell_length_c   13.99684792
_cell_angle_alpha   89.98675981
_cell_angle_beta   89.99011234
_cell_angle_gamma   89.99340025
_symmetry_Int_Tables_number   1
_chemical_formula_structural   YbCuS2
_chemical_formula_sum   'Yb4 Cu4 S8'
_cell_volume   341.00468763
_cell_formula_units_Z   4
loop_
 _symmetry_equiv_pos_site_id
 _symmetry_equiv_pos_as_xyz
  1  'x, y, z'
loop_
 _atom_site_type_symbol
 _atom_site_label
 _atom_site_symmetry_multiplicity
 _atom_site_fract_x
 _atom_site_fract_y
 _atom_site_fract_z
 _atom_site_occupancy
  Yb  Yb0  1  0.232087  0.772438  0.636169  1
  Yb  Yb1  1  0.767965  0.272831  0.863846  1
  Yb  Yb2  1  0.732112  0.727332  0.363691  1
  Yb  Yb3  1  0.267806  0.227787  0.136262  1
  Cu  Cu4  1  0.732829  0.385317  0.552034  1
  Cu  Cu5  1  0.767316  0.614564  0.051816  1
  Cu  Cu6  1  0.232960  0.114528  0.448049  1
  Cu  Cu7  1  0.267121  0.886343  0.948120  1
  S  S8  1  0.268596  0.514916  0.970172  1
  S  S9  1  0.768827  0.985130  0.029641  1
  S  S10  1  0.731197  0.014598  0.529636  1
  S  S11  1  0.733273  0.512506  0.700036  1
  S  S12  1  0.231230  0.484941  0.470358  1
  S  S13  1  0.233115  0.987055  0.299875  1
  S  S14  1  0.766610  0.487259  0.200186  1
  S  S15  1  0.266956  0.012452  0.800108  1
