# generated using pymatgen
data_U(WC)4
_symmetry_space_group_name_H-M   'P 1'
_cell_length_a   3.13682528
_cell_length_b   8.41017147
_cell_length_c   8.41021555
_cell_angle_alpha   89.99991396
_cell_angle_beta   90.00071937
_cell_angle_gamma   90.00016408
_symmetry_Int_Tables_number   1
_chemical_formula_structural   U(WC)4
_chemical_formula_sum   'U2 W8 C8'
_cell_volume   221.87190205
_cell_formula_units_Z   2
loop_
 _symmetry_equiv_pos_site_id
 _symmetry_equiv_pos_as_xyz
  1  'x, y, z'
loop_
 _atom_site_type_symbol
 _atom_site_label
 _atom_site_symmetry_multiplicity
 _atom_site_fract_x
 _atom_site_fract_y
 _atom_site_fract_z
 _atom_site_occupancy
  U  U0  1  0.000007  0.000001  0.999996  1
  U  U1  1  0.499994  0.499999  0.500001  1
  W  W2  1  0.000002  0.153302  0.386739  1
  W  W3  1  0.999999  0.613258  0.153299  1
  W  W4  1  0.500000  0.854691  0.318721  1
  W  W5  1  0.500003  0.318721  0.145311  1
  W  W6  1  0.999997  0.846698  0.613256  1
  W  W7  1  0.500001  0.145312  0.681282  1
  W  W8  1  0.500001  0.681279  0.854689  1
  W  W9  1  -0.000003  0.386745  0.846702  1
  C  C10  1  0.499996  0.915213  0.773857  1
  C  C11  1  0.499997  0.084787  0.226143  1
  C  C12  1  0.500004  0.226133  0.915209  1
  C  C13  1  0.999999  0.394326  0.294500  1
  C  C14  1  -0.000006  0.705498  0.394334  1
  C  C15  1  0.500001  0.773862  0.084790  1
  C  C16  1  0.000004  0.294503  0.605670  1
  C  C17  1  0.000002  0.605672  0.705501  1
