# generated using pymatgen
data_Bi7(S3Cl)3
_symmetry_space_group_name_H-M   'P 1'
_cell_length_a   13.17345332
_cell_length_b   13.57185972
_cell_length_c   4.38789629
_cell_angle_alpha   90.00000000
_cell_angle_beta   90.00000000
_cell_angle_gamma   130.80974401
_symmetry_Int_Tables_number   1
_chemical_formula_structural   Bi7(S3Cl)3
_chemical_formula_sum   'Bi7 S9 Cl3'
_cell_volume   593.77872421
_cell_formula_units_Z   1
loop_
 _symmetry_equiv_pos_site_id
 _symmetry_equiv_pos_as_xyz
  1  'x, y, z'
loop_
 _atom_site_type_symbol
 _atom_site_label
 _atom_site_symmetry_multiplicity
 _atom_site_fract_x
 _atom_site_fract_y
 _atom_site_fract_z
 _atom_site_occupancy
  Bi  Bi0  1  0.064547  0.730548  0.250000  1
  Bi  Bi1  1  0.309138  0.478196  0.250000  1
  Bi  Bi2  1  0.659534  0.898095  0.250000  1
  Bi  Bi3  1  0.421552  0.088218  0.750000  1
  Bi  Bi4  1  0.653585  0.636433  0.750000  1
  Bi  Bi5  1  0.056710  0.988966  0.750000  1
  Bi  Bi6  1  0.908941  0.294890  0.750000  1
  S  S7  1  0.913239  0.704555  0.750000  1
  S  S8  1  0.165959  0.467834  0.750000  1
  S  S9  1  0.256899  0.836459  0.750000  1
  S  S10  1  0.319408  0.196885  0.750000  1
  S  S11  1  0.501250  0.707480  0.750000  1
  S  S12  1  0.160182  0.965659  0.250000  1
  S  S13  1  0.827928  0.058889  0.750000  1
  S  S14  1  0.503770  0.465675  0.250000  1
  S  S15  1  0.799330  0.828397  0.250000  1
  Cl  Cl16  1  0.569051  0.093069  0.250000  1
  Cl  Cl17  1  0.898391  0.416013  0.250000  1
  Cl  Cl18  1  0.114146  0.222788  0.250000  1
