# generated using pymatgen
data_YbSeClO3
_symmetry_space_group_name_H-M   'P 1'
_cell_length_a   7.24369374
_cell_length_b   7.45258827
_cell_length_c   8.66532991
_cell_angle_alpha   89.84796077
_cell_angle_beta   89.99980068
_cell_angle_gamma   90.00010601
_symmetry_Int_Tables_number   1
_chemical_formula_structural   YbSeClO3
_chemical_formula_sum   'Yb4 Se4 Cl4 O12'
_cell_volume   467.78983623
_cell_formula_units_Z   4
loop_
 _symmetry_equiv_pos_site_id
 _symmetry_equiv_pos_as_xyz
  1  'x, y, z'
loop_
 _atom_site_type_symbol
 _atom_site_label
 _atom_site_symmetry_multiplicity
 _atom_site_fract_x
 _atom_site_fract_y
 _atom_site_fract_z
 _atom_site_occupancy
  Yb  Yb0  1  0.249999  0.609958  0.053257  1
  Yb  Yb1  1  0.250000  0.109907  0.446611  1
  Yb  Yb2  1  0.750000  0.390030  0.946603  1
  Yb  Yb3  1  0.750000  0.890026  0.553553  1
  Se  Se4  1  0.750000  0.270258  0.381283  1
  Se  Se5  1  0.250001  0.229818  0.880740  1
  Se  Se6  1  0.250003  0.729656  0.618723  1
  Se  Se7  1  0.749999  0.769967  0.118911  1
  Cl  Cl8  1  0.749999  0.027302  0.852915  1
  Cl  Cl9  1  0.249999  0.972825  0.147044  1
  Cl  Cl10  1  0.750001  0.527330  0.647387  1
  Cl  Cl11  1  0.250001  0.472753  0.352635  1
  O  O12  1  0.928886  0.639912  0.058141  1
  O  O13  1  0.928757  0.139841  0.441910  1
  O  O14  1  0.071018  0.360225  0.941868  1
  O  O15  1  0.428763  0.860121  0.558122  1
  O  O16  1  0.428982  0.360224  0.941867  1
  O  O17  1  0.250000  0.727985  0.812869  1
  O  O18  1  0.571113  0.639913  0.058142  1
  O  O19  1  0.250000  0.228397  0.687487  1
  O  O20  1  0.750000  0.271962  0.187043  1
  O  O21  1  0.750000  0.771624  0.312855  1
  O  O22  1  0.071235  0.860122  0.558122  1
  O  O23  1  0.571244  0.139843  0.441910  1
