# generated using pymatgen
data_LiCdBO3
_symmetry_space_group_name_H-M   'P 1'
_cell_length_a   8.43390639
_cell_length_b   8.43390639
_cell_length_c   3.31594672
_cell_angle_alpha   90.00000000
_cell_angle_beta   90.00000000
_cell_angle_gamma   119.99999994
_symmetry_Int_Tables_number   1
_chemical_formula_structural   LiCdBO3
_chemical_formula_sum   'Li3 Cd3 B3 O9'
_cell_volume   204.26583265
_cell_formula_units_Z   3
loop_
 _symmetry_equiv_pos_site_id
 _symmetry_equiv_pos_as_xyz
  1  'x, y, z'
loop_
 _atom_site_type_symbol
 _atom_site_label
 _atom_site_symmetry_multiplicity
 _atom_site_fract_x
 _atom_site_fract_y
 _atom_site_fract_z
 _atom_site_occupancy
  Li  Li0  1  0.290975  0.008069  0.500000  1
  Li  Li1  1  0.717094  0.709025  0.500000  1
  Li  Li2  1  0.991931  0.282906  0.500000  1
  B  B3  1  0.000000  0.000000  0.000000  1
  B  B4  1  0.666667  0.333333  0.500000  1
  B  B5  1  0.333333  0.666667  0.500000  1
  O  O6  1  0.187743  0.063191  0.000000  1
  O  O7  1  0.936809  0.124553  0.000000  1
  O  O8  1  0.875447  0.812257  0.000000  1
  O  O9  1  0.249595  0.476367  0.500000  1
  O  O10  1  0.226772  0.750405  0.500000  1
  O  O11  1  0.523633  0.773228  0.500000  1
  O  O12  1  0.582014  0.438661  0.500000  1
  O  O13  1  0.856647  0.417986  0.500000  1
  O  O14  1  0.561339  0.143353  0.500000  1
  Cd  Cd15  1  0.630599  0.995092  0.000000  1
  Cd  Cd16  1  0.004908  0.635507  0.000000  1
  Cd  Cd17  1  0.364493  0.369401  0.000000  1
