# generated using pymatgen
data_CsLiSO4
_symmetry_space_group_name_H-M   'P 1'
_cell_length_a   5.52169735
_cell_length_b   8.91124895
_cell_length_c   9.72474327
_cell_angle_alpha   90.00000000
_cell_angle_beta   90.00000000
_cell_angle_gamma   90.00000000
_symmetry_Int_Tables_number   1
_chemical_formula_structural   CsLiSO4
_chemical_formula_sum   'Cs4 Li4 S4 O16'
_cell_volume   478.50812925
_cell_formula_units_Z   4
loop_
 _symmetry_equiv_pos_site_id
 _symmetry_equiv_pos_as_xyz
  1  'x, y, z'
loop_
 _atom_site_type_symbol
 _atom_site_label
 _atom_site_symmetry_multiplicity
 _atom_site_fract_x
 _atom_site_fract_y
 _atom_site_fract_z
 _atom_site_occupancy
  Li  Li0  1  0.250000  0.175010  0.081619  1
  Li  Li1  1  0.750000  0.824990  0.918381  1
  Li  Li2  1  0.250000  0.675010  0.418381  1
  Li  Li3  1  0.750000  0.324990  0.581619  1
  O  O4  1  0.250000  0.232931  0.273850  1
  O  O5  1  0.750000  0.767069  0.726150  1
  O  O6  1  0.250000  0.732931  0.226150  1
  O  O7  1  0.750000  0.267069  0.773850  1
  O  O8  1  0.750000  0.042204  0.915215  1
  O  O9  1  0.250000  0.957796  0.084785  1
  O  O10  1  0.750000  0.542204  0.584785  1
  O  O11  1  0.250000  0.457796  0.415215  1
  O  O12  1  0.969963  0.265311  0.990203  1
  O  O13  1  0.469963  0.734689  0.009797  1
  O  O14  1  0.530037  0.765311  0.509797  1
  O  O15  1  0.030037  0.234689  0.490203  1
  O  O16  1  0.030037  0.734689  0.009797  1
  O  O17  1  0.530037  0.265311  0.990203  1
  O  O18  1  0.469963  0.234689  0.490203  1
  O  O19  1  0.969963  0.765311  0.509797  1
  S  S20  1  0.250000  0.291476  0.417063  1
  S  S21  1  0.750000  0.708524  0.582937  1
  S  S22  1  0.250000  0.791476  0.082937  1
  S  S23  1  0.750000  0.208524  0.917063  1
  Cs  Cs24  1  0.750000  0.502695  0.210031  1
  Cs  Cs25  1  0.250000  0.497305  0.789969  1
  Cs  Cs26  1  0.750000  0.002695  0.289969  1
  Cs  Cs27  1  0.250000  0.997305  0.710031  1
