# generated using pymatgen
data_Na3Ca7Ti7Nb3O30
_symmetry_space_group_name_H-M   'P 1'
_cell_length_a   3.93422161
_cell_length_b   7.86796521
_cell_length_c   19.63077812
_cell_angle_alpha   90.02239058
_cell_angle_beta   90.00000000
_cell_angle_gamma   90.00000000
_symmetry_Int_Tables_number   1
_chemical_formula_structural   Na3Ca7Ti7Nb3O30
_chemical_formula_sum   'Na3 Ca7 Ti7 Nb3 O30'
_cell_volume   607.65731681
_cell_formula_units_Z   1
loop_
 _symmetry_equiv_pos_site_id
 _symmetry_equiv_pos_as_xyz
  1  'x, y, z'
loop_
 _atom_site_type_symbol
 _atom_site_label
 _atom_site_symmetry_multiplicity
 _atom_site_fract_x
 _atom_site_fract_y
 _atom_site_fract_z
 _atom_site_occupancy
  Na  Na0  1  0.000000  0.003015  0.007399  1
  Na  Na1  1  0.000000  0.009019  0.796084  1
  Na  Na2  1  0.000000  0.491413  0.796953  1
  Ca  Ca3  1  0.000000  0.003467  0.198027  1
  Ca  Ca4  1  0.000000  0.493438  0.014229  1
  Ca  Ca5  1  0.000000  0.002103  0.397944  1
  Ca  Ca6  1  0.000000  0.497874  0.397979  1
  Ca  Ca7  1  0.000000  0.015550  0.596103  1
  Ca  Ca8  1  0.000000  0.496716  0.197698  1
  Ca  Ca9  1  0.000000  0.484444  0.596087  1
  Ti  Ti10  1  0.500000  0.246694  0.100948  1
  Ti  Ti11  1  0.500000  0.250298  0.299383  1
  Ti  Ti12  1  0.500000  0.751722  0.103902  1
  Ti  Ti13  1  0.500000  0.249972  0.498099  1
  Ti  Ti14  1  0.500000  0.749682  0.300460  1
  Ti  Ti15  1  0.500000  0.250164  0.697263  1
  Ti  Ti16  1  0.500000  0.749999  0.497808  1
  Nb  Nb17  1  0.500000  0.250558  0.898042  1
  Nb  Nb18  1  0.500000  0.749746  0.698911  1
  Nb  Nb19  1  0.500000  0.749965  0.903290  1
  O  O20  1  0.000000  0.258854  0.104102  1
  O  O21  1  0.000000  0.741487  0.103730  1
  O  O22  1  0.000000  0.249693  0.301349  1
  O  O23  1  0.000000  0.750319  0.300863  1
  O  O24  1  0.000000  0.249996  0.500618  1
  O  O25  1  0.000000  0.750010  0.498794  1
  O  O26  1  0.000000  0.257927  0.903488  1
  O  O27  1  0.000000  0.750166  0.693650  1
  O  O28  1  0.000000  0.742891  0.902124  1
  O  O29  1  0.500000  0.000373  0.106486  1
  O  O30  1  0.500000  0.262936  0.002962  1
  O  O31  1  0.500000  0.000230  0.300839  1
  O  O32  1  0.500000  0.252355  0.201465  1
  O  O33  1  0.500000  0.500121  0.102225  1
  O  O34  1  0.500000  0.739122  0.003152  1
  O  O35  1  0.500000  0.000776  0.499754  1
  O  O36  1  0.500000  0.249904  0.400120  1
  O  O37  1  0.500000  0.499799  0.301516  1
  O  O38  1  0.500000  0.747692  0.201403  1
  O  O39  1  0.500000  0.002308  0.693325  1
  O  O40  1  0.500000  0.249974  0.597700  1
  O  O41  1  0.500000  0.499222  0.499726  1
  O  O42  1  0.500000  0.750119  0.399646  1
  O  O43  1  0.500000  0.000783  0.901815  1
  O  O44  1  0.500000  0.251310  0.798387  1
  O  O45  1  0.500000  0.497663  0.692931  1
  O  O46  1  0.500000  0.749985  0.597018  1
  O  O47  1  0.500000  0.499730  0.902883  1
  O  O48  1  0.500000  0.748596  0.799152  1
  O  O49  1  0.000000  0.249825  0.692166  1
