# generated using pymatgen
data_SrH2Cl2O
_symmetry_space_group_name_H-M   'P 1'
_cell_length_a   9.21624987
_cell_length_b   4.36380800
_cell_length_c   11.06237454
_cell_angle_alpha   90.00000000
_cell_angle_beta   90.00000000
_cell_angle_gamma   90.00000000
_symmetry_Int_Tables_number   1
_chemical_formula_structural   SrH2Cl2O
_chemical_formula_sum   'Sr4 H8 Cl8 O4'
_cell_volume   444.90596985
_cell_formula_units_Z   4
loop_
 _symmetry_equiv_pos_site_id
 _symmetry_equiv_pos_as_xyz
  1  'x, y, z'
loop_
 _atom_site_type_symbol
 _atom_site_label
 _atom_site_symmetry_multiplicity
 _atom_site_fract_x
 _atom_site_fract_y
 _atom_site_fract_z
 _atom_site_occupancy
  Sr  Sr0  1  0.674977  0.250000  0.502709  1
  Sr  Sr1  1  0.174977  0.250000  0.997291  1
  Sr  Sr2  1  0.325023  0.750000  0.497291  1
  Sr  Sr3  1  0.825023  0.750000  0.002709  1
  H  H4  1  0.087008  0.750000  0.167301  1
  H  H5  1  0.587008  0.750000  0.332699  1
  H  H6  1  0.912992  0.250000  0.832699  1
  H  H7  1  0.412992  0.250000  0.667301  1
  H  H8  1  0.061939  0.750000  0.710800  1
  H  H9  1  0.561939  0.750000  0.789200  1
  H  H10  1  0.938061  0.250000  0.289200  1
  H  H11  1  0.438061  0.250000  0.210800  1
  Cl  Cl12  1  0.685992  0.750000  0.731115  1
  Cl  Cl13  1  0.185992  0.750000  0.768885  1
  Cl  Cl14  1  0.314008  0.250000  0.268885  1
  Cl  Cl15  1  0.814008  0.250000  0.231115  1
  Cl  Cl16  1  0.549918  0.750000  0.128481  1
  Cl  Cl17  1  0.049918  0.750000  0.371519  1
  Cl  Cl18  1  0.450082  0.250000  0.871519  1
  Cl  Cl19  1  0.950082  0.250000  0.628481  1
  O  O20  1  0.584038  0.750000  0.421822  1
  O  O21  1  0.084038  0.750000  0.078178  1
  O  O22  1  0.415962  0.250000  0.578178  1
  O  O23  1  0.915962  0.250000  0.921822  1
