# generated using pymatgen
data_Cs4Re6Se13
_symmetry_space_group_name_H-M   'P 1'
_cell_length_a   10.47460610
_cell_length_b   10.51273084
_cell_length_c   14.52127429
_cell_angle_alpha   84.62533579
_cell_angle_beta   79.16286050
_cell_angle_gamma   60.11989564
_symmetry_Int_Tables_number   1
_chemical_formula_structural   Cs4Re6Se13
_chemical_formula_sum   'Cs8 Re12 Se26'
_cell_volume   1361.74798966
_cell_formula_units_Z   2
loop_
 _symmetry_equiv_pos_site_id
 _symmetry_equiv_pos_as_xyz
  1  'x, y, z'
loop_
 _atom_site_type_symbol
 _atom_site_label
 _atom_site_symmetry_multiplicity
 _atom_site_fract_x
 _atom_site_fract_y
 _atom_site_fract_z
 _atom_site_occupancy
  Cs  Cs0  1  0.100130  0.239461  0.581570  1
  Cs  Cs1  1  0.339591  0.760539  0.081570  1
  Cs  Cs2  1  0.317570  0.960480  0.777791  1
  Cs  Cs3  1  0.278050  0.039520  0.277791  1
  Cs  Cs4  1  0.899870  0.760539  0.418430  1
  Cs  Cs5  1  0.660409  0.239461  0.918430  1
  Cs  Cs6  1  0.721950  0.960480  0.722209  1
  Cs  Cs7  1  0.682430  0.039520  0.222209  1
  Re  Re8  1  0.007562  0.677188  0.978295  1
  Re  Re9  1  0.850172  0.567908  0.925538  1
  Re  Re10  1  0.992438  0.322812  0.021705  1
  Re  Re11  1  0.149828  0.432092  0.074462  1
  Re  Re12  1  0.418080  0.432092  0.425538  1
  Re  Re13  1  0.581920  0.567908  0.574462  1
  Re  Re14  1  0.684750  0.322812  0.478295  1
  Re  Re15  1  0.561888  0.585963  0.393171  1
  Re  Re16  1  0.315250  0.677188  0.521705  1
  Re  Re17  1  0.438112  0.414037  0.606829  1
  Re  Re18  1  0.147851  0.414037  0.893171  1
  Re  Re19  1  0.852149  0.585963  0.106829  1
  Se  Se20  1  0.709666  0.475986  0.054152  1
  Se  Se21  1  0.011709  0.684496  0.152615  1
  Se  Se22  1  0.991348  0.352806  0.195338  1
  Se  Se23  1  0.185652  0.524014  0.554152  1
  Se  Se24  1  0.361419  0.277161  0.750000  1
  Se  Se25  1  0.279116  0.182405  0.992553  1
  Se  Se26  1  0.008652  0.647194  0.804662  1
  Se  Se27  1  0.814348  0.475986  0.445848  1
  Se  Se28  1  0.696205  0.315504  0.652615  1
  Se  Se29  1  0.027049  0.921661  0.931878  1
  Se  Se30  1  0.365348  0.364372  0.166508  1
  Se  Se31  1  0.972951  0.078339  0.068122  1
  Se  Se32  1  0.538480  0.182405  0.507447  1
  Se  Se33  1  0.988291  0.315504  0.847385  1
  Se  Se34  1  0.290334  0.524014  0.945848  1
  Se  Se35  1  0.655846  0.352806  0.304662  1
  Se  Se36  1  0.729720  0.635628  0.666508  1
  Se  Se37  1  0.638581  0.722839  0.250000  1
  Se  Se38  1  0.344154  0.647194  0.695338  1
  Se  Se39  1  0.461520  0.817595  0.492553  1
  Se  Se40  1  0.720884  0.817595  0.007447  1
  Se  Se41  1  0.634652  0.635628  0.833492  1
  Se  Se42  1  0.948709  0.078339  0.431878  1
  Se  Se43  1  0.270280  0.364372  0.333492  1
  Se  Se44  1  0.051291  0.921661  0.568122  1
  Se  Se45  1  0.303795  0.684496  0.347385  1
