# generated using pymatgen
data_Ba(HO)2
_symmetry_space_group_name_H-M   'P 1'
_cell_length_a   9.49226609
_cell_length_b   8.14122008
_cell_length_c   6.86941951
_cell_angle_alpha   91.06095723
_cell_angle_beta   98.06613027
_cell_angle_gamma   90.26784999
_symmetry_Int_Tables_number   1
_chemical_formula_structural   Ba(HO)2
_chemical_formula_sum   'Ba8 H16 O16'
_cell_volume   525.50310846
_cell_formula_units_Z   8
loop_
 _symmetry_equiv_pos_site_id
 _symmetry_equiv_pos_as_xyz
  1  'x, y, z'
loop_
 _atom_site_type_symbol
 _atom_site_label
 _atom_site_symmetry_multiplicity
 _atom_site_fract_x
 _atom_site_fract_y
 _atom_site_fract_z
 _atom_site_occupancy
  Ba  Ba0  1  0.902224  0.138180  0.263532  1
  Ba  Ba1  1  0.399808  0.355875  0.758372  1
  Ba  Ba2  1  0.096958  0.852941  0.756597  1
  Ba  Ba3  1  0.594226  0.648881  0.257096  1
  Ba  Ba4  1  0.346266  0.075399  0.290139  1
  Ba  Ba5  1  0.829066  0.446505  0.783250  1
  Ba  Ba6  1  0.678119  0.961700  0.720585  1
  Ba  Ba7  1  0.184373  0.554161  0.210757  1
  H  H8  1  0.625863  0.047284  0.186390  1
  H  H9  1  0.120247  0.384835  0.858856  1
  H  H10  1  0.378359  0.893942  0.633487  1
  H  H11  1  0.885310  0.545661  0.306650  1
  H  H12  1  0.175506  0.844687  0.343447  1
  H  H13  1  0.685882  0.684872  0.907788  1
  H  H14  1  0.976997  0.155314  0.772097  1
  H  H15  1  0.489754  0.354461  0.277915  1
  H  H16  1  0.935382  0.818014  0.112341  1
  H  H17  1  0.453723  0.673985  0.623203  1
  H  H18  1  0.125362  0.234042  0.120206  1
  H  H19  1  0.642969  0.238739  0.456933  1
  H  H20  1  0.373465  0.852773  0.951632  1
  H  H21  1  0.871159  0.780496  0.449976  1
  H  H22  1  0.623672  0.287341  0.047843  1
  H  H23  1  0.124946  0.348803  0.538298  1
  O  O24  1  0.630408  0.995039  0.315514  1
  O  O25  1  0.124141  0.498840  0.808537  1
  O  O26  1  0.383550  0.007552  0.688956  1
  O  O27  1  0.885072  0.468891  0.194703  1
  O  O28  1  0.077006  0.870750  0.353309  1
  O  O29  1  0.596036  0.628573  0.857251  1
  O  O30  1  0.908065  0.130927  0.653396  1
  O  O31  1  0.424776  0.370030  0.150236  1
  O  O32  1  0.875403  0.838889  0.986553  1
  O  O33  1  0.385749  0.684969  0.501698  1
  O  O34  1  0.116728  0.188271  0.986930  1
  O  O35  1  0.599854  0.339421  0.500679  1
  O  O36  1  0.325766  0.807381  0.057194  1
  O  O37  1  0.826745  0.710805  0.538549  1
  O  O38  1  0.671077  0.208705  0.969880  1
  O  O39  1  0.175335  0.295926  0.438213  1
