# generated using pymatgen
data_Eu2(Ga3Rh)3
_symmetry_space_group_name_H-M   'P 1'
_cell_length_a   7.61893035
_cell_length_b   7.61893031
_cell_length_c   9.83999352
_cell_angle_alpha   90.00000000
_cell_angle_beta   90.00000000
_cell_angle_gamma   119.22461575
_symmetry_Int_Tables_number   1
_chemical_formula_structural   Eu2(Ga3Rh)3
_chemical_formula_sum   'Eu4 Ga18 Rh6'
_cell_volume   498.48714542
_cell_formula_units_Z   2
loop_
 _symmetry_equiv_pos_site_id
 _symmetry_equiv_pos_as_xyz
  1  'x, y, z'
loop_
 _atom_site_type_symbol
 _atom_site_label
 _atom_site_symmetry_multiplicity
 _atom_site_fract_x
 _atom_site_fract_y
 _atom_site_fract_z
 _atom_site_occupancy
  Eu  Eu0  1  0.997442  0.670750  0.250000  1
  Eu  Eu1  1  0.329250  0.002558  0.750000  1
  Eu  Eu2  1  0.670750  0.997442  0.250000  1
  Eu  Eu3  1  0.002558  0.329250  0.750000  1
  Ga  Ga4  1  0.995135  0.664214  0.926356  1
  Ga  Ga5  1  0.130701  0.130701  0.250000  1
  Ga  Ga6  1  0.335786  0.004865  0.426356  1
  Ga  Ga7  1  0.335860  0.335860  0.556441  1
  Ga  Ga8  1  0.545833  0.336865  0.250000  1
  Ga  Ga9  1  0.663135  0.454167  0.750000  1
  Ga  Ga10  1  0.869299  0.869299  0.750000  1
  Ga  Ga11  1  0.664140  0.664140  0.056441  1
  Ga  Ga12  1  0.664140  0.664140  0.443559  1
  Ga  Ga13  1  0.664214  0.995135  0.573644  1
  Ga  Ga14  1  0.664214  0.995135  0.926356  1
  Ga  Ga15  1  0.004865  0.335786  0.426356  1
  Ga  Ga16  1  0.454167  0.663135  0.750000  1
  Ga  Ga17  1  0.336865  0.545833  0.250000  1
  Ga  Ga18  1  0.335860  0.335860  0.943559  1
  Ga  Ga19  1  0.004865  0.335786  0.073644  1
  Ga  Ga20  1  0.995135  0.664214  0.573644  1
  Ga  Ga21  1  0.335786  0.004865  0.073644  1
  Rh  Rh22  1  0.671374  0.328626  0.500000  1
  Rh  Rh23  1  0.671374  0.328626  0.000000  1
  Rh  Rh24  1  0.328626  0.671374  0.500000  1
  Rh  Rh25  1  0.000000  0.000000  0.000000  1
  Rh  Rh26  1  0.000000  0.000000  0.500000  1
  Rh  Rh27  1  0.328626  0.671374  0.000000  1
