# generated using pymatgen
data_Eu2H6Ru
_symmetry_space_group_name_H-M   'P 1'
_cell_length_a   5.29643390
_cell_length_b   5.29650426
_cell_length_c   5.29642096
_cell_angle_alpha   59.99954997
_cell_angle_beta   60.00014291
_cell_angle_gamma   59.99942296
_symmetry_Int_Tables_number   1
_chemical_formula_structural   Eu2H6Ru
_chemical_formula_sum   'Eu2 H6 Ru1'
_cell_volume   105.06002001
_cell_formula_units_Z   1
loop_
 _symmetry_equiv_pos_site_id
 _symmetry_equiv_pos_as_xyz
  1  'x, y, z'
loop_
 _atom_site_type_symbol
 _atom_site_label
 _atom_site_symmetry_multiplicity
 _atom_site_fract_x
 _atom_site_fract_y
 _atom_site_fract_z
 _atom_site_occupancy
  Eu  Eu0  1  0.750001  0.749998  0.750001  1
  Eu  Eu1  1  0.249997  0.249999  0.250001  1
  H  H2  1  0.230502  0.769499  0.769498  1
  H  H3  1  0.230501  0.230500  0.769499  1
  H  H4  1  0.230503  0.769498  0.230502  1
  H  H5  1  0.769499  0.230502  0.230502  1
  H  H6  1  0.769500  0.769500  0.230500  1
  H  H7  1  0.769498  0.230503  0.769497  1
  Ru  Ru8  1  1.000000  0.000000  0.000001  1
