# generated using pymatgen
data_Na3Ca10Mn7V12O48
_symmetry_space_group_name_H-M   'P 1'
_cell_length_a   11.04160185
_cell_length_b   11.04037473
_cell_length_c   11.08457434
_cell_angle_alpha   109.41680539
_cell_angle_beta   109.55827186
_cell_angle_gamma   109.28444519
_symmetry_Int_Tables_number   1
_chemical_formula_structural   Na3Ca10Mn7V12O48
_chemical_formula_sum   'Na3 Ca10 Mn7 V12 O48'
_cell_volume   1042.16042285
_cell_formula_units_Z   1
loop_
 _symmetry_equiv_pos_site_id
 _symmetry_equiv_pos_as_xyz
  1  'x, y, z'
loop_
 _atom_site_type_symbol
 _atom_site_label
 _atom_site_symmetry_multiplicity
 _atom_site_fract_x
 _atom_site_fract_y
 _atom_site_fract_z
 _atom_site_occupancy
  Na  Na0  1  0.124488  0.375067  0.750217  1
  Na  Na1  1  0.622755  0.872414  0.744563  1
  Na  Na2  1  0.374937  0.126858  0.252990  1
  Ca  Ca3  1  0.249579  0.870552  0.618342  1
  Ca  Ca4  1  0.131213  0.254629  0.377979  1
  Ca  Ca5  1  0.366902  0.743804  0.124909  1
  Ca  Ca6  1  0.250167  0.376344  0.126566  1
  Ca  Ca7  1  0.746955  0.625269  0.872295  1
  Ca  Ca8  1  0.629118  0.250172  0.871692  1
  Ca  Ca9  1  0.873191  0.752452  0.625756  1
  Ca  Ca10  1  0.499892  0.998848  0.999698  1
  Ca  Ca11  1  0.752753  0.126860  0.382709  1
  Ca  Ca12  1  0.879998  0.625210  0.253207  1
  Mn  Mn13  1  0.004564  0.502669  0.501578  1
  Mn  Mn14  1  0.003433  0.499277  0.000841  1
  Mn  Mn15  1  0.498612  0.996520  0.500366  1
  Mn  Mn16  1  -0.000054  0.000492  0.999587  1
  Mn  Mn17  1  0.496229  0.500440  0.498334  1
  Mn  Mn18  1  0.497086  0.499262  0.997086  1
  Mn  Mn19  1  0.001025  0.002879  0.502862  1
  V  V20  1  0.119182  0.746889  0.874339  1
  V  V21  1  0.125830  0.876164  0.249783  1
  V  V22  1  0.373136  0.620297  0.745840  1
  V  V23  1  0.247107  0.125969  0.870916  1
  V  V24  1  0.249137  0.624379  0.373393  1
  V  V25  1  0.376525  0.250832  0.626742  1
  V  V26  1  0.625096  0.749370  0.372998  1
  V  V27  1  0.754077  0.873629  0.130558  1
  V  V28  1  0.626465  0.378536  0.253998  1
  V  V29  1  0.749881  0.375450  0.625925  1
  V  V30  1  0.874402  0.124099  0.749448  1
  V  V31  1  0.880871  0.255407  0.127273  1
  O  O32  1  0.101202  0.981852  0.691796  1
  O  O33  1  0.114510  0.602808  0.906909  1
  O  O34  1  0.012000  0.299464  0.897740  1
  O  O35  1  0.087862  0.711984  0.696343  1
  O  O36  1  0.090269  0.880376  0.395023  1
  O  O37  1  0.098882  0.625109  0.412805  1
  O  O38  1  0.195777  0.478687  0.598369  1
  O  O39  1  0.396024  0.793429  0.775263  1
  O  O40  1  0.289561  0.305977  0.910613  1
  O  O41  1  0.385465  0.598726  0.898845  1
  O  O42  1  0.302534  0.904307  0.288425  1
  O  O43  1  0.020492  0.213269  0.122943  1
  O  O44  1  0.195998  0.206352  0.588171  1
  O  O45  1  0.212040  0.583897  0.184980  1
  O  O46  1  0.392094  0.810993  0.516382  1
  O  O47  1  0.294984  0.888766  0.015787  1
  O  O48  1  0.287297  0.474160  0.372547  1
  O  O49  1  0.115087  0.014811  0.211060  1
  O  O50  1  0.516468  0.612943  0.712523  1
  O  O51  1  0.393961  0.095892  0.871916  1
  O  O52  1  0.518112  0.395110  0.807770  1
  O  O53  1  0.381845  0.291811  0.489005  1
  O  O54  1  0.410997  0.105437  0.620277  1
  O  O55  1  0.791626  0.881020  0.991761  1
  O  O56  1  0.208081  0.118023  0.009115  1
  O  O57  1  0.589468  0.894695  0.378615  1
  O  O58  1  0.621283  0.708258  0.511101  1
  O  O59  1  0.485209  0.605312  0.193736  1
  O  O60  1  0.608789  0.905382  0.130636  1
  O  O61  1  0.485843  0.387200  0.288318  1
  O  O62  1  0.884099  0.983938  0.788129  1
  O  O63  1  0.709808  0.516331  0.619798  1
  O  O64  1  0.706204  0.112869  0.985507  1
  O  O65  1  0.608519  0.195784  0.490951  1
  O  O66  1  0.789192  0.412678  0.807068  1
  O  O67  1  0.805531  0.789188  0.407884  1
  O  O68  1  0.975887  0.785645  0.876540  1
  O  O69  1  0.697769  0.098072  0.711816  1
  O  O70  1  0.621477  0.408841  0.105879  1
  O  O71  1  0.715182  0.693136  0.093038  1
  O  O72  1  0.603648  0.205633  0.225754  1
  O  O73  1  0.805475  0.522161  0.398939  1
  O  O74  1  0.891792  0.380974  0.587181  1
  O  O75  1  0.902254  0.114749  0.599512  1
  O  O76  1  0.909717  0.287358  0.303719  1
  O  O77  1  0.984307  0.696695  0.104688  1
  O  O78  1  0.881792  0.400915  0.093850  1
  O  O79  1  0.899034  0.017945  0.308181  1
