# generated using pymatgen
data_Ca2Al4Si4H18O25
_symmetry_space_group_name_H-M   'P 1'
_cell_length_a   9.87706008
_cell_length_b   10.42864904
_cell_length_c   10.71937796
_cell_angle_alpha   91.24430089
_cell_angle_beta   90.23049621
_cell_angle_gamma   92.30497982
_symmetry_Int_Tables_number   1
_chemical_formula_structural   Ca2Al4Si4H18O25
_chemical_formula_sum   'Ca4 Al8 Si8 H36 O50'
_cell_volume   1102.97625838
_cell_formula_units_Z   2
loop_
 _symmetry_equiv_pos_site_id
 _symmetry_equiv_pos_as_xyz
  1  'x, y, z'
loop_
 _atom_site_type_symbol
 _atom_site_label
 _atom_site_symmetry_multiplicity
 _atom_site_fract_x
 _atom_site_fract_y
 _atom_site_fract_z
 _atom_site_occupancy
  Ca  Ca0  1  0.152835  0.272519  0.570765  1
  Ca  Ca1  1  0.426437  0.738726  0.115534  1
  Ca  Ca2  1  0.642474  0.312746  0.876023  1
  Ca  Ca3  1  0.849135  0.731232  0.349766  1
  Al  Al4  1  0.200559  0.596258  0.880989  1
  Al  Al5  1  0.164438  0.078952  0.127667  1
  Al  Al6  1  0.315739  0.905350  0.617760  1
  Al  Al7  1  0.364630  0.402240  0.346500  1
  Al  Al8  1  0.648085  0.570340  0.642650  1
  Al  Al9  1  0.691792  0.105756  0.366869  1
  Al  Al10  1  0.806998  0.908826  0.903933  1
  Al  Al11  1  0.839853  0.418923  0.126482  1
  Si  Si12  1  0.143600  0.905595  0.878465  1
  Si  Si13  1  0.170486  0.400897  0.108997  1
  Si  Si14  1  0.322365  0.601964  0.580434  1
  Si  Si15  1  0.350573  0.093620  0.376188  1
  Si  Si16  1  0.642291  0.912763  0.662225  1
  Si  Si17  1  0.696618  0.409777  0.403743  1
  Si  Si18  1  0.031862  0.574505  0.666787  1
  Si  Si19  1  0.837055  0.023216  0.184922  1
  H  H20  1  0.964473  0.909503  0.707110  1
  H  H21  1  0.028343  0.529487  0.285970  1
  H  H22  1  0.079476  0.756662  0.574122  1
  H  H23  1  0.131952  0.908628  0.419150  1
  H  H24  1  0.129097  0.583600  0.387033  1
  H  H25  1  0.124220  0.262192  0.335310  1
  H  H26  1  0.366654  0.792115  0.870566  1
  H  H27  1  0.342433  0.390507  0.895551  1
  H  H28  1  0.415935  0.073040  0.938488  1
  H  H29  1  0.355434  0.254723  0.086788  1
  H  H30  1  0.347000  0.327052  0.712540  1
  H  H31  1  0.447787  0.476619  0.823439  1
  H  H32  1  0.482882  0.003334  0.171591  1
  H  H33  1  0.435213  0.794670  0.370112  1
  H  H34  1  0.507087  0.241088  0.660504  1
  H  H35  1  0.492044  0.048138  0.814891  1
  H  H36  1  0.558990  0.534678  0.264223  1
  H  H37  1  0.502429  0.783163  0.336750  1
  H  H38  1  0.670814  0.710409  0.894456  1
  H  H39  1  0.601513  0.961744  0.080966  1
  H  H40  1  0.682570  0.557799  0.065131  1
  H  H41  1  0.577532  0.987351  0.486373  1
  H  H42  1  0.647826  0.237119  0.592575  1
  H  H43  1  0.767338  0.217689  0.092359  1
  H  H44  1  0.787966  0.759607  0.686510  1
  H  H45  1  0.847719  0.687895  0.081755  1
  H  H46  1  0.973811  0.140068  0.912248  1
  H  H47  1  0.857505  0.369181  0.611598  1
  H  H48  1  0.903321  0.112978  0.569574  1
  H  H49  1  0.964772  0.255404  0.335862  1
  H  H50  1  0.907088  0.587006  0.854634  1
  H  H51  1  0.004831  0.016430  0.621901  1
  H  H52  1  0.888654  0.382980  0.749146  1
  H  H53  1  0.028512  0.949176  0.321145  1
  H  H54  1  0.013573  0.201828  0.923389  1
  H  H55  1  0.985716  0.773927  0.096629  1
  O  O56  1  0.979860  0.915165  0.865803  1
  O  O57  1  0.997428  0.717033  0.612542  1
  O  O58  1  0.042775  0.882996  0.384651  1
  O  O59  1  0.017300  0.435953  0.143270  1
  O  O60  1  0.038655  0.596457  0.353172  1
  O  O61  1  0.179939  0.758294  0.916612  1
  O  O62  1  0.206282  0.996530  0.990661  1
  O  O63  1  0.210547  0.939328  0.743607  1
  O  O64  1  0.204892  0.564396  0.702639  1
  O  O65  1  0.204011  0.454692  0.967291  1
  O  O66  1  0.197465  0.245471  0.103105  1
  O  O67  1  0.277167  0.747848  0.553449  1
  O  O68  1  0.277604  0.495269  0.473143  1
  O  O69  1  0.276218  0.462258  0.215419  1
  O  O70  1  0.276139  0.039712  0.249176  1
  O  O71  1  0.290844  0.017938  0.499641  1
  O  O72  1  0.311291  0.246032  0.403479  1
  O  O73  1  0.421282  0.384625  0.836525  1
  O  O74  1  0.472173  0.589195  0.633247  1
  O  O75  1  0.481365  0.906731  0.677424  1
  O  O76  1  0.448433  0.743901  0.890913  1
  O  O77  1  0.476619  0.114765  0.877742  1
  O  O78  1  0.502714  0.948160  0.099379  1
  O  O79  1  0.460844  0.267963  0.082825  1
  O  O80  1  0.513101  0.073875  0.362658  1
  O  O81  1  0.535697  0.442189  0.383499  1
  O  O82  1  0.553808  0.585799  0.185525  1
  O  O83  1  0.600706  0.218128  0.673524  1
  O  O84  1  0.629281  0.710017  0.214669  1
  O  O85  1  0.702717  0.758441  0.637552  1
  O  O86  1  0.668986  0.988131  0.527504  1
  O  O87  1  0.727899  0.979483  0.774269  1
  O  O88  1  0.703982  0.486292  0.765964  1
  O  O89  1  0.744423  0.520219  0.510843  1
  O  O90  1  0.716056  0.260269  0.454057  1
  O  O91  1  0.762564  0.746841  0.889994  1
  O  O92  1  0.772238  0.537570  0.033494  1
  O  O93  1  0.784899  0.442212  0.281418  1
  O  O94  1  0.777112  0.949127  0.309837  1
  O  O95  1  0.770994  0.979461  0.049410  1
  O  O96  1  0.790547  0.284329  0.030105  1
  O  O97  1  0.498819  0.306033  0.200277  1
  O  O98  1  0.906874  0.741939  0.141224  1
  O  O99  1  0.386189  0.616990  0.922315  1
  O  O100  1  0.774526  0.162050  0.228492  1
  O  O101  1  0.926837  0.344520  0.672564  1
  O  O102  1  -0.000908  0.570065  0.821086  1
  O  O103  1  -0.000069  0.099278  0.576610  1
  O  O104  1  0.044967  0.288041  0.382696  1
  O  O105  1  0.002074  0.034391  0.182414  1
