# generated using pymatgen
data_Na13Zr7Si5P7O48
_symmetry_space_group_name_H-M   'P 1'
_cell_length_a   9.38585729
_cell_length_b   9.38505388
_cell_length_c   18.74643793
_cell_angle_alpha   59.29168346
_cell_angle_beta   59.26627395
_cell_angle_gamma   59.24137014
_symmetry_Int_Tables_number   1
_chemical_formula_structural   Na13Zr7Si5P7O48
_chemical_formula_sum   'Na13 Zr7 Si5 P7 O48'
_cell_volume   1148.14692972
_cell_formula_units_Z   1
loop_
 _symmetry_equiv_pos_site_id
 _symmetry_equiv_pos_as_xyz
  1  'x, y, z'
loop_
 _atom_site_type_symbol
 _atom_site_label
 _atom_site_symmetry_multiplicity
 _atom_site_fract_x
 _atom_site_fract_y
 _atom_site_fract_z
 _atom_site_occupancy
  Na  Na0  1  0.017990  0.014495  0.009860  1
  Na  Na1  1  0.151609  0.151287  0.075787  1
  Na  Na2  1  0.127298  0.377150  0.371227  1
  Na  Na3  1  0.366932  0.786717  0.069385  1
  Na  Na4  1  0.789575  0.143422  0.181625  1
  Na  Na5  1  0.249738  0.882052  0.302255  1
  Na  Na6  1  0.617705  0.247445  0.440617  1
  Na  Na7  1  0.137051  0.365121  0.898835  1
  Na  Na8  1  0.883897  0.588651  0.125432  1
  Na  Na9  1  0.371394  0.752841  0.557880  1
  Na  Na10  1  0.748752  0.111043  0.694075  1
  Na  Na11  1  0.252974  0.872238  0.809343  1
  Na  Na12  1  0.596427  0.260345  0.936317  1
  Zr  Zr13  1  0.357052  0.356378  0.174892  1
  Zr  Zr14  1  0.145680  0.146647  0.573371  1
  Zr  Zr15  1  0.348495  0.356122  0.681001  1
  Zr  Zr16  1  0.645183  0.649031  0.326381  1
  Zr  Zr17  1  0.856070  0.850845  0.426217  1
  Zr  Zr18  1  0.657017  0.653036  0.815753  1
  Zr  Zr19  1  0.849794  0.847672  0.926459  1
  Si  Si20  1  0.040235  0.745240  0.231547  1
  Si  Si21  1  0.462583  0.038167  0.375024  1
  Si  Si22  1  0.744817  0.460059  0.016243  1
  Si  Si23  1  0.043898  0.752053  0.730646  1
  Si  Si24  1  0.461724  0.038808  0.872230  1
  P  P25  1  0.249429  0.541642  0.480800  1
  P  P26  1  0.551689  0.952189  0.123410  1
  P  P27  1  0.952176  0.247048  0.275362  1
  P  P28  1  0.746155  0.462343  0.521472  1
  P  P29  1  0.247299  0.551465  0.975776  1
  P  P30  1  0.538431  0.964542  0.623111  1
  P  P31  1  0.959028  0.246886  0.771549  1
  O  O32  1  0.123237  0.268349  0.256666  1
  O  O33  1  0.269936  0.505486  0.063041  1
  O  O34  1  0.059161  0.907224  0.141953  1
  O  O35  1  0.507528  0.123079  0.136530  1
  O  O36  1  0.014181  0.775623  0.318299  1
  O  O37  1  0.208390  0.561480  0.223522  1
  O  O38  1  0.286889  0.080311  0.460963  1
  O  O39  1  0.433406  0.205051  0.286569  1
  O  O40  1  0.562497  0.446793  0.102515  1
  O  O41  1  0.220924  0.376668  0.497095  1
  O  O42  1  0.091037  0.709568  0.463321  1
  O  O43  1  0.401909  0.954543  0.112551  1
  O  O44  1  0.638681  0.007531  0.387219  1
  O  O45  1  0.126375  0.277017  0.752333  1
  O  O46  1  0.906426  0.280687  0.029589  1
  O  O47  1  0.777965  0.632780  0.003496  1
  O  O48  1  0.416054  0.559872  0.396937  1
  O  O49  1  0.283685  0.513414  0.560280  1
  O  O50  1  0.588994  0.787749  0.207154  1
  O  O51  1  0.073620  0.927622  0.643435  1
  O  O52  1  0.510441  0.132664  0.633300  1
  O  O53  1  0.727951  0.932466  0.042429  1
  O  O54  1  0.023961  0.771533  0.817897  1
  O  O55  1  0.218448  0.581405  0.710939  1
  O  O56  1  0.784708  0.403800  0.301418  1
  O  O57  1  0.953091  0.239368  0.196597  1
  O  O58  1  0.282958  0.059259  0.953565  1
  O  O59  1  0.480990  0.854709  0.374231  1
  O  O60  1  0.936119  0.076877  0.359367  1
  O  O61  1  0.443658  0.215647  0.781657  1
  O  O62  1  0.726155  0.476396  0.441326  1
  O  O63  1  0.583652  0.431879  0.604389  1
  O  O64  1  0.222638  0.401006  0.979096  1
  O  O65  1  0.083078  0.727053  0.968209  1
  O  O66  1  0.863557  0.702904  0.261546  1
  O  O67  1  0.369831  0.999159  0.610475  1
  O  O68  1  0.636702  0.013507  0.886482  1
  O  O69  1  0.913311  0.301436  0.536817  1
  O  O70  1  0.763204  0.633099  0.504432  1
  O  O71  1  0.410219  0.589418  0.893101  1
  O  O72  1  0.555231  0.800855  0.705237  1
  O  O73  1  0.699698  0.940640  0.539659  1
  O  O74  1  0.789779  0.403732  0.787660  1
  O  O75  1  0.988666  0.211479  0.691950  1
  O  O76  1  0.511216  0.873946  0.846134  1
  O  O77  1  0.943947  0.080860  0.856246  1
  O  O78  1  0.711164  0.506815  0.927893  1
  O  O79  1  0.866225  0.738251  0.743996  1
