# generated using pymatgen
data_Na2Si3(HO4)2
_symmetry_space_group_name_H-M   'P 1'
_cell_length_a   7.40003499
_cell_length_b   12.83618023
_cell_length_c   9.24868981
_cell_angle_alpha   90.00000000
_cell_angle_beta   118.93927467
_cell_angle_gamma   90.00000000
_symmetry_Int_Tables_number   1
_chemical_formula_structural   Na2Si3(HO4)2
_chemical_formula_sum   'Na8 Si12 H8 O32'
_cell_volume   768.81859081
_cell_formula_units_Z   4
loop_
 _symmetry_equiv_pos_site_id
 _symmetry_equiv_pos_as_xyz
  1  'x, y, z'
loop_
 _atom_site_type_symbol
 _atom_site_label
 _atom_site_symmetry_multiplicity
 _atom_site_fract_x
 _atom_site_fract_y
 _atom_site_fract_z
 _atom_site_occupancy
  Na  Na0  1  0.143407  0.665793  0.486973  1
  Na  Na1  1  0.856593  0.165793  0.013027  1
  Na  Na2  1  0.856593  0.334207  0.513027  1
  Na  Na3  1  0.143407  0.834207  0.986973  1
  Na  Na4  1  0.295952  0.077695  0.965362  1
  Na  Na5  1  0.704048  0.577695  0.534638  1
  Na  Na6  1  0.704048  0.922305  0.034638  1
  Na  Na7  1  0.295952  0.422305  0.465362  1
  Si  Si8  1  0.255431  0.898439  0.675246  1
  Si  Si9  1  0.744569  0.398439  0.824754  1
  Si  Si10  1  0.744569  0.101561  0.324754  1
  Si  Si11  1  0.255431  0.601561  0.175246  1
  Si  Si12  1  0.356848  0.194198  0.309940  1
  Si  Si13  1  0.643152  0.694198  0.190060  1
  Si  Si14  1  0.643152  0.805802  0.690060  1
  Si  Si15  1  0.356848  0.305802  0.809940  1
  Si  Si16  1  0.219362  0.131805  0.562095  1
  Si  Si17  1  0.780638  0.631805  0.937905  1
  Si  Si18  1  0.780638  0.868195  0.437905  1
  Si  Si19  1  0.219362  0.368195  0.062095  1
  H  H20  1  0.172645  0.510379  0.714683  1
  H  H21  1  0.827355  0.010379  0.785317  1
  H  H22  1  0.827355  0.489621  0.285317  1
  H  H23  1  0.172645  0.989621  0.214683  1
  H  H24  1  0.206406  0.612752  0.820172  1
  H  H25  1  0.793594  0.112752  0.679828  1
  H  H26  1  0.793594  0.387248  0.179828  1
  H  H27  1  0.206406  0.887248  0.320172  1
  O  O28  1  0.319092  0.913775  0.863970  1
  O  O29  1  0.680908  0.413775  0.636030  1
  O  O30  1  0.680908  0.086225  0.136030  1
  O  O31  1  0.319092  0.586225  0.363970  1
  O  O32  1  0.262245  0.007451  0.581412  1
  O  O33  1  0.737755  0.507451  0.918588  1
  O  O34  1  0.737755  0.992549  0.418588  1
  O  O35  1  0.262245  0.492549  0.081412  1
  O  O36  1  0.211255  0.111821  0.175544  1
  O  O37  1  0.788745  0.611821  0.324456  1
  O  O38  1  0.788745  0.888179  0.824456  1
  O  O39  1  0.211255  0.388179  0.675544  1
  O  O40  1  0.025240  0.844536  0.558564  1
  O  O41  1  0.974760  0.344536  0.941436  1
  O  O42  1  0.974760  0.155464  0.441436  1
  O  O43  1  0.025240  0.655464  0.058564  1
  O  O44  1  0.351415  0.190106  0.486729  1
  O  O45  1  0.648585  0.690106  0.013271  1
  O  O46  1  0.648585  0.809894  0.513271  1
  O  O47  1  0.351415  0.309894  0.986729  1
  O  O48  1  0.395162  0.813458  0.635213  1
  O  O49  1  0.604838  0.313458  0.864787  1
  O  O50  1  0.604838  0.186542  0.364787  1
  O  O51  1  0.395162  0.686542  0.135213  1
  O  O52  1  0.290133  0.317311  0.245229  1
  O  O53  1  0.709867  0.817311  0.254771  1
  O  O54  1  0.709867  0.682689  0.754771  1
  O  O55  1  0.290133  0.182689  0.745229  1
  O  O56  1  0.132711  0.586417  0.708035  1
  O  O57  1  0.867289  0.086417  0.791965  1
  O  O58  1  0.867289  0.413583  0.291965  1
  O  O59  1  0.132711  0.913583  0.208035  1
