# generated using pymatgen
data_Ba3Si3N5ClO
_symmetry_space_group_name_H-M   'P 1'
_cell_length_a   9.46150014
_cell_length_b   9.58713033
_cell_length_c   5.59977341
_cell_angle_alpha   88.96227016
_cell_angle_beta   92.10337515
_cell_angle_gamma   119.56746014
_symmetry_Int_Tables_number   1
_chemical_formula_structural   Ba3Si3N5ClO
_chemical_formula_sum   'Ba6 Si6 N10 Cl2 O2'
_cell_volume   441.50278746
_cell_formula_units_Z   2
loop_
 _symmetry_equiv_pos_site_id
 _symmetry_equiv_pos_as_xyz
  1  'x, y, z'
loop_
 _atom_site_type_symbol
 _atom_site_label
 _atom_site_symmetry_multiplicity
 _atom_site_fract_x
 _atom_site_fract_y
 _atom_site_fract_z
 _atom_site_occupancy
  Ba  Ba0  1  0.212857  0.846465  0.236346  1
  Ba  Ba1  1  0.152112  0.348881  0.240747  1
  Ba  Ba2  1  0.639047  0.803859  0.251523  1
  Ba  Ba3  1  0.366391  0.153534  0.736346  1
  Ba  Ba4  1  0.803231  0.651119  0.740747  1
  Ba  Ba5  1  0.835188  0.196141  0.751523  1
  Si  Si6  1  0.123966  0.590814  0.753075  1
  Si  Si7  1  0.468763  0.876808  0.746845  1
  Si  Si8  1  0.405932  0.531918  0.735288  1
  Si  Si9  1  0.533152  0.409186  0.253075  1
  Si  Si10  1  0.591955  0.123192  0.246845  1
  Si  Si11  1  0.874013  0.468082  0.235288  1
  N  N12  1  0.257785  0.792673  0.737296  1
  N  N13  1  0.199197  0.460241  0.735930  1
  N  N14  1  0.534503  0.735104  0.760698  1
  N  N15  1  0.454639  0.453887  0.496228  1
  N  N16  1  0.465112  0.207327  0.237296  1
  N  N17  1  0.738956  0.539759  0.235930  1
  N  N18  1  0.545257  0.997555  0.495178  1
  N  N19  1  0.547702  0.002445  0.995178  1
  N  N20  1  0.799399  0.264896  0.260698  1
  N  N21  1  0.000752  0.546113  0.996228  1
  Cl  Cl22  1  0.003753  0.997839  0.469183  1
  Cl  Cl23  1  0.005913  0.002161  0.969183  1
  O  O24  1  0.444042  0.447658  0.995661  1
  O  O25  1  0.996384  0.552342  0.495661  1
