# generated using pymatgen
data_LaTiAlPbO6
_symmetry_space_group_name_H-M   'P 1'
_cell_length_a   3.90594428
_cell_length_b   31.14398169
_cell_length_c   5.49646966
_cell_angle_alpha   45.08969501
_cell_angle_beta   90.00068637
_cell_angle_gamma   89.99976075
_symmetry_Int_Tables_number   1
_chemical_formula_structural   LaTiAlPbO6
_chemical_formula_sum   'La4 Ti4 Al4 Pb4 O24'
_cell_volume   473.53036110
_cell_formula_units_Z   4
loop_
 _symmetry_equiv_pos_site_id
 _symmetry_equiv_pos_as_xyz
  1  'x, y, z'
loop_
 _atom_site_type_symbol
 _atom_site_label
 _atom_site_symmetry_multiplicity
 _atom_site_fract_x
 _atom_site_fract_y
 _atom_site_fract_z
 _atom_site_occupancy
  La  La0  1  0.000094  0.505733  0.977086  1
  La  La1  1  0.000014  0.749464  0.002110  1
  La  La2  1  0.000033  0.869254  0.022939  1
  La  La3  1  0.000097  0.625516  0.997890  1
  Ti  Ti4  1  0.499949  0.122798  0.508804  1
  Ti  Ti5  1  0.500032  0.380175  0.479278  1
  Ti  Ti6  1  0.499959  0.252181  0.491199  1
  Ti  Ti7  1  0.499938  0.994814  0.520734  1
  Al  Al8  1  0.499990  0.626672  0.493334  1
  Al  Al9  1  0.499987  0.504661  0.481330  1
  Al  Al10  1  0.500008  0.748328  0.506654  1
  Al  Al11  1  0.499993  0.870332  0.518690  1
  Pb  Pb12  1  0.000035  0.994488  0.022015  1
  Pb  Pb13  1  0.000052  0.125529  0.997984  1
  Pb  Pb14  1  0.999733  0.249456  0.002157  1
  Pb  Pb15  1  0.000099  0.380573  0.977550  1
  O  O16  1  0.000040  0.125223  0.499110  1
  O  O17  1  0.000020  0.249800  0.500785  1
  O  O18  1  -0.000004  0.625125  0.499492  1
  O  O19  1  0.000002  0.867992  0.528057  1
  O  O20  1  0.499947  0.059553  0.012826  1
  O  O21  1  0.499971  0.059570  0.510724  1
  O  O22  1  0.500010  0.187509  0.000040  1
  O  O23  1  0.499975  0.187496  0.500057  1
  O  O24  1  0.499995  0.315437  0.987263  1
  O  O25  1  0.500006  0.315442  0.489303  1
  O  O26  1  0.500039  0.444920  0.974565  1
  O  O27  1  0.499910  0.444914  0.466136  1
  O  O28  1  0.499998  0.565395  0.987678  1
  O  O29  1  0.499967  0.565391  0.489113  1
  O  O30  1  0.500000  0.687493  0.500009  1
  O  O31  1  0.499991  0.687493  0.000035  1
  O  O32  1  0.500010  0.809599  0.012306  1
  O  O33  1  0.500008  0.809601  0.510899  1
  O  O34  1  0.500056  0.930103  0.025376  1
  O  O35  1  0.500043  0.930095  0.533884  1
  O  O36  1  0.000005  0.991721  0.533184  1
  O  O37  1  0.999994  0.383294  0.466856  1
  O  O38  1  0.999999  0.507009  0.471938  1
  O  O39  1  0.000004  0.749851  0.500609  1
