# generated using pymatgen
data_Mn2In(CO)9
_symmetry_space_group_name_H-M   'P 1'
_cell_length_a   13.84613054
_cell_length_b   13.84612994
_cell_length_c   17.40717807
_cell_angle_alpha   113.43530036
_cell_angle_beta   113.43529927
_cell_angle_gamma   90.00000212
_symmetry_Int_Tables_number   1
_chemical_formula_structural   Mn2In(CO)9
_chemical_formula_sum   'Mn16 In8 C72 O72'
_cell_volume   2759.31689221
_cell_formula_units_Z   8
loop_
 _symmetry_equiv_pos_site_id
 _symmetry_equiv_pos_as_xyz
  1  'x, y, z'
loop_
 _atom_site_type_symbol
 _atom_site_label
 _atom_site_symmetry_multiplicity
 _atom_site_fract_x
 _atom_site_fract_y
 _atom_site_fract_z
 _atom_site_occupancy
  Mn  Mn0  1  0.830044  0.150597  0.443800  1
  Mn  Mn1  1  0.293203  0.330045  0.943800  1
  Mn  Mn2  1  0.169956  0.849403  0.556200  1
  Mn  Mn3  1  0.778651  0.528651  0.557301  1
  Mn  Mn4  1  0.971349  0.721349  0.942699  1
  Mn  Mn5  1  0.664554  0.414554  0.329107  1
  Mn  Mn6  1  0.221349  0.471349  0.442699  1
  Mn  Mn7  1  0.085446  0.835446  0.170893  1
  Mn  Mn8  1  0.028651  0.278651  0.057301  1
  Mn  Mn9  1  0.335446  0.585446  0.670893  1
  Mn  Mn10  1  0.386244  0.206797  0.556200  1
  Mn  Mn11  1  0.706797  0.669956  0.056200  1
  Mn  Mn12  1  0.914554  0.164554  0.829107  1
  Mn  Mn13  1  0.349403  0.886244  0.056200  1
  Mn  Mn14  1  0.613756  0.793203  0.443800  1
  Mn  Mn15  1  0.650597  0.113756  0.943800  1
  In  In16  1  0.335764  0.390281  0.556777  1
  In  In17  1  0.890281  0.721013  0.056777  1
  In  In18  1  0.833504  0.164236  0.943223  1
  In  In19  1  0.778987  0.333504  0.443223  1
  In  In20  1  0.166496  0.835764  0.056777  1
  In  In21  1  0.221013  0.666496  0.556777  1
  In  In22  1  0.109719  0.278987  0.943223  1
  In  In23  1  0.664236  0.609719  0.443223  1
  C  C24  1  0.840967  0.638453  0.858920  1
  C  C25  1  0.523626  0.085159  0.945646  1
  C  C26  1  0.896831  0.581605  0.551074  1
  C  C27  1  0.212761  0.374521  0.853060  1
  C  C28  1  0.577980  0.639513  0.054354  1
  C  C29  1  0.787239  0.625479  0.146940  1
  C  C30  1  0.982047  0.279533  0.141080  1
  C  C31  1  0.591103  0.159428  0.851115  1
  C  C32  1  0.138453  0.517953  0.358920  1
  C  C33  1  0.030531  0.603169  0.948926  1
  C  C34  1  0.406420  0.534859  0.754036  1
  C  C35  1  0.691687  0.091103  0.351115  1
  C  C36  1  0.861547  0.482047  0.641080  1
  C  C37  1  0.246335  0.153648  0.464723  1
  C  C38  1  0.034859  0.847616  0.254036  1
  C  C39  1  0.346352  0.281612  0.035277  1
  C  C40  1  0.521461  0.287239  0.646940  1
  C  C41  1  0.653648  0.718388  0.964723  1
  C  C42  1  0.695591  0.533533  0.966985  1
  C  C43  1  0.408897  0.840572  0.148885  1
  C  C44  1  0.271394  0.933451  0.966985  1
  C  C45  1  0.103169  0.418395  0.448926  1
  C  C46  1  0.159033  0.361547  0.141080  1
  C  C47  1  0.874521  0.140300  0.353060  1
  C  C48  1  0.433451  0.195591  0.466985  1
  C  C49  1  0.640300  0.978539  0.853060  1
  C  C50  1  0.033533  0.771394  0.466985  1
  C  C51  1  0.969469  0.396831  0.051074  1
  C  C52  1  0.652384  0.280822  0.245964  1
  C  C53  1  0.566549  0.804409  0.533015  1
  C  C54  1  0.125479  0.859700  0.646940  1
  C  C55  1  0.460103  0.626067  0.665778  1
  C  C56  1  0.918395  0.845756  0.948926  1
  C  C57  1  0.422020  0.360487  0.945646  1
  C  C58  1  0.218388  0.811075  0.464723  1
  C  C59  1  0.739988  0.808313  0.148885  1
  C  C60  1  0.860487  0.023626  0.445646  1
  C  C61  1  0.728606  0.066548  0.033015  1
  C  C62  1  0.308313  0.908897  0.648885  1
  C  C63  1  0.794325  0.460289  0.334222  1
  C  C64  1  0.873933  0.294325  0.834222  1
  C  C65  1  0.779533  0.659033  0.641080  1
  C  C66  1  0.539897  0.373933  0.334222  1
  C  C67  1  0.965141  0.152384  0.745964  1
  C  C68  1  0.220467  0.340967  0.358920  1
  C  C69  1  0.345756  0.530531  0.448926  1
  C  C70  1  0.585159  0.922020  0.445646  1
  C  C71  1  0.260012  0.191687  0.851115  1
  C  C72  1  0.414841  0.077980  0.554354  1
  C  C73  1  0.966467  0.228606  0.533015  1
  C  C74  1  0.311075  0.746335  0.964723  1
  C  C75  1  0.205675  0.539711  0.665778  1
  C  C76  1  0.126067  0.705675  0.165778  1
  C  C77  1  0.960289  0.039897  0.834222  1
  C  C78  1  0.139513  0.976374  0.554354  1
  C  C79  1  0.081605  0.154244  0.051074  1
  C  C80  1  0.688925  0.253665  0.035277  1
  C  C81  1  0.340572  0.239988  0.648885  1
  C  C82  1  0.359700  0.021461  0.146940  1
  C  C83  1  0.347616  0.719178  0.754036  1
  C  C84  1  0.304409  0.466467  0.033015  1
  C  C85  1  0.753665  0.846352  0.535277  1
  C  C86  1  0.593580  0.465141  0.245964  1
  C  C87  1  0.478539  0.712761  0.353060  1
  C  C88  1  0.781612  0.188925  0.535277  1
  C  C89  1  0.780822  0.093580  0.745964  1
  C  C90  1  0.039711  0.960103  0.165778  1
  C  C91  1  0.017953  0.720467  0.858920  1
  C  C92  1  0.659428  0.760012  0.351115  1
  C  C93  1  0.476374  0.914841  0.054354  1
  C  C94  1  0.219177  0.906420  0.254036  1
  C  C95  1  0.654244  0.469469  0.551074  1
  O  O96  1  0.957614  0.284322  0.199353  1
  O  O97  1  0.933568  0.473461  0.052101  1
  O  O98  1  0.066432  0.526539  0.947899  1
  O  O99  1  0.915030  0.457614  0.699353  1
  O  O100  1  0.122449  0.058267  0.553688  1
  O  O101  1  0.304573  0.952632  0.313273  1
  O  O102  1  0.881467  0.921360  0.947899  1
  O  O103  1  0.784322  0.741739  0.699353  1
  O  O104  1  0.215678  0.258261  0.300647  1
  O  O105  1  0.504579  0.377551  0.946312  1
  O  O106  1  0.314502  0.260421  0.708430  1
  O  O107  1  0.096318  0.866616  0.702445  1
  O  O108  1  0.247516  0.786996  0.406685  1
  O  O109  1  0.760421  0.893928  0.208430  1
  O  O110  1  0.540429  0.653726  0.667276  1
  O  O111  1  0.695427  0.047368  0.686727  1
  O  O112  1  0.752484  0.213004  0.593315  1
  O  O113  1  0.393873  0.664170  0.297555  1
  O  O114  1  0.639359  0.195427  0.186727  1
  O  O115  1  0.973461  0.618533  0.552101  1
  O  O116  1  0.687858  0.447270  0.913458  1
  O  O117  1  0.835830  0.596318  0.202445  1
  O  O118  1  0.421360  0.566432  0.447899  1
  O  O119  1  0.225601  0.966188  0.913458  1
  O  O120  1  0.533812  0.812142  0.586542  1
  O  O121  1  0.619689  0.747516  0.906685  1
  O  O122  1  0.026539  0.381467  0.447899  1
  O  O123  1  0.164170  0.403682  0.797555  1
  O  O124  1  0.366616  0.106127  0.202445  1
  O  O125  1  0.758261  0.584970  0.800647  1
  O  O126  1  0.042386  0.715678  0.800647  1
  O  O127  1  0.441733  0.068761  0.946312  1
  O  O128  1  0.360641  0.804573  0.813273  1
  O  O129  1  0.846274  0.373153  0.832724  1
  O  O130  1  0.713004  0.340832  0.093315  1
  O  O131  1  0.159168  0.119689  0.406685  1
  O  O132  1  0.393928  0.948008  0.708430  1
  O  O133  1  0.877551  0.941733  0.446312  1
  O  O134  1  0.153726  0.626847  0.167276  1
  O  O135  1  0.551992  0.185498  0.791570  1
  O  O136  1  0.241739  0.415030  0.199353  1
  O  O137  1  0.286996  0.659168  0.906685  1
  O  O138  1  0.431239  0.995421  0.553688  1
  O  O139  1  0.547368  0.491300  0.186727  1
  O  O140  1  0.466188  0.187858  0.413458  1
  O  O141  1  0.052730  0.274399  0.586542  1
  O  O142  1  0.312142  0.552730  0.086542  1
  O  O143  1  0.873153  0.486450  0.332724  1
  O  O144  1  0.118533  0.078640  0.052101  1
  O  O145  1  0.633384  0.893873  0.797555  1
  O  O146  1  0.903682  0.133384  0.297555  1
  O  O147  1  0.495421  0.622449  0.053688  1
  O  O148  1  0.578640  0.433568  0.552101  1
  O  O149  1  0.991300  0.139359  0.686727  1
  O  O150  1  0.774399  0.033812  0.086542  1
  O  O151  1  0.840832  0.880311  0.593315  1
  O  O152  1  0.606127  0.335830  0.702445  1
  O  O153  1  0.986450  0.959571  0.832724  1
  O  O154  1  0.239579  0.106072  0.791570  1
  O  O155  1  0.558267  0.931239  0.053688  1
  O  O156  1  0.126847  0.513550  0.667276  1
  O  O157  1  0.008700  0.860641  0.313273  1
  O  O158  1  0.452632  0.508700  0.813273  1
  O  O159  1  0.459571  0.346274  0.332724  1
  O  O160  1  0.013550  0.040429  0.167276  1
  O  O161  1  0.448008  0.814502  0.208430  1
  O  O162  1  0.084970  0.542386  0.300647  1
  O  O163  1  0.685498  0.739579  0.291570  1
  O  O164  1  0.947270  0.725601  0.413458  1
  O  O165  1  0.380311  0.252484  0.093315  1
  O  O166  1  0.568761  0.004579  0.446312  1
  O  O167  1  0.606072  0.051992  0.291570  1
