# generated using pymatgen
data_BaWO4
_symmetry_space_group_name_H-M   'P 1'
_cell_length_a   5.90283448
_cell_length_b   7.84108208
_cell_length_c   8.39408584
_cell_angle_alpha   104.75252800
_cell_angle_beta   90.00000000
_cell_angle_gamma   90.00000000
_symmetry_Int_Tables_number   1
_chemical_formula_structural   BaWO4
_chemical_formula_sum   'Ba4 W4 O16'
_cell_volume   375.70940967
_cell_formula_units_Z   4
loop_
 _symmetry_equiv_pos_site_id
 _symmetry_equiv_pos_as_xyz
  1  'x, y, z'
loop_
 _atom_site_type_symbol
 _atom_site_label
 _atom_site_symmetry_multiplicity
 _atom_site_fract_x
 _atom_site_fract_y
 _atom_site_fract_z
 _atom_site_occupancy
  Ba  Ba0  1  0.750010  0.323038  0.589114  1
  Ba  Ba1  1  0.250010  0.676962  0.910886  1
  Ba  Ba2  1  0.249990  0.676962  0.410886  1
  Ba  Ba3  1  0.749990  0.323038  0.089114  1
  W  W4  1  0.250080  0.177338  0.323499  1
  W  W5  1  0.749920  0.822662  0.676501  1
  W  W6  1  0.249920  0.177338  0.823499  1
  W  W7  1  0.750080  0.822662  0.176501  1
  O  O8  1  0.528516  0.648837  0.658312  1
  O  O9  1  0.471484  0.351163  0.341688  1
  O  O10  1  0.971641  0.649110  0.658308  1
  O  O11  1  0.471641  0.350890  0.841692  1
  O  O12  1  0.750069  0.836983  0.959588  1
  O  O13  1  0.028516  0.351163  0.841688  1
  O  O14  1  0.971484  0.648837  0.158312  1
  O  O15  1  0.500501  0.000262  0.250070  1
  O  O16  1  0.028359  0.350890  0.341692  1
  O  O17  1  0.528359  0.649110  0.158308  1
  O  O18  1  0.749931  0.836983  0.459588  1
  O  O19  1  0.249931  0.163017  0.040412  1
  O  O20  1  0.250069  0.163017  0.540412  1
  O  O21  1  0.000501  0.999738  0.249930  1
  O  O22  1  0.499499  0.999738  0.749930  1
  O  O23  1  0.999499  0.000262  0.750070  1
