# generated using pymatgen
data_Na4Al11Si13Ag7O48
_symmetry_space_group_name_H-M   'P 1'
_cell_length_a   12.79279265
_cell_length_b   12.45522895
_cell_length_c   12.08672558
_cell_angle_alpha   89.95815585
_cell_angle_beta   88.74338402
_cell_angle_gamma   90.17141941
_symmetry_Int_Tables_number   1
_chemical_formula_structural   Na4Al11Si13Ag7O48
_chemical_formula_sum   'Na4 Al11 Si13 Ag7 O48'
_cell_volume   1925.39214850
_cell_formula_units_Z   1
loop_
 _symmetry_equiv_pos_site_id
 _symmetry_equiv_pos_as_xyz
  1  'x, y, z'
loop_
 _atom_site_type_symbol
 _atom_site_label
 _atom_site_symmetry_multiplicity
 _atom_site_fract_x
 _atom_site_fract_y
 _atom_site_fract_z
 _atom_site_occupancy
  Na  Na0  1  0.605243  0.002552  0.555533  1
  Na  Na1  1  0.570849  0.394596  0.995949  1
  Na  Na2  1  0.574273  0.604311  0.020624  1
  Na  Na3  1  0.785192  0.801209  0.811088  1
  Al  Al4  1  0.366805  0.188857  0.001541  1
  Al  Al5  1  0.377290  0.001408  0.796359  1
  Al  Al6  1  0.370455  0.811298  0.996391  1
  Al  Al7  1  0.611279  0.997115  0.211170  1
  Al  Al8  1  0.614621  0.184224  0.005563  1
  Al  Al9  1  0.619735  0.000972  0.802323  1
  Al  Al10  1  0.617727  0.816074  0.005386  1
  Al  Al11  1  0.825961  0.002045  0.365184  1
  Al  Al12  1  0.818447  0.370533  0.004147  1
  Al  Al13  1  0.818456  0.628082  0.999604  1
  Al  Al14  1  0.839914  0.997611  0.642319  1
  Si  Si15  1  0.001004  0.184174  0.364694  1
  Si  Si16  1  0.999113  0.371653  0.187267  1
  Si  Si17  1  0.006883  0.371490  0.813401  1
  Si  Si18  1  0.999437  0.816129  0.365598  1
  Si  Si19  1  0.006302  0.627121  0.812073  1
  Si  Si20  1  0.005220  0.814025  0.631315  1
  Si  Si21  1  0.172135  0.001345  0.362639  1
  Si  Si22  1  0.178500  0.372411  0.998529  1
  Si  Si23  1  0.178055  0.626100  0.997671  1
  Si  Si24  1  0.178673  0.001249  0.622782  1
  Si  Si25  1  0.363872  0.001770  0.186763  1
  Si  Si26  1  0.004877  0.185433  0.631257  1
  Si  Si27  1  0.996801  0.626031  0.186875  1
  Ag  Ag28  1  0.204176  0.815444  0.807531  1
  Ag  Ag29  1  0.208150  0.188944  0.809005  1
  Ag  Ag30  1  0.200058  0.802091  0.187522  1
  Ag  Ag31  1  0.802164  0.175533  0.832277  1
  Ag  Ag32  1  0.799757  0.172389  0.173079  1
  Ag  Ag33  1  0.799422  0.827648  0.174945  1
  Ag  Ag34  1  0.768036  0.003872  0.006764  1
  O  O35  1  0.995288  0.210765  0.498848  1
  O  O36  1  0.016422  0.299461  0.699046  1
  O  O37  1  0.013714  0.499346  0.780726  1
  O  O38  1  0.020475  0.699811  0.698481  1
  O  O39  1  0.112505  0.113406  0.652129  1
  O  O40  1  0.104384  0.648624  0.110268  1
  O  O41  1  0.110088  0.658578  0.886812  1
  O  O42  1  0.109528  0.890688  0.654814  1
  O  O43  1  0.104002  0.108661  0.339456  1
  O  O44  1  0.101447  0.355281  0.105945  1
  O  O45  1  0.112777  0.341412  0.884212  1
  O  O46  1  0.105772  0.888925  0.334788  1
  O  O47  1  0.201778  0.997323  0.491711  1
  O  O48  1  0.210008  0.500132  0.990379  1
  O  O49  1  0.283730  0.000748  0.689437  1
  O  O50  1  0.278077  0.702660  0.004307  1
  O  O51  1  0.277947  0.996123  0.291662  1
  O  O52  1  0.280637  0.300378  0.001052  1
  O  O53  1  0.338304  0.106243  0.114603  1
  O  O54  1  0.349868  0.117348  0.876563  1
  O  O55  1  0.341173  0.889309  0.116975  1
  O  O56  1  0.347763  0.883922  0.875466  1
  O  O57  1  0.477859  0.000032  0.241926  1
  O  O58  1  0.492223  0.244255  0.009881  1
  O  O59  1  0.494615  0.754894  0.003411  1
  O  O60  1  0.501831  0.998345  0.734155  1
  O  O61  1  0.644861  0.106425  0.122000  1
  O  O62  1  0.642794  0.117306  0.881383  1
  O  O63  1  0.641718  0.880913  0.131335  1
  O  O64  1  0.653072  0.897712  0.894516  1
  O  O65  1  0.717314  0.991130  0.700764  1
  O  O66  1  0.710938  0.711867  0.992013  1
  O  O67  1  0.698757  0.000342  0.319488  1
  O  O68  1  0.709261  0.287928  0.003410  1
  O  O69  1  0.764552  0.499458  0.005338  1
  O  O70  1  0.830106  0.003856  0.504224  1
  O  O71  1  0.909117  0.116628  0.686901  1
  O  O72  1  0.895008  0.661820  0.118186  1
  O  O73  1  0.899185  0.656529  0.878935  1
  O  O74  1  0.904626  0.875728  0.682626  1
  O  O75  1  0.899695  0.119567  0.318938  1
  O  O76  1  0.893770  0.337381  0.123013  1
  O  O77  1  0.901597  0.343226  0.884526  1
  O  O78  1  0.898847  0.881780  0.322305  1
  O  O79  1  0.013466  0.298705  0.298944  1
  O  O80  1  0.993918  0.499688  0.222747  1
  O  O81  1  0.010724  0.702264  0.296964  1
  O  O82  1  0.000280  0.787744  0.498222  1
