# generated using pymatgen
data_BaCu(Si2O5)2
_symmetry_space_group_name_H-M   'P 1'
_cell_length_a   7.52183814
_cell_length_b   7.52183814
_cell_length_c   16.55382743
_cell_angle_alpha   90.00000000
_cell_angle_beta   90.00000000
_cell_angle_gamma   90.00000000
_symmetry_Int_Tables_number   1
_chemical_formula_structural   BaCu(Si2O5)2
_chemical_formula_sum   'Ba4 Si16 Cu4 O40'
_cell_volume   936.58325954
_cell_formula_units_Z   4
loop_
 _symmetry_equiv_pos_site_id
 _symmetry_equiv_pos_as_xyz
  1  'x, y, z'
loop_
 _atom_site_type_symbol
 _atom_site_label
 _atom_site_symmetry_multiplicity
 _atom_site_fract_x
 _atom_site_fract_y
 _atom_site_fract_z
 _atom_site_occupancy
  O  O0  1  0.026246  0.381151  0.591958  1
  O  O1  1  0.473754  0.118849  0.591958  1
  O  O2  1  0.881151  0.526246  0.908042  1
  O  O3  1  0.381151  0.473754  0.591958  1
  O  O4  1  0.118849  0.026246  0.591958  1
  O  O5  1  0.973754  0.881151  0.908042  1
  O  O6  1  0.526246  0.618849  0.908042  1
  O  O7  1  0.618849  0.973754  0.908042  1
  O  O8  1  0.973754  0.618849  0.408042  1
  O  O9  1  0.526246  0.881151  0.408042  1
  O  O10  1  0.118849  0.473754  0.091958  1
  O  O11  1  0.618849  0.526246  0.408042  1
  O  O12  1  0.881151  0.973754  0.408042  1
  O  O13  1  0.026246  0.118849  0.091958  1
  O  O14  1  0.473754  0.381151  0.091958  1
  O  O15  1  0.000473  0.279027  0.362980  1
  O  O16  1  0.381151  0.026246  0.091958  1
  O  O17  1  0.500473  0.779027  0.637020  1
  O  O18  1  0.220973  0.499527  0.862980  1
  O  O19  1  0.720973  0.500473  0.637020  1
  O  O20  1  0.779027  0.999527  0.637020  1
  O  O21  1  0.000473  0.220973  0.862980  1
  O  O22  1  0.499527  0.279027  0.862980  1
  O  O23  1  0.279027  0.000473  0.862980  1
  O  O24  1  0.472397  0.972397  0.250000  1
  O  O25  1  0.527603  0.472397  0.250000  1
  O  O26  1  0.972397  0.027603  0.250000  1
  O  O27  1  0.027603  0.527603  0.250000  1
  O  O28  1  0.527603  0.027603  0.750000  1
  O  O29  1  0.472397  0.527603  0.750000  1
  O  O30  1  0.027603  0.972397  0.750000  1
  O  O31  1  0.972397  0.472397  0.750000  1
  O  O32  1  0.720973  0.999527  0.137020  1
  O  O33  1  0.500473  0.720973  0.137020  1
  O  O34  1  0.999527  0.779027  0.137020  1
  O  O35  1  0.220973  0.000473  0.362980  1
  O  O36  1  0.279027  0.499527  0.362980  1
  O  O37  1  0.779027  0.500473  0.137020  1
  O  O38  1  0.499527  0.220973  0.362980  1
  O  O39  1  0.999527  0.720973  0.637020  1
  Si  Si40  1  0.936222  0.515482  0.655329  1
  Si  Si41  1  0.563778  0.984518  0.655329  1
  Si  Si42  1  0.015482  0.436222  0.844671  1
  Si  Si43  1  0.515482  0.563778  0.655329  1
  Si  Si44  1  0.984518  0.936222  0.655329  1
  Si  Si45  1  0.063778  0.015482  0.844671  1
  Si  Si46  1  0.436222  0.484518  0.844671  1
  Si  Si47  1  0.484518  0.063778  0.844671  1
  Si  Si48  1  0.063778  0.484518  0.344671  1
  Si  Si49  1  0.436222  0.015482  0.344671  1
  Si  Si50  1  0.984518  0.563778  0.155329  1
  Si  Si51  1  0.484518  0.436222  0.344671  1
  Si  Si52  1  0.015482  0.063778  0.344671  1
  Si  Si53  1  0.936222  0.984518  0.155329  1
  Si  Si54  1  0.563778  0.515482  0.155329  1
  Si  Si55  1  0.515482  0.936222  0.155329  1
  Cu  Cu56  1  0.250000  0.250000  0.097094  1
  Cu  Cu57  1  0.750000  0.750000  0.402906  1
  Cu  Cu58  1  0.750000  0.750000  0.902906  1
  Cu  Cu59  1  0.250000  0.250000  0.597094  1
  Ba  Ba60  1  0.250000  0.750000  0.000000  1
  Ba  Ba61  1  0.750000  0.250000  0.000000  1
  Ba  Ba62  1  0.750000  0.250000  0.500000  1
  Ba  Ba63  1  0.250000  0.750000  0.500000  1
