# generated using pymatgen
data_CeSnRu
_symmetry_space_group_name_H-M   'P 1'
_cell_length_a   4.84248364
_cell_length_b   6.31578552
_cell_length_c   10.01358737
_cell_angle_alpha   101.94211450
_cell_angle_beta   89.97632411
_cell_angle_gamma   112.61210920
_symmetry_Int_Tables_number   1
_chemical_formula_structural   CeSnRu
_chemical_formula_sum   'Ce4 Sn4 Ru4'
_cell_volume   275.53131247
_cell_formula_units_Z   4
loop_
 _symmetry_equiv_pos_site_id
 _symmetry_equiv_pos_as_xyz
  1  'x, y, z'
loop_
 _atom_site_type_symbol
 _atom_site_label
 _atom_site_symmetry_multiplicity
 _atom_site_fract_x
 _atom_site_fract_y
 _atom_site_fract_z
 _atom_site_occupancy
  Ce  Ce0  1  0.866197  0.738884  0.087396  1
  Ce  Ce1  1  0.128264  0.263261  0.909752  1
  Ce  Ce2  1  0.133733  0.273258  0.410780  1
  Ce  Ce3  1  0.862221  0.730108  0.586830  1
  Sn  Sn4  1  0.579779  0.164967  0.651791  1
  Sn  Sn5  1  0.586904  0.180335  0.149727  1
  Sn  Sn6  1  0.416111  0.838931  0.345736  1
  Sn  Sn7  1  0.408507  0.822724  0.847517  1
  Ru  Ru8  1  0.182934  0.370868  0.661961  1
  Ru  Ru9  1  0.806932  0.619971  0.828037  1
  Ru  Ru10  1  0.813110  0.632603  0.336449  1
  Ru  Ru11  1  0.188422  0.383496  0.170569  1
