# generated using pymatgen
data_CeBMoO6
_symmetry_space_group_name_H-M   'P 1'
_cell_length_a   4.17436903
_cell_length_b   10.32596008
_cell_length_c   11.93064175
_cell_angle_alpha   114.83461756
_cell_angle_beta   90.00000000
_cell_angle_gamma   90.00000000
_symmetry_Int_Tables_number   1
_chemical_formula_structural   CeBMoO6
_chemical_formula_sum   'Ce4 B4 Mo4 O24'
_cell_volume   466.70574817
_cell_formula_units_Z   4
loop_
 _symmetry_equiv_pos_site_id
 _symmetry_equiv_pos_as_xyz
  1  'x, y, z'
loop_
 _atom_site_type_symbol
 _atom_site_label
 _atom_site_symmetry_multiplicity
 _atom_site_fract_x
 _atom_site_fract_y
 _atom_site_fract_z
 _atom_site_occupancy
  Ce  Ce0  1  0.785403  0.166594  0.968203  1
  Ce  Ce1  1  0.214597  0.833406  0.031797  1
  Ce  Ce2  1  0.714597  0.666594  0.468203  1
  Ce  Ce3  1  0.285403  0.333406  0.531797  1
  B  B4  1  0.166227  0.694263  0.690622  1
  B  B5  1  0.666227  0.805737  0.809378  1
  B  B6  1  0.333773  0.194263  0.190622  1
  B  B7  1  0.833773  0.305737  0.309378  1
  Mo  Mo8  1  0.192799  0.035853  0.681204  1
  Mo  Mo9  1  0.807201  0.964147  0.318796  1
  Mo  Mo10  1  0.692799  0.464147  0.818796  1
  Mo  Mo11  1  0.307201  0.535853  0.181204  1
  O  O12  1  0.233390  0.652038  0.107438  1
  O  O13  1  0.224987  0.348381  0.084655  1
  O  O14  1  0.724987  0.151619  0.415345  1
  O  O15  1  0.222760  0.606649  0.350335  1
  O  O16  1  0.775013  0.651619  0.915345  1
  O  O17  1  0.340010  0.769197  0.799849  1
  O  O18  1  0.265398  0.464614  0.802170  1
  O  O19  1  0.159990  0.269197  0.299849  1
  O  O20  1  0.729831  0.411637  0.414396  1
  O  O21  1  0.777240  0.393351  0.649665  1
  O  O22  1  0.659990  0.230803  0.200151  1
  O  O23  1  0.275013  0.848381  0.584655  1
  O  O24  1  0.765398  0.035386  0.697830  1
  O  O25  1  0.270169  0.588363  0.585604  1
  O  O26  1  0.234602  0.964614  0.302170  1
  O  O27  1  0.229831  0.088363  0.085604  1
  O  O28  1  0.266610  0.152038  0.607438  1
  O  O29  1  0.766610  0.347962  0.892562  1
  O  O30  1  0.840010  0.730803  0.700151  1
  O  O31  1  0.770169  0.911637  0.914396  1
  O  O32  1  0.722760  0.893351  0.149665  1
  O  O33  1  0.734602  0.535386  0.197830  1
  O  O34  1  0.277240  0.106649  0.850335  1
  O  O35  1  0.733390  0.847962  0.392562  1
