# generated using pymatgen
data_Rb2CoH12(SeO7)2
_symmetry_space_group_name_H-M   'P 1'
_cell_length_a   6.45632183
_cell_length_b   9.37618057
_cell_length_c   12.73180713
_cell_angle_alpha   90.00000000
_cell_angle_beta   90.00000000
_cell_angle_gamma   104.38553542
_symmetry_Int_Tables_number   1
_chemical_formula_structural   Rb2CoH12(SeO7)2
_chemical_formula_sum   'Rb4 Co2 H24 Se4 O28'
_cell_volume   746.56260872
_cell_formula_units_Z   2
loop_
 _symmetry_equiv_pos_site_id
 _symmetry_equiv_pos_as_xyz
  1  'x, y, z'
loop_
 _atom_site_type_symbol
 _atom_site_label
 _atom_site_symmetry_multiplicity
 _atom_site_fract_x
 _atom_site_fract_y
 _atom_site_fract_z
 _atom_site_occupancy
  Co  Co0  1  0.000000  0.000000  0.000000  1
  Co  Co1  1  0.000000  0.500000  0.500000  1
  Se  Se2  1  0.732238  0.400854  0.140634  1
  Se  Se3  1  0.267762  0.099146  0.640634  1
  Se  Se4  1  0.267762  0.599146  0.859366  1
  Se  Se5  1  0.732238  0.900854  0.359366  1
  O  O6  1  0.583222  0.412955  0.246659  1
  O  O7  1  0.416778  0.087045  0.746659  1
  O  O8  1  0.416778  0.587045  0.753341  1
  O  O9  1  0.583222  0.912955  0.253341  1
  O  O10  1  0.769970  0.554763  0.069426  1
  O  O11  1  0.230030  0.945237  0.569426  1
  O  O12  1  0.230030  0.445237  0.930574  1
  O  O13  1  0.769970  0.054763  0.430574  1
  O  O14  1  0.596129  0.260134  0.066172  1
  O  O15  1  0.403871  0.239866  0.566172  1
  O  O16  1  0.403871  0.739866  0.933828  1
  O  O17  1  0.596129  0.760134  0.433828  1
  O  O18  1  0.967638  0.370408  0.179032  1
  O  O19  1  0.032362  0.129592  0.679032  1
  O  O20  1  0.032362  0.629592  0.820968  1
  O  O21  1  0.967638  0.870408  0.320968  1
  O  O22  1  0.160126  0.154742  0.108827  1
  O  O23  1  0.839874  0.345258  0.608827  1
  O  O24  1  0.839874  0.845258  0.891173  1
  O  O25  1  0.160126  0.654742  0.391173  1
  O  O26  1  0.027982  0.826312  0.110219  1
  O  O27  1  0.972018  0.673688  0.610219  1
  O  O28  1  0.972018  0.173688  0.889781  1
  O  O29  1  0.027982  0.326312  0.389781  1
  O  O30  1  0.282613  0.995528  0.939794  1
  O  O31  1  0.717387  0.504472  0.439794  1
  O  O32  1  0.717387  0.004472  0.060206  1
  O  O33  1  0.282613  0.495528  0.560206  1
  Rb  Rb34  1  0.343572  0.131431  0.346051  1
  Rb  Rb35  1  0.656428  0.368569  0.846051  1
  Rb  Rb36  1  0.656428  0.868569  0.653949  1
  Rb  Rb37  1  0.343572  0.631431  0.153949  1
  H  H38  1  0.310710  0.199435  0.087677  1
  H  H39  1  0.689290  0.300565  0.587677  1
  H  H40  1  0.689290  0.800565  0.912323  1
  H  H41  1  0.310710  0.699435  0.412323  1
  H  H42  1  0.089700  0.235500  0.124177  1
  H  H43  1  0.910300  0.264500  0.624177  1
  H  H44  1  0.910300  0.764500  0.875823  1
  H  H45  1  0.089700  0.735500  0.375823  1
  H  H46  1  0.927108  0.728841  0.096329  1
  H  H47  1  0.072892  0.771159  0.596329  1
  H  H48  1  0.072892  0.271159  0.903671  1
  H  H49  1  0.927108  0.228841  0.403671  1
  H  H50  1  0.001007  0.850253  0.184372  1
  H  H51  1  0.998993  0.649747  0.684372  1
  H  H52  1  0.998993  0.149747  0.815628  1
  H  H53  1  0.001007  0.350253  0.315628  1
  H  H54  1  0.322081  0.899396  0.944914  1
  H  H55  1  0.677919  0.600604  0.444914  1
  H  H56  1  0.677919  0.100604  0.055086  1
  H  H57  1  0.322081  0.399396  0.555086  1
  H  H58  1  0.311829  0.027510  0.865252  1
  H  H59  1  0.688171  0.472490  0.365252  1
  H  H60  1  0.688171  0.972490  0.134748  1
  H  H61  1  0.311829  0.527510  0.634748  1
