# generated using pymatgen
data_SiC4(SN)4
_symmetry_space_group_name_H-M   'P 1'
_cell_length_a   14.28040533
_cell_length_b   14.28040557
_cell_length_c   14.28040544
_cell_angle_alpha   97.53136071
_cell_angle_beta   115.75129302
_cell_angle_gamma   115.75129318
_symmetry_Int_Tables_number   1
_chemical_formula_structural   SiC4(SN)4
_chemical_formula_sum   'Si8 C32 S32 N32'
_cell_volume   2171.14254053
_cell_formula_units_Z   8
loop_
 _symmetry_equiv_pos_site_id
 _symmetry_equiv_pos_as_xyz
  1  'x, y, z'
loop_
 _atom_site_type_symbol
 _atom_site_label
 _atom_site_symmetry_multiplicity
 _atom_site_fract_x
 _atom_site_fract_y
 _atom_site_fract_z
 _atom_site_occupancy
  Si  Si0  1  0.963779  0.602139  0.744966  1
  Si  Si1  1  0.642827  0.861639  0.897861  1
  Si  Si2  1  0.536221  0.281187  0.638361  1
  Si  Si3  1  0.036221  0.397861  0.255034  1
  Si  Si4  1  0.357173  0.138361  0.102139  1
  Si  Si5  1  0.857173  0.755034  0.218813  1
  Si  Si6  1  0.142827  0.244966  0.781187  1
  Si  Si7  1  0.463779  0.718813  0.361639  1
  C  C8  1  0.173839  0.756272  0.973992  1
  C  C9  1  0.645659  0.772962  0.160480  1
  C  C10  1  0.217721  0.473992  0.800153  1
  C  C11  1  0.612482  0.339520  0.485178  1
  C  C12  1  0.387518  0.660480  0.514822  1
  C  C13  1  0.112482  0.627304  0.272962  1
  C  C14  1  0.752390  0.441174  0.863444  1
  C  C15  1  0.530401  0.947074  0.384280  1
  C  C16  1  0.247610  0.558826  0.136556  1
  C  C17  1  0.030401  0.646121  0.583327  1
  C  C18  1  0.422270  0.363444  0.111055  1
  C  C19  1  0.062794  0.916673  0.447074  1
  C  C20  1  0.577730  0.636556  0.888945  1
  C  C21  1  0.437206  0.884280  0.853879  1
  C  C22  1  0.826161  0.243728  0.026008  1
  C  C23  1  0.469599  0.052926  0.615720  1
  C  C24  1  0.922270  0.811215  0.058826  1
  C  C25  1  0.887518  0.372696  0.727038  1
  C  C26  1  0.354341  0.227038  0.839520  1
  C  C27  1  0.717721  0.917568  0.743728  1
  C  C28  1  0.937206  0.083327  0.552926  1
  C  C29  1  0.747610  0.611055  0.688785  1
  C  C30  1  0.562794  0.115720  0.146121  1
  C  C31  1  0.969599  0.353879  0.416673  1
  C  C32  1  0.077730  0.188785  0.941174  1
  C  C33  1  0.782279  0.526008  0.199847  1
  C  C34  1  0.252390  0.388945  0.311215  1
  C  C35  1  0.145659  0.985178  0.872696  1
  C  C36  1  0.282279  0.082432  0.256272  1
  C  C37  1  0.854341  0.014822  0.127304  1
  C  C38  1  0.673839  0.699847  0.417568  1
  C  C39  1  0.326161  0.300153  0.582432  1
  S  S40  1  0.433412  0.929404  0.602016  1
  S  S41  1  0.737104  0.401520  0.189940  1
  S  S42  1  0.468556  0.216065  0.876444  1
  S  S43  1  0.339621  0.623556  0.592112  1
  S  S44  1  0.788420  0.689940  0.452835  1
  S  S45  1  0.262896  0.598480  0.810060  1
  S  S46  1  0.827388  0.995992  0.429404  1
  S  S47  1  0.160379  0.752491  0.283935  1
  S  S48  1  0.968556  0.092112  0.252491  1
  S  S49  1  0.955141  0.845273  0.972168  1
  S  S50  1  0.762896  0.952835  0.664416  1
  S  S51  1  0.044859  0.154727  0.027832  1
  S  S52  1  0.531444  0.783935  0.123556  1
  S  S53  1  0.455141  0.482973  0.109868  1
  S  S54  1  0.672612  0.102016  0.168604  1
  S  S55  1  0.544859  0.517027  0.890132  1
  S  S56  1  0.172612  0.004008  0.570596  1
  S  S57  1  0.373105  0.390132  0.345273  1
  S  S58  1  0.211580  0.310060  0.547165  1
  S  S59  1  0.327388  0.897984  0.831396  1
  S  S60  1  0.237104  0.047165  0.335584  1
  S  S61  1  0.031444  0.907888  0.747509  1
  S  S62  1  0.566588  0.070596  0.397984  1
  S  S63  1  0.626895  0.609868  0.654727  1
  S  S64  1  0.873105  0.527832  0.982973  1
  S  S65  1  0.126895  0.472168  0.017027  1
  S  S66  1  0.288420  0.835584  0.098480  1
  S  S67  1  0.839621  0.247509  0.716065  1
  S  S68  1  0.933412  0.331396  0.504008  1
  S  S69  1  0.660379  0.376444  0.407888  1
  S  S70  1  0.066588  0.668604  0.495992  1
  S  S71  1  0.711580  0.164416  0.901520  1
  N  N72  1  0.575601  0.310860  0.544445  1
  N  N73  1  0.159976  0.388965  0.284835  1
  N  N74  1  0.424399  0.689140  0.455555  1
  N  N75  1  0.318347  0.110665  0.196400  1
  N  N76  1  0.659976  0.375141  0.771011  1
  N  N77  1  0.585736  0.707682  0.389335  1
  N  N78  1  0.681653  0.889335  0.803600  1
  N  N79  1  0.497343  0.148375  0.627588  1
  N  N80  1  0.075601  0.531156  0.264741  1
  N  N81  1  0.085736  0.696400  0.878054  1
  N  N82  1  0.997343  0.369754  0.348968  1
  N  N83  1  0.340024  0.624859  0.228989  1
  N  N84  1  0.520787  0.872412  0.869754  1
  N  N85  1  0.414264  0.292318  0.610665  1
  N  N86  1  0.020787  0.151032  0.648375  1
  N  N87  1  0.479213  0.127588  0.130246  1
  N  N88  1  0.266415  0.235259  0.810860  1
  N  N89  1  0.233585  0.044445  0.968844  1
  N  N90  1  0.766415  0.955555  0.031156  1
  N  N91  1  0.395870  0.271011  0.111035  1
  N  N92  1  0.895870  0.784835  0.124859  1
  N  N93  1  0.818347  0.621946  0.207682  1
  N  N94  1  0.502657  0.851625  0.372412  1
  N  N95  1  0.840024  0.611035  0.715165  1
  N  N96  1  0.181653  0.378054  0.792318  1
  N  N97  1  0.924399  0.468844  0.735259  1
  N  N98  1  0.104130  0.215165  0.875141  1
  N  N99  1  0.733585  0.764741  0.189140  1
  N  N100  1  0.002657  0.630246  0.651032  1
  N  N101  1  0.604130  0.728989  0.888965  1
  N  N102  1  0.979213  0.848968  0.351625  1
  N  N103  1  0.914264  0.303600  0.121946  1
