# generated using pymatgen
data_V(MoS2)2
_symmetry_space_group_name_H-M   'P 1'
_cell_length_a   6.79900603
_cell_length_b   18.20405047
_cell_length_c   9.96886895
_cell_angle_alpha   78.30401204
_cell_angle_beta   67.17859192
_cell_angle_gamma   57.91876642
_symmetry_Int_Tables_number   1
_chemical_formula_structural   V(MoS2)2
_chemical_formula_sum   'V8 Mo16 S32'
_cell_volume   963.58235000
_cell_formula_units_Z   8
loop_
 _symmetry_equiv_pos_site_id
 _symmetry_equiv_pos_as_xyz
  1  'x, y, z'
loop_
 _atom_site_type_symbol
 _atom_site_label
 _atom_site_symmetry_multiplicity
 _atom_site_fract_x
 _atom_site_fract_y
 _atom_site_fract_z
 _atom_site_occupancy
  V  V0  1  0.294936  0.413132  0.042104  1
  V  V1  1  0.419309  0.083205  0.964659  1
  V  V2  1  0.688200  0.302432  0.179764  1
  V  V3  1  0.814430  0.913557  0.494544  1
  V  V4  1  0.811425  0.094057  0.955331  1
  V  V5  1  0.290213  0.633770  0.912166  1
  V  V6  1  0.636153  0.822557  0.220632  1
  V  V7  1  0.793496  0.604578  0.973692  1
  Mo  Mo8  1  0.126063  0.056943  0.318854  1
  Mo  Mo9  1  0.926518  0.370509  0.455766  1
  Mo  Mo10  1  0.353590  0.190946  0.626276  1
  Mo  Mo11  1  0.034381  0.558460  0.360133  1
  Mo  Mo12  1  0.667931  0.151274  0.238262  1
  Mo  Mo13  1  0.287394  0.309248  0.831637  1
  Mo  Mo14  1  0.382578  0.927350  0.057379  1
  Mo  Mo15  1  0.825951  0.421984  0.034244  1
  Mo  Mo16  1  0.399365  0.683895  0.608434  1
  Mo  Mo17  1  -0.000949  0.176950  0.543726  1
  Mo  Mo18  1  0.676691  0.531850  0.290442  1
  Mo  Mo19  1  0.873000  0.302690  0.847819  1
  Mo  Mo20  1  0.323641  0.790270  0.826168  1
  Mo  Mo21  1  0.765868  0.935393  0.053496  1
  Mo  Mo22  1  0.015572  0.668088  0.524303  1
  Mo  Mo23  1  0.923314  0.784669  0.824920  1
  S  S24  1  0.069499  0.073334  0.080233  1
  S  S25  1  0.097221  0.238564  0.017608  1
  S  S26  1  0.069478  0.149841  0.774812  1
  S  S27  1  0.249043  0.024912  0.521079  1
  S  S28  1  0.262605  0.225452  0.401910  1
  S  S29  1  0.022788  0.563296  0.123521  1
  S  S30  1  0.510941  0.073018  0.171290  1
  S  S31  1  0.119721  0.461694  0.858121  1
  S  S32  1  0.134359  0.342495  0.642637  1
  S  S33  1  0.260991  0.400464  0.293409  1
  S  S34  1  0.037990  0.759941  0.036964  1
  S  S35  1  0.560078  0.259313  0.039264  1
  S  S36  1  0.094790  0.640913  0.758586  1
  S  S37  1  0.607386  0.152991  0.772902  1
  S  S38  1  0.294898  0.518571  0.490622  1
  S  S39  1  0.717179  0.060367  0.462139  1
  S  S40  1  0.343948  0.687556  0.374560  1
  S  S41  1  0.813514  0.209476  0.360175  1
  S  S42  1  0.490808  0.569687  0.106368  1
  S  S43  1  0.136091  0.943616  0.896406  1
  S  S44  1  0.572354  0.456588  0.890922  1
  S  S45  1  0.162171  0.836285  0.630429  1
  S  S46  1  0.672486  0.318331  0.664500  1
  S  S47  1  0.203331  0.908342  0.313420  1
  S  S48  1  0.768938  0.383917  0.281169  1
  S  S49  1  0.560160  0.769610  0.008206  1
  S  S50  1  0.631540  0.643428  0.766567  1
  S  S51  1  0.736206  0.523658  0.516375  1
  S  S52  1  0.731146  0.709897  0.406034  1
  S  S53  1  0.649467  0.957832  0.830197  1
  S  S54  1  0.699721  0.811289  0.652956  1
  S  S55  1  0.794081  0.883515  0.291864  1
