# generated using pymatgen
data_SiO2
_symmetry_space_group_name_H-M   'P 1'
_cell_length_a   8.54330698
_cell_length_b   12.60387083
_cell_length_c   15.83677417
_cell_angle_alpha   105.32705529
_cell_angle_beta   105.64820581
_cell_angle_gamma   89.99999727
_symmetry_Int_Tables_number   1
_chemical_formula_structural   SiO2
_chemical_formula_sum   'Si28 O56'
_cell_volume   1579.00089463
_cell_formula_units_Z   28
loop_
 _symmetry_equiv_pos_site_id
 _symmetry_equiv_pos_as_xyz
  1  'x, y, z'
loop_
 _atom_site_type_symbol
 _atom_site_label
 _atom_site_symmetry_multiplicity
 _atom_site_fract_x
 _atom_site_fract_y
 _atom_site_fract_z
 _atom_site_occupancy
  Si  Si0  1  0.975829  0.236929  0.580882  1
  Si  Si1  1  0.518519  0.526409  0.408245  1
  Si  Si2  1  0.626643  0.874630  0.617803  1
  Si  Si3  1  0.864934  0.928590  0.103253  1
  Si  Si4  1  0.110274  0.473591  0.591755  1
  Si  Si5  1  0.024171  0.763071  0.419118  1
  Si  Si6  1  0.174475  0.108017  0.718219  1
  Si  Si7  1  0.640059  0.840276  0.906455  1
  Si  Si8  1  0.266396  0.840276  0.906455  1
  Si  Si9  1  0.008839  0.125370  0.382196  1
  Si  Si10  1  0.238319  0.928590  0.103253  1
  Si  Si11  1  0.394947  0.763071  0.419118  1
  Si  Si12  1  0.605053  0.236929  0.580882  1
  Si  Si13  1  0.046666  0.689154  0.724551  1
  Si  Si14  1  0.373357  0.125370  0.382196  1
  Si  Si15  1  0.991161  0.874630  0.617803  1
  Si  Si16  1  0.761681  0.071410  0.896747  1
  Si  Si17  1  0.733604  0.159724  0.093545  1
  Si  Si18  1  0.889726  0.526409  0.408245  1
  Si  Si19  1  0.543744  0.108017  0.718219  1
  Si  Si20  1  0.359941  0.159724  0.093545  1
  Si  Si21  1  0.322114  0.310846  0.275449  1
  Si  Si22  1  0.953334  0.310846  0.275449  1
  Si  Si23  1  0.677886  0.689154  0.724551  1
  Si  Si24  1  0.456256  0.891983  0.281781  1
  Si  Si25  1  0.481481  0.473591  0.591755  1
  Si  Si26  1  0.825525  0.891983  0.281781  1
  Si  Si27  1  0.135066  0.071410  0.896747  1
  O  O28  1  0.341094  0.045135  0.120694  1
  O  O29  1  0.761938  0.153940  0.994991  1
  O  O30  1  0.124547  0.979696  0.659475  1
  O  O31  1  0.780195  0.216028  0.560389  1
  O  O32  1  0.633230  0.863658  0.266459  1
  O  O33  1  0.766947  0.846060  0.005009  1
  O  O34  1  0.465072  0.020304  0.340525  1
  O  O35  1  0.320600  0.262411  0.169406  1
  O  O36  1  0.382805  0.219378  0.330421  1
  O  O37  1  0.779600  0.045135  0.120694  1
  O  O38  1  0.553047  0.579533  0.679290  1
  O  O39  1  0.538921  0.825857  0.509810  1
  O  O40  1  0.403678  0.811143  0.335171  1
  O  O41  1  0.417742  0.631652  0.392138  1
  O  O42  1  0.290293  0.445784  0.580587  1
  O  O43  1  0.138982  0.128882  0.817161  1
  O  O44  1  0.859577  0.657033  0.719154  1
  O  O45  1  0.140423  0.342967  0.280846  1
  O  O46  1  0.875453  0.020304  0.340525  1
  O  O47  1  0.151194  0.737589  0.830594  1
  O  O48  1  0.052313  0.953232  0.104625  1
  O  O49  1  0.679400  0.737589  0.830594  1
  O  O50  1  0.596322  0.188857  0.664829  1
  O  O51  1  0.461079  0.174143  0.490190  1
  O  O52  1  0.025604  0.368348  0.607862  1
  O  O53  1  0.233053  0.153940  0.994991  1
  O  O54  1  0.816406  0.913940  0.632812  1
  O  O55  1  0.220400  0.954865  0.879306  1
  O  O56  1  0.947687  0.046768  0.895375  1
  O  O57  1  0.709707  0.554216  0.419413  1
  O  O58  1  0.974396  0.631652  0.392138  1
  O  O59  1  0.658906  0.954865  0.879306  1
  O  O60  1  0.219805  0.783972  0.439611  1
  O  O61  1  0.970889  0.825857  0.509810  1
  O  O62  1  0.000000  0.500000  0.500000  1
  O  O63  1  0.931492  0.811143  0.335171  1
  O  O64  1  0.366770  0.136342  0.733541  1
  O  O65  1  0.582258  0.368348  0.607862  1
  O  O66  1  0.678179  0.128882  0.817161  1
  O  O67  1  0.861018  0.871118  0.182839  1
  O  O68  1  0.455475  0.821384  0.910951  1
  O  O69  1  0.183594  0.086060  0.367188  1
  O  O70  1  0.534928  0.979696  0.659475  1
  O  O71  1  0.873757  0.420467  0.320710  1
  O  O72  1  0.052383  0.780622  0.669579  1
  O  O73  1  0.848806  0.262411  0.169406  1
  O  O74  1  0.446953  0.420467  0.320710  1
  O  O75  1  0.029111  0.174143  0.490190  1
  O  O76  1  0.544525  0.178616  0.089049  1
  O  O77  1  0.126243  0.579533  0.679290  1
  O  O78  1  0.947617  0.219378  0.330421  1
  O  O79  1  0.068508  0.188857  0.664829  1
  O  O80  1  0.238062  0.846060  0.005009  1
  O  O81  1  0.321821  0.871118  0.182839  1
  O  O82  1  0.500000  0.500000  0.500000  1
  O  O83  1  0.617195  0.780622  0.669579  1
