# generated using pymatgen
data_Sm39S56
_symmetry_space_group_name_H-M   'P 1'
_cell_length_a   7.36264651
_cell_length_b   7.35756334
_cell_length_c   51.42644413
_cell_angle_alpha   109.40741997
_cell_angle_beta   109.59063689
_cell_angle_gamma   109.42858814
_symmetry_Int_Tables_number   1
_chemical_formula_structural   Sm39S56
_chemical_formula_sum   'Sm39 S56'
_cell_volume   2144.18355963
_cell_formula_units_Z   1
loop_
 _symmetry_equiv_pos_site_id
 _symmetry_equiv_pos_as_xyz
  1  'x, y, z'
loop_
 _atom_site_type_symbol
 _atom_site_label
 _atom_site_symmetry_multiplicity
 _atom_site_fract_x
 _atom_site_fract_y
 _atom_site_fract_z
 _atom_site_occupancy
  Sm  Sm0  1  0.133303  0.754896  0.983370  1
  Sm  Sm1  1  0.252062  0.627533  0.911009  1
  Sm  Sm2  1  0.120357  0.740714  0.836391  1
  Sm  Sm3  1  0.374948  0.250331  0.946094  1
  Sm  Sm4  1  0.134865  0.745092  0.699339  1
  Sm  Sm5  1  0.629297  0.379311  0.892997  1
  Sm  Sm6  1  0.749498  0.870960  0.873718  1
  Sm  Sm7  1  0.360173  0.242050  0.800742  1
  Sm  Sm8  1  0.250160  0.626887  0.625302  1
  Sm  Sm9  1  0.878257  0.128370  0.964087  1
  Sm  Sm10  1  0.125949  0.751077  0.553759  1
  Sm  Sm11  1  0.632057  0.384644  0.751159  1
  Sm  Sm12  1  0.379585  0.252694  0.660824  1
  Sm  Sm13  1  0.749522  0.877532  0.732922  1
  Sm  Sm14  1  0.850354  0.108674  0.819320  1
  Sm  Sm15  1  0.240082  0.619407  0.479111  1
  Sm  Sm16  1  0.631341  0.382003  0.607286  1
  Sm  Sm17  1  0.749198  0.871989  0.588876  1
  Sm  Sm18  1  0.372231  0.250522  0.516919  1
  Sm  Sm19  1  0.885717  0.140514  0.681359  1
  Sm  Sm20  1  0.245234  0.635720  0.342354  1
  Sm  Sm21  1  0.127184  0.749624  0.268021  1
  Sm  Sm22  1  0.608876  0.350751  0.462281  1
  Sm  Sm23  1  0.742228  0.860085  0.443654  1
  Sm  Sm24  1  0.377942  0.249737  0.375835  1
  Sm  Sm25  1  0.881184  0.131049  0.536025  1
  Sm  Sm26  1  0.254443  0.627421  0.196239  1
  Sm  Sm27  1  0.119039  0.747254  0.124183  1
  Sm  Sm28  1  0.640823  0.386309  0.324411  1
  Sm  Sm29  1  0.753851  0.881084  0.303820  1
  Sm  Sm30  1  0.373862  0.251254  0.232083  1
  Sm  Sm31  1  0.884992  0.131704  0.394044  1
  Sm  Sm32  1  0.254765  0.636590  0.056396  1
  Sm  Sm33  1  0.615491  0.369816  0.175617  1
  Sm  Sm34  1  0.739353  0.848988  0.157706  1
  Sm  Sm35  1  0.878839  0.128857  0.250025  1
  Sm  Sm36  1  0.614884  0.373196  0.037798  1
  Sm  Sm37  1  0.765420  0.885885  0.020720  1
  Sm  Sm38  1  0.873256  0.126578  0.105970  1
  S  S39  1  0.999111  0.853069  0.928249  1
  S  S40  1  0.001156  0.355242  0.928862  1
  S  S41  1  0.993345  0.858951  0.786430  1
  S  S42  1  0.996919  0.341411  0.785541  1
  S  S43  1  0.149078  0.147874  0.878175  1
  S  S44  1  0.356922  0.498686  0.856861  1
  S  S45  1  0.501902  0.000729  0.978966  1
  S  S46  1  0.644910  0.644239  0.949267  1
  S  S47  1  0.000943  0.858593  0.643335  1
  S  S48  1  0.499625  0.999008  0.907807  1
  S  S49  1  0.139460  0.128481  0.733784  1
  S  S50  1  0.997735  0.354934  0.642843  1
  S  S51  1  0.356178  0.494922  0.712980  1
  S  S52  1  0.658156  0.650502  0.808475  1
  S  S53  1  0.506058  0.012134  0.838495  1
  S  S54  1  0.998570  0.856759  0.499717  1
  S  S55  1  0.862643  0.502965  0.857544  1
  S  S56  1  0.146783  0.147283  0.592638  1
  S  S57  1  0.498897  0.004008  0.763496  1
  S  S58  1  0.003996  0.363378  0.500461  1
  S  S59  1  0.352049  0.498612  0.571182  1
  S  S60  1  0.499051  0.999568  0.693151  1
  S  S61  1  0.639816  0.643587  0.662429  1
  S  S62  1  0.994551  0.855866  0.355860  1
  S  S63  1  0.838743  0.498741  0.713476  1
  S  S64  1  0.150376  0.157964  0.451352  1
  S  S65  1  0.504189  0.997998  0.622076  1
  S  S66  1  0.512403  0.006342  0.481497  1
  S  S67  1  0.998724  0.338247  0.356340  1
  S  S68  1  0.358787  0.493277  0.429245  1
  S  S69  1  0.648144  0.650014  0.521032  1
  S  S70  1  0.500105  0.002080  0.551372  1
  S  S71  1  0.999442  0.856784  0.214391  1
  S  S72  1  0.853441  0.501059  0.571565  1
  S  S73  1  0.143848  0.140059  0.305311  1
  S  S74  1  0.997641  0.355891  0.213878  1
  S  S75  1  0.359084  0.500836  0.286192  1
  S  S76  1  0.504114  0.999279  0.406421  1
  S  S77  1  0.628882  0.639846  0.376698  1
  S  S78  1  0.998170  0.842806  0.071622  1
  S  S79  1  0.841082  0.496716  0.428350  1
  S  S80  1  0.147348  0.147601  0.164123  1
  S  S81  1  0.498784  0.998593  0.335878  1
  S  S82  1  0.988265  0.353777  0.070699  1
  S  S83  1  0.343948  0.504495  0.143677  1
  S  S84  1  0.500044  0.005420  0.265064  1
  S  S85  1  0.503030  0.992047  0.123307  1
  S  S86  1  0.650098  0.644904  0.234986  1
  S  S87  1  0.856439  0.498772  0.285686  1
  S  S88  1  0.136486  0.142218  0.018608  1
  S  S89  1  0.503218  0.006991  0.194740  1
  S  S90  1  0.359899  0.500231  0.999552  1
  S  S91  1  0.654397  0.659373  0.093617  1
  S  S92  1  0.865050  0.503621  0.144183  1
  S  S93  1  0.498519  0.990768  0.048617  1
  S  S94  1  0.858824  0.500348  0.000275  1
