# generated using pymatgen
data_KFeBP2HO9
_symmetry_space_group_name_H-M   'P 1'
_cell_length_a   5.16969176
_cell_length_b   8.10998625
_cell_length_c   8.35030372
_cell_angle_alpha   85.88997031
_cell_angle_beta   80.83606136
_cell_angle_gamma   86.19636528
_symmetry_Int_Tables_number   1
_chemical_formula_structural   KFeBP2HO9
_chemical_formula_sum   'K2 Fe2 B2 P4 H2 O18'
_cell_volume   344.20200812
_cell_formula_units_Z   2
loop_
 _symmetry_equiv_pos_site_id
 _symmetry_equiv_pos_as_xyz
  1  'x, y, z'
loop_
 _atom_site_type_symbol
 _atom_site_label
 _atom_site_symmetry_multiplicity
 _atom_site_fract_x
 _atom_site_fract_y
 _atom_site_fract_z
 _atom_site_occupancy
  K  K0  1  0.721215  0.327816  0.111916  1
  K  K1  1  0.278785  0.672184  0.888084  1
  Fe  Fe2  1  0.263755  0.195982  0.807316  1
  Fe  Fe3  1  0.736245  0.804018  0.192684  1
  B  B4  1  0.126435  0.263963  0.447164  1
  B  B5  1  0.873565  0.736037  0.552836  1
  P  P6  1  0.201583  0.587084  0.304007  1
  P  P7  1  0.798417  0.412916  0.695993  1
  P  P8  1  0.220361  0.061276  0.181564  1
  P  P9  1  0.779639  0.938724  0.818436  1
  O  O10  1  0.030469  0.403030  0.792527  1
  O  O11  1  0.969531  0.596970  0.207473  1
  O  O12  1  0.069622  0.143165  0.338105  1
  O  O13  1  0.930378  0.856835  0.661895  1
  O  O14  1  0.061047  0.918816  0.151336  1
  O  O15  1  0.938953  0.081184  0.848664  1
  O  O16  1  0.130502  0.681207  0.464441  1
  O  O17  1  0.869498  0.318793  0.535559  1
  O  O18  1  0.235689  0.202286  0.044746  1
  O  O19  1  0.764311  0.797714  0.955254  1
  O  O20  1  0.271077  0.400743  0.351353  1
  O  O21  1  0.728923  0.599257  0.648647  1
  O  O22  1  0.293809  0.189420  0.565693  1
  O  O23  1  0.706191  0.810580  0.434307  1
  O  O24  1  0.452095  0.649160  0.203445  1
  O  O25  1  0.547905  0.350840  0.796555  1
  O  O26  1  0.501651  0.003645  0.210101  1
  O  O27  1  0.498349  0.996355  0.789899  1
  H  H28  1  0.478683  0.172933  0.519660  1
  H  H29  1  0.521317  0.827067  0.480340  1
