# generated using pymatgen
data_Fe2TeWC10SeO10
_symmetry_space_group_name_H-M   'P 1'
_cell_length_a   6.95645746
_cell_length_b   9.56945274
_cell_length_c   13.83500110
_cell_angle_alpha   81.56433428
_cell_angle_beta   82.13893516
_cell_angle_gamma   85.34031702
_symmetry_Int_Tables_number   1
_chemical_formula_structural   Fe2TeWC10SeO10
_chemical_formula_sum   'Fe4 Te2 W2 C20 Se2 O20'
_cell_volume   900.70343297
_cell_formula_units_Z   2
loop_
 _symmetry_equiv_pos_site_id
 _symmetry_equiv_pos_as_xyz
  1  'x, y, z'
loop_
 _atom_site_type_symbol
 _atom_site_label
 _atom_site_symmetry_multiplicity
 _atom_site_fract_x
 _atom_site_fract_y
 _atom_site_fract_z
 _atom_site_occupancy
  Fe  Fe0  1  0.280977  0.999729  0.271131  1
  Fe  Fe1  1  0.646700  0.668777  0.634468  1
  Fe  Fe2  1  0.353300  0.331223  0.365532  1
  Fe  Fe3  1  0.719023  0.000271  0.728869  1
  Te  Te4  1  0.431211  0.885760  0.680741  1
  Te  Te5  1  0.568789  0.114240  0.319259  1
  W  W6  1  0.394251  0.272352  0.164709  1
  W  W7  1  0.605749  0.727648  0.835291  1
  C  C8  1  0.214440  0.246063  0.062885  1
  C  C9  1  0.446450  0.864818  0.221252  1
  C  C10  1  0.725155  0.524356  0.865223  1
  C  C11  1  0.298787  0.258763  0.490533  1
  C  C12  1  0.635635  0.388876  0.135746  1
  C  C13  1  0.364365  0.611124  0.864254  1
  C  C14  1  0.792442  0.503993  0.637205  1
  C  C15  1  0.569736  0.416327  0.375476  1
  C  C16  1  0.785560  0.753937  0.937115  1
  C  C17  1  0.553550  0.135182  0.778748  1
  C  C18  1  0.207558  0.496007  0.362795  1
  C  C19  1  0.086270  0.951943  0.210199  1
  C  C20  1  0.425847  0.843809  0.928915  1
  C  C21  1  0.574153  0.156191  0.071085  1
  C  C22  1  0.274845  0.475644  0.134777  1
  C  C23  1  0.701213  0.741237  0.509467  1
  C  C24  1  0.221121  0.909600  0.391066  1
  C  C25  1  0.913730  0.048057  0.789801  1
  C  C26  1  0.430264  0.583673  0.624524  1
  C  C27  1  0.778879  0.090400  0.608934  1
  Se  Se28  1  0.103227  0.220479  0.302096  1
  Se  Se29  1  0.896773  0.779521  0.697904  1
  O  O30  1  0.707385  0.470753  0.385133  1
  O  O31  1  0.324926  0.907441  0.983151  1
  O  O32  1  0.675074  0.092559  0.016849  1
  O  O33  1  0.112037  0.230623  0.006473  1
  O  O34  1  0.117014  0.603034  0.362735  1
  O  O35  1  0.548379  0.774609  0.191540  1
  O  O36  1  0.228250  0.544731  0.880146  1
  O  O37  1  0.961236  0.918700  0.173191  1
  O  O38  1  0.292615  0.529247  0.614867  1
  O  O39  1  0.734034  0.789590  0.427427  1
  O  O40  1  0.211324  0.590994  0.116391  1
  O  O41  1  0.887963  0.769377  0.993527  1
  O  O42  1  0.038765  0.081300  0.826809  1
  O  O43  1  0.771750  0.455269  0.119854  1
  O  O44  1  0.815821  0.148506  0.529518  1
  O  O45  1  0.184179  0.851494  0.470482  1
  O  O46  1  0.451621  0.225391  0.808460  1
  O  O47  1  0.265966  0.210410  0.572573  1
  O  O48  1  0.788676  0.409006  0.883609  1
  O  O49  1  0.882986  0.396966  0.637265  1
