# generated using pymatgen
data_PbO
_symmetry_space_group_name_H-M   'P 1'
_cell_length_a   3.63946627
_cell_length_b   3.64076501
_cell_length_c   6.68103774
_cell_angle_alpha   89.86631203
_cell_angle_beta   89.92993165
_cell_angle_gamma   89.70555606
_symmetry_Int_Tables_number   1
_chemical_formula_structural   PbO
_chemical_formula_sum   'Pb2 O2'
_cell_volume   88.52522465
_cell_formula_units_Z   2
loop_
 _symmetry_equiv_pos_site_id
 _symmetry_equiv_pos_as_xyz
  1  'x, y, z'
loop_
 _atom_site_type_symbol
 _atom_site_label
 _atom_site_symmetry_multiplicity
 _atom_site_fract_x
 _atom_site_fract_y
 _atom_site_fract_z
 _atom_site_occupancy
  Pb  Pb0  1  0.000481  0.000215  0.000249  1
  Pb  Pb1  1  0.999073  0.000003  0.499737  1
  O  O2  1  0.000499  0.500336  0.249983  1
  O  O3  1  0.499946  0.999446  0.750031  1
