# generated using pymatgen
data_Ca4Al6O13
_symmetry_space_group_name_H-M   'P 1'
_cell_length_a   5.34296994
_cell_length_b   17.89883319
_cell_length_c   21.28523982
_cell_angle_alpha   90.00000000
_cell_angle_beta   90.00000000
_cell_angle_gamma   90.00000000
_symmetry_Int_Tables_number   1
_chemical_formula_structural   Ca4Al6O13
_chemical_formula_sum   'Ca32 Al48 O104'
_cell_volume   2035.56980068
_cell_formula_units_Z   8
loop_
 _symmetry_equiv_pos_site_id
 _symmetry_equiv_pos_as_xyz
  1  'x, y, z'
loop_
 _atom_site_type_symbol
 _atom_site_label
 _atom_site_symmetry_multiplicity
 _atom_site_fract_x
 _atom_site_fract_y
 _atom_site_fract_z
 _atom_site_occupancy
  Ca  Ca0  1  0.477202  0.086879  0.494293  1
  Ca  Ca1  1  0.022798  0.586879  0.505707  1
  Ca  Ca2  1  0.529766  0.087022  0.756290  1
  Ca  Ca3  1  0.510214  0.582729  0.124708  1
  Ca  Ca4  1  0.989786  0.917271  0.624708  1
  Ca  Ca5  1  0.006969  0.098154  0.624921  1
  Ca  Ca6  1  0.522798  0.086879  0.994293  1
  Ca  Ca7  1  0.493031  0.598154  0.375079  1
  Ca  Ca8  1  0.993031  0.098154  0.124921  1
  Ca  Ca9  1  0.489786  0.582729  0.624708  1
  Ca  Ca10  1  0.989786  0.082729  0.875292  1
  Ca  Ca11  1  0.529766  0.912978  0.743710  1
  Ca  Ca12  1  0.470234  0.087022  0.256290  1
  Ca  Ca13  1  0.022798  0.413121  0.994293  1
  Ca  Ca14  1  0.029766  0.412978  0.756290  1
  Ca  Ca15  1  0.506969  0.598154  0.875079  1
  Ca  Ca16  1  0.493031  0.401846  0.124921  1
  Ca  Ca17  1  0.970234  0.587022  0.243710  1
  Ca  Ca18  1  0.993031  0.901846  0.375079  1
  Ca  Ca19  1  0.977202  0.586879  0.005707  1
  Ca  Ca20  1  0.510214  0.417271  0.375292  1
  Ca  Ca21  1  0.470234  0.912978  0.243710  1
  Ca  Ca22  1  0.522798  0.913121  0.505707  1
  Ca  Ca23  1  0.506969  0.401846  0.624921  1
  Ca  Ca24  1  0.029766  0.587022  0.743710  1
  Ca  Ca25  1  0.006969  0.901846  0.875079  1
  Ca  Ca26  1  0.010214  0.082729  0.375292  1
  Ca  Ca27  1  0.477202  0.913121  0.005707  1
  Ca  Ca28  1  0.489786  0.417271  0.875292  1
  Ca  Ca29  1  0.970234  0.412978  0.256290  1
  Ca  Ca30  1  0.010214  0.917271  0.124708  1
  Ca  Ca31  1  0.977202  0.413121  0.494293  1
  Al  Al32  1  0.483937  0.500000  0.250000  1
  Al  Al33  1  0.002377  0.283756  0.624846  1
  Al  Al34  1  0.608177  0.706823  0.742770  1
  Al  Al35  1  0.101225  0.793374  0.507310  1
  Al  Al36  1  0.601225  0.293374  0.992690  1
  Al  Al37  1  0.502377  0.783756  0.875154  1
  Al  Al38  1  0.504133  0.009483  0.624945  1
  Al  Al39  1  0.891823  0.206823  0.257230  1
  Al  Al40  1  0.495867  0.009483  0.124945  1
  Al  Al41  1  0.997623  0.716244  0.375154  1
  Al  Al42  1  0.936081  0.296827  0.875386  1
  Al  Al43  1  0.891823  0.793177  0.242770  1
  Al  Al44  1  0.601225  0.706626  0.507310  1
  Al  Al45  1  0.997623  0.283756  0.124846  1
  Al  Al46  1  0.936081  0.703173  0.624614  1
  Al  Al47  1  0.398775  0.706626  0.007310  1
  Al  Al48  1  0.004133  0.490517  0.624945  1
  Al  Al49  1  0.436081  0.796827  0.624614  1
  Al  Al50  1  0.995867  0.509483  0.375055  1
  Al  Al51  1  0.000000  0.000000  0.000000  1
  Al  Al52  1  0.004133  0.509483  0.875055  1
  Al  Al53  1  0.898775  0.793374  0.007310  1
  Al  Al54  1  0.563919  0.203173  0.375386  1
  Al  Al55  1  0.516063  0.500000  0.750000  1
  Al  Al56  1  0.608177  0.293177  0.757230  1
  Al  Al57  1  0.398775  0.293374  0.492690  1
  Al  Al58  1  0.391823  0.293177  0.257230  1
  Al  Al59  1  0.495867  0.990517  0.375055  1
  Al  Al60  1  0.108177  0.206823  0.757230  1
  Al  Al61  1  0.995867  0.490517  0.124945  1
  Al  Al62  1  0.504133  0.990517  0.875055  1
  Al  Al63  1  0.983937  0.000000  0.250000  1
  Al  Al64  1  0.016063  0.000000  0.750000  1
  Al  Al65  1  0.391823  0.706823  0.242770  1
  Al  Al66  1  0.101225  0.206626  0.992690  1
  Al  Al67  1  0.563919  0.796827  0.124614  1
  Al  Al68  1  0.000000  0.000000  0.500000  1
  Al  Al69  1  0.500000  0.500000  0.500000  1
  Al  Al70  1  0.063919  0.296827  0.375386  1
  Al  Al71  1  0.436081  0.203173  0.875386  1
  Al  Al72  1  0.898775  0.206626  0.492690  1
  Al  Al73  1  0.497623  0.216244  0.124846  1
  Al  Al74  1  0.108177  0.793177  0.742770  1
  Al  Al75  1  0.500000  0.500000  0.000000  1
  Al  Al76  1  0.497623  0.783756  0.375154  1
  Al  Al77  1  0.002377  0.716244  0.875154  1
  Al  Al78  1  0.502377  0.216244  0.624846  1
  Al  Al79  1  0.063919  0.703173  0.124614  1
  O  O80  1  0.979253  0.115663  0.990366  1
  O  O81  1  0.737953  0.994531  0.311724  1
  O  O82  1  0.469221  0.892007  0.124963  1
  O  O83  1  0.530779  0.892007  0.624963  1
  O  O84  1  0.751377  0.990406  0.938452  1
  O  O85  1  0.737953  0.005469  0.188276  1
  O  O86  1  0.826913  0.222575  0.574621  1
  O  O87  1  0.431007  0.213211  0.783006  1
  O  O88  1  0.494838  0.615147  0.740251  1
  O  O89  1  0.479253  0.384337  0.990366  1
  O  O90  1  0.494838  0.384853  0.759749  1
  O  O91  1  0.495438  0.881563  0.875797  1
  O  O92  1  0.994838  0.115147  0.759749  1
  O  O93  1  0.995438  0.618437  0.875797  1
  O  O94  1  0.101153  0.790684  0.624172  1
  O  O95  1  0.248979  0.995634  0.937094  1
  O  O96  1  0.504562  0.881563  0.375797  1
  O  O97  1  0.180452  0.775648  0.824123  1
  O  O98  1  0.237953  0.494531  0.188276  1
  O  O99  1  0.030779  0.392006  0.875037  1
  O  O100  1  0.736794  0.508613  0.312709  1
  O  O101  1  0.262047  0.005469  0.688276  1
  O  O102  1  0.004562  0.381563  0.124203  1
  O  O103  1  0.969221  0.607993  0.124963  1
  O  O104  1  0.748623  0.509594  0.438452  1
  O  O105  1  0.573827  0.787480  0.032150  1
  O  O106  1  0.173087  0.777425  0.425379  1
  O  O107  1  0.762047  0.494531  0.688276  1
  O  O108  1  0.398847  0.290684  0.375828  1
  O  O109  1  0.505162  0.615147  0.240251  1
  O  O110  1  0.398847  0.709316  0.124172  1
  O  O111  1  0.819548  0.224352  0.175877  1
  O  O112  1  0.931007  0.713211  0.716994  1
  O  O113  1  0.673087  0.722575  0.425379  1
  O  O114  1  0.601153  0.709316  0.624172  1
  O  O115  1  0.068993  0.713211  0.216994  1
  O  O116  1  0.173087  0.222575  0.074621  1
  O  O117  1  0.680452  0.724352  0.824123  1
  O  O118  1  0.319548  0.724352  0.324123  1
  O  O119  1  0.680452  0.275648  0.675877  1
  O  O120  1  0.969221  0.392006  0.375037  1
  O  O121  1  0.751021  0.004366  0.062906  1
  O  O122  1  0.748623  0.490406  0.061548  1
  O  O123  1  0.326913  0.277425  0.574621  1
  O  O124  1  0.819548  0.775648  0.324123  1
  O  O125  1  0.073827  0.287480  0.467850  1
  O  O126  1  0.495438  0.118437  0.624203  1
  O  O127  1  0.236794  0.991387  0.312709  1
  O  O128  1  0.568993  0.786789  0.216994  1
  O  O129  1  0.005162  0.115147  0.259749  1
  O  O130  1  0.263206  0.491387  0.687291  1
  O  O131  1  0.530779  0.107994  0.875037  1
  O  O132  1  0.926173  0.712520  0.532150  1
  O  O133  1  0.426173  0.787480  0.532150  1
  O  O134  1  0.469221  0.107994  0.375037  1
  O  O135  1  0.763206  0.991387  0.812709  1
  O  O136  1  0.520747  0.615663  0.009634  1
  O  O137  1  0.898847  0.209316  0.375828  1
  O  O138  1  0.979253  0.884337  0.509634  1
  O  O139  1  0.601153  0.290684  0.875828  1
  O  O140  1  0.504562  0.118437  0.124203  1
  O  O141  1  0.262047  0.994531  0.811724  1
  O  O142  1  0.251021  0.504366  0.437094  1
  O  O143  1  0.826913  0.777425  0.925379  1
  O  O144  1  0.263206  0.508613  0.812709  1
  O  O145  1  0.236794  0.008613  0.187291  1
  O  O146  1  0.180452  0.224352  0.675877  1
  O  O147  1  0.751377  0.009594  0.561548  1
  O  O148  1  0.005162  0.884853  0.240251  1
  O  O149  1  0.068993  0.286789  0.283006  1
  O  O150  1  0.479253  0.615663  0.509634  1
  O  O151  1  0.319548  0.275648  0.175877  1
  O  O152  1  0.073827  0.712520  0.032150  1
  O  O153  1  0.426173  0.212520  0.967850  1
  O  O154  1  0.520747  0.384337  0.490366  1
  O  O155  1  0.994838  0.884853  0.740251  1
  O  O156  1  0.237953  0.505469  0.311724  1
  O  O157  1  0.995438  0.381563  0.624203  1
  O  O158  1  0.748979  0.495634  0.562906  1
  O  O159  1  0.568993  0.213211  0.283006  1
  O  O160  1  0.004562  0.618437  0.375797  1
  O  O161  1  0.248979  0.004366  0.562906  1
  O  O162  1  0.326913  0.722575  0.925379  1
  O  O163  1  0.898847  0.790684  0.124172  1
  O  O164  1  0.748979  0.504366  0.937094  1
  O  O165  1  0.101153  0.209316  0.875828  1
  O  O166  1  0.926173  0.287480  0.967850  1
  O  O167  1  0.573827  0.212520  0.467850  1
  O  O168  1  0.763206  0.008613  0.687291  1
  O  O169  1  0.736794  0.491387  0.187291  1
  O  O170  1  0.762047  0.505469  0.811724  1
  O  O171  1  0.030779  0.607993  0.624963  1
  O  O172  1  0.931007  0.286789  0.783006  1
  O  O173  1  0.251021  0.495634  0.062906  1
  O  O174  1  0.673087  0.277425  0.074621  1
  O  O175  1  0.251377  0.490406  0.561548  1
  O  O176  1  0.431007  0.786789  0.716994  1
  O  O177  1  0.248623  0.990406  0.438452  1
  O  O178  1  0.505162  0.384853  0.259749  1
  O  O179  1  0.751021  0.995634  0.437094  1
  O  O180  1  0.020747  0.884337  0.009634  1
  O  O181  1  0.251377  0.509594  0.938452  1
  O  O182  1  0.020747  0.115663  0.490366  1
  O  O183  1  0.248623  0.009594  0.061548  1
