# generated using pymatgen
data_Na3CuSnSe4
_symmetry_space_group_name_H-M   'P 1'
_cell_length_a   6.90717718
_cell_length_b   10.32011212
_cell_length_c   13.15246696
_cell_angle_alpha   90.00000000
_cell_angle_beta   90.48046938
_cell_angle_gamma   90.00000000
_symmetry_Int_Tables_number   1
_chemical_formula_structural   Na3CuSnSe4
_chemical_formula_sum   'Na12 Cu4 Sn4 Se16'
_cell_volume   937.51227207
_cell_formula_units_Z   4
loop_
 _symmetry_equiv_pos_site_id
 _symmetry_equiv_pos_as_xyz
  1  'x, y, z'
loop_
 _atom_site_type_symbol
 _atom_site_label
 _atom_site_symmetry_multiplicity
 _atom_site_fract_x
 _atom_site_fract_y
 _atom_site_fract_z
 _atom_site_occupancy
  Na  Na0  1  0.774509  0.896748  0.516783  1
  Na  Na1  1  0.549528  0.360513  0.376218  1
  Na  Na2  1  0.725491  0.396748  0.983217  1
  Na  Na3  1  0.450472  0.639487  0.623782  1
  Na  Na4  1  0.487640  0.882841  0.875333  1
  Na  Na5  1  0.987640  0.617159  0.375333  1
  Na  Na6  1  0.274509  0.603252  0.016783  1
  Na  Na7  1  0.012360  0.382841  0.624667  1
  Na  Na8  1  0.049528  0.139487  0.876218  1
  Na  Na9  1  0.950472  0.860513  0.123782  1
  Na  Na10  1  0.512360  0.117159  0.124667  1
  Na  Na11  1  0.225491  0.103252  0.483217  1
  Cu  Cu12  1  0.592813  0.602269  0.213957  1
  Cu  Cu13  1  0.907187  0.102269  0.286043  1
  Cu  Cu14  1  0.407187  0.397731  0.786043  1
  Cu  Cu15  1  0.092813  0.897731  0.713957  1
  Sn  Sn16  1  0.415261  0.861341  0.304766  1
  Sn  Sn17  1  0.915261  0.638659  0.804766  1
  Sn  Sn18  1  0.084739  0.361341  0.195234  1
  Sn  Sn19  1  0.584739  0.138659  0.695234  1
  Se  Se20  1  0.958313  0.158466  0.102028  1
  Se  Se21  1  0.412324  0.927918  0.642714  1
  Se  Se22  1  0.054326  0.897380  0.340765  1
  Se  Se23  1  0.995635  0.681005  0.616990  1
  Se  Se24  1  0.912323  0.572082  0.142714  1
  Se  Se25  1  0.541687  0.658466  0.397972  1
  Se  Se26  1  0.945674  0.102620  0.659235  1
  Se  Se27  1  0.587677  0.072082  0.357286  1
  Se  Se28  1  0.004365  0.318995  0.383010  1
  Se  Se29  1  0.087677  0.427918  0.857286  1
  Se  Se30  1  0.554326  0.602620  0.840765  1
  Se  Se31  1  0.445674  0.397380  0.159235  1
  Se  Se32  1  0.458313  0.341534  0.602028  1
  Se  Se33  1  0.504365  0.181005  0.883010  1
  Se  Se34  1  0.041687  0.841534  0.897972  1
  Se  Se35  1  0.495635  0.818995  0.116990  1
