# generated using pymatgen
data_CsNb2PS10
_symmetry_space_group_name_H-M   'P 1'
_cell_length_a   7.76368357
_cell_length_b   13.17091741
_cell_length_c   14.45733559
_cell_angle_alpha   95.54011191
_cell_angle_beta   90.00000000
_cell_angle_gamma   90.00000000
_symmetry_Int_Tables_number   1
_chemical_formula_structural   CsNb2PS10
_chemical_formula_sum   'Cs4 Nb8 P4 S40'
_cell_volume   1471.42696060
_cell_formula_units_Z   4
loop_
 _symmetry_equiv_pos_site_id
 _symmetry_equiv_pos_as_xyz
  1  'x, y, z'
loop_
 _atom_site_type_symbol
 _atom_site_label
 _atom_site_symmetry_multiplicity
 _atom_site_fract_x
 _atom_site_fract_y
 _atom_site_fract_z
 _atom_site_occupancy
  Cs  Cs0  1  0.481883  0.718531  0.097731  1
  Cs  Cs1  1  0.500431  0.462971  0.598688  1
  Cs  Cs2  1  0.499569  0.962971  0.598688  1
  Cs  Cs3  1  0.518117  0.218531  0.097731  1
  Nb  Nb4  1  0.931242  0.569154  0.868417  1
  Nb  Nb5  1  0.060781  0.836011  0.371506  1
  Nb  Nb6  1  0.065295  0.126597  0.374255  1
  Nb  Nb7  1  0.943373  0.859631  0.870681  1
  Nb  Nb8  1  0.068758  0.069154  0.868417  1
  Nb  Nb9  1  0.939219  0.336011  0.371506  1
  Nb  Nb10  1  0.056627  0.359631  0.870681  1
  Nb  Nb11  1  0.934705  0.626597  0.374255  1
  P  P12  1  0.400230  0.974596  0.299948  1
  P  P13  1  0.400023  0.214223  0.798222  1
  P  P14  1  0.599770  0.474596  0.299948  1
  P  P15  1  0.599977  0.714223  0.798222  1
  S  S16  1  0.144159  0.970126  0.250590  1
  S  S17  1  0.892685  0.999242  0.997032  1
  S  S18  1  0.601475  0.344714  0.370037  1
  S  S19  1  0.396489  0.107063  0.389195  1
  S  S20  1  0.585996  0.215913  0.703715  1
  S  S21  1  0.107315  0.499242  0.997032  1
  S  S22  1  0.143189  0.953452  0.989770  1
  S  S23  1  0.404068  0.085336  0.869496  1
  S  S24  1  0.120900  0.920917  0.742494  1
  S  S25  1  0.603511  0.607063  0.389195  1
  S  S26  1  0.856811  0.453452  0.989770  1
  S  S27  1  0.126276  0.268961  0.496893  1
  S  S28  1  0.890943  0.188898  0.245835  1
  S  S29  1  0.050697  0.994266  0.494235  1
  S  S30  1  0.846301  0.213931  0.898888  1
  S  S31  1  0.153699  0.713931  0.898888  1
  S  S32  1  0.109057  0.688898  0.245835  1
  S  S33  1  0.123165  0.480451  0.747709  1
  S  S34  1  0.879100  0.420917  0.742494  1
  S  S35  1  0.855841  0.470126  0.250590  1
  S  S36  1  0.875686  0.223122  0.497044  1
  S  S37  1  0.153356  0.485217  0.402844  1
  S  S38  1  0.610567  0.847222  0.886562  1
  S  S39  1  0.873724  0.768961  0.496893  1
  S  S40  1  0.389433  0.347222  0.886562  1
  S  S41  1  0.864772  0.748187  0.251375  1
  S  S42  1  0.950503  0.727608  0.990904  1
  S  S43  1  0.049497  0.227608  0.990904  1
  S  S44  1  0.595932  0.585336  0.869496  1
  S  S45  1  0.414004  0.715913  0.703715  1
  S  S46  1  0.124314  0.723122  0.497044  1
  S  S47  1  0.949303  0.494266  0.494235  1
  S  S48  1  0.135228  0.248187  0.251375  1
  S  S49  1  0.876835  0.980452  0.747709  1
  S  S50  1  0.854803  0.704125  0.747279  1
  S  S51  1  0.145197  0.204125  0.747279  1
  S  S52  1  0.398525  0.844714  0.370037  1
  S  S53  1  0.846644  0.985217  0.402844  1
  S  S54  1  0.414667  0.473236  0.204654  1
  S  S55  1  0.585333  0.973236  0.204654  1
