# generated using pymatgen
data_ZnP3H12NO13
_symmetry_space_group_name_H-M   'P 1'
_cell_length_a   8.80266554
_cell_length_b   10.37906067
_cell_length_c   7.46840656
_cell_angle_alpha   104.46049968
_cell_angle_beta   110.80318759
_cell_angle_gamma   71.38827032
_symmetry_Int_Tables_number   1
_chemical_formula_structural   ZnP3H12NO13
_chemical_formula_sum   'Zn2 P6 H24 N2 O26'
_cell_volume   597.29294330
_cell_formula_units_Z   2
loop_
 _symmetry_equiv_pos_site_id
 _symmetry_equiv_pos_as_xyz
  1  'x, y, z'
loop_
 _atom_site_type_symbol
 _atom_site_label
 _atom_site_symmetry_multiplicity
 _atom_site_fract_x
 _atom_site_fract_y
 _atom_site_fract_z
 _atom_site_occupancy
  Zn  Zn0  1  0.000000  0.000000  0.000000  1
  Zn  Zn1  1  0.500000  0.500000  0.500000  1
  P  P2  1  0.224586  0.932062  0.700111  1
  P  P3  1  0.775414  0.067938  0.299889  1
  P  P4  1  0.878556  0.775009  0.126485  1
  P  P5  1  0.121444  0.224991  0.873515  1
  P  P6  1  0.526443  0.757216  0.925328  1
  P  P7  1  0.473557  0.242784  0.074672  1
  H  H8  1  0.330851  0.935081  0.183949  1
  H  H9  1  0.669149  0.064919  0.816051  1
  H  H10  1  0.228433  0.956693  0.330770  1
  H  H11  1  0.771567  0.043307  0.669230  1
  H  H12  1  0.779425  0.582868  0.572875  1
  H  H13  1  0.220575  0.417132  0.427125  1
  H  H14  1  0.157621  0.564715  0.364098  1
  H  H15  1  0.842379  0.435285  0.635902  1
  H  H16  1  0.341801  0.745895  0.404982  1
  H  H17  1  0.658199  0.254105  0.595018  1
  H  H18  1  0.476287  0.696628  0.286587  1
  H  H19  1  0.523713  0.303372  0.713413  1
  H  H20  1  0.863081  0.724936  0.479660  1
  H  H21  1  0.136919  0.275064  0.520340  1
  H  H22  1  0.836659  0.799569  0.681227  1
  H  H23  1  0.163341  0.200431  0.318773  1
  H  H24  1  0.126876  0.664494  0.821468  1
  H  H25  1  0.873124  0.335506  0.178532  1
  H  H26  1  0.248284  0.609083  0.029670  1
  H  H27  1  0.751716  0.390917  0.970330  1
  H  H28  1  0.823451  0.504889  0.166461  1
  H  H29  1  0.176549  0.495111  0.833539  1
  H  H30  1  0.325185  0.572050  0.838834  1
  H  H31  1  0.674815  0.427950  0.161166  1
  N  N32  1  0.220478  0.583499  0.881026  1
  N  N33  1  0.779522  0.416501  0.118974  1
  O  O34  1  0.209498  0.877545  0.490120  1
  O  O35  1  0.790502  0.122455  0.509880  1
  O  O36  1  0.123549  0.892224  0.793638  1
  O  O37  1  0.876451  0.107776  0.206362  1
  O  O38  1  0.811008  0.903324  0.278090  1
  O  O39  1  0.188992  0.096676  0.721910  1
  O  O40  1  0.421430  0.894457  0.825703  1
  O  O41  1  0.578570  0.105543  0.174297  1
  O  O42  1  0.936381  0.649092  0.222621  1
  O  O43  1  0.063619  0.350908  0.777379  1
  O  O44  1  0.996068  0.808638  0.051050  1
  O  O45  1  0.003932  0.191362  0.948950  1
  O  O46  1  0.711391  0.766384  0.943789  1
  O  O47  1  0.288609  0.233616  0.056211  1
  O  O48  1  0.490236  0.630184  0.783846  1
  O  O49  1  0.509764  0.369816  0.216154  1
  O  O50  1  0.504012  0.776080  0.120970  1
  O  O51  1  0.495988  0.223920  0.879030  1
  O  O52  1  0.765941  0.002507  0.774236  1
  O  O53  1  0.234059  0.997493  0.225764  1
  O  O54  1  0.748980  0.493025  0.546236  1
  O  O55  1  0.251020  0.506975  0.453764  1
  O  O56  1  0.413114  0.663034  0.343883  1
  O  O57  1  0.586886  0.336966  0.656117  1
  O  O58  1  0.864934  0.708789  0.604551  1
  O  O59  1  0.135066  0.291211  0.395449  1
