# generated using pymatgen
data_MgPHO9
_symmetry_space_group_name_H-M   'P 1'
_cell_length_a   5.40443188
_cell_length_b   5.32096440
_cell_length_c   5.27559258
_cell_angle_alpha   92.74556427
_cell_angle_beta   92.63085078
_cell_angle_gamma   92.14589430
_symmetry_Int_Tables_number   1
_chemical_formula_structural   MgPHO9
_chemical_formula_sum   'Mg1 P1 H1 O9'
_cell_volume   151.25572131
_cell_formula_units_Z   1
loop_
 _symmetry_equiv_pos_site_id
 _symmetry_equiv_pos_as_xyz
  1  'x, y, z'
loop_
 _atom_site_type_symbol
 _atom_site_label
 _atom_site_symmetry_multiplicity
 _atom_site_fract_x
 _atom_site_fract_y
 _atom_site_fract_z
 _atom_site_occupancy
  Mg  Mg0  1  0.018721  0.018165  0.021109  1
  P  P1  1  0.479753  0.479149  0.476161  1
  H  H2  1  0.635858  0.638361  0.639763  1
  O  O3  1  0.517847  0.205972  0.546187  1
  O  O4  1  0.209648  0.548589  0.515874  1
  O  O5  1  0.547662  0.524740  0.201525  1
  O  O6  1  0.046017  0.609079  0.961221  1
  O  O7  1  0.613232  0.960309  0.041164  1
  O  O8  1  0.959401  0.041382  0.611516  1
  O  O9  1  0.088636  0.970559  0.428017  1
  O  O10  1  0.965487  0.429012  0.086984  1
  O  O11  1  0.426738  0.083683  0.979478  1
