# generated using pymatgen
data_Ca(H8O5)2
_symmetry_space_group_name_H-M   'P 1'
_cell_length_a   6.23510226
_cell_length_b   6.37568316
_cell_length_c   10.85862890
_cell_angle_alpha   87.65724069
_cell_angle_beta   88.05679892
_cell_angle_gamma   90.38190791
_symmetry_Int_Tables_number   1
_chemical_formula_structural   Ca(H8O5)2
_chemical_formula_sum   'Ca2 H32 O20'
_cell_volume   431.04063201
_cell_formula_units_Z   2
loop_
 _symmetry_equiv_pos_site_id
 _symmetry_equiv_pos_as_xyz
  1  'x, y, z'
loop_
 _atom_site_type_symbol
 _atom_site_label
 _atom_site_symmetry_multiplicity
 _atom_site_fract_x
 _atom_site_fract_y
 _atom_site_fract_z
 _atom_site_occupancy
  Ca  Ca0  1  0.976328  0.973767  0.225780  1
  Ca  Ca1  1  0.993579  0.009405  0.741145  1
  H  H2  1  0.285053  0.353844  0.351683  1
  H  H3  1  0.198398  0.136987  0.404942  1
  H  H4  1  0.864959  0.681113  0.463612  1
  H  H5  1  0.961088  0.518696  0.369016  1
  H  H6  1  0.649627  0.202455  0.335657  1
  H  H7  1  0.703819  0.100177  0.518682  1
  H  H8  1  0.482001  0.961594  0.362578  1
  H  H9  1  0.349741  0.744131  0.342287  1
  H  H10  1  0.871686  0.307169  0.966033  1
  H  H11  1  0.732298  0.368665  0.849421  1
  H  H12  1  0.031065  0.559707  0.864136  1
  H  H13  1  0.117790  0.700115  0.969103  1
  H  H14  1  0.369539  0.255450  0.834921  1
  H  H15  1  0.442771  0.021734  0.860694  1
  H  H16  1  0.685188  0.871127  0.966552  1
  H  H17  1  0.644930  0.738346  0.846018  1
  H  H18  1  0.962863  0.582558  0.634177  1
  H  H19  1  0.714354  0.637552  0.634887  1
  H  H20  1  0.270632  0.417635  0.633816  1
  H  H21  1  0.112361  0.346309  0.534079  1
  H  H22  1  0.432693  0.979479  0.625462  1
  H  H23  1  0.293598  0.874346  0.527287  1
  H  H24  1  0.630549  0.260173  0.625762  1
  H  H25  1  0.238115  0.646735  0.130969  1
  H  H26  1  0.733123  0.381965  0.139003  1
  H  H27  1  0.972606  0.466259  0.119511  1
  H  H28  1  0.527176  0.973160  0.123976  1
  H  H29  1  0.596512  0.729508  0.137458  1
  H  H30  1  0.370693  0.281392  0.134933  1
  H  H31  1  0.292344  0.141070  0.025683  1
  H  H32  1  0.637604  0.558508  0.331753  1
  H  H33  1  0.347315  0.580296  0.809317  1
  O  O34  1  0.150167  0.279573  0.380293  1
  O  O35  1  0.869471  0.642313  0.373857  1
  O  O36  1  0.686655  0.061942  0.366201  1
  O  O37  1  0.321408  0.889084  0.366471  1
  O  O38  1  0.875443  0.320389  0.872430  1
  O  O39  1  0.127500  0.682911  0.873179  1
  O  O40  1  0.313605  0.114338  0.863868  1
  O  O41  1  0.683836  0.879280  0.872496  1
  O  O42  1  0.863561  0.705076  0.622182  1
  O  O43  1  0.115112  0.369842  0.623899  1
  O  O44  1  0.288480  0.918297  0.614516  1
  O  O45  1  0.694247  0.117170  0.611640  1
  O  O46  1  0.091701  0.690111  0.112773  1
  O  O47  1  0.882159  0.328345  0.118796  1
  O  O48  1  0.653229  0.877819  0.113380  1
  O  O49  1  0.310478  0.139324  0.116609  1
  O  O50  1  0.490921  0.506890  0.305126  1
  O  O51  1  0.484231  0.496776  0.793573  1
  O  O52  1  0.510390  0.486581  0.657567  1
  O  O53  1  0.508429  0.502848  0.168993  1
