# generated using pymatgen
data_H10C5SeS2N3Cl
_symmetry_space_group_name_H-M   'P 1'
_cell_length_a   9.06012348
_cell_length_b   11.71785556
_cell_length_c   22.30698962
_cell_angle_alpha   90.00000000
_cell_angle_beta   90.00000000
_cell_angle_gamma   90.00000000
_symmetry_Int_Tables_number   1
_chemical_formula_structural   H10C5SeS2N3Cl
_chemical_formula_sum   'H80 C40 Se8 S16 N24 Cl8'
_cell_volume   2368.22642250
_cell_formula_units_Z   8
loop_
 _symmetry_equiv_pos_site_id
 _symmetry_equiv_pos_as_xyz
  1  'x, y, z'
loop_
 _atom_site_type_symbol
 _atom_site_label
 _atom_site_symmetry_multiplicity
 _atom_site_fract_x
 _atom_site_fract_y
 _atom_site_fract_z
 _atom_site_occupancy
  H  H0  1  0.407160  0.973952  0.337375  1
  H  H1  1  0.592840  0.473952  0.162625  1
  H  H2  1  0.298919  0.291700  0.102663  1
  H  H3  1  0.710610  0.769945  0.317225  1
  H  H4  1  0.651220  0.513082  0.882221  1
  H  H5  1  0.709857  0.523390  0.292881  1
  H  H6  1  0.790143  0.023390  0.292881  1
  H  H7  1  0.041923  0.166614  0.810920  1
  H  H8  1  0.789390  0.269945  0.317225  1
  H  H9  1  0.458077  0.833386  0.310920  1
  H  H10  1  0.345424  0.857786  0.144436  1
  H  H11  1  0.845424  0.642214  0.855564  1
  H  H12  1  0.949137  0.864081  0.110076  1
  H  H13  1  0.843794  0.058812  0.750834  1
  H  H14  1  0.343794  0.441188  0.249166  1
  H  H15  1  0.897662  0.927947  0.785557  1
  H  H16  1  0.345424  0.642214  0.644436  1
  H  H17  1  0.798919  0.208300  0.897337  1
  H  H18  1  0.092840  0.473952  0.337375  1
  H  H19  1  0.709857  0.976610  0.792881  1
  H  H20  1  0.848780  0.486918  0.382221  1
  H  H21  1  0.201081  0.791700  0.102663  1
  H  H22  1  0.050863  0.135919  0.889924  1
  H  H23  1  0.848780  0.013082  0.882221  1
  H  H24  1  0.907160  0.973952  0.162625  1
  H  H25  1  0.154576  0.357786  0.144436  1
  H  H26  1  0.289390  0.269945  0.182775  1
  H  H27  1  0.550863  0.135919  0.610076  1
  H  H28  1  0.958077  0.666614  0.689080  1
  H  H29  1  0.102338  0.072053  0.214443  1
  H  H30  1  0.156206  0.558812  0.749166  1
  H  H31  1  0.102338  0.427947  0.714443  1
  H  H32  1  0.290143  0.476610  0.707119  1
  H  H33  1  0.710610  0.730055  0.817225  1
  H  H34  1  0.449137  0.864081  0.389924  1
  H  H35  1  0.154576  0.142214  0.644436  1
  H  H36  1  0.592840  0.026048  0.662625  1
  H  H37  1  0.949137  0.635919  0.610076  1
  H  H38  1  0.397662  0.572053  0.214443  1
  H  H39  1  0.041923  0.333386  0.310920  1
  H  H40  1  0.654576  0.357786  0.355564  1
  H  H41  1  0.550863  0.364081  0.110076  1
  H  H42  1  0.701081  0.708300  0.897337  1
  H  H43  1  0.210610  0.730055  0.682775  1
  H  H44  1  0.151220  0.986918  0.117779  1
  H  H45  1  0.407160  0.526048  0.837375  1
  H  H46  1  0.298919  0.208300  0.602663  1
  H  H47  1  0.449137  0.635919  0.889924  1
  H  H48  1  0.789390  0.230055  0.817225  1
  H  H49  1  0.050863  0.364081  0.389924  1
  H  H50  1  0.790143  0.476610  0.792881  1
  H  H51  1  0.151220  0.513082  0.617779  1
  H  H52  1  0.348780  0.486918  0.117779  1
  H  H53  1  0.397662  0.927947  0.714443  1
  H  H54  1  0.092840  0.026048  0.837375  1
  H  H55  1  0.343794  0.058812  0.749166  1
  H  H56  1  0.201081  0.708300  0.602663  1
  H  H57  1  0.209857  0.976610  0.707119  1
  H  H58  1  0.656206  0.558812  0.750834  1
  H  H59  1  0.348780  0.013082  0.617779  1
  H  H60  1  0.602338  0.072053  0.285557  1
  H  H61  1  0.654576  0.142214  0.855564  1
  H  H62  1  0.798919  0.291700  0.397337  1
  H  H63  1  0.458077  0.666614  0.810920  1
  H  H64  1  0.156206  0.941188  0.249166  1
  H  H65  1  0.209857  0.523390  0.207119  1
  H  H66  1  0.845424  0.857786  0.355564  1
  H  H67  1  0.289390  0.230055  0.682775  1
  H  H68  1  0.907160  0.526048  0.662625  1
  H  H69  1  0.290143  0.023390  0.207119  1
  H  H70  1  0.541923  0.333386  0.189080  1
  H  H71  1  0.602338  0.427947  0.785557  1
  H  H72  1  0.541923  0.166614  0.689080  1
  H  H73  1  0.651220  0.986918  0.382221  1
  H  H74  1  0.701081  0.791700  0.397337  1
  H  H75  1  0.210610  0.769945  0.182775  1
  H  H76  1  0.958077  0.833386  0.189080  1
  H  H77  1  0.656206  0.941188  0.250834  1
  H  H78  1  0.843794  0.441188  0.250834  1
  H  H79  1  0.897662  0.572053  0.285557  1
  C  C80  1  0.378097  0.255984  0.842445  1
  C  C81  1  0.878097  0.255984  0.657555  1
  C  C82  1  0.378097  0.244016  0.342445  1
  C  C83  1  0.024640  0.398330  0.345483  1
  C  C84  1  0.947435  0.573106  0.103421  1
  C  C85  1  0.174449  0.997082  0.210574  1
  C  C86  1  0.024640  0.101670  0.845483  1
  C  C87  1  0.052565  0.426894  0.896579  1
  C  C88  1  0.825551  0.497082  0.289426  1
  C  C89  1  0.621903  0.744016  0.157555  1
  C  C90  1  0.975360  0.898330  0.154517  1
  C  C91  1  0.269916  0.329938  0.145929  1
  C  C92  1  0.674449  0.997082  0.289426  1
  C  C93  1  0.524640  0.398330  0.154517  1
  C  C94  1  0.475360  0.601670  0.845483  1
  C  C95  1  0.230084  0.670062  0.645929  1
  C  C96  1  0.825551  0.002918  0.789426  1
  C  C97  1  0.975360  0.601670  0.654517  1
  C  C98  1  0.621903  0.755984  0.657555  1
  C  C99  1  0.269916  0.170062  0.645929  1
  C  C100  1  0.947435  0.926894  0.603421  1
  C  C101  1  0.524640  0.101670  0.654517  1
  C  C102  1  0.674449  0.502918  0.789426  1
  C  C103  1  0.325551  0.002918  0.710574  1
  C  C104  1  0.230084  0.829938  0.145929  1
  C  C105  1  0.052565  0.073106  0.396579  1
  C  C106  1  0.475360  0.898330  0.345483  1
  C  C107  1  0.769916  0.329938  0.354071  1
  C  C108  1  0.174449  0.502918  0.710574  1
  C  C109  1  0.552565  0.073106  0.103421  1
  C  C110  1  0.878097  0.244016  0.157555  1
  C  C111  1  0.121903  0.755984  0.842445  1
  C  C112  1  0.769916  0.170062  0.854071  1
  C  C113  1  0.730084  0.670062  0.854071  1
  C  C114  1  0.325551  0.497082  0.210574  1
  C  C115  1  0.121903  0.744016  0.342445  1
  C  C116  1  0.552565  0.426894  0.603421  1
  C  C117  1  0.447435  0.573106  0.396579  1
  C  C118  1  0.730084  0.829938  0.354071  1
  C  C119  1  0.447435  0.926894  0.896579  1
  Se  Se120  1  0.339725  0.120107  0.464055  1
  Se  Se121  1  0.339725  0.379893  0.964055  1
  Se  Se122  1  0.839725  0.120107  0.035945  1
  Se  Se123  1  0.839725  0.379893  0.535945  1
  Se  Se124  1  0.660275  0.879893  0.535945  1
  Se  Se125  1  0.660275  0.620107  0.035945  1
  Se  Se126  1  0.160275  0.879893  0.964055  1
  Se  Se127  1  0.160275  0.620107  0.464055  1
  S  S128  1  0.128350  0.789616  0.413255  1
  S  S129  1  0.086655  0.128035  0.464177  1
  S  S130  1  0.586655  0.371965  0.535823  1
  S  S131  1  0.913345  0.871965  0.535823  1
  S  S132  1  0.128350  0.710384  0.913255  1
  S  S133  1  0.871650  0.289616  0.086745  1
  S  S134  1  0.086655  0.371965  0.964177  1
  S  S135  1  0.413345  0.871965  0.964177  1
  S  S136  1  0.371650  0.289616  0.413255  1
  S  S137  1  0.586655  0.128035  0.035823  1
  S  S138  1  0.913345  0.628035  0.035823  1
  S  S139  1  0.413345  0.628035  0.464177  1
  S  S140  1  0.628350  0.789616  0.086745  1
  S  S141  1  0.371650  0.210384  0.913255  1
  S  S142  1  0.628350  0.710384  0.586745  1
  S  S143  1  0.871650  0.210384  0.586745  1
  N  N144  1  0.365668  0.067722  0.655077  1
  N  N145  1  0.526156  0.463920  0.651277  1
  N  N146  1  0.616876  0.783954  0.708344  1
  N  N147  1  0.383124  0.216046  0.291656  1
  N  N148  1  0.026156  0.463920  0.848723  1
  N  N149  1  0.634332  0.932278  0.344923  1
  N  N150  1  0.365668  0.432278  0.155077  1
  N  N151  1  0.026156  0.036080  0.348723  1
  N  N152  1  0.526156  0.036080  0.151277  1
  N  N153  1  0.383124  0.283954  0.791656  1
  N  N154  1  0.865668  0.432278  0.344923  1
  N  N155  1  0.134332  0.567722  0.655077  1
  N  N156  1  0.634332  0.567722  0.844923  1
  N  N157  1  0.883124  0.283954  0.708344  1
  N  N158  1  0.883124  0.216046  0.208344  1
  N  N159  1  0.116876  0.783954  0.791656  1
  N  N160  1  0.616876  0.716046  0.208344  1
  N  N161  1  0.973844  0.536080  0.151277  1
  N  N162  1  0.473844  0.963920  0.848723  1
  N  N163  1  0.473844  0.536080  0.348723  1
  N  N164  1  0.116876  0.716046  0.291656  1
  N  N165  1  0.134332  0.932278  0.155077  1
  N  N166  1  0.865668  0.067722  0.844923  1
  N  N167  1  0.973844  0.963920  0.651277  1
  Cl  Cl168  1  0.826101  0.589261  0.459562  1
  Cl  Cl169  1  0.173899  0.410739  0.540438  1
  Cl  Cl170  1  0.826101  0.910739  0.959562  1
  Cl  Cl171  1  0.173899  0.089261  0.040438  1
  Cl  Cl172  1  0.326101  0.910739  0.540438  1
  Cl  Cl173  1  0.673899  0.410739  0.959562  1
  Cl  Cl174  1  0.326101  0.589261  0.040438  1
  Cl  Cl175  1  0.673899  0.089261  0.459562  1
