# generated using pymatgen
data_PHSF2
_symmetry_space_group_name_H-M   'P 1'
_cell_length_a   9.40331561
_cell_length_b   4.50408102
_cell_length_c   8.67488195
_cell_angle_alpha   90.00000000
_cell_angle_beta   98.13451351
_cell_angle_gamma   90.00000000
_symmetry_Int_Tables_number   1
_chemical_formula_structural   PHSF2
_chemical_formula_sum   'P4 H4 S4 F8'
_cell_volume   363.71318101
_cell_formula_units_Z   4
loop_
 _symmetry_equiv_pos_site_id
 _symmetry_equiv_pos_as_xyz
  1  'x, y, z'
loop_
 _atom_site_type_symbol
 _atom_site_label
 _atom_site_symmetry_multiplicity
 _atom_site_fract_x
 _atom_site_fract_y
 _atom_site_fract_z
 _atom_site_occupancy
  P  P0  1  0.271928  0.041869  0.583350  1
  P  P1  1  0.728072  0.541869  0.916650  1
  P  P2  1  0.728072  0.958131  0.416650  1
  P  P3  1  0.271928  0.458131  0.083350  1
  H  H4  1  0.236233  0.830637  0.464270  1
  H  H5  1  0.763767  0.330637  0.035730  1
  H  H6  1  0.763767  0.169363  0.535730  1
  H  H7  1  0.236233  0.669363  0.964270  1
  S  S8  1  0.124806  0.251005  0.664721  1
  S  S9  1  0.875194  0.751005  0.835279  1
  S  S10  1  0.875194  0.748995  0.335279  1
  S  S11  1  0.124806  0.248995  0.164721  1
  F  F12  1  0.386697  0.240292  0.514571  1
  F  F13  1  0.613303  0.740292  0.985429  1
  F  F14  1  0.613303  0.759708  0.485429  1
  F  F15  1  0.386697  0.259708  0.014571  1
  F  F16  1  0.377933  0.856533  0.704835  1
  F  F17  1  0.622067  0.356533  0.795165  1
  F  F18  1  0.622067  0.143467  0.295165  1
  F  F19  1  0.377933  0.643467  0.204835  1
