# generated using pymatgen
data_K6Al11Si13Ag5O48
_symmetry_space_group_name_H-M   'P 1'
_cell_length_a   12.69431074
_cell_length_b   12.60210994
_cell_length_c   12.39717017
_cell_angle_alpha   90.00000000
_cell_angle_beta   89.65835979
_cell_angle_gamma   90.00000000
_symmetry_Int_Tables_number   1
_chemical_formula_structural   K6Al11Si13Ag5O48
_chemical_formula_sum   'K6 Al11 Si13 Ag5 O48'
_cell_volume   1983.20327617
_cell_formula_units_Z   1
loop_
 _symmetry_equiv_pos_site_id
 _symmetry_equiv_pos_as_xyz
  1  'x, y, z'
loop_
 _atom_site_type_symbol
 _atom_site_label
 _atom_site_symmetry_multiplicity
 _atom_site_fract_x
 _atom_site_fract_y
 _atom_site_fract_z
 _atom_site_occupancy
  K  K0  1  0.539987  0.392187  0.998805  1
  K  K1  1  0.539987  0.607813  0.998805  1
  K  K2  1  0.760109  0.227018  0.760705  1
  K  K3  1  0.760384  0.227688  0.238367  1
  K  K4  1  0.760384  0.772312  0.238367  1
  K  K5  1  0.760109  0.772982  0.760705  1
  Al  Al6  1  0.363703  0.180037  0.000948  1
  Al  Al7  1  0.363703  0.819963  0.000948  1
  Al  Al8  1  0.366366  0.000000  0.809935  1
  Al  Al9  1  0.627614  0.176837  0.001989  1
  Al  Al10  1  0.622251  0.000000  0.194173  1
  Al  Al11  1  0.627614  0.823163  0.001989  1
  Al  Al12  1  0.625747  0.000000  0.808607  1
  Al  Al13  1  0.817860  0.373464  0.000161  1
  Al  Al14  1  0.817860  0.626536  0.000161  1
  Al  Al15  1  0.825424  0.000000  0.369727  1
  Al  Al16  1  0.827790  0.000000  0.629220  1
  Si  Si17  1  0.003207  0.375306  0.187119  1
  Si  Si18  1  0.005968  0.187153  0.626209  1
  Si  Si19  1  0.003207  0.624694  0.187119  1
  Si  Si20  1  0.005665  0.813826  0.371135  1
  Si  Si21  1  0.005453  0.374856  0.813375  1
  Si  Si22  1  0.005968  0.812847  0.626209  1
  Si  Si23  1  0.180409  0.626274  0.000334  1
  Si  Si24  1  0.180409  0.373726  0.000334  1
  Si  Si25  1  0.177900  0.000000  0.624686  1
  Si  Si26  1  0.178154  0.000000  0.369679  1
  Si  Si27  1  0.364516  0.000000  0.188808  1
  Si  Si28  1  0.005665  0.186174  0.371135  1
  Si  Si29  1  0.005453  0.625144  0.813375  1
  Ag  Ag30  1  0.195382  0.810924  0.804294  1
  Ag  Ag31  1  0.195382  0.189076  0.804294  1
  Ag  Ag32  1  0.194220  0.803392  0.189797  1
  Ag  Ag33  1  0.194220  0.196608  0.189797  1
  Ag  Ag34  1  0.774031  0.000000  0.998563  1
  O  O35  1  0.014618  0.293841  0.292326  1
  O  O36  1  0.012615  0.225889  0.498195  1
  O  O37  1  0.011746  0.500000  0.229108  1
  O  O38  1  0.016264  0.293775  0.707100  1
  O  O39  1  0.014618  0.706159  0.292326  1
  O  O40  1  0.016264  0.706225  0.707100  1
  O  O41  1  0.112589  0.111512  0.342823  1
  O  O42  1  0.109068  0.349104  0.110873  1
  O  O43  1  0.110929  0.349033  0.889873  1
  O  O44  1  0.112589  0.888488  0.342823  1
  O  O45  1  0.110887  0.111483  0.649541  1
  O  O46  1  0.109068  0.650896  0.110873  1
  O  O47  1  0.110929  0.650967  0.889873  1
  O  O48  1  0.110887  0.888517  0.649541  1
  O  O49  1  0.211288  0.500000  0.000029  1
  O  O50  1  0.204957  0.000000  0.496317  1
  O  O51  1  0.283747  0.300843  0.006334  1
  O  O52  1  0.278936  0.000000  0.697840  1
  O  O53  1  0.283747  0.699157  0.006334  1
  O  O54  1  0.282814  0.000000  0.295902  1
  O  O55  1  0.329897  0.107531  0.121255  1
  O  O56  1  0.324751  0.113122  0.885565  1
  O  O57  1  0.329897  0.892469  0.121255  1
  O  O58  1  0.324751  0.886878  0.885565  1
  O  O59  1  0.494264  0.213854  0.003729  1
  O  O60  1  0.495096  0.000000  0.773839  1
  O  O61  1  0.494264  0.786146  0.003729  1
  O  O62  1  0.484760  0.000000  0.224437  1
  O  O63  1  0.657932  0.111419  0.119377  1
  O  O64  1  0.663846  0.110753  0.886493  1
  O  O65  1  0.657932  0.888581  0.119377  1
  O  O66  1  0.663846  0.889247  0.886493  1
  O  O67  1  0.721395  0.000000  0.710523  1
  O  O68  1  0.708242  0.292075  0.001961  1
  O  O69  1  0.708242  0.707925  0.001961  1
  O  O70  1  0.714475  0.000000  0.294517  1
  O  O71  1  0.765336  0.500000  0.000223  1
  O  O72  1  0.792364  0.000000  0.500006  1
  O  O73  1  0.904231  0.118455  0.341194  1
  O  O74  1  0.899038  0.351741  0.118418  1
  O  O75  1  0.900251  0.351209  0.882144  1
  O  O76  1  0.904231  0.881545  0.341194  1
  O  O77  1  0.903695  0.120313  0.655754  1
  O  O78  1  0.899038  0.648259  0.118418  1
  O  O79  1  0.900251  0.648791  0.882144  1
  O  O80  1  0.903695  0.879687  0.655754  1
  O  O81  1  0.013602  0.500000  0.771478  1
  O  O82  1  0.012615  0.774111  0.498195  1
