# generated using pymatgen
data_Sr2La18AlSi11O52
_symmetry_space_group_name_H-M   'P 1'
_cell_length_a   9.76430582
_cell_length_b   19.56246277
_cell_length_c   7.30895344
_cell_angle_alpha   90.01608948
_cell_angle_beta   89.98582388
_cell_angle_gamma   119.97398955
_symmetry_Int_Tables_number   1
_chemical_formula_structural   Sr2La18AlSi11O52
_chemical_formula_sum   'Sr2 La18 Al1 Si11 O52'
_cell_volume   1209.38471751
_cell_formula_units_Z   1
loop_
 _symmetry_equiv_pos_site_id
 _symmetry_equiv_pos_as_xyz
  1  'x, y, z'
loop_
 _atom_site_type_symbol
 _atom_site_label
 _atom_site_symmetry_multiplicity
 _atom_site_fract_x
 _atom_site_fract_y
 _atom_site_fract_z
 _atom_site_occupancy
  Sr  Sr0  1  0.332903  0.832960  0.000626  1
  Sr  Sr1  1  0.666984  0.166745  0.500507  1
  La  La2  1  0.232719  0.994320  0.249211  1
  La  La3  1  0.004741  0.619293  0.248469  1
  La  La4  1  0.333038  0.832761  0.502040  1
  La  La5  1  0.242355  0.616691  0.750789  1
  La  La6  1  0.233696  0.495053  0.250811  1
  La  La7  1  0.755397  0.884336  0.249333  1
  La  La8  1  0.010868  0.121289  0.251492  1
  La  La9  1  0.665988  0.664040  0.497747  1
  La  La10  1  0.666221  0.663853  0.002367  1
  La  La11  1  0.336129  0.333718  0.497375  1
  La  La12  1  0.336597  0.333876  0.002682  1
  La  La13  1  0.988230  0.878383  0.751651  1
  La  La14  1  0.243867  0.115302  0.749374  1
  La  La15  1  0.771347  0.508079  0.750629  1
  La  La16  1  0.755493  0.384312  0.250737  1
  La  La17  1  0.666569  0.166679  0.002111  1
  La  La18  1  0.986888  0.377892  0.748534  1
  La  La19  1  0.767419  0.005814  0.749345  1
  Al  Al20  1  0.626954  0.513491  0.250284  1
  Si  Si21  1  0.029692  0.700474  0.749168  1
  Si  Si22  1  0.370116  0.985527  0.750731  1
  Si  Si23  1  0.399292  0.685338  0.251599  1
  Si  Si24  1  0.601068  0.814417  0.749419  1
  Si  Si25  1  0.029960  0.199946  0.751753  1
  Si  Si26  1  0.369675  0.484912  0.750175  1
  Si  Si27  1  0.970769  0.800962  0.251846  1
  Si  Si28  1  0.398850  0.184743  0.249641  1
  Si  Si29  1  0.600606  0.314855  0.751375  1
  Si  Si30  1  0.629635  0.014362  0.250921  1
  Si  Si31  1  0.970413  0.300187  0.249293  1
  O  O32  1  0.253885  0.954666  0.568706  1
  O  O33  1  0.249832  0.955852  0.928570  1
  O  O34  1  0.162346  0.840645  0.256627  1
  O  O35  1  0.121289  0.797535  0.745374  1
  O  O36  1  0.092736  0.673416  0.568424  1
  O  O37  1  0.087369  0.669784  0.927358  1
  O  O38  1  0.472815  0.939505  0.745519  1
  O  O39  1  0.319802  0.741466  0.256561  1
  O  O40  1  0.518056  0.918263  0.255777  1
  O  O41  1  0.406232  0.763884  0.745598  1
  O  O42  1  0.344111  0.628007  0.068661  1
  O  O43  1  0.344870  0.627004  0.432732  1
  O  O44  1  0.655153  0.872810  0.568243  1
  O  O45  1  0.662757  0.873998  0.927802  1
  O  O46  1  0.254553  0.454252  0.568728  1
  O  O47  1  0.253914  0.454350  0.931116  1
  O  O48  1  0.163670  0.339753  0.249350  1
  O  O49  1  0.123676  0.297701  0.750055  1
  O  O50  1  0.595171  0.735807  0.249827  1
  O  O51  1  0.483672  0.581036  0.750378  1
  O  O52  1  0.091300  0.172873  0.569816  1
  O  O53  1  0.094019  0.172894  0.931250  1
  O  O54  1  0.679322  0.757173  0.749682  1
  O  O55  1  0.525942  0.567400  0.249874  1
  O  O56  1  0.999308  0.999094  0.248428  1
  O  O57  1  0.000623  0.000738  0.748344  1
  O  O58  1  0.470983  0.437756  0.749874  1
  O  O59  1  0.314974  0.239462  0.249648  1
  O  O60  1  0.909169  0.827520  0.069516  1
  O  O61  1  0.906227  0.827402  0.431795  1
  O  O62  1  0.510876  0.409840  0.250695  1
  O  O63  1  0.404746  0.264124  0.749715  1
  O  O64  1  0.875800  0.703176  0.250065  1
  O  O65  1  0.836937  0.661727  0.749429  1
  O  O66  1  0.753567  0.549742  0.057783  1
  O  O67  1  0.754292  0.549731  0.442195  1
  O  O68  1  0.345530  0.126792  0.067878  1
  O  O69  1  0.338000  0.125651  0.428388  1
  O  O70  1  0.654156  0.372227  0.569659  1
  O  O71  1  0.653275  0.373272  0.931423  1
  O  O72  1  0.593497  0.236451  0.245664  1
  O  O73  1  0.481998  0.081739  0.755707  1
  O  O74  1  0.680828  0.259077  0.756145  1
  O  O75  1  0.527263  0.060541  0.245552  1
  O  O76  1  0.001092  0.500072  0.249247  1
  O  O77  1  0.001369  0.499148  0.749185  1
  O  O78  1  0.908623  0.327267  0.067522  1
  O  O79  1  0.913717  0.330719  0.428699  1
  O  O80  1  0.878375  0.202942  0.245385  1
  O  O81  1  0.837924  0.159697  0.756660  1
  O  O82  1  0.745961  0.045240  0.068671  1
  O  O83  1  0.749921  0.044169  0.428661  1
