# generated using pymatgen
data_KU2F9
_symmetry_space_group_name_H-M   'P 1'
_cell_length_a   9.65541696
_cell_length_b   8.14391828
_cell_length_c   10.73213944
_cell_angle_alpha   90.00000000
_cell_angle_beta   90.00000000
_cell_angle_gamma   90.00000000
_symmetry_Int_Tables_number   1
_chemical_formula_structural   KU2F9
_chemical_formula_sum   'K4 U8 F36'
_cell_volume   843.89953372
_cell_formula_units_Z   4
loop_
 _symmetry_equiv_pos_site_id
 _symmetry_equiv_pos_as_xyz
  1  'x, y, z'
loop_
 _atom_site_type_symbol
 _atom_site_label
 _atom_site_symmetry_multiplicity
 _atom_site_fract_x
 _atom_site_fract_y
 _atom_site_fract_z
 _atom_site_occupancy
  K  K0  1  0.250000  0.960063  0.495308  1
  K  K1  1  0.750000  0.039937  0.504692  1
  K  K2  1  0.750000  0.539937  -0.004692  1
  K  K3  1  0.250000  0.460063  0.004692  1
  U  U4  1  -0.015434  0.883524  0.845270  1
  U  U5  1  0.515434  0.883524  0.845270  1
  U  U6  1  0.015434  0.116476  0.154730  1
  U  U7  1  0.484566  0.116476  0.154730  1
  U  U8  1  -0.015434  0.383524  0.654730  1
  U  U9  1  0.515434  0.383524  0.654730  1
  U  U10  1  0.484566  0.616476  0.345270  1
  U  U11  1  0.015434  0.616476  0.345270  1
  F  F12  1  0.750000  0.344061  0.667229  1
  F  F13  1  0.079339  0.392015  0.236193  1
  F  F14  1  0.750000  0.844061  0.832771  1
  F  F15  1  0.250000  0.655939  0.332771  1
  F  F16  1  0.890964  0.933751  0.041890  1
  F  F17  1  0.908731  0.289084  0.041417  1
  F  F18  1  0.250000  0.155939  0.167229  1
  F  F19  1  0.390964  0.566249  0.541890  1
  F  F20  1  0.609036  0.933751  0.041890  1
  F  F21  1  0.111855  0.360009  0.809184  1
  F  F22  1  0.888145  0.139990  0.309184  1
  F  F23  1  0.408731  0.710916  0.958583  1
  F  F24  1  0.890964  0.433751  0.458110  1
  F  F25  1  0.079339  0.892015  0.263807  1
  F  F26  1  0.408731  0.210916  0.541417  1
  F  F27  1  0.888145  0.639991  0.190816  1
  F  F28  1  0.609036  0.433751  0.458110  1
  F  F29  1  0.908731  0.789084  0.458583  1
  F  F30  1  0.388145  0.860009  0.690816  1
  F  F31  1  0.591269  0.289084  0.041417  1
  F  F32  1  0.420661  0.392015  0.236193  1
  F  F33  1  0.579339  0.107985  0.736193  1
  F  F34  1  0.091269  0.710916  0.958583  1
  F  F35  1  0.390964  0.066249  0.958110  1
  F  F36  1  0.109036  0.566249  0.541890  1
  F  F37  1  0.920661  0.107985  0.736193  1
  F  F38  1  0.611855  0.139990  0.309184  1
  F  F39  1  0.111855  0.860009  0.690816  1
  F  F40  1  0.579339  0.607985  0.763807  1
  F  F41  1  0.420661  0.892015  0.263807  1
  F  F42  1  0.091269  0.210916  0.541417  1
  F  F43  1  0.920661  0.607985  0.763807  1
  F  F44  1  0.388145  0.360009  0.809184  1
  F  F45  1  0.591269  0.789084  0.458583  1
  F  F46  1  0.109036  0.066249  0.958110  1
  F  F47  1  0.611855  0.639991  0.190816  1
