# generated using pymatgen
data_KLiSO4
_symmetry_space_group_name_H-M   'P 1'
_cell_length_a   5.19846154
_cell_length_b   5.22727597
_cell_length_c   8.80271443
_cell_angle_alpha   89.83648153
_cell_angle_beta   89.67114909
_cell_angle_gamma   60.18217919
_symmetry_Int_Tables_number   1
_chemical_formula_structural   KLiSO4
_chemical_formula_sum   'K2 Li2 S2 O8'
_cell_volume   207.53181871
_cell_formula_units_Z   2
loop_
 _symmetry_equiv_pos_site_id
 _symmetry_equiv_pos_as_xyz
  1  'x, y, z'
loop_
 _atom_site_type_symbol
 _atom_site_label
 _atom_site_symmetry_multiplicity
 _atom_site_fract_x
 _atom_site_fract_y
 _atom_site_fract_z
 _atom_site_occupancy
  Li  Li0  1  0.634683  0.660531  0.308057  1
  Li  Li1  1  0.295214  0.339469  0.808057  1
  O  O2  1  0.022071  0.333563  0.243598  1
  O  O3  1  0.355634  0.666437  0.743598  1
  O  O4  1  0.563347  0.052534  0.250815  1
  O  O5  1  0.615881  0.947466  0.750815  1
  O  O6  1  0.657580  0.654710  0.528926  1
  O  O7  1  0.312290  0.345290  0.028926  1
  O  O8  1  0.895526  0.409529  0.763859  1
  O  O9  1  0.305055  0.590471  0.263859  1
  S  S10  1  0.300439  0.330475  0.197812  1
  S  S11  1  0.630914  0.669525  0.697812  1
  K  K12  1  0.961270  0.002827  0.493933  1
  K  K13  1  0.964097  0.997173  0.993933  1
