# generated using pymatgen
data_Co3Ge(CO)10
_symmetry_space_group_name_H-M   'P 1'
_cell_length_a   8.79618045
_cell_length_b   9.28224228
_cell_length_c   22.20795171
_cell_angle_alpha   95.67277349
_cell_angle_beta   96.66690631
_cell_angle_gamma   117.70248195
_symmetry_Int_Tables_number   1
_chemical_formula_structural   Co3Ge(CO)10
_chemical_formula_sum   'Co12 Ge4 C40 O40'
_cell_volume   1570.27844030
_cell_formula_units_Z   4
loop_
 _symmetry_equiv_pos_site_id
 _symmetry_equiv_pos_as_xyz
  1  'x, y, z'
loop_
 _atom_site_type_symbol
 _atom_site_label
 _atom_site_symmetry_multiplicity
 _atom_site_fract_x
 _atom_site_fract_y
 _atom_site_fract_z
 _atom_site_occupancy
  Co  Co0  1  0.787238  0.620242  0.929088  1
  Co  Co1  1  0.212762  0.379758  0.070912  1
  Co  Co2  1  0.982290  0.255446  0.138120  1
  Co  Co3  1  0.341942  0.755157  0.235395  1
  Co  Co4  1  0.163987  0.442199  0.384944  1
  Co  Co5  1  0.836013  0.557801  0.615056  1
  Co  Co6  1  0.017710  0.744554  0.861880  1
  Co  Co7  1  0.480983  0.414193  0.746329  1
  Co  Co8  1  0.593719  0.264040  0.569822  1
  Co  Co9  1  0.519017  0.585807  0.253671  1
  Co  Co10  1  0.658058  0.244843  0.764605  1
  Co  Co11  1  0.406281  0.735960  0.430178  1
  Ge  Ge12  1  0.657246  0.377724  0.678213  1
  Ge  Ge13  1  0.261594  0.488194  0.179341  1
  Ge  Ge14  1  0.738406  0.511806  0.820659  1
  Ge  Ge15  1  0.342754  0.622276  0.321787  1
  C  C16  1  0.528167  0.613472  0.734465  1
  C  C17  1  0.647961  0.706978  0.907346  1
  C  C18  1  0.801901  0.109068  0.080760  1
  C  C19  1  0.121887  0.260546  0.336798  1
  C  C20  1  0.298077  0.277412  0.688774  1
  C  C21  1  0.859864  0.265993  0.753109  1
  C  C22  1  0.946426  0.883637  0.834745  1
  C  C23  1  0.634368  0.865708  0.442988  1
  C  C24  1  0.365632  0.134292  0.557012  1
  C  C25  1  0.639952  0.176592  0.836078  1
  C  C26  1  0.481910  0.061485  0.718955  1
  C  C27  1  0.407112  0.528722  0.423764  1
  C  C28  1  0.121636  0.683763  0.809971  1
  C  C29  1  0.701923  0.722588  0.311226  1
  C  C30  1  0.014082  0.515935  0.635512  1
  C  C31  1  0.688665  0.139006  0.592837  1
  C  C32  1  0.140136  0.734007  0.246891  1
  C  C33  1  0.099685  0.242981  0.999547  1
  C  C34  1  0.471833  0.386528  0.265535  1
  C  C35  1  0.649114  0.436417  0.953520  1
  C  C36  1  0.352039  0.293022  0.092654  1
  C  C37  1  0.311335  0.860994  0.407163  1
  C  C38  1  0.878364  0.316237  0.190029  1
  C  C39  1  0.900315  0.757019  0.000453  1
  C  C40  1  0.631099  0.636143  0.190906  1
  C  C41  1  0.198099  0.890932  0.919240  1
  C  C42  1  0.360500  0.738249  0.506450  1
  C  C43  1  0.360048  0.823408  0.163922  1
  C  C44  1  0.518090  0.938515  0.281045  1
  C  C45  1  0.020019  0.414725  0.081845  1
  C  C46  1  0.639500  0.261751  0.493550  1
  C  C47  1  0.368901  0.363857  0.809094  1
  C  C48  1  0.878113  0.739454  0.663202  1
  C  C49  1  0.900681  0.632809  0.546386  1
  C  C50  1  0.099319  0.367191  0.453614  1
  C  C51  1  0.350886  0.563583  0.046480  1
  C  C52  1  0.592888  0.471278  0.576236  1
  C  C53  1  0.053574  0.116363  0.165255  1
  C  C54  1  0.979981  0.585275  0.918155  1
  C  C55  1  0.985918  0.484065  0.364488  1
  O  O56  1  0.504291  0.475394  0.434241  1
  O  O57  1  0.252660  0.944908  0.394147  1
  O  O58  1  0.939498  0.679005  0.501193  1
  O  O59  1  0.292458  0.329499  0.849193  1
  O  O60  1  0.365714  0.941601  0.690199  1
  O  O61  1  0.747340  0.055092  0.605853  1
  O  O62  1  0.556446  0.326697  0.974902  1
  O  O63  1  0.707542  0.670501  0.150807  1
  O  O64  1  0.973925  0.846464  0.046612  1
  O  O65  1  0.900563  0.975210  0.820001  1
  O  O66  1  0.026075  0.153536  0.953388  1
  O  O67  1  0.687976  0.020439  0.041396  1
  O  O68  1  0.048946  0.508685  0.934124  1
  O  O69  1  0.798302  0.346021  0.222268  1
  O  O70  1  0.827039  0.810075  0.346783  1
  O  O71  1  0.782355  0.957046  0.457410  1
  O  O72  1  0.443554  0.673303  0.025098  1
  O  O73  1  0.989852  0.268138  0.746997  1
  O  O74  1  0.217645  0.042954  0.542590  1
  O  O75  1  0.917800  0.866236  0.692295  1
  O  O76  1  0.172961  0.189925  0.653217  1
  O  O77  1  0.452302  0.258507  0.274118  1
  O  O78  1  0.010148  0.731862  0.253003  1
  O  O79  1  0.060502  0.320995  0.498807  1
  O  O80  1  0.495709  0.524606  0.565759  1
  O  O81  1  0.367721  0.878429  0.119066  1
  O  O82  1  0.312024  0.979561  0.958604  1
  O  O83  1  0.082200  0.133764  0.307705  1
  O  O84  1  0.632279  0.121571  0.880934  1
  O  O85  1  0.547698  0.741493  0.725882  1
  O  O86  1  0.099437  0.024790  0.179999  1
  O  O87  1  0.442462  0.237752  0.106063  1
  O  O88  1  0.634286  0.058399  0.309801  1
  O  O89  1  0.951054  0.491315  0.065876  1
  O  O90  1  0.868753  0.508002  0.354097  1
  O  O91  1  0.328821  0.743095  0.555467  1
  O  O92  1  0.671179  0.256905  0.444533  1
  O  O93  1  0.557538  0.762248  0.893937  1
  O  O94  1  0.131247  0.491998  0.645903  1
  O  O95  1  0.201698  0.653979  0.777732  1
