# generated using pymatgen
data_K2Ta2(OF2)3
_symmetry_space_group_name_H-M   'P 1'
_cell_length_a   5.68397250
_cell_length_b   10.42909235
_cell_length_c   14.77338936
_cell_angle_alpha   90.00000000
_cell_angle_beta   90.00000000
_cell_angle_gamma   90.00000000
_symmetry_Int_Tables_number   1
_chemical_formula_structural   K2Ta2(OF2)3
_chemical_formula_sum   'K8 Ta8 O12 F24'
_cell_volume   875.74693348
_cell_formula_units_Z   4
loop_
 _symmetry_equiv_pos_site_id
 _symmetry_equiv_pos_as_xyz
  1  'x, y, z'
loop_
 _atom_site_type_symbol
 _atom_site_label
 _atom_site_symmetry_multiplicity
 _atom_site_fract_x
 _atom_site_fract_y
 _atom_site_fract_z
 _atom_site_occupancy
  O  O0  1  0.999124  0.367463  0.571871  1
  O  O1  1  0.499124  0.632537  0.428129  1
  O  O2  1  0.500876  0.867463  0.928129  1
  O  O3  1  0.000876  0.132537  0.071871  1
  O  O4  1  0.000876  0.632537  0.428129  1
  O  O5  1  0.500876  0.367463  0.571871  1
  O  O6  1  0.499124  0.132537  0.071871  1
  O  O7  1  0.999124  0.867463  0.928129  1
  O  O8  1  0.250000  0.897037  0.094163  1
  O  O9  1  0.750000  0.102963  0.905837  1
  O  O10  1  0.250000  0.397037  0.405837  1
  O  O11  1  0.750000  0.602963  0.594163  1
  F  F12  1  0.250000  0.647560  0.895264  1
  F  F13  1  0.750000  0.352440  0.104736  1
  F  F14  1  0.250000  0.147560  0.604736  1
  F  F15  1  0.750000  0.852440  0.395264  1
  F  F16  1  0.750000  0.767008  0.785493  1
  F  F17  1  0.250000  0.232992  0.214507  1
  F  F18  1  0.750000  0.267008  0.714507  1
  F  F19  1  0.250000  0.732992  0.285493  1
  F  F20  1  0.985304  0.986968  0.760452  1
  F  F21  1  0.485304  0.013032  0.239548  1
  F  F22  1  0.514696  0.486968  0.739548  1
  F  F23  1  0.014696  0.513032  0.260452  1
  F  F24  1  0.014696  0.013032  0.239548  1
  F  F25  1  0.514696  0.986968  0.760452  1
  F  F26  1  0.485304  0.513032  0.260452  1
  F  F27  1  0.985304  0.486968  0.739548  1
  F  F28  1  0.983752  0.832638  0.552308  1
  F  F29  1  0.483752  0.167362  0.447692  1
  F  F30  1  0.516248  0.332638  0.947692  1
  F  F31  1  0.016248  0.667362  0.052308  1
  F  F32  1  0.016248  0.167362  0.447692  1
  F  F33  1  0.516248  0.832638  0.552308  1
  F  F34  1  0.483752  0.667362  0.052308  1
  F  F35  1  0.983752  0.332638  0.947692  1
  K  K36  1  0.250000  0.742764  0.709296  1
  K  K37  1  0.750000  0.257236  0.290704  1
  K  K38  1  0.250000  0.242764  0.790704  1
  K  K39  1  0.750000  0.757236  0.209296  1
  K  K40  1  0.250000  0.942686  0.398735  1
  K  K41  1  0.750000  0.057314  0.601265  1
  K  K42  1  0.250000  0.442686  0.101265  1
  K  K43  1  0.750000  0.557314  0.898735  1
  Ta  Ta44  1  0.250000  0.782894  0.991509  1
  Ta  Ta45  1  0.750000  0.217106  0.008491  1
  Ta  Ta46  1  0.250000  0.282894  0.508491  1
  Ta  Ta47  1  0.750000  0.717106  0.491509  1
  Ta  Ta48  1  0.250000  0.565723  0.352537  1
  Ta  Ta49  1  0.750000  0.434277  0.647463  1
  Ta  Ta50  1  0.250000  0.065723  0.147463  1
  Ta  Ta51  1  0.750000  0.934277  0.852537  1
