# generated using pymatgen
data_H4CN5Cl
_symmetry_space_group_name_H-M   'P 1'
_cell_length_a   6.02415868
_cell_length_b   6.02415868
_cell_length_c   9.82032981
_cell_angle_alpha   88.81238945
_cell_angle_beta   91.18761055
_cell_angle_gamma   50.86578375
_symmetry_Int_Tables_number   1
_chemical_formula_structural   H4CN5Cl
_chemical_formula_sum   'H8 C2 N10 Cl2'
_cell_volume   276.11455483
_cell_formula_units_Z   2
loop_
 _symmetry_equiv_pos_site_id
 _symmetry_equiv_pos_as_xyz
  1  'x, y, z'
loop_
 _atom_site_type_symbol
 _atom_site_label
 _atom_site_symmetry_multiplicity
 _atom_site_fract_x
 _atom_site_fract_y
 _atom_site_fract_z
 _atom_site_occupancy
  H  H0  1  0.318355  0.946343  0.053983  1
  H  H1  1  0.053657  0.681645  0.553983  1
  H  H2  1  0.513380  0.919565  0.913164  1
  H  H3  1  0.080435  0.486620  0.413164  1
  H  H4  1  0.804130  0.486623  0.803106  1
  H  H5  1  0.513377  0.195870  0.303106  1
  H  H6  1  0.733794  0.239116  0.821384  1
  H  H7  1  0.760884  0.266206  0.321384  1
  C  C8  1  0.508621  0.589855  0.939819  1
  C  C9  1  0.410145  0.491379  0.439819  1
  N  N10  1  0.393590  0.478404  0.006389  1
  N  N11  1  0.521596  0.606410  0.506389  1
  N  N12  1  0.165008  0.653318  0.064312  1
  N  N13  1  0.346682  0.834992  0.564312  1
  N  N14  1  0.957301  0.786902  0.120575  1
  N  N15  1  0.213098  0.042699  0.620575  1
  N  N16  1  0.425264  0.846443  0.966613  1
  N  N17  1  0.153557  0.574736  0.466613  1
  N  N18  1  0.702943  0.420962  0.850934  1
  N  N19  1  0.579038  0.297057  0.350934  1
  Cl  Cl20  1  0.841834  0.842890  0.750222  1
  Cl  Cl21  1  0.157110  0.158166  0.250222  1
