# generated using pymatgen
data_Tb(BO2)3
_symmetry_space_group_name_H-M   'P 1'
_cell_length_a   7.44562548
_cell_length_b   12.35736826
_cell_length_c   16.07657408
_cell_angle_alpha   90.00000000
_cell_angle_beta   90.00000000
_cell_angle_gamma   90.00000000
_symmetry_Int_Tables_number   1
_chemical_formula_structural   Tb(BO2)3
_chemical_formula_sum   'Tb16 B48 O96'
_cell_volume   1479.17882940
_cell_formula_units_Z   16
loop_
 _symmetry_equiv_pos_site_id
 _symmetry_equiv_pos_as_xyz
  1  'x, y, z'
loop_
 _atom_site_type_symbol
 _atom_site_label
 _atom_site_symmetry_multiplicity
 _atom_site_fract_x
 _atom_site_fract_y
 _atom_site_fract_z
 _atom_site_occupancy
  Tb  Tb0  1  0.250000  0.412522  0.548530  1
  Tb  Tb1  1  0.750000  0.230312  0.127586  1
  Tb  Tb2  1  0.250000  0.769688  0.872414  1
  Tb  Tb3  1  0.750000  0.587478  0.451470  1
  Tb  Tb4  1  0.250000  0.492181  0.879751  1
  Tb  Tb5  1  0.750000  0.566516  0.827892  1
  Tb  Tb6  1  0.750000  0.507819  0.120249  1
  Tb  Tb7  1  0.250000  0.730312  0.372414  1
  Tb  Tb8  1  0.750000  0.992181  0.620249  1
  Tb  Tb9  1  0.250000  0.433484  0.172108  1
  Tb  Tb10  1  0.750000  0.933484  0.327892  1
  Tb  Tb11  1  0.250000  0.066516  0.672108  1
  Tb  Tb12  1  0.250000  0.007819  0.379751  1
  Tb  Tb13  1  0.750000  0.912522  0.951470  1
  Tb  Tb14  1  0.750000  0.269688  0.627586  1
  Tb  Tb15  1  0.250000  0.087478  0.048530  1
  B  B16  1  0.572802  0.344967  0.442732  1
  B  B17  1  0.068574  0.128145  0.242545  1
  B  B18  1  0.438969  0.178162  0.531201  1
  B  B19  1  0.068574  0.371855  0.742545  1
  B  B20  1  0.423015  0.481865  0.346984  1
  B  B21  1  0.072802  0.844967  0.057268  1
  B  B22  1  0.923220  0.143573  0.390308  1
  B  B23  1  0.429653  0.686707  0.717278  1
  B  B24  1  0.061031  0.321838  0.031201  1
  B  B25  1  0.070347  0.686707  0.717278  1
  B  B26  1  0.438969  0.321838  0.031201  1
  B  B27  1  0.576780  0.143573  0.390308  1
  B  B28  1  0.561031  0.678162  0.968799  1
  B  B29  1  0.923015  0.981865  0.153016  1
  B  B30  1  0.570347  0.186707  0.782722  1
  B  B31  1  0.423220  0.643573  0.109692  1
  B  B32  1  0.938969  0.678162  0.968799  1
  B  B33  1  0.070347  0.813293  0.217278  1
  B  B34  1  0.929653  0.186707  0.782722  1
  B  B35  1  0.929653  0.313293  0.282722  1
  B  B36  1  0.927198  0.344967  0.442732  1
  B  B37  1  0.423015  0.018135  0.846984  1
  B  B38  1  0.568574  0.871855  0.757455  1
  B  B39  1  0.576780  0.356427  0.890308  1
  B  B40  1  0.568574  0.628145  0.257455  1
  B  B41  1  0.431426  0.371855  0.742545  1
  B  B42  1  0.076985  0.018135  0.846984  1
  B  B43  1  0.938969  0.821838  0.468799  1
  B  B44  1  0.429653  0.813293  0.217278  1
  B  B45  1  0.427198  0.655033  0.557269  1
  B  B46  1  0.927198  0.155033  0.942731  1
  B  B47  1  0.076780  0.856427  0.609692  1
  B  B48  1  0.561031  0.821838  0.468799  1
  B  B49  1  0.923015  0.518135  0.653016  1
  B  B50  1  0.076780  0.643573  0.109692  1
  B  B51  1  0.576985  0.981865  0.153016  1
  B  B52  1  0.572802  0.155033  0.942731  1
  B  B53  1  0.570347  0.313293  0.282722  1
  B  B54  1  0.427198  0.844967  0.057268  1
  B  B55  1  0.923220  0.356427  0.890308  1
  B  B56  1  0.061031  0.178162  0.531201  1
  B  B57  1  0.931426  0.871855  0.757455  1
  B  B58  1  0.931426  0.628145  0.257455  1
  B  B59  1  0.431426  0.128145  0.242545  1
  B  B60  1  0.076985  0.481865  0.346984  1
  B  B61  1  0.072802  0.655033  0.557269  1
  B  B62  1  0.576985  0.518135  0.653016  1
  B  B63  1  0.423220  0.856427  0.609692  1
  O  O64  1  0.750000  0.802933  0.435534  1
  O  O65  1  0.750000  0.354175  0.255499  1
  O  O66  1  0.072634  0.765221  0.128949  1
  O  O67  1  0.563543  0.935357  0.835276  1
  O  O68  1  0.250000  0.197067  0.564466  1
  O  O69  1  0.479547  0.790768  0.979211  1
  O  O70  1  0.057179  0.068174  0.929860  1
  O  O71  1  0.435374  0.377408  0.951618  1
  O  O72  1  0.250000  0.892950  0.577906  1
  O  O73  1  0.540627  0.376145  0.095856  1
  O  O74  1  0.750000  0.392950  0.922094  1
  O  O75  1  0.564626  0.622592  0.048382  1
  O  O76  1  0.436606  0.398517  0.281969  1
  O  O77  1  0.564626  0.877408  0.548382  1
  O  O78  1  0.750000  0.038562  0.159067  1
  O  O79  1  0.250000  0.961438  0.840933  1
  O  O80  1  0.520453  0.290768  0.520789  1
  O  O81  1  0.480689  0.730281  0.276158  1
  O  O82  1  0.557179  0.931826  0.070139  1
  O  O83  1  0.563394  0.898517  0.218031  1
  O  O84  1  0.250000  0.362949  0.775514  1
  O  O85  1  0.936457  0.564643  0.335276  1
  O  O86  1  0.019311  0.730281  0.276158  1
  O  O87  1  0.072634  0.734779  0.628949  1
  O  O88  1  0.063394  0.101483  0.781969  1
  O  O89  1  0.479547  0.709232  0.479211  1
  O  O90  1  0.936606  0.898517  0.218031  1
  O  O91  1  0.935374  0.622592  0.048382  1
  O  O92  1  0.034950  0.577879  0.184883  1
  O  O93  1  0.936606  0.601483  0.718031  1
  O  O94  1  0.040627  0.876145  0.404144  1
  O  O95  1  0.436457  0.064643  0.164724  1
  O  O96  1  0.250000  0.603625  0.548018  1
  O  O97  1  0.534950  0.077879  0.315117  1
  O  O98  1  0.019311  0.769719  0.776158  1
  O  O99  1  0.250000  0.538562  0.340933  1
  O  O100  1  0.459373  0.623855  0.904144  1
  O  O101  1  0.572634  0.234779  0.871051  1
  O  O102  1  0.250000  0.302933  0.064466  1
  O  O103  1  0.936457  0.935357  0.835276  1
  O  O104  1  0.540627  0.123855  0.595856  1
  O  O105  1  0.750000  0.862949  0.724486  1
  O  O106  1  0.250000  0.896375  0.048018  1
  O  O107  1  0.427366  0.765221  0.128949  1
  O  O108  1  0.519311  0.230281  0.223841  1
  O  O109  1  0.959373  0.123855  0.595856  1
  O  O110  1  0.959373  0.376145  0.095856  1
  O  O111  1  0.980689  0.269719  0.723842  1
  O  O112  1  0.750000  0.697067  0.935534  1
  O  O113  1  0.942821  0.931826  0.070139  1
  O  O114  1  0.942821  0.568174  0.570140  1
  O  O115  1  0.520453  0.209232  0.020789  1
  O  O116  1  0.750000  0.103625  0.951982  1
  O  O117  1  0.436457  0.435357  0.664724  1
  O  O118  1  0.980689  0.230281  0.223841  1
  O  O119  1  0.442821  0.431826  0.429860  1
  O  O120  1  0.064626  0.122592  0.451618  1
  O  O121  1  0.965050  0.422121  0.815117  1
  O  O122  1  0.927366  0.265221  0.371051  1
  O  O123  1  0.250000  0.137051  0.275514  1
  O  O124  1  0.750000  0.637051  0.224486  1
  O  O125  1  0.427366  0.734779  0.628949  1
  O  O126  1  0.465050  0.577879  0.184883  1
  O  O127  1  0.250000  0.645825  0.744501  1
  O  O128  1  0.750000  0.461438  0.659067  1
  O  O129  1  0.979547  0.290768  0.520789  1
  O  O130  1  0.965050  0.077879  0.315117  1
  O  O131  1  0.572634  0.265221  0.371051  1
  O  O132  1  0.750000  0.396375  0.451982  1
  O  O133  1  0.563543  0.564643  0.335276  1
  O  O134  1  0.935374  0.877408  0.548382  1
  O  O135  1  0.435374  0.122592  0.451618  1
  O  O136  1  0.927366  0.234779  0.871051  1
  O  O137  1  0.034950  0.922121  0.684883  1
  O  O138  1  0.534950  0.422121  0.815117  1
  O  O139  1  0.040627  0.623855  0.904144  1
  O  O140  1  0.979547  0.209232  0.020789  1
  O  O141  1  0.442821  0.068174  0.929860  1
  O  O142  1  0.250000  0.607050  0.077906  1
  O  O143  1  0.436606  0.101483  0.781969  1
  O  O144  1  0.020453  0.709232  0.479211  1
  O  O145  1  0.563394  0.601483  0.718031  1
  O  O146  1  0.057179  0.431826  0.429860  1
  O  O147  1  0.459373  0.876145  0.404144  1
  O  O148  1  0.063394  0.398517  0.281969  1
  O  O149  1  0.020453  0.790768  0.979211  1
  O  O150  1  0.064626  0.377408  0.951618  1
  O  O151  1  0.750000  0.107050  0.422094  1
  O  O152  1  0.465050  0.922121  0.684883  1
  O  O153  1  0.063543  0.064643  0.164724  1
  O  O154  1  0.480689  0.769719  0.776158  1
  O  O155  1  0.063543  0.435357  0.664724  1
  O  O156  1  0.750000  0.145825  0.755499  1
  O  O157  1  0.557179  0.568174  0.570140  1
  O  O158  1  0.519311  0.269719  0.723842  1
  O  O159  1  0.250000  0.854175  0.244501  1
