# generated using pymatgen
data_Tl3PbCl5
_symmetry_space_group_name_H-M   'P 1'
_cell_length_a   8.81507247
_cell_length_b   8.79916935
_cell_length_c   14.61084134
_cell_angle_alpha   90.00000000
_cell_angle_beta   90.00000000
_cell_angle_gamma   90.00000000
_symmetry_Int_Tables_number   1
_chemical_formula_structural   Tl3PbCl5
_chemical_formula_sum   'Tl12 Pb4 Cl20'
_cell_volume   1133.29451820
_cell_formula_units_Z   4
loop_
 _symmetry_equiv_pos_site_id
 _symmetry_equiv_pos_as_xyz
  1  'x, y, z'
loop_
 _atom_site_type_symbol
 _atom_site_label
 _atom_site_symmetry_multiplicity
 _atom_site_fract_x
 _atom_site_fract_y
 _atom_site_fract_z
 _atom_site_occupancy
  Tl  Tl0  1  0.131201  0.161049  0.338930  1
  Tl  Tl1  1  0.159338  0.142818  0.640686  1
  Tl  Tl2  1  0.191095  0.496721  0.175652  1
  Tl  Tl3  1  0.308905  0.996721  0.074348  1
  Tl  Tl4  1  0.340662  0.642818  0.609314  1
  Tl  Tl5  1  0.368799  0.661049  0.911070  1
  Tl  Tl6  1  0.631201  0.338951  0.411070  1
  Tl  Tl7  1  0.659338  0.357182  0.109314  1
  Tl  Tl8  1  0.691095  0.003279  0.574348  1
  Tl  Tl9  1  0.808905  0.503279  0.675652  1
  Tl  Tl10  1  0.840662  0.857182  0.140686  1
  Tl  Tl11  1  0.868799  0.838951  0.838930  1
  Pb  Pb12  1  0.027215  0.310589  0.922371  1
  Pb  Pb13  1  0.472785  0.810589  0.327629  1
  Pb  Pb14  1  0.527215  0.189411  0.827629  1
  Pb  Pb15  1  0.972785  0.689411  0.422371  1
  Cl  Cl16  1  -0.000376  0.186597  0.117899  1
  Cl  Cl17  1  0.032610  0.628267  0.004443  1
  Cl  Cl18  1  0.149681  0.459436  0.769630  1
  Cl  Cl19  1  0.169778  0.834571  0.259200  1
  Cl  Cl20  1  0.176577  0.036951  0.858153  1
  Cl  Cl21  1  0.323423  0.536951  0.391847  1
  Cl  Cl22  1  0.330222  0.334571  0.990800  1
  Cl  Cl23  1  0.350319  0.959436  0.480370  1
  Cl  Cl24  1  0.467390  0.128267  0.245557  1
  Cl  Cl25  1  0.500376  0.686597  0.132101  1
  Cl  Cl26  1  0.499624  0.313403  0.632101  1
  Cl  Cl27  1  0.532610  0.871733  0.745557  1
  Cl  Cl28  1  0.649681  0.040564  0.980370  1
  Cl  Cl29  1  0.669778  0.665429  0.490800  1
  Cl  Cl30  1  0.676577  0.463049  0.891847  1
  Cl  Cl31  1  0.823423  0.963049  0.358153  1
  Cl  Cl32  1  0.830222  0.165429  0.759200  1
  Cl  Cl33  1  0.850319  0.540564  0.269630  1
  Cl  Cl34  1  0.967390  0.371733  0.504443  1
  Cl  Cl35  1  0.000376  0.813403  0.617899  1
