# generated using pymatgen
data_MoH2(CO2)2
_symmetry_space_group_name_H-M   'P 1'
_cell_length_a   5.88512203
_cell_length_b   13.39770956
_cell_length_c   19.79258192
_cell_angle_alpha   90.00000000
_cell_angle_beta   86.53796640
_cell_angle_gamma   90.00000000
_symmetry_Int_Tables_number   1
_chemical_formula_structural   MoH2(CO2)2
_chemical_formula_sum   'Mo12 H24 C24 O48'
_cell_volume   1557.74076511
_cell_formula_units_Z   12
loop_
 _symmetry_equiv_pos_site_id
 _symmetry_equiv_pos_as_xyz
  1  'x, y, z'
loop_
 _atom_site_type_symbol
 _atom_site_label
 _atom_site_symmetry_multiplicity
 _atom_site_fract_x
 _atom_site_fract_y
 _atom_site_fract_z
 _atom_site_occupancy
  Mo  Mo0  1  0.734722  0.946648  0.660086  1
  Mo  Mo1  1  0.315232  0.552696  0.510485  1
  Mo  Mo2  1  0.315232  0.947304  0.010485  1
  Mo  Mo3  1  0.684768  0.447304  0.489515  1
  Mo  Mo4  1  0.265278  0.053352  0.339914  1
  Mo  Mo5  1  0.265278  0.446648  0.839914  1
  Mo  Mo6  1  0.657927  0.993200  0.287200  1
  Mo  Mo7  1  0.342073  0.493200  0.212800  1
  Mo  Mo8  1  0.684768  0.052695  0.989515  1
  Mo  Mo9  1  0.342073  0.006800  0.712800  1
  Mo  Mo10  1  0.734722  0.553352  0.160086  1
  Mo  Mo11  1  0.657927  0.506800  0.787200  1
  H  H12  1  0.367940  0.127912  0.824967  1
  H  H13  1  0.002315  0.799804  0.242009  1
  H  H14  1  0.579850  0.715278  0.330708  1
  H  H15  1  0.757479  0.272709  0.915530  1
  H  H16  1  0.997685  0.200196  0.757991  1
  H  H17  1  0.632060  0.872088  0.175033  1
  H  H18  1  0.012001  0.743018  0.904603  1
  H  H19  1  0.579850  0.784722  0.830708  1
  H  H20  1  0.367940  0.372088  0.324967  1
  H  H21  1  0.478429  0.348893  0.032755  1
  H  H22  1  0.987999  0.256982  0.095397  1
  H  H23  1  0.002315  0.700196  0.742009  1
  H  H24  1  0.987999  0.243018  0.595397  1
  H  H25  1  0.242521  0.772709  0.584470  1
  H  H26  1  0.521571  0.848893  0.467245  1
  H  H27  1  0.420150  0.215278  0.169292  1
  H  H28  1  0.757479  0.227291  0.415530  1
  H  H29  1  0.997685  0.299804  0.257991  1
  H  H30  1  0.242521  0.727291  0.084470  1
  H  H31  1  0.632060  0.627912  0.675033  1
  H  H32  1  0.012001  0.756982  0.404603  1
  H  H33  1  0.521571  0.651107  0.967245  1
  H  H34  1  0.478429  0.151107  0.532755  1
  H  H35  1  0.420150  0.284722  0.669292  1
  C  C36  1  0.472128  0.394120  0.279305  1
  C  C37  1  0.527872  0.894120  0.220695  1
  C  C38  1  0.499799  0.603464  0.922440  1
  C  C39  1  0.947172  0.265185  0.543860  1
  C  C40  1  0.472128  0.105880  0.779305  1
  C  C41  1  0.052828  0.765185  0.956140  1
  C  C42  1  0.321023  0.668421  0.114103  1
  C  C43  1  0.868754  0.142497  0.750144  1
  C  C44  1  0.131246  0.642497  0.749856  1
  C  C45  1  0.500201  0.396536  0.077560  1
  C  C46  1  0.321023  0.831579  0.614103  1
  C  C47  1  0.131246  0.857503  0.249856  1
  C  C48  1  0.947172  0.234815  0.043860  1
  C  C49  1  0.435144  0.339014  0.710872  1
  C  C50  1  0.499799  0.896536  0.422440  1
  C  C51  1  0.527872  0.605880  0.720695  1
  C  C52  1  0.564856  0.839014  0.789128  1
  C  C53  1  0.868754  0.357503  0.250144  1
  C  C54  1  0.052828  0.734815  0.456140  1
  C  C55  1  0.564856  0.660986  0.289128  1
  C  C56  1  0.435144  0.160986  0.210872  1
  C  C57  1  0.678977  0.168421  0.385897  1
  C  C58  1  0.500201  0.103464  0.577560  1
  C  C59  1  0.678977  0.331579  0.885897  1
  O  O60  1  0.259476  0.347966  0.751607  1
  O  O61  1  0.083840  0.931390  0.287461  1
  O  O62  1  0.780914  0.336733  0.544663  1
  O  O63  1  0.660977  0.894511  0.376325  1
  O  O64  1  0.160320  0.525038  0.584197  1
  O  O65  1  0.963295  0.770076  0.507516  1
  O  O66  1  0.463012  0.337312  0.890865  1
  O  O67  1  0.625596  0.575955  0.534737  1
  O  O68  1  0.324937  0.838898  0.215836  1
  O  O69  1  0.316761  0.947400  0.422100  1
  O  O70  1  0.463012  0.162688  0.390865  1
  O  O71  1  0.916160  0.068610  0.712539  1
  O  O72  1  0.814683  0.112029  0.350504  1
  O  O73  1  0.780914  0.163267  0.044663  1
  O  O74  1  0.623530  0.114853  0.213191  1
  O  O75  1  0.536988  0.837312  0.609135  1
  O  O76  1  0.675063  0.338898  0.284164  1
  O  O77  1  0.036705  0.229924  0.492484  1
  O  O78  1  0.374404  0.424045  0.465263  1
  O  O79  1  0.376470  0.614853  0.286809  1
  O  O80  1  0.219086  0.663267  0.455337  1
  O  O81  1  0.376470  0.885147  0.786809  1
  O  O82  1  0.536988  0.662688  0.109135  1
  O  O83  1  0.374404  0.075955  0.965263  1
  O  O84  1  0.740524  0.847966  0.748393  1
  O  O85  1  0.625596  0.924045  0.034737  1
  O  O86  1  0.316761  0.552600  0.922100  1
  O  O87  1  0.160320  0.974962  0.084197  1
  O  O88  1  0.675063  0.161102  0.784164  1
  O  O89  1  0.683239  0.447400  0.077900  1
  O  O90  1  0.683239  0.052600  0.577900  1
  O  O91  1  0.814683  0.387971  0.850504  1
  O  O92  1  0.185317  0.887971  0.649496  1
  O  O93  1  0.963295  0.729924  0.007516  1
  O  O94  1  0.185317  0.612029  0.149496  1
  O  O95  1  0.839680  0.025038  0.915803  1
  O  O96  1  0.259476  0.152034  0.251607  1
  O  O97  1  0.839680  0.474962  0.415803  1
  O  O98  1  0.339023  0.105489  0.623675  1
  O  O99  1  0.036705  0.270076  0.992484  1
  O  O100  1  0.324937  0.661102  0.715836  1
  O  O101  1  0.740524  0.652034  0.248393  1
  O  O102  1  0.623530  0.385147  0.713191  1
  O  O103  1  0.916160  0.431390  0.212539  1
  O  O104  1  0.083840  0.568610  0.787461  1
  O  O105  1  0.219086  0.836733  0.955337  1
  O  O106  1  0.339023  0.394511  0.123675  1
  O  O107  1  0.660977  0.605489  0.876325  1
