# generated using pymatgen
data_H24C8Se(NO2)2
_symmetry_space_group_name_H-M   'P 1'
_cell_length_a   7.84111602
_cell_length_b   7.93730663
_cell_length_c   15.87341318
_cell_angle_alpha   59.80350851
_cell_angle_beta   60.13253999
_cell_angle_gamma   60.12964786
_symmetry_Int_Tables_number   1
_chemical_formula_structural   H24C8Se(NO2)2
_chemical_formula_sum   'H48 C16 Se2 N4 O8'
_cell_volume   698.89585775
_cell_formula_units_Z   2
loop_
 _symmetry_equiv_pos_site_id
 _symmetry_equiv_pos_as_xyz
  1  'x, y, z'
loop_
 _atom_site_type_symbol
 _atom_site_label
 _atom_site_symmetry_multiplicity
 _atom_site_fract_x
 _atom_site_fract_y
 _atom_site_fract_z
 _atom_site_occupancy
  H  H0  1  0.270193  0.496191  0.133667  1
  H  H1  1  0.035095  0.732214  0.251507  1
  H  H2  1  0.035256  0.503575  0.365683  1
  H  H3  1  0.270149  0.267444  0.248093  1
  H  H4  1  0.500981  0.269245  0.134650  1
  H  H5  1  0.038251  0.730150  0.365132  1
  H  H6  1  0.265669  0.970047  0.134431  1
  H  H7  1  0.266918  0.268454  0.484001  1
  H  H8  1  0.503300  0.730995  0.015588  1
  H  H9  1  0.502453  0.032199  0.365597  1
  H  H10  1  0.733978  0.034194  0.251018  1
  H  H11  1  0.268708  0.496354  0.483304  1
  H  H12  1  0.269665  0.966681  0.248335  1
  H  H13  1  0.734165  0.502343  0.017244  1
  H  H14  1  0.500286  0.964801  0.134757  1
  H  H15  1  0.499664  0.269360  0.481759  1
  H  H16  1  0.734199  0.034152  0.364846  1
  H  H17  1  0.734252  0.730106  0.017087  1
  H  H18  1  0.269643  0.495887  0.633736  1
  H  H19  1  0.035829  0.731274  0.751841  1
  H  H20  1  0.269711  0.267367  0.747960  1
  H  H21  1  0.035696  0.503132  0.866053  1
  H  H22  1  0.961452  0.272282  0.135515  1
  H  H23  1  0.500537  0.731620  0.366100  1
  H  H24  1  0.501527  0.269405  0.634680  1
  H  H25  1  0.040303  0.729912  0.864923  1
  H  H26  1  0.965852  0.499711  0.134565  1
  H  H27  1  0.731647  0.731360  0.251492  1
  H  H28  1  0.965547  0.270067  0.249155  1
  H  H29  1  0.731261  0.502489  0.365795  1
  H  H30  1  0.265906  0.269103  0.984841  1
  H  H31  1  0.502222  0.732087  0.515973  1
  H  H32  1  0.267070  0.967700  0.634354  1
  H  H33  1  0.503083  0.031018  0.865942  1
  H  H34  1  0.732706  0.035207  0.751299  1
  H  H35  1  0.271144  0.497300  0.982809  1
  H  H36  1  0.732483  0.502355  0.517437  1
  H  H37  1  0.270206  0.965500  0.748522  1
  H  H38  1  0.499931  0.963126  0.634648  1
  H  H39  1  0.734173  0.033929  0.865348  1
  H  H40  1  0.500569  0.269414  0.982217  1
  H  H41  1  0.734070  0.730248  0.516965  1
  H  H42  1  0.962019  0.268980  0.635076  1
  H  H43  1  0.504812  0.728887  0.864118  1
  H  H44  1  0.735759  0.730315  0.750313  1
  H  H45  1  0.964691  0.496830  0.634521  1
  H  H46  1  0.736111  0.501252  0.864991  1
  H  H47  1  0.964962  0.268177  0.749104  1
  C  C48  1  0.015769  0.330070  0.164303  1
  C  C49  1  0.328831  0.018444  0.163620  1
  C  C50  1  0.329300  0.327715  0.008841  1
  C  C51  1  0.330197  0.326692  0.163305  1
  C  C52  1  0.015747  0.327198  0.664220  1
  C  C53  1  0.328700  0.017483  0.663744  1
  C  C54  1  0.328220  0.326996  0.509122  1
  C  C55  1  0.330262  0.326372  0.663221  1
  C  C56  1  0.671492  0.672306  0.336401  1
  C  C57  1  0.673135  0.672181  0.491232  1
  C  C58  1  0.673476  0.982426  0.335828  1
  C  C59  1  0.983260  0.672924  0.336257  1
  C  C60  1  0.675127  0.671094  0.835262  1
  C  C61  1  0.674035  0.671954  0.990985  1
  C  C62  1  0.673712  0.982046  0.836235  1
  C  C63  1  0.984422  0.672620  0.836523  1
  Se  Se64  1  0.997547  0.000021  0.000294  1
  Se  Se65  1  0.960326  0.013459  0.506519  1
  N  N66  1  0.250930  0.250610  0.124975  1
  N  N67  1  0.250661  0.249471  0.625084  1
  N  N68  1  0.749877  0.750088  0.374993  1
  N  N69  1  0.751410  0.749602  0.874827  1
  O  O70  1  0.999167  0.120954  0.060851  1
  O  O71  1  0.222997  0.927398  0.462810  1
  O  O72  1  0.874901  0.825450  0.088329  1
  O  O73  1  0.868600  0.158737  0.406896  1
  O  O74  1  0.871481  0.157011  0.578458  1
  O  O75  1  0.241880  0.877714  0.939648  1
  O  O76  1  0.869914  0.813639  0.578759  1
  O  O77  1  0.875719  0.175488  0.912763  1
