# generated using pymatgen
data_CsFe2Se3
_symmetry_space_group_name_H-M   'P 1'
_cell_length_a   5.48508366
_cell_length_b   7.80374851
_cell_length_c   7.80374824
_cell_angle_alpha   102.40934181
_cell_angle_beta   90.00000000
_cell_angle_gamma   90.00000000
_symmetry_Int_Tables_number   1
_chemical_formula_structural   CsFe2Se3
_chemical_formula_sum   'Cs2 Fe4 Se6'
_cell_volume   326.22937012
_cell_formula_units_Z   2
loop_
 _symmetry_equiv_pos_site_id
 _symmetry_equiv_pos_as_xyz
  1  'x, y, z'
loop_
 _atom_site_type_symbol
 _atom_site_label
 _atom_site_symmetry_multiplicity
 _atom_site_fract_x
 _atom_site_fract_y
 _atom_site_fract_z
 _atom_site_occupancy
  Cs  Cs0  1  0.750000  0.662954  0.337046  1
  Cs  Cs1  1  0.250000  0.337046  0.662954  1
  Fe  Fe2  1  0.500000  0.131593  0.131593  1
  Fe  Fe3  1  0.000000  0.131593  0.131593  1
  Fe  Fe4  1  0.000000  0.868407  0.868407  1
  Fe  Fe5  1  0.500000  0.868407  0.868407  1
  Se  Se6  1  0.250000  0.377749  0.158092  1
  Se  Se7  1  0.750000  0.158092  0.377749  1
  Se  Se8  1  0.250000  0.875650  0.124350  1
  Se  Se9  1  0.750000  0.622251  0.841908  1
  Se  Se10  1  0.750000  0.124350  0.875650  1
  Se  Se11  1  0.250000  0.841908  0.622251  1
