# generated using pymatgen
data_Cu3Sn4PbO12
_symmetry_space_group_name_H-M   'P 1'
_cell_length_a   6.76423157
_cell_length_b   6.76614339
_cell_length_c   6.76306737
_cell_angle_alpha   109.52542444
_cell_angle_beta   109.44305379
_cell_angle_gamma   109.45979508
_symmetry_Int_Tables_number   1
_chemical_formula_structural   Cu3Sn4PbO12
_chemical_formula_sum   'Cu3 Sn4 Pb1 O12'
_cell_volume   238.23357092
_cell_formula_units_Z   1
loop_
 _symmetry_equiv_pos_site_id
 _symmetry_equiv_pos_as_xyz
  1  'x, y, z'
loop_
 _atom_site_type_symbol
 _atom_site_label
 _atom_site_symmetry_multiplicity
 _atom_site_fract_x
 _atom_site_fract_y
 _atom_site_fract_z
 _atom_site_occupancy
  Cu  Cu0  1  0.499898  0.000058  0.499997  1
  Cu  Cu1  1  0.499895  0.499758  0.999879  1
  Cu  Cu2  1  0.999963  0.499969  0.499986  1
  Sn  Sn3  1  0.999888  0.999943  0.499784  1
  Sn  Sn4  1  0.499916  0.999814  0.999977  1
  Sn  Sn5  1  0.500386  0.500313  0.500379  1
  Sn  Sn6  1  0.999985  0.500143  0.000045  1
  Pb  Pb7  1  0.000642  0.001238  0.000258  1
  O  O8  1  0.173101  0.686805  0.860097  1
  O  O9  1  0.173179  0.313071  0.486187  1
  O  O10  1  0.313105  0.486085  0.173035  1
  O  O11  1  0.313137  0.139958  0.826922  1
  O  O12  1  0.513834  0.826847  0.686927  1
  O  O13  1  0.686702  0.513366  0.826912  1
  O  O14  1  0.826966  0.687029  0.513760  1
  O  O15  1  0.139755  0.826705  0.313107  1
  O  O16  1  0.860164  0.173217  0.686904  1
  O  O17  1  0.826848  0.312821  0.139816  1
  O  O18  1  0.686420  0.859549  0.172916  1
  O  O19  1  0.486216  0.173313  0.313112  1
