# generated using pymatgen
data_NdO3
_symmetry_space_group_name_H-M   'P 1'
_cell_length_a   4.20756684
_cell_length_b   9.14279236
_cell_length_c   4.26656555
_cell_angle_alpha   55.55664307
_cell_angle_beta   119.59320239
_cell_angle_gamma   119.25073643
_symmetry_Int_Tables_number   1
_chemical_formula_structural   NdO3
_chemical_formula_sum   'Nd2 O6'
_cell_volume   112.57327543
_cell_formula_units_Z   2
loop_
 _symmetry_equiv_pos_site_id
 _symmetry_equiv_pos_as_xyz
  1  'x, y, z'
loop_
 _atom_site_type_symbol
 _atom_site_label
 _atom_site_symmetry_multiplicity
 _atom_site_fract_x
 _atom_site_fract_y
 _atom_site_fract_z
 _atom_site_occupancy
  Nd  Nd0  1  0.305994  0.747059  0.093604  1
  Nd  Nd1  1  0.747192  0.366963  0.785450  1
  O  O2  1  0.924858  0.676165  0.491194  1
  O  O3  1  0.234155  0.169169  0.182087  1
  O  O4  1  0.101507  0.419051  0.384756  1
  O  O5  1  0.385330  0.097895  0.582952  1
  O  O6  1  0.701556  0.857537  0.652500  1
  O  O7  1  0.600832  0.664276  0.832797  1
