# generated using pymatgen
data_LiSc(SiO3)2
_symmetry_space_group_name_H-M   'P 1'
_cell_length_a   5.40307569
_cell_length_b   9.06691460
_cell_length_c   9.50632152
_cell_angle_alpha   90.00000000
_cell_angle_beta   101.55395137
_cell_angle_gamma   90.00000000
_symmetry_Int_Tables_number   1
_chemical_formula_structural   LiSc(SiO3)2
_chemical_formula_sum   'Li4 Sc4 Si8 O24'
_cell_volume   456.27049014
_cell_formula_units_Z   4
loop_
 _symmetry_equiv_pos_site_id
 _symmetry_equiv_pos_as_xyz
  1  'x, y, z'
loop_
 _atom_site_type_symbol
 _atom_site_label
 _atom_site_symmetry_multiplicity
 _atom_site_fract_x
 _atom_site_fract_y
 _atom_site_fract_z
 _atom_site_occupancy
  Li  Li0  1  0.008150  0.000176  0.247213  1
  Li  Li1  1  0.508150  0.499824  0.247213  1
  Li  Li2  1  0.991850  0.999824  0.752787  1
  Li  Li3  1  0.491850  0.500176  0.752787  1
  O  O4  1  0.567337  0.769986  0.600439  1
  O  O5  1  0.067337  0.730014  0.600439  1
  O  O6  1  0.432663  0.230014  0.399561  1
  O  O7  1  0.932663  0.269986  0.399561  1
  O  O8  1  0.765356  0.505185  0.624756  1
  O  O9  1  0.734644  0.005185  0.375244  1
  O  O10  1  0.234644  0.494815  0.375244  1
  O  O11  1  0.265356  0.994815  0.624756  1
  O  O12  1  0.704213  0.332898  0.871621  1
  O  O13  1  0.795787  0.832898  0.128379  1
  O  O14  1  0.295787  0.667102  0.128379  1
  O  O15  1  0.204213  0.167102  0.871621  1
  O  O16  1  0.790914  0.498286  0.120853  1
  O  O17  1  0.709086  0.998286  0.879147  1
  O  O18  1  0.209086  0.501714  0.879147  1
  O  O19  1  0.290914  0.001714  0.120853  1
  O  O20  1  0.519245  0.262232  0.105581  1
  O  O21  1  0.980755  0.762232  0.894419  1
  O  O22  1  0.480755  0.737768  0.894419  1
  O  O23  1  0.019245  0.237768  0.105581  1
  O  O24  1  0.721157  0.664354  0.370246  1
  O  O25  1  0.778843  0.164354  0.629754  1
  O  O26  1  0.278843  0.335646  0.629754  1
  O  O27  1  0.221157  0.835646  0.370246  1
  Si  Si28  1  0.779062  0.663604  0.547968  1
  Si  Si29  1  0.720938  0.163604  0.452032  1
  Si  Si30  1  0.220938  0.336396  0.452032  1
  Si  Si31  1  0.279062  0.836396  0.547968  1
  Si  Si32  1  0.260983  0.164065  0.048929  1
  Si  Si33  1  0.239017  0.664065  0.951071  1
  Si  Si34  1  0.739017  0.835935  0.951071  1
  Si  Si35  1  0.760983  0.335935  0.048929  1
  Sc  Sc36  1  0.510391  0.857951  0.250548  1
  Sc  Sc37  1  0.989609  0.357951  0.749452  1
  Sc  Sc38  1  0.489609  0.142048  0.749452  1
  Sc  Sc39  1  0.010391  0.642049  0.250548  1
