# generated using pymatgen
data_MnHg2C6(SN)6
_symmetry_space_group_name_H-M   'P 1'
_cell_length_a   11.70680109
_cell_length_b   14.38687999
_cell_length_c   20.91700237
_cell_angle_alpha   90.00000000
_cell_angle_beta   100.57950597
_cell_angle_gamma   90.00000000
_symmetry_Int_Tables_number   1
_chemical_formula_structural   MnHg2C6(SN)6
_chemical_formula_sum   'Mn8 Hg16 C48 S48 N48'
_cell_volume   3463.04633522
_cell_formula_units_Z   8
loop_
 _symmetry_equiv_pos_site_id
 _symmetry_equiv_pos_as_xyz
  1  'x, y, z'
loop_
 _atom_site_type_symbol
 _atom_site_label
 _atom_site_symmetry_multiplicity
 _atom_site_fract_x
 _atom_site_fract_y
 _atom_site_fract_z
 _atom_site_occupancy
  Mn  Mn0  1  0.952705  0.222926  0.488532  1
  Mn  Mn1  1  0.047295  0.777074  0.511468  1
  Mn  Mn2  1  0.952705  0.277074  0.988532  1
  Mn  Mn3  1  0.047295  0.722926  0.011468  1
  Mn  Mn4  1  0.663527  0.761614  0.317410  1
  Mn  Mn5  1  0.663527  0.738386  0.817410  1
  Mn  Mn6  1  0.336473  0.238386  0.682590  1
  Mn  Mn7  1  0.336473  0.261614  0.182590  1
  Hg  Hg8  1  0.341473  0.044745  0.937968  1
  Hg  Hg9  1  0.156158  0.636620  0.271900  1
  Hg  Hg10  1  0.826373  0.408706  0.228027  1
  Hg  Hg11  1  0.568544  0.616365  0.058142  1
  Hg  Hg12  1  0.843842  0.363380  0.728100  1
  Hg  Hg13  1  0.173627  0.908706  0.271973  1
  Hg  Hg14  1  0.843842  0.136620  0.228100  1
  Hg  Hg15  1  0.156158  0.863380  0.771900  1
  Hg  Hg16  1  0.341473  0.455255  0.437968  1
  Hg  Hg17  1  0.431456  0.116365  0.441858  1
  Hg  Hg18  1  0.826373  0.091294  0.728027  1
  Hg  Hg19  1  0.568544  0.883635  0.558142  1
  Hg  Hg20  1  0.431456  0.383635  0.941858  1
  Hg  Hg21  1  0.658527  0.544745  0.562032  1
  Hg  Hg22  1  0.173627  0.591294  0.771973  1
  Hg  Hg23  1  0.658527  0.955255  0.062032  1
  C  C24  1  0.440145  0.689119  0.508085  1
  C  C25  1  0.896023  0.766301  0.265959  1
  C  C26  1  0.952276  0.113599  0.100984  1
  C  C27  1  0.945348  0.070589  0.605554  1
  C  C28  1  0.606355  0.899972  0.717958  1
  C  C29  1  0.814925  0.742217  0.068139  1
  C  C30  1  0.952276  0.386401  0.600984  1
  C  C31  1  0.803396  0.143012  0.874514  1
  C  C32  1  0.814925  0.757783  0.568139  1
  C  C33  1  0.597652  0.912191  0.208487  1
  C  C34  1  0.103977  0.266301  0.234041  1
  C  C35  1  0.896023  0.733699  0.765959  1
  C  C36  1  0.693196  0.594198  0.929408  1
  C  C37  1  0.306804  0.405802  0.070592  1
  C  C38  1  0.259008  0.115911  0.072136  1
  C  C39  1  0.393645  0.100028  0.282042  1
  C  C40  1  0.440145  0.810881  0.008085  1
  C  C41  1  0.306804  0.094198  0.570592  1
  C  C42  1  0.559855  0.310881  0.491915  1
  C  C43  1  0.103977  0.233699  0.734041  1
  C  C44  1  0.393645  0.399972  0.782042  1
  C  C45  1  0.945348  0.429411  0.105554  1
  C  C46  1  0.402348  0.412191  0.291513  1
  C  C47  1  0.693196  0.905802  0.429408  1
  C  C48  1  0.803396  0.356988  0.374514  1
  C  C49  1  0.606355  0.600028  0.217958  1
  C  C50  1  0.803560  0.106320  0.371350  1
  C  C51  1  0.054652  0.570589  0.894446  1
  C  C52  1  0.054652  0.929411  0.394446  1
  C  C53  1  0.803560  0.393680  0.871350  1
  C  C54  1  0.740992  0.884089  0.927864  1
  C  C55  1  0.185075  0.257783  0.931861  1
  C  C56  1  0.047724  0.886401  0.899016  1
  C  C57  1  0.408684  0.761869  0.341545  1
  C  C58  1  0.559855  0.189119  0.991915  1
  C  C59  1  0.408684  0.738131  0.841545  1
  C  C60  1  0.259008  0.384089  0.572136  1
  C  C61  1  0.740992  0.615911  0.427864  1
  C  C62  1  0.196440  0.606320  0.128650  1
  C  C63  1  0.196604  0.856988  0.125486  1
  C  C64  1  0.591316  0.238131  0.658455  1
  C  C65  1  0.185075  0.242217  0.431861  1
  C  C66  1  0.047724  0.613599  0.399016  1
  C  C67  1  0.597652  0.587809  0.708487  1
  C  C68  1  0.196604  0.643012  0.625486  1
  C  C69  1  0.196440  0.893680  0.628650  1
  C  C70  1  0.402348  0.087809  0.791513  1
  C  C71  1  0.591316  0.261869  0.158455  1
  S  S72  1  0.275965  0.765876  0.357902  1
  S  S73  1  0.715837  0.761982  0.111469  1
  S  S74  1  0.275965  0.734124  0.857902  1
  S  S75  1  0.934727  0.991035  0.660987  1
  S  S76  1  0.617817  0.284759  0.969427  1
  S  S77  1  0.065273  0.491035  0.839013  1
  S  S78  1  0.289044  0.591626  0.683456  1
  S  S79  1  0.710956  0.408374  0.316544  1
  S  S80  1  0.996583  0.731189  0.720247  1
  S  S81  1  0.560456  0.503154  0.655184  1
  S  S82  1  0.050566  0.532683  0.343646  1
  S  S83  1  0.695277  0.524462  0.992054  1
  S  S84  1  0.574210  0.514534  0.165572  1
  S  S85  1  0.288302  0.588003  0.196533  1
  S  S86  1  0.996583  0.768811  0.220247  1
  S  S87  1  0.065273  0.008965  0.339013  1
  S  S88  1  0.560456  0.996846  0.155184  1
  S  S89  1  0.304723  0.024462  0.507946  1
  S  S90  1  0.207681  0.037089  0.016913  1
  S  S91  1  0.949434  0.467317  0.656354  1
  S  S92  1  0.574210  0.985466  0.665572  1
  S  S93  1  0.792319  0.537089  0.483087  1
  S  S94  1  0.003417  0.231189  0.779753  1
  S  S95  1  0.724035  0.234124  0.642098  1
  S  S96  1  0.715837  0.738018  0.611469  1
  S  S97  1  0.425790  0.485466  0.834428  1
  S  S98  1  0.439544  0.003154  0.844816  1
  S  S99  1  0.617817  0.215241  0.469427  1
  S  S100  1  0.304723  0.475538  0.007946  1
  S  S101  1  0.695277  0.975538  0.492054  1
  S  S102  1  0.288302  0.911997  0.696533  1
  S  S103  1  0.949434  0.032683  0.156354  1
  S  S104  1  0.382183  0.715241  0.030573  1
  S  S105  1  0.934727  0.508965  0.160987  1
  S  S106  1  0.284163  0.261982  0.388531  1
  S  S107  1  0.439544  0.496846  0.344816  1
  S  S108  1  0.710956  0.091626  0.816544  1
  S  S109  1  0.425790  0.014534  0.334428  1
  S  S110  1  0.207681  0.462911  0.516913  1
  S  S111  1  0.284163  0.238018  0.888531  1
  S  S112  1  0.003417  0.268811  0.279753  1
  S  S113  1  0.050566  0.967317  0.843646  1
  S  S114  1  0.711698  0.411997  0.803467  1
  S  S115  1  0.724035  0.265876  0.142098  1
  S  S116  1  0.382183  0.784759  0.530573  1
  S  S117  1  0.711698  0.088003  0.303467  1
  S  S118  1  0.289044  0.908374  0.183456  1
  S  S119  1  0.792319  0.962911  0.983087  1
  N  N120  1  0.481421  0.879910  0.991558  1
  N  N121  1  0.951659  0.373757  0.065231  1
  N  N122  1  0.619813  0.854361  0.248706  1
  N  N123  1  0.181442  0.234250  0.705410  1
  N  N124  1  0.112378  0.227602  0.462749  1
  N  N125  1  0.380187  0.145639  0.751294  1
  N  N126  1  0.495319  0.240841  0.668075  1
  N  N127  1  0.047772  0.829858  0.939646  1
  N  N128  1  0.047772  0.670142  0.439646  1
  N  N129  1  0.692101  0.857099  0.384074  1
  N  N130  1  0.048341  0.873757  0.434769  1
  N  N131  1  0.133255  0.820746  0.082487  1
  N  N132  1  0.112378  0.272398  0.962749  1
  N  N133  1  0.289894  0.170502  0.113753  1
  N  N134  1  0.887622  0.727602  0.037251  1
  N  N135  1  0.372245  0.338766  0.744298  1
  N  N136  1  0.818558  0.734250  0.794590  1
  N  N137  1  0.481421  0.620090  0.491558  1
  N  N138  1  0.866745  0.179254  0.917513  1
  N  N139  1  0.868155  0.380757  0.920878  1
  N  N140  1  0.627755  0.661234  0.255702  1
  N  N141  1  0.048341  0.626243  0.934769  1
  N  N142  1  0.818558  0.765750  0.294590  1
  N  N143  1  0.289894  0.329498  0.613753  1
  N  N144  1  0.380187  0.354361  0.251294  1
  N  N145  1  0.518579  0.120090  0.008442  1
  N  N146  1  0.868155  0.119243  0.420878  1
  N  N147  1  0.504681  0.740841  0.831925  1
  N  N148  1  0.710106  0.829498  0.886247  1
  N  N149  1  0.951659  0.126243  0.565231  1
  N  N150  1  0.619813  0.645639  0.748706  1
  N  N151  1  0.131845  0.619243  0.079122  1
  N  N152  1  0.307899  0.142901  0.615926  1
  N  N153  1  0.133255  0.679254  0.582487  1
  N  N154  1  0.307899  0.357099  0.115926  1
  N  N155  1  0.504681  0.759159  0.331925  1
  N  N156  1  0.131845  0.880757  0.579122  1
  N  N157  1  0.518579  0.379910  0.508442  1
  N  N158  1  0.866745  0.320746  0.417513  1
  N  N159  1  0.372245  0.161234  0.244298  1
  N  N160  1  0.495319  0.259159  0.168075  1
  N  N161  1  0.952228  0.329858  0.560354  1
  N  N162  1  0.710106  0.670502  0.386247  1
  N  N163  1  0.887622  0.772398  0.537251  1
  N  N164  1  0.627755  0.838766  0.755702  1
  N  N165  1  0.181442  0.265750  0.205410  1
  N  N166  1  0.952228  0.170142  0.060354  1
  N  N167  1  0.692101  0.642901  0.884074  1
