# generated using pymatgen
data_CoH32C8S4(NO5)2
_symmetry_space_group_name_H-M   'P 1'
_cell_length_a   9.95632397
_cell_length_b   10.87430141
_cell_length_c   11.02975329
_cell_angle_alpha   90.00000000
_cell_angle_beta   90.00000000
_cell_angle_gamma   105.05261397
_symmetry_Int_Tables_number   1
_chemical_formula_structural   CoH32C8S4(NO5)2
_chemical_formula_sum   'Co2 H64 C16 S8 N4 O20'
_cell_volume   1153.19541372
_cell_formula_units_Z   2
loop_
 _symmetry_equiv_pos_site_id
 _symmetry_equiv_pos_as_xyz
  1  'x, y, z'
loop_
 _atom_site_type_symbol
 _atom_site_label
 _atom_site_symmetry_multiplicity
 _atom_site_fract_x
 _atom_site_fract_y
 _atom_site_fract_z
 _atom_site_occupancy
  Co  Co0  1  0.500000  0.500000  0.500000  1
  Co  Co1  1  0.000000  0.000000  0.000000  1
  H  H2  1  0.361872  0.526941  0.004122  1
  H  H3  1  0.030506  0.633547  0.584464  1
  H  H4  1  0.733590  0.523023  0.177169  1
  H  H5  1  0.164585  0.517603  0.120839  1
  H  H6  1  0.335415  0.982397  0.620839  1
  H  H7  1  0.493343  0.673559  0.980590  1
  H  H8  1  0.192480  0.060223  0.875072  1
  H  H9  1  0.678700  0.283150  0.498530  1
  H  H10  1  0.472589  0.594429  0.126922  1
  H  H11  1  0.178700  0.783150  0.001470  1
  H  H12  1  0.136295  0.658110  0.191920  1
  H  H13  1  0.363705  0.841890  0.691920  1
  H  H14  1  0.675398  0.228538  0.089810  1
  H  H15  1  0.849269  0.650883  0.386618  1
  H  H16  1  0.316755  0.868128  0.434185  1
  H  H17  1  0.768621  0.086090  0.251516  1
  H  H18  1  0.233590  0.023023  0.322831  1
  H  H19  1  0.145473  0.140047  0.236354  1
  H  H20  1  0.527411  0.405571  0.873078  1
  H  H21  1  0.027411  0.905571  0.626922  1
  H  H22  1  0.815527  0.360493  0.327623  1
  H  H23  1  0.469494  0.866453  0.084464  1
  H  H24  1  0.993343  0.173559  0.519410  1
  H  H25  1  0.321300  0.716850  0.501470  1
  H  H26  1  0.138128  0.973059  0.504122  1
  H  H27  1  0.268621  0.586090  0.248484  1
  H  H28  1  0.861872  0.026941  0.495878  1
  H  H29  1  0.307520  0.439777  0.375072  1
  H  H30  1  0.835415  0.482397  0.879161  1
  H  H31  1  0.530506  0.133547  0.915536  1
  H  H32  1  0.638128  0.473059  0.995878  1
  H  H33  1  0.506657  0.326441  0.019410  1
  H  H34  1  0.324602  0.771462  0.910190  1
  H  H35  1  0.054423  0.716471  0.726441  1
  H  H36  1  0.816755  0.368128  0.065815  1
  H  H37  1  0.445577  0.783529  0.226441  1
  H  H38  1  0.636295  0.158110  0.308080  1
  H  H39  1  0.184473  0.639507  0.672377  1
  H  H40  1  0.684473  0.139507  0.827623  1
  H  H41  1  0.349269  0.150883  0.113382  1
  H  H42  1  0.315527  0.860493  0.172377  1
  H  H43  1  0.807520  0.939777  0.124928  1
  H  H44  1  0.969494  0.366453  0.415536  1
  H  H45  1  0.231379  0.913910  0.748484  1
  H  H46  1  0.766410  0.976977  0.677169  1
  H  H47  1  0.645473  0.640047  0.263646  1
  H  H48  1  0.650731  0.849117  0.886618  1
  H  H49  1  0.683245  0.131872  0.565815  1
  H  H50  1  0.006657  0.826441  0.480590  1
  H  H51  1  0.945577  0.283529  0.273559  1
  H  H52  1  0.175398  0.728538  0.410190  1
  H  H53  1  0.972589  0.094429  0.373078  1
  H  H54  1  0.854527  0.859953  0.763646  1
  H  H55  1  0.664585  0.017603  0.379161  1
  H  H56  1  0.692480  0.560223  0.624928  1
  H  H57  1  0.554423  0.216471  0.773559  1
  H  H58  1  0.266410  0.476977  0.822831  1
  H  H59  1  0.183245  0.631872  0.934185  1
  H  H60  1  0.731379  0.413910  0.751516  1
  H  H61  1  0.863705  0.341890  0.808080  1
  H  H62  1  0.150731  0.349117  0.613382  1
  H  H63  1  0.354527  0.359953  0.736354  1
  H  H64  1  0.824602  0.271462  0.589810  1
  H  H65  1  0.821300  0.216850  0.998530  1
  C  C66  1  0.213635  0.606740  0.167949  1
  C  C67  1  0.579690  0.383750  0.954335  1
  C  C68  1  0.107438  0.691000  0.646865  1
  C  C69  1  0.420310  0.616250  0.045665  1
  C  C70  1  0.713635  0.106740  0.332051  1
  C  C71  1  0.892562  0.309000  0.353135  1
  C  C72  1  0.920310  0.116250  0.454335  1
  C  C73  1  0.607438  0.191000  0.853135  1
  C  C74  1  0.079690  0.883750  0.545665  1
  C  C75  1  0.786365  0.393260  0.832051  1
  C  C76  1  0.286365  0.893260  0.667949  1
  C  C77  1  0.244658  0.721270  0.973957  1
  C  C78  1  0.392562  0.809000  0.146865  1
  C  C79  1  0.755342  0.278730  0.026043  1
  C  C80  1  0.255342  0.778730  0.473957  1
  C  C81  1  0.744658  0.221270  0.526043  1
  S  S82  1  0.140187  0.273884  0.799314  1
  S  S83  1  0.065459  0.963701  0.184048  1
  S  S84  1  0.434541  0.536299  0.684048  1
  S  S85  1  0.565459  0.463701  0.315952  1
  S  S86  1  0.359813  0.226116  0.299314  1
  S  S87  1  0.859813  0.726116  0.200686  1
  S  S88  1  0.934541  0.036299  0.815952  1
  S  S89  1  0.640187  0.773884  0.700686  1
  N  N90  1  0.182123  0.811523  0.583573  1
  N  N91  1  0.682123  0.311523  0.916427  1
  N  N92  1  0.317877  0.688477  0.083573  1
  N  N93  1  0.817877  0.188477  0.416427  1
  O  O94  1  0.419274  0.165137  0.179520  1
  O  O95  1  0.576854  0.596785  0.766325  1
  O  O96  1  0.080726  0.334863  0.679520  1
  O  O97  1  0.209376  0.232576  0.254796  1
  O  O98  1  0.304722  0.082369  0.373940  1
  O  O99  1  0.580726  0.834863  0.820480  1
  O  O100  1  0.810291  0.962078  0.038943  1
  O  O101  1  0.310291  0.462078  0.461057  1
  O  O102  1  0.790624  0.767424  0.745204  1
  O  O103  1  0.695278  0.917631  0.626060  1
  O  O104  1  0.709376  0.732576  0.245204  1
  O  O105  1  0.290624  0.267424  0.754796  1
  O  O106  1  0.195278  0.417631  0.873940  1
  O  O107  1  0.923146  0.903215  0.266325  1
  O  O108  1  0.189709  0.037922  0.961057  1
  O  O109  1  0.076854  0.096785  0.733675  1
  O  O110  1  0.423146  0.403215  0.233675  1
  O  O111  1  0.689709  0.537922  0.538943  1
  O  O112  1  0.804722  0.582369  0.126060  1
  O  O113  1  0.919274  0.665137  0.320480  1
