# generated using pymatgen
data_K4Eu(PS4)2
_symmetry_space_group_name_H-M   'P 1'
_cell_length_a   8.90850686
_cell_length_b   9.83888911
_cell_length_c   11.36089052
_cell_angle_alpha   115.60468192
_cell_angle_beta   113.14531264
_cell_angle_gamma   90.12889010
_symmetry_Int_Tables_number   1
_chemical_formula_structural   K4Eu(PS4)2
_chemical_formula_sum   'K8 Eu2 P4 S16'
_cell_volume   807.72990062
_cell_formula_units_Z   2
loop_
 _symmetry_equiv_pos_site_id
 _symmetry_equiv_pos_as_xyz
  1  'x, y, z'
loop_
 _atom_site_type_symbol
 _atom_site_label
 _atom_site_symmetry_multiplicity
 _atom_site_fract_x
 _atom_site_fract_y
 _atom_site_fract_z
 _atom_site_occupancy
  Eu  Eu0  1  0.498962  0.746831  0.998018  1
  Eu  Eu1  1  0.503398  0.250965  0.000286  1
  K  K2  1  0.797176  0.916183  0.833506  1
  K  K3  1  0.742009  0.991521  0.486634  1
  K  K4  1  0.211963  0.084309  0.169251  1
  K  K5  1  0.261300  0.511406  0.516967  1
  K  K6  1  0.957443  0.580346  0.161437  1
  K  K7  1  0.258355  0.010651  0.519324  1
  K  K8  1  0.742645  0.495602  0.485033  1
  K  K9  1  0.040072  0.413296  0.830359  1
  P  P10  1  0.833359  0.128460  0.254984  1
  P  P11  1  0.167442  0.872255  0.743198  1
  P  P12  1  0.423011  0.627654  0.258050  1
  P  P13  1  0.573660  0.369039  0.740509  1
  S  S14  1  0.368890  0.392998  0.786714  1
  S  S15  1  0.281439  0.410825  0.160410  1
  S  S16  1  0.878256  0.249379  0.159037  1
  S  S17  1  0.283354  0.747419  0.160293  1
  S  S18  1  0.125882  0.752128  0.841037  1
  S  S19  1  0.629048  0.604966  0.213443  1
  S  S20  1  0.506018  0.258336  0.523097  1
  S  S21  1  0.419208  0.896373  0.792358  1
  S  S22  1  0.712098  0.249282  0.838997  1
  S  S23  1  0.017429  0.763365  0.525147  1
  S  S24  1  0.876541  0.910746  0.158764  1
  S  S25  1  0.581874  0.102875  0.206596  1
  S  S26  1  0.123519  0.089389  0.837218  1
  S  S27  1  0.714026  0.586175  0.835617  1
  S  S28  1  0.494291  0.738524  0.476559  1
  S  S29  1  0.981260  0.238871  0.473065  1
