# generated using pymatgen
data_Yb(SmS2)2
_symmetry_space_group_name_H-M   'P 1'
_cell_length_a   7.31640308
_cell_length_b   7.31640285
_cell_length_c   7.31640263
_cell_angle_alpha   109.51664447
_cell_angle_beta   109.38040863
_cell_angle_gamma   109.51664698
_symmetry_Int_Tables_number   1
_chemical_formula_structural   Yb(SmS2)2
_chemical_formula_sum   'Yb2 Sm4 S8'
_cell_volume   301.48806351
_cell_formula_units_Z   2
loop_
 _symmetry_equiv_pos_site_id
 _symmetry_equiv_pos_as_xyz
  1  'x, y, z'
loop_
 _atom_site_type_symbol
 _atom_site_label
 _atom_site_symmetry_multiplicity
 _atom_site_fract_x
 _atom_site_fract_y
 _atom_site_fract_z
 _atom_site_occupancy
  Yb  Yb0  1  0.125000  0.750000  0.875000  1
  Yb  Yb1  1  0.375000  0.250000  0.625000  1
  Sm  Sm2  1  0.250000  0.628236  0.378236  1
  Sm  Sm3  1  0.621764  0.371764  0.250000  1
  Sm  Sm4  1  0.750000  0.871764  0.121764  1
  Sm  Sm5  1  0.878236  0.128236  0.750000  1
  S  S6  1  0.998412  0.852357  0.497760  1
  S  S7  1  0.997760  0.352357  0.498412  1
  S  S8  1  0.501588  0.999348  0.853945  1
  S  S9  1  0.146055  0.147643  0.145403  1
  S  S10  1  0.353945  0.499348  0.001588  1
  S  S11  1  0.645403  0.647643  0.646055  1
  S  S12  1  0.502240  0.000652  0.354597  1
  S  S13  1  0.854597  0.500652  0.002240  1
