# generated using pymatgen
data_CuH10SO9
_symmetry_space_group_name_H-M   'P 1'
_cell_length_a   6.70624795
_cell_length_b   6.84531237
_cell_length_c   11.55136249
_cell_angle_alpha   76.57345523
_cell_angle_beta   81.69418075
_cell_angle_gamma   72.27873398
_symmetry_Int_Tables_number   1
_chemical_formula_structural   CuH10SO9
_chemical_formula_sum   'Cu2 H20 S2 O18'
_cell_volume   489.75256469
_cell_formula_units_Z   2
loop_
 _symmetry_equiv_pos_site_id
 _symmetry_equiv_pos_as_xyz
  1  'x, y, z'
loop_
 _atom_site_type_symbol
 _atom_site_label
 _atom_site_symmetry_multiplicity
 _atom_site_fract_x
 _atom_site_fract_y
 _atom_site_fract_z
 _atom_site_occupancy
  Cu  Cu0  1  0.000000  0.000000  0.000000  1
  Cu  Cu1  1  0.000000  0.500000  0.500000  1
  H  H2  1  0.431229  0.186125  0.338213  1
  H  H3  1  0.434717  0.259047  0.107962  1
  H  H4  1  0.156000  0.743249  0.152796  1
  H  H5  1  0.844000  0.256751  0.847204  1
  H  H6  1  0.568573  0.555279  0.129524  1
  H  H7  1  0.589541  0.637910  0.511058  1
  H  H8  1  0.904440  0.870589  0.439484  1
  H  H9  1  0.583379  0.582520  0.575035  1
  H  H10  1  0.565283  0.740953  0.892038  1
  H  H11  1  0.952674  0.326341  0.078374  1
  H  H12  1  0.887548  0.673439  0.257399  1
  H  H13  1  0.047326  0.673659  0.921626  1
  H  H14  1  0.112452  0.326560  0.742601  1
  H  H15  1  0.431427  0.444721  0.870476  1
  H  H16  1  0.410459  0.362090  0.488942  1
  H  H17  1  0.568771  0.813875  0.661787  1
  H  H18  1  0.416621  0.417480  0.424965  1
  H  H19  1  0.798044  0.478502  0.322373  1
  H  H20  1  0.201956  0.521498  0.677627  1
  H  H21  1  0.095560  0.129411  0.560516  1
  S  S22  1  0.620176  0.127321  0.270124  1
  S  S23  1  0.379824  0.872679  0.729876  1
  O  O24  1  0.479720  0.300227  0.852783  1
  O  O25  1  0.782717  0.985990  0.733036  1
  O  O26  1  0.010871  0.790722  0.131444  1
  O  O27  1  0.167153  0.399349  0.663401  1
  O  O28  1  0.762767  0.218946  0.312976  1
  O  O29  1  0.468818  0.695684  0.853390  1
  O  O30  1  0.405530  0.173859  0.946050  1
  O  O31  1  0.950715  0.771042  0.512497  1
  O  O32  1  0.217283  0.014010  0.266964  1
  O  O33  1  0.275303  0.867210  0.350933  1
  O  O34  1  0.531182  0.304316  0.146610  1
  O  O35  1  0.237233  0.781054  0.687024  1
  O  O36  1  0.049285  0.228958  0.487503  1
  O  O37  1  0.594470  0.826141  0.053950  1
  O  O38  1  0.724697  0.132790  0.649067  1
  O  O39  1  0.832847  0.600651  0.336599  1
  O  O40  1  0.989129  0.209278  0.868556  1
  O  O41  1  0.520280  0.699773  0.147217  1
