# generated using pymatgen
data_Ni(PO3)3
_symmetry_space_group_name_H-M   'P 1'
_cell_length_a   6.59495945
_cell_length_b   7.50947070
_cell_length_c   6.93682241
_cell_angle_alpha   101.93108056
_cell_angle_beta   83.99450518
_cell_angle_gamma   86.16163140
_symmetry_Int_Tables_number   1
_chemical_formula_structural   Ni(PO3)3
_chemical_formula_sum   'Ni2 P6 O18'
_cell_volume   332.88970189
_cell_formula_units_Z   2
loop_
 _symmetry_equiv_pos_site_id
 _symmetry_equiv_pos_as_xyz
  1  'x, y, z'
loop_
 _atom_site_type_symbol
 _atom_site_label
 _atom_site_symmetry_multiplicity
 _atom_site_fract_x
 _atom_site_fract_y
 _atom_site_fract_z
 _atom_site_occupancy
  Ni  Ni0  1  0.153813  0.139040  0.912191  1
  Ni  Ni1  1  0.846187  0.860960  0.087809  1
  O  O2  1  0.048094  0.340757  0.156085  1
  O  O3  1  0.152733  0.341702  0.742372  1
  O  O4  1  0.157374  0.929244  0.084757  1
  O  O5  1  0.206295  0.941853  0.657479  1
  O  O6  1  0.309003  0.601660  0.951438  1
  O  O7  1  0.281769  0.731357  0.309194  1
  O  O8  1  0.273612  0.592727  0.590474  1
  O  O9  1  0.440727  0.194364  0.456848  1
  O  O10  1  0.454094  0.161337  0.928697  1
  O  O11  1  0.545906  0.838663  0.071303  1
  O  O12  1  0.559273  0.805636  0.543152  1
  O  O13  1  0.726388  0.407273  0.409526  1
  O  O14  1  0.718231  0.268643  0.690806  1
  O  O15  1  0.690997  0.398340  0.048562  1
  O  O16  1  0.793705  0.058147  0.342521  1
  O  O17  1  0.842626  0.070756  0.915243  1
  O  O18  1  0.847267  0.658298  0.257628  1
  O  O19  1  0.951906  0.659243  0.843915  1
  P  P20  1  0.153833  0.546875  0.787335  1
  P  P21  1  0.332613  0.792844  0.100521  1
  P  P22  1  0.334188  0.778419  0.530398  1
  P  P23  1  0.665812  0.221581  0.469602  1
  P  P24  1  0.667387  0.207156  0.899479  1
  P  P25  1  0.846167  0.453125  0.212665  1
