# generated using pymatgen
data_BaLa3TiCr3O12
_symmetry_space_group_name_H-M   'P 1'
_cell_length_a   5.60077603
_cell_length_b   22.31708805
_cell_length_c   9.65818692
_cell_angle_alpha   30.05536924
_cell_angle_beta   55.15633640
_cell_angle_gamma   60.36203173
_symmetry_Int_Tables_number   1
_chemical_formula_structural   BaLa3TiCr3O12
_chemical_formula_sum   'Ba2 La6 Ti2 Cr6 O24'
_cell_volume   496.21435784
_cell_formula_units_Z   2
loop_
 _symmetry_equiv_pos_site_id
 _symmetry_equiv_pos_as_xyz
  1  'x, y, z'
loop_
 _atom_site_type_symbol
 _atom_site_label
 _atom_site_symmetry_multiplicity
 _atom_site_fract_x
 _atom_site_fract_y
 _atom_site_fract_z
 _atom_site_occupancy
  Ba  Ba0  1  0.250000  0.997368  0.255264  1
  Ba  Ba1  1  0.750000  0.002632  0.744736  1
  La  La2  1  0.250000  0.251568  0.246865  1
  La  La3  1  0.250000  0.506553  0.236893  1
  La  La4  1  0.250000  0.745821  0.258359  1
  La  La5  1  0.750000  0.254179  0.741641  1
  La  La6  1  0.750000  0.493447  0.763107  1
  La  La7  1  0.750000  0.748432  0.753135  1
  Ti  Ti8  1  0.000000  0.000000  0.000000  1
  Ti  Ti9  1  0.500000  0.000000  0.500000  1
  Cr  Cr10  1  0.996966  0.252895  0.993670  1
  Cr  Cr11  1  0.000000  0.500000  0.000000  1
  Cr  Cr12  1  0.503034  0.252895  0.494752  1
  Cr  Cr13  1  0.500000  0.500000  0.500000  1
  Cr  Cr14  1  0.496966  0.747105  0.505248  1
  Cr  Cr15  1  0.003034  0.747105  0.006330  1
  O  O16  1  0.300154  0.139919  0.199484  1
  O  O17  1  0.250000  0.022746  0.704508  1
  O  O18  1  0.199846  0.139919  0.740839  1
  O  O19  1  0.312078  0.393325  0.185255  1
  O  O20  1  0.772243  0.119273  0.240968  1
  O  O21  1  0.250000  0.284693  0.680614  1
  O  O22  1  0.750000  0.240761  0.268478  1
  O  O23  1  0.187922  0.393325  0.741446  1
  O  O24  1  0.727757  0.119273  0.781941  1
  O  O25  1  0.319655  0.641060  0.187042  1
  O  O26  1  0.819655  0.358940  0.251282  1
  O  O27  1  0.250000  0.531783  0.686435  1
  O  O28  1  0.750000  0.468217  0.313565  1
  O  O29  1  0.180345  0.641060  0.748718  1
  O  O30  1  0.680345  0.358940  0.812958  1
  O  O31  1  0.272243  0.880727  0.218059  1
  O  O32  1  0.812078  0.606675  0.258554  1
  O  O33  1  0.250000  0.759239  0.731522  1
  O  O34  1  0.750000  0.715307  0.319386  1
  O  O35  1  0.227757  0.880727  0.759032  1
  O  O36  1  0.687922  0.606675  0.814745  1
  O  O37  1  0.800154  0.860081  0.259161  1
  O  O38  1  0.750000  0.977254  0.295492  1
  O  O39  1  0.699846  0.860081  0.800516  1
