# generated using pymatgen
data_SiO2
_symmetry_space_group_name_H-M   'P 1'
_cell_length_a   13.91974051
_cell_length_b   6.95973138
_cell_length_c   6.47266870
_cell_angle_alpha   90.00000000
_cell_angle_beta   90.00000000
_cell_angle_gamma   90.00000000
_symmetry_Int_Tables_number   1
_chemical_formula_structural   SiO2
_chemical_formula_sum   'Si10 O20'
_cell_volume   627.05696414
_cell_formula_units_Z   10
loop_
 _symmetry_equiv_pos_site_id
 _symmetry_equiv_pos_as_xyz
  1  'x, y, z'
loop_
 _atom_site_type_symbol
 _atom_site_label
 _atom_site_symmetry_multiplicity
 _atom_site_fract_x
 _atom_site_fract_y
 _atom_site_fract_z
 _atom_site_occupancy
  Si  Si0  1  0.115218  0.000000  0.500660  1
  Si  Si1  1  0.615218  0.000000  0.499340  1
  Si  Si2  1  0.884782  0.000000  0.499340  1
  Si  Si3  1  0.384782  0.000000  0.500660  1
  Si  Si4  1  0.250000  0.269631  0.262507  1
  Si  Si5  1  0.750000  0.730369  0.737493  1
  Si  Si6  1  0.750000  0.269631  0.737493  1
  Si  Si7  1  0.250000  0.730369  0.262507  1
  Si  Si8  1  0.250000  0.000000  0.881628  1
  Si  Si9  1  0.750000  0.000000  0.118372  1
  O  O10  1  0.000000  0.000000  0.500000  1
  O  O11  1  0.500000  0.000000  0.500000  1
  O  O12  1  0.153672  0.192740  0.381702  1
  O  O13  1  0.653672  0.807260  0.618298  1
  O  O14  1  0.846328  0.192740  0.618298  1
  O  O15  1  0.346328  0.807260  0.381702  1
  O  O16  1  0.846328  0.807260  0.618298  1
  O  O17  1  0.346328  0.192740  0.381702  1
  O  O18  1  0.153672  0.807260  0.381702  1
  O  O19  1  0.653672  0.192740  0.618298  1
  O  O20  1  0.153549  0.000000  0.738905  1
  O  O21  1  0.653549  0.000000  0.261095  1
  O  O22  1  0.846451  0.000000  0.261095  1
  O  O23  1  0.346451  0.000000  0.738905  1
  O  O24  1  0.250000  0.500000  0.261694  1
  O  O25  1  0.750000  0.500000  0.738306  1
  O  O26  1  0.250000  0.192733  0.024383  1
  O  O27  1  0.750000  0.807267  0.975617  1
  O  O28  1  0.750000  0.192733  0.975617  1
  O  O29  1  0.250000  0.807267  0.024383  1
