# generated using pymatgen
data_Fe2CuS3
_symmetry_space_group_name_H-M   'P 1'
_cell_length_a   6.20731849
_cell_length_b   6.37779641
_cell_length_c   10.99529252
_cell_angle_alpha   90.01164265
_cell_angle_beta   90.03185863
_cell_angle_gamma   90.07966134
_symmetry_Int_Tables_number   1
_chemical_formula_structural   Fe2CuS3
_chemical_formula_sum   'Fe8 Cu4 S12'
_cell_volume   435.29228776
_cell_formula_units_Z   4
loop_
 _symmetry_equiv_pos_site_id
 _symmetry_equiv_pos_as_xyz
  1  'x, y, z'
loop_
 _atom_site_type_symbol
 _atom_site_label
 _atom_site_symmetry_multiplicity
 _atom_site_fract_x
 _atom_site_fract_y
 _atom_site_fract_z
 _atom_site_occupancy
  Fe  Fe0  1  0.871717  0.919606  0.916131  1
  Fe  Fe1  1  0.371468  0.583390  0.582455  1
  Fe  Fe2  1  0.631220  0.418125  0.416587  1
  Fe  Fe3  1  0.134847  0.083219  0.082160  1
  Fe  Fe4  1  0.371471  0.583490  0.917528  1
  Fe  Fe5  1  0.871695  0.919676  0.583963  1
  Fe  Fe6  1  0.631233  0.418120  0.083434  1
  Fe  Fe7  1  0.134749  0.083199  0.417750  1
  Cu  Cu8  1  0.609393  0.915230  0.249791  1
  Cu  Cu9  1  0.386786  0.084004  0.750130  1
  Cu  Cu10  1  0.108861  0.583867  0.249950  1
  Cu  Cu11  1  0.886728  0.415732  0.750104  1
  S  S12  1  0.767098  0.084353  0.411869  1
  S  S13  1  0.235270  0.905767  0.914672  1
  S  S14  1  0.252772  0.421100  0.750123  1
  S  S15  1  0.730031  0.588731  0.586994  1
  S  S16  1  0.767225  0.084537  0.087944  1
  S  S17  1  0.242691  0.917982  0.250049  1
  S  S18  1  0.266092  0.418220  0.416242  1
  S  S19  1  0.754436  0.080827  0.750036  1
  S  S20  1  0.730018  0.588933  0.913033  1
  S  S21  1  0.266030  0.418114  0.083794  1
  S  S22  1  0.742621  0.577928  0.249861  1
  S  S23  1  0.235546  0.905848  0.585399  1
