# generated using pymatgen
data_In3Ir
_symmetry_space_group_name_H-M   'P 1'
_cell_length_a   7.11689661
_cell_length_b   7.11689396
_cell_length_c   7.32173720
_cell_angle_alpha   90.00009588
_cell_angle_beta   90.00003083
_cell_angle_gamma   90.00005780
_symmetry_Int_Tables_number   1
_chemical_formula_structural   In3Ir
_chemical_formula_sum   'In12 Ir4'
_cell_volume   370.84744253
_cell_formula_units_Z   4
loop_
 _symmetry_equiv_pos_site_id
 _symmetry_equiv_pos_as_xyz
  1  'x, y, z'
loop_
 _atom_site_type_symbol
 _atom_site_label
 _atom_site_symmetry_multiplicity
 _atom_site_fract_x
 _atom_site_fract_y
 _atom_site_fract_z
 _atom_site_occupancy
  In  In0  1  0.848262  0.848262  0.255683  1
  In  In1  1  0.651739  0.348261  0.755682  1
  In  In2  1  0.651739  0.348261  0.244319  1
  In  In3  1  0.500000  -0.000001  0.000001  1
  In  In4  1  0.348261  0.651740  0.244318  1
  In  In5  1  0.348261  0.651740  0.755682  1
  In  In6  1  0.000000  0.500000  0.000000  1
  In  In7  1  0.151738  0.151738  0.255684  1
  In  In8  1  0.151737  0.151738  0.744317  1
  In  In9  1  0.500000  0.999999  0.500000  1
  In  In10  1  0.848262  0.848263  0.744317  1
  In  In11  1  -0.000000  0.500000  0.499999  1
  Ir  Ir12  1  0.655071  0.655071  0.000000  1
  Ir  Ir13  1  0.155071  0.844929  0.500000  1
  Ir  Ir14  1  0.844930  0.155071  0.500000  1
  Ir  Ir15  1  0.344929  0.344929  0.000000  1
