# generated using pymatgen
data_Ag2HgI4
_symmetry_space_group_name_H-M   'P 1'
_cell_length_a   4.65600839
_cell_length_b   4.65641124
_cell_length_c   62.22283505
_cell_angle_alpha   60.72698007
_cell_angle_beta   60.73578748
_cell_angle_gamma   67.87971222
_symmetry_Int_Tables_number   1
_chemical_formula_structural   Ag2HgI4
_chemical_formula_sum   'Ag6 Hg3 I12'
_cell_volume   1009.65529186
_cell_formula_units_Z   3
loop_
 _symmetry_equiv_pos_site_id
 _symmetry_equiv_pos_as_xyz
  1  'x, y, z'
loop_
 _atom_site_type_symbol
 _atom_site_label
 _atom_site_symmetry_multiplicity
 _atom_site_fract_x
 _atom_site_fract_y
 _atom_site_fract_z
 _atom_site_occupancy
  Ag  Ag0  1  -0.001603  -0.001313  0.251005  1
  Ag  Ag1  1  0.022282  0.022299  0.326623  1
  Ag  Ag2  1  0.059932  0.060059  0.400651  1
  Ag  Ag3  1  0.918283  0.918200  0.767483  1
  Ag  Ag4  1  -0.002435  -0.002302  0.914939  1
  Ag  Ag5  1  0.957658  0.957702  0.840993  1
  Hg  Hg6  1  0.043375  0.043441  0.479668  1
  Hg  Hg7  1  0.033727  0.033771  0.578613  1
  Hg  Hg8  1  0.984311  0.984635  0.679739  1
  I  I9  1  0.036120  0.035136  0.055406  1
  I  I10  1  0.436447  0.435964  0.076395  1
  I  I11  1  0.211627  0.211632  0.197394  1
  I  I12  1  0.254406  0.254482  0.271005  1
  I  I13  1  0.292629  0.292660  0.344937  1
  I  I14  1  0.332212  0.332271  0.418930  1
  I  I15  1  0.368305  0.368345  0.497036  1
  I  I16  1  0.108273  0.108391  0.629253  1
  I  I17  1  0.170001  0.169932  0.708206  1
  I  I18  1  0.216726  0.216723  0.780572  1
  I  I19  1  0.258047  0.258137  0.853924  1
  I  I20  1  0.299678  0.299836  0.927227  1
