# generated using pymatgen
data_ScH16C3S3O17F9
_symmetry_space_group_name_H-M   'P 1'
_cell_length_a   12.82815099
_cell_length_b   12.72419850
_cell_length_c   8.46501889
_cell_angle_alpha   90.00000000
_cell_angle_beta   90.00000000
_cell_angle_gamma   119.69116858
_symmetry_Int_Tables_number   1
_chemical_formula_structural   ScH16C3S3O17F9
_chemical_formula_sum   'Sc2 H32 C6 S6 O34 F18'
_cell_volume   1200.31763767
_cell_formula_units_Z   2
loop_
 _symmetry_equiv_pos_site_id
 _symmetry_equiv_pos_as_xyz
  1  'x, y, z'
loop_
 _atom_site_type_symbol
 _atom_site_label
 _atom_site_symmetry_multiplicity
 _atom_site_fract_x
 _atom_site_fract_y
 _atom_site_fract_z
 _atom_site_occupancy
  Sc  Sc0  1  0.335481  0.654487  0.250000  1
  Sc  Sc1  1  0.667496  0.333609  0.750000  1
  H  H2  1  0.117387  0.480287  0.086914  1
  H  H3  1  0.117387  0.480287  0.413086  1
  H  H4  1  0.291019  0.760401  0.515179  1
  H  H5  1  0.291019  0.760401  0.984821  1
  H  H6  1  0.359773  0.875108  0.096817  1
  H  H7  1  0.359773  0.875108  0.403183  1
  H  H8  1  0.229964  0.531510  0.969289  1
  H  H9  1  0.229964  0.531510  0.530711  1
  H  H10  1  0.331699  0.431170  0.343985  1
  H  H11  1  0.331699  0.431170  0.156015  1
  H  H12  1  0.479407  0.719063  0.526995  1
  H  H13  1  0.479407  0.719063  0.973005  1
  H  H14  1  0.522265  0.645241  0.085657  1
  H  H15  1  0.522265  0.645241  0.414343  1
  H  H16  1  0.483632  0.359312  0.578983  1
  H  H17  1  0.483632  0.359312  0.921017  1
  H  H18  1  0.526241  0.289848  0.039667  1
  H  H19  1  0.526241  0.289848  0.460333  1
  H  H20  1  0.671989  0.562108  0.656544  1
  H  H21  1  0.671989  0.562108  0.843456  1
  H  H22  1  0.438909  0.106424  0.843759  1
  H  H23  1  0.438909  0.106424  0.656241  1
  H  H24  1  0.765335  0.474406  0.460805  1
  H  H25  1  0.765335  0.474406  0.039195  1
  H  H26  1  0.640747  0.122297  0.578923  1
  H  H27  1  0.640747  0.122297  0.921077  1
  H  H28  1  0.709614  0.235256  0.038678  1
  H  H29  1  0.709614  0.235256  0.461322  1
  H  H30  1  0.877177  0.518213  0.579424  1
  H  H31  1  0.877177  0.518213  0.920576  1
  H  H32  1  0.892319  0.330247  0.843759  1
  H  H33  1  0.892319  0.330247  0.656241  1
  C  C34  1  0.075751  0.828584  0.750000  1
  C  C35  1  0.170423  0.246585  0.750000  1
  C  C36  1  0.246116  0.074779  0.250000  1
  C  C37  1  0.752665  0.923712  0.750000  1
  C  C38  1  0.828414  0.754023  0.250000  1
  C  C39  1  0.925017  0.170425  0.250000  1
  S  S40  1  0.086346  0.687187  0.750000  1
  S  S41  1  0.309036  0.398677  0.750000  1
  S  S42  1  0.601883  0.913276  0.750000  1
  S  S43  1  0.396721  0.084925  0.250000  1
  S  S44  1  0.688202  0.603124  0.250000  1
  S  S45  1  0.914599  0.311690  0.250000  1
  O  O46  1  0.025963  0.626187  0.604419  1
  O  O47  1  0.025963  0.626187  0.895581  1
  O  O48  1  0.216505  0.731299  0.750000  1
  O  O49  1  0.204213  0.542504  0.425585  1
  O  O50  1  0.204213  0.542504  0.074415  1
  O  O51  1  0.329807  0.786358  0.088480  1
  O  O52  1  0.329807  0.786358  0.411520  1
  O  O53  1  0.264548  0.485347  0.750000  1
  O  O54  1  0.353065  0.482114  0.250000  1
  O  O55  1  0.600521  0.973192  0.604120  1
  O  O56  1  0.600521  0.973192  0.895880  1
  O  O57  1  0.465958  0.678006  0.075664  1
  O  O58  1  0.465958  0.678006  0.424336  1
  O  O59  1  0.516347  0.781723  0.750000  1
  O  O60  1  0.370044  0.399148  0.896100  1
  O  O61  1  0.370044  0.399148  0.603900  1
  O  O62  1  0.626550  0.603233  0.104213  1
  O  O63  1  0.626550  0.603233  0.395787  1
  O  O64  1  0.482001  0.215216  0.250000  1
  O  O65  1  0.544231  0.334200  0.560562  1
  O  O66  1  0.544231  0.334200  0.939438  1
  O  O67  1  0.397720  0.023134  0.104600  1
  O  O68  1  0.397720  0.023134  0.395400  1
  O  O69  1  0.644312  0.510773  0.750000  1
  O  O70  1  0.488878  0.137998  0.750000  1
  O  O71  1  0.730003  0.514984  0.250000  1
  O  O72  1  0.666367  0.209133  0.561926  1
  O  O73  1  0.666367  0.209133  0.938074  1
  O  O74  1  0.790758  0.458454  0.936919  1
  O  O75  1  0.790758  0.458454  0.563081  1
  O  O76  1  0.786262  0.270452  0.250000  1
  O  O77  1  0.862554  0.351113  0.750000  1
  O  O78  1  0.976538  0.373663  0.104396  1
  O  O79  1  0.976538  0.373663  0.395604  1
  F  F80  1  0.157205  0.958586  0.250000  1
  F  F81  1  0.130428  0.896257  0.620525  1
  F  F82  1  0.130428  0.896257  0.879475  1
  F  F83  1  0.041779  0.198307  0.250000  1
  F  F84  1  0.103588  0.234478  0.620321  1
  F  F85  1  0.103588  0.234478  0.879679  1
  F  F86  1  0.198754  0.157389  0.750000  1
  F  F87  1  0.235107  0.131076  0.120427  1
  F  F88  1  0.235107  0.131076  0.379573  1
  F  F89  1  0.765277  0.868617  0.620464  1
  F  F90  1  0.765277  0.868617  0.879536  1
  F  F91  1  0.801082  0.843966  0.250000  1
  F  F92  1  0.894349  0.764783  0.120328  1
  F  F93  1  0.894349  0.764783  0.379672  1
  F  F94  1  0.959477  0.801827  0.750000  1
  F  F95  1  0.870786  0.104165  0.120316  1
  F  F96  1  0.870786  0.104165  0.379684  1
  F  F97  1  0.841416  0.040962  0.750000  1
