# generated using pymatgen
data_Re3Pb3O10
_symmetry_space_group_name_H-M   'P 1'
_cell_length_a   7.46297029
_cell_length_b   22.45489038
_cell_length_c   19.81535149
_cell_angle_alpha   19.05548550
_cell_angle_beta   55.61396323
_cell_angle_gamma   60.10764145
_symmetry_Int_Tables_number   1
_chemical_formula_structural   Re3Pb3O10
_chemical_formula_sum   'Re12 Pb12 O40'
_cell_volume   886.91241879
_cell_formula_units_Z   4
loop_
 _symmetry_equiv_pos_site_id
 _symmetry_equiv_pos_as_xyz
  1  'x, y, z'
loop_
 _atom_site_type_symbol
 _atom_site_label
 _atom_site_symmetry_multiplicity
 _atom_site_fract_x
 _atom_site_fract_y
 _atom_site_fract_z
 _atom_site_occupancy
  Re  Re0  1  0.499621  0.166977  0.000804  1
  Re  Re1  1  0.999349  0.167278  0.500405  1
  Re  Re2  1  0.500898  0.001522  0.497705  1
  Re  Re3  1  0.500720  0.499908  0.999451  1
  Re  Re4  1  0.497692  0.167245  0.500398  1
  Re  Re5  1  0.500657  0.333989  0.499216  1
  Re  Re6  1  0.500619  0.834073  0.999219  1
  Re  Re7  1  0.503109  0.500495  0.498628  1
  Re  Re8  1  0.500078  0.664723  0.502925  1
  Re  Re9  1  0.001175  0.500605  0.498409  1
  Re  Re10  1  0.501620  0.833313  0.499796  1
  Re  Re11  1  0.000682  0.832508  0.500847  1
  Pb  Pb12  1  0.994585  0.998675  0.006192  1
  Pb  Pb13  1  0.489757  0.997717  0.008126  1
  Pb  Pb14  1  0.000024  0.331034  0.002266  1
  Pb  Pb15  1  0.500461  0.331453  0.002713  1
  Pb  Pb16  1  0.007790  0.672004  0.989485  1
  Pb  Pb17  1  0.008991  0.170709  0.989965  1
  Pb  Pb18  1  -0.000109  0.833658  0.999801  1
  Pb  Pb19  1  0.999106  0.334161  0.499673  1
  Pb  Pb20  1  0.511165  0.671289  0.990202  1
  Pb  Pb21  1  0.992765  0.501026  0.003761  1
  Pb  Pb22  1  0.009459  0.673010  0.488128  1
  Pb  Pb23  1  0.992150  0.996494  0.508428  1
  O  O24  1  0.183951  0.066473  0.183148  1
  O  O25  1  0.101278  0.284966  0.147708  1
  O  O26  1  0.568793  0.067079  0.182228  1
  O  O27  1  0.182102  0.016028  0.567378  1
  O  O28  1  0.184582  0.398697  0.184050  1
  O  O29  1  0.565653  0.272848  0.182692  1
  O  O30  1  0.151510  0.633303  0.100496  1
  O  O31  1  0.185598  0.144830  0.564670  1
  O  O32  1  0.564479  0.017492  0.566396  1
  O  O33  1  0.563958  0.397314  0.185957  1
  O  O34  1  0.183160  0.349582  0.568491  1
  O  O35  1  0.438287  0.315483  0.433412  1
  O  O36  1  0.183924  0.734263  0.183747  1
  O  O37  1  0.559412  0.604934  0.189455  1
  O  O38  1  0.818264  0.188789  0.432262  1
  O  O39  1  0.440298  0.062070  0.810991  1
  O  O40  1  0.181361  0.477475  0.568900  1
  O  O41  1  0.564133  0.350516  0.567213  1
  O  O42  1  0.814973  0.313787  0.435652  1
  O  O43  1  0.564008  0.735816  0.182371  1
  O  O44  1  0.185544  0.685838  0.563206  1
  O  O45  1  0.435915  0.266792  0.816177  1
  O  O46  1  0.436577  0.648082  0.435338  1
  O  O47  1  0.568459  0.939259  0.181875  1
  O  O48  1  0.849809  0.034546  0.898486  1
  O  O49  1  0.819008  0.522308  0.432281  1
  O  O50  1  0.436144  0.394802  0.814881  1
  O  O51  1  0.187367  0.812872  0.561589  1
  O  O52  1  0.566722  0.688696  0.559983  1
  O  O53  1  0.817513  0.266434  0.816415  1
  O  O54  1  0.815301  0.647429  0.436035  1
  O  O55  1  0.434377  0.604871  0.813435  1
  O  O56  1  0.433566  0.984367  0.432493  1
  O  O57  1  0.812629  0.853398  0.440157  1
  O  O58  1  0.899649  0.385745  0.847663  1
  O  O59  1  0.432385  0.727647  0.818495  1
  O  O60  1  0.815620  0.602311  0.816212  1
  O  O61  1  0.818769  0.984176  0.433021  1
  O  O62  1  0.437038  0.931982  0.816703  1
  O  O63  1  0.819332  0.930512  0.818085  1
