# generated using pymatgen
data_FeAg3H6(C3N4)2
_symmetry_space_group_name_H-M   'P 1'
_cell_length_a   7.77420340
_cell_length_b   7.77420340
_cell_length_c   12.43388791
_cell_angle_alpha   87.11160737
_cell_angle_beta   92.88839263
_cell_angle_gamma   75.35868935
_symmetry_Int_Tables_number   1
_chemical_formula_structural   FeAg3H6(C3N4)2
_chemical_formula_sum   'Fe2 Ag6 H12 C12 N16'
_cell_volume   724.60458846
_cell_formula_units_Z   2
loop_
 _symmetry_equiv_pos_site_id
 _symmetry_equiv_pos_as_xyz
  1  'x, y, z'
loop_
 _atom_site_type_symbol
 _atom_site_label
 _atom_site_symmetry_multiplicity
 _atom_site_fract_x
 _atom_site_fract_y
 _atom_site_fract_z
 _atom_site_occupancy
  Fe  Fe0  1  0.993403  0.496265  0.495376  1
  Fe  Fe1  1  0.503735  0.006597  0.995376  1
  Ag  Ag2  1  0.945538  0.392951  0.904363  1
  Ag  Ag3  1  0.607049  0.054462  0.404363  1
  Ag  Ag4  1  0.065721  0.626113  0.092001  1
  Ag  Ag5  1  0.373887  0.934279  0.592001  1
  Ag  Ag6  1  0.156941  0.753382  0.777606  1
  Ag  Ag7  1  0.246618  0.843059  0.277606  1
  H  H8  1  0.861554  0.997611  0.806742  1
  H  H9  1  0.002389  0.138446  0.306742  1
  H  H10  1  0.948549  0.072519  0.701874  1
  H  H11  1  0.927481  0.051451  0.201874  1
  H  H12  1  0.835047  0.921747  0.686481  1
  H  H13  1  0.078253  0.164953  0.186481  1
  H  H14  1  0.505418  0.596139  0.825612  1
  H  H15  1  0.403861  0.494582  0.325612  1
  H  H16  1  0.393966  0.454122  0.871465  1
  H  H17  1  0.545879  0.606034  0.371465  1
  H  H18  1  0.423220  0.473146  0.740755  1
  H  H19  1  0.526854  0.576780  0.240755  1
  C  C20  1  0.209938  0.321377  0.477359  1
  C  C21  1  0.678623  0.790062  0.977359  1
  C  C22  1  0.780370  0.670119  0.516038  1
  C  C23  1  0.329881  0.219630  0.016038  1
  C  C24  1  0.009623  0.436259  0.645125  1
  C  C25  1  0.563741  0.990377  0.145125  1
  C  C26  1  0.973648  0.552897  0.342928  1
  C  C27  1  0.447103  0.026352  0.842928  1
  C  C28  1  0.869777  0.317382  0.473926  1
  C  C29  1  0.682618  0.130223  0.973926  1
  C  C30  1  0.120109  0.670970  0.515843  1
  C  C31  1  0.329030  0.879891  0.015843  1
  N  N32  1  0.338947  0.207848  0.464419  1
  N  N33  1  0.792152  0.661053  0.964419  1
  N  N34  1  0.651316  0.783277  0.529598  1
  N  N35  1  0.216723  0.348684  0.029598  1
  N  N36  1  0.013331  0.401583  0.738695  1
  N  N37  1  0.598417  0.986669  0.238695  1
  N  N38  1  0.967493  0.583014  0.248837  1
  N  N39  1  0.416986  0.032507  0.748837  1
  N  N40  1  0.796772  0.204341  0.460265  1
  N  N41  1  0.795659  0.203228  0.960265  1
  N  N42  1  0.197582  0.781131  0.528564  1
  N  N43  1  0.218869  0.802418  0.028564  1
  N  N44  1  0.922628  0.961248  0.737602  1
  N  N45  1  0.038752  0.077372  0.237602  1
  N  N46  1  0.400528  0.542380  0.808625  1
  N  N47  1  0.457620  0.599472  0.308625  1
