# generated using pymatgen
data_K2LiTa6(PO8)3
_symmetry_space_group_name_H-M   'P 1'
_cell_length_a   8.48235565
_cell_length_b   8.47202485
_cell_length_c   8.48089870
_cell_angle_alpha   104.13254892
_cell_angle_beta   104.03098826
_cell_angle_gamma   104.14174910
_symmetry_Int_Tables_number   1
_chemical_formula_structural   K2LiTa6(PO8)3
_chemical_formula_sum   'K2 Li1 Ta6 P3 O24'
_cell_volume   542.72218523
_cell_formula_units_Z   1
loop_
 _symmetry_equiv_pos_site_id
 _symmetry_equiv_pos_as_xyz
  1  'x, y, z'
loop_
 _atom_site_type_symbol
 _atom_site_label
 _atom_site_symmetry_multiplicity
 _atom_site_fract_x
 _atom_site_fract_y
 _atom_site_fract_z
 _atom_site_occupancy
  K  K0  1  0.400391  0.703551  0.087107  1
  K  K1  1  0.913495  0.296059  0.599335  1
  Li  Li2  1  0.564651  0.566415  0.566368  1
  Ta  Ta3  1  0.035686  0.351257  0.160686  1
  Ta  Ta4  1  0.163128  0.037308  0.353913  1
  Ta  Ta5  1  0.651940  0.970430  0.843600  1
  Ta  Ta6  1  0.353380  0.161298  0.036144  1
  Ta  Ta7  1  0.845786  0.654307  0.971878  1
  Ta  Ta8  1  0.971552  0.845094  0.652462  1
  P  P9  1  0.275097  0.723719  0.499624  1
  P  P10  1  0.498978  0.275225  0.723966  1
  P  P11  1  0.723623  0.499243  0.275626  1
  O  O12  1  0.028994  0.974030  0.500868  1
  O  O13  1  0.153658  0.001287  0.847857  1
  O  O14  1  0.130983  0.708740  0.581732  1
  O  O15  1  0.065446  0.208318  0.314683  1
  O  O16  1  0.290628  0.868721  0.418369  1
  O  O17  1  0.237860  0.552587  0.356791  1
  O  O18  1  0.449343  0.754808  0.635601  1
  O  O19  1  0.208358  0.314649  0.066073  1
  O  O20  1  0.420264  0.292376  0.870219  1
  O  O21  1  0.357944  0.236087  0.551940  1
  O  O22  1  0.310695  0.063324  0.204963  1
  O  O23  1  0.497114  0.025045  0.970067  1
  O  O24  1  0.683949  0.789245  0.929608  1
  O  O25  1  0.636555  0.448614  0.752634  1
  O  O26  1  0.583633  0.132705  0.710490  1
  O  O27  1  0.792613  0.931538  0.688011  1
  O  O28  1  0.550702  0.358833  0.236410  1
  O  O29  1  0.754254  0.634571  0.450551  1
  O  O30  1  0.708106  0.582302  0.131685  1
  O  O31  1  0.928868  0.683849  0.789297  1
  O  O32  1  0.869552  0.419778  0.293100  1
  O  O33  1  0.002222  0.847661  0.153868  1
  O  O34  1  0.847693  0.153968  0.000336  1
  O  O35  1  0.971858  0.499059  0.027136  1
