# generated using pymatgen
data_UV2O8
_symmetry_space_group_name_H-M   'P 1'
_cell_length_a   6.32926084
_cell_length_b   10.65395017
_cell_length_c   11.23658406
_cell_angle_alpha   90.00000000
_cell_angle_beta   90.00000000
_cell_angle_gamma   90.00000000
_symmetry_Int_Tables_number   1
_chemical_formula_structural   UV2O8
_chemical_formula_sum   'U4 V8 O32'
_cell_volume   757.70117433
_cell_formula_units_Z   4
loop_
 _symmetry_equiv_pos_site_id
 _symmetry_equiv_pos_as_xyz
  1  'x, y, z'
loop_
 _atom_site_type_symbol
 _atom_site_label
 _atom_site_symmetry_multiplicity
 _atom_site_fract_x
 _atom_site_fract_y
 _atom_site_fract_z
 _atom_site_occupancy
  U  U0  1  0.392713  0.620614  0.750000  1
  U  U1  1  0.607287  0.379386  0.250000  1
  U  U2  1  0.892713  0.879386  0.750000  1
  U  U3  1  0.107287  0.120614  0.250000  1
  V  V4  1  0.819617  0.814888  0.399927  1
  V  V5  1  0.680383  0.314888  0.899927  1
  V  V6  1  0.680383  0.314888  0.600073  1
  V  V7  1  0.819617  0.814888  0.100073  1
  V  V8  1  0.319617  0.685112  0.100073  1
  V  V9  1  0.319617  0.685112  0.399927  1
  V  V10  1  0.180383  0.185112  0.600073  1
  V  V11  1  0.180383  0.185112  0.899927  1
  O  O12  1  0.145187  0.036888  0.860522  1
  O  O13  1  0.053305  0.728808  0.057663  1
  O  O14  1  0.697820  0.249033  0.750000  1
  O  O15  1  0.197820  0.250967  0.750000  1
  O  O16  1  0.645187  0.463112  0.639478  1
  O  O17  1  0.946695  0.271192  0.557663  1
  O  O18  1  0.651913  0.733447  0.750000  1
  O  O19  1  0.446695  0.228808  0.557663  1
  O  O20  1  0.837308  0.879550  0.586227  1
  O  O21  1  0.837308  0.879550  0.913773  1
  O  O22  1  0.553305  0.771192  0.057663  1
  O  O23  1  0.151913  0.766553  0.750000  1
  O  O24  1  0.854813  0.963112  0.139478  1
  O  O25  1  0.662692  0.379550  0.086227  1
  O  O26  1  0.162692  0.120450  0.086227  1
  O  O27  1  0.354813  0.536888  0.139478  1
  O  O28  1  0.354813  0.536888  0.360522  1
  O  O29  1  0.802180  0.749033  0.250000  1
  O  O30  1  0.348087  0.266553  0.250000  1
  O  O31  1  0.645187  0.463112  0.860522  1
  O  O32  1  0.302180  0.750967  0.250000  1
  O  O33  1  0.162692  0.120450  0.413773  1
  O  O34  1  0.337308  0.620450  0.913773  1
  O  O35  1  0.854813  0.963112  0.360522  1
  O  O36  1  0.446695  0.228808  0.942337  1
  O  O37  1  0.946695  0.271192  0.942337  1
  O  O38  1  0.053305  0.728808  0.442337  1
  O  O39  1  0.337308  0.620450  0.586227  1
  O  O40  1  0.848087  0.233447  0.250000  1
  O  O41  1  0.145187  0.036888  0.639478  1
  O  O42  1  0.662692  0.379550  0.413773  1
  O  O43  1  0.553305  0.771192  0.442337  1
