# generated using pymatgen
data_CsScAsO4F
_symmetry_space_group_name_H-M   'P 1'
_cell_length_a   10.35439001
_cell_length_b   10.50696026
_cell_length_c   10.74090011
_cell_angle_alpha   90.00000000
_cell_angle_beta   90.00000000
_cell_angle_gamma   90.00000000
_symmetry_Int_Tables_number   1
_chemical_formula_structural   CsScAsO4F
_chemical_formula_sum   'Cs8 Sc8 As8 O32 F8'
_cell_volume   1168.53651095
_cell_formula_units_Z   8
loop_
 _symmetry_equiv_pos_site_id
 _symmetry_equiv_pos_as_xyz
  1  'x, y, z'
loop_
 _atom_site_type_symbol
 _atom_site_label
 _atom_site_symmetry_multiplicity
 _atom_site_fract_x
 _atom_site_fract_y
 _atom_site_fract_z
 _atom_site_occupancy
  Cs  Cs0  1  0.083955  0.564466  0.119640  1
  Cs  Cs1  1  0.247888  0.889435  0.659398  1
  Cs  Cs2  1  0.252112  0.889435  0.159398  1
  Cs  Cs3  1  0.416045  0.564466  0.619640  1
  Cs  Cs4  1  0.583955  0.064466  0.380360  1
  Cs  Cs5  1  0.747888  0.389435  0.840602  1
  Cs  Cs6  1  0.752112  0.389435  0.340602  1
  Cs  Cs7  1  0.916045  0.064466  0.880360  1
  Sc  Sc8  1  0.072150  0.200534  0.184926  1
  Sc  Sc9  1  0.233422  0.255620  0.936853  1
  Sc  Sc10  1  0.266578  0.255620  0.436853  1
  Sc  Sc11  1  0.427850  0.200534  0.684926  1
  Sc  Sc12  1  0.572150  0.700534  0.315074  1
  Sc  Sc13  1  0.733422  0.755620  0.563147  1
  Sc  Sc14  1  0.766578  0.755620  0.063147  1
  Sc  Sc15  1  0.927850  0.700534  0.815074  1
  As  As16  1  0.969949  0.777455  0.381710  1
  As  As17  1  0.555510  0.048344  0.940946  1
  As  As18  1  0.944490  0.048344  0.440946  1
  As  As19  1  0.530051  0.777455  0.881710  1
  As  As20  1  0.469949  0.277455  0.118290  1
  As  As21  1  0.055510  0.548344  0.559054  1
  As  As22  1  0.444490  0.548344  0.059054  1
  As  As23  1  0.030051  0.277455  0.618290  1
  O  O24  1  0.938745  0.419218  0.550366  1
  O  O25  1  0.069842  0.169384  0.489009  1
  O  O26  1  0.562926  0.092293  0.786396  1
  O  O27  1  0.164419  0.601963  0.456399  1
  O  O28  1  0.554624  0.843003  0.551696  1
  O  O29  1  0.525132  0.308048  0.558337  1
  O  O30  1  0.338432  0.127069  0.544423  1
  O  O31  1  0.172086  0.370210  0.586961  1
  O  O32  1  0.327914  0.370210  0.086961  1
  O  O33  1  0.161568  0.127069  0.044423  1
  O  O34  1  0.974868  0.308048  0.058337  1
  O  O35  1  0.945376  0.843003  0.051696  1
  O  O36  1  0.335581  0.601963  0.956399  1
  O  O37  1  0.937074  0.092293  0.286396  1
  O  O38  1  0.430158  0.169384  0.989009  1
  O  O39  1  0.561255  0.419218  0.050366  1
  O  O40  1  0.438745  0.919218  0.949634  1
  O  O41  1  0.569842  0.669384  0.010991  1
  O  O42  1  0.062926  0.592293  0.713604  1
  O  O43  1  0.664419  0.101963  0.043601  1
  O  O44  1  0.054624  0.343003  0.948304  1
  O  O45  1  0.025132  0.808048  0.941663  1
  O  O46  1  0.838432  0.627069  0.955577  1
  O  O47  1  0.672086  0.870210  0.913039  1
  O  O48  1  0.827914  0.870210  0.413039  1
  O  O49  1  0.661568  0.627069  0.455577  1
  O  O50  1  0.474868  0.808048  0.441663  1
  O  O51  1  0.445376  0.343003  0.448304  1
  O  O52  1  0.835581  0.101963  0.543601  1
  O  O53  1  0.437074  0.592293  0.213604  1
  O  O54  1  0.930158  0.669384  0.510991  1
  O  O55  1  0.061255  0.919218  0.449634  1
  F  F56  1  0.120264  0.346667  0.302120  1
  F  F57  1  0.241818  0.145690  0.779937  1
  F  F58  1  0.258182  0.145690  0.279937  1
  F  F59  1  0.379736  0.346667  0.802120  1
  F  F60  1  0.620264  0.846667  0.197880  1
  F  F61  1  0.741818  0.645690  0.720063  1
  F  F62  1  0.758182  0.645690  0.220063  1
  F  F63  1  0.879736  0.846667  0.697880  1
