# generated using pymatgen
data_Co5(Bi2O5)4
_symmetry_space_group_name_H-M   'P 1'
_cell_length_a   8.57330535
_cell_length_b   8.78896746
_cell_length_c   8.85434131
_cell_angle_alpha   110.37939172
_cell_angle_beta   109.34283149
_cell_angle_gamma   112.03265052
_symmetry_Int_Tables_number   1
_chemical_formula_structural   Co5(Bi2O5)4
_chemical_formula_sum   'Co5 Bi8 O20'
_cell_volume   491.07362539
_cell_formula_units_Z   1
loop_
 _symmetry_equiv_pos_site_id
 _symmetry_equiv_pos_as_xyz
  1  'x, y, z'
loop_
 _atom_site_type_symbol
 _atom_site_label
 _atom_site_symmetry_multiplicity
 _atom_site_fract_x
 _atom_site_fract_y
 _atom_site_fract_z
 _atom_site_occupancy
  Co  Co0  1  0.504542  0.700370  0.798675  1
  Co  Co1  1  0.996502  0.988047  0.974776  1
  Co  Co2  1  0.324323  0.221686  0.592269  1
  Co  Co3  1  0.674101  0.767869  0.489195  1
  Co  Co4  1  0.495876  0.277127  0.162337  1
  Bi  Bi5  1  0.151328  0.823941  0.667226  1
  Bi  Bi6  1  0.177627  0.377075  0.878355  1
  Bi  Bi7  1  0.200546  0.502039  0.327001  1
  Bi  Bi8  1  0.314541  0.873282  0.160804  1
  Bi  Bi9  1  0.658144  0.155319  0.831376  1
  Bi  Bi10  1  0.770318  0.494263  0.637664  1
  Bi  Bi11  1  0.829322  0.677707  0.176294  1
  Bi  Bi12  1  0.866985  0.136958  0.355799  1
  O  O13  1  0.084502  0.706777  0.363332  1
  O  O14  1  0.329726  0.676965  0.943476  1
  O  O15  1  0.911215  0.941671  0.712864  1
  O  O16  1  0.999480  0.769504  0.990647  1
  O  O17  1  0.011170  0.397721  0.017694  1
  O  O18  1  0.302762  0.428711  0.643191  1
  O  O19  1  0.382877  0.786813  0.660361  1
  O  O20  1  0.426153  0.706960  0.328285  1
  O  O21  1  0.337014  0.095345  0.716983  1
  O  O22  1  0.262677  0.258275  0.132924  1
  O  O23  1  0.576933  0.621272  0.587506  1
  O  O24  1  0.603833  0.352407  0.735108  1
  O  O25  1  0.745378  0.872072  0.347367  1
  O  O26  1  0.352270  0.011784  0.994588  1
  O  O27  1  0.682564  0.557237  0.333411  1
  O  O28  1  0.590973  0.219017  0.350855  1
  O  O29  1  0.917255  0.297071  0.641231  1
  O  O30  1  0.685217  0.328776  0.086633  1
  O  O31  1  0.748275  0.923001  0.987892  1
  O  O32  1  0.085571  0.052938  0.373880  1
