# generated using pymatgen
data_Te40Rh31
_symmetry_space_group_name_H-M   'P 1'
_cell_length_a   26.92033731
_cell_length_b   13.98827899
_cell_length_c   12.69066140
_cell_angle_alpha   76.70352039
_cell_angle_beta   27.65733168
_cell_angle_gamma   60.73577103
_symmetry_Int_Tables_number   1
_chemical_formula_structural   Te40Rh31
_chemical_formula_sum   'Te40 Rh31'
_cell_volume   1674.46887509
_cell_formula_units_Z   1
loop_
 _symmetry_equiv_pos_site_id
 _symmetry_equiv_pos_as_xyz
  1  'x, y, z'
loop_
 _atom_site_type_symbol
 _atom_site_label
 _atom_site_symmetry_multiplicity
 _atom_site_fract_x
 _atom_site_fract_y
 _atom_site_fract_z
 _atom_site_occupancy
  Te  Te0  1  0.691325  0.785163  0.948384  1
  Te  Te1  1  0.140424  0.532219  0.868308  1
  Te  Te2  1  0.492064  0.435460  0.131596  1
  Te  Te3  1  0.041414  0.981620  0.142322  1
  Te  Te4  1  0.115215  0.560145  0.286199  1
  Te  Te5  1  0.290705  0.012835  0.580232  1
  Te  Te6  1  0.522652  0.726604  0.094793  1
  Te  Te7  1  0.332450  0.546545  0.993233  1
  Te  Te8  1  0.821550  0.581320  0.479268  1
  Te  Te9  1  0.735870  0.334716  0.176851  1
  Te  Te10  1  0.208360  0.939440  0.257095  1
  Te  Te11  1  0.991082  0.816352  0.128272  1
  Te  Te12  1  0.754707  0.217636  0.487659  1
  Te  Te13  1  0.652485  0.960550  0.223718  1
  Te  Te14  1  0.027937  0.116212  0.367329  1
  Te  Te15  1  0.613075  0.761511  0.594627  1
  Te  Te16  1  0.448436  0.735136  0.629319  1
  Te  Te17  1  0.957207  0.301123  0.227035  1
  Te  Te18  1  0.316338  0.012546  0.254005  1
  Te  Te19  1  0.141168  0.351083  0.081784  1
  Te  Te20  1  0.853431  0.645078  0.932346  1
  Te  Te21  1  0.682527  0.992726  0.746534  1
  Te  Te22  1  0.039923  0.701928  0.759400  1
  Te  Te23  1  0.543969  0.269082  0.378992  1
  Te  Te24  1  0.395687  0.235465  0.388512  1
  Te  Te25  1  0.962407  0.890086  0.644003  1
  Te  Te26  1  0.346259  0.039346  0.776778  1
  Te  Te27  1  0.234886  0.788394  0.533149  1
  Te  Te28  1  0.001489  0.178769  0.882150  1
  Te  Te29  1  0.793430  0.057893  0.737955  1
  Te  Te30  1  0.263850  0.660503  0.825676  1
  Te  Te31  1  0.178816  0.421381  0.537942  1
  Te  Te32  1  0.669067  0.456506  0.000798  1
  Te  Te33  1  0.470374  0.279287  0.910549  1
  Te  Te34  1  0.721895  -0.020606  0.402792  1
  Te  Te35  1  0.884117  0.437583  0.714627  1
  Te  Te36  1  0.957445  0.015380  0.856052  1
  Te  Te37  1  0.514938  0.567509  0.857191  1
  Te  Te38  1  0.872008  0.463732  0.114226  1
  Te  Te39  1  0.312246  0.209057  0.045065  1
  Rh  Rh40  1  -0.004124  0.999360  0.007331  1
  Rh  Rh41  1  0.027753  0.460086  -0.016076  1
  Rh  Rh42  1  0.232253  0.975340  0.880280  1
  Rh  Rh43  1  0.675863  0.807328  0.768057  1
  Rh  Rh44  1  0.264886  0.460148  0.851668  1
  Rh  Rh45  1  0.818579  0.224524  0.562889  1
  Rh  Rh46  1  0.556227  0.941486  0.779030  1
  Rh  Rh47  1  0.871142  0.784835  0.729165  1
  Rh  Rh48  1  0.282148  0.826708  0.625454  1
  Rh  Rh49  1  0.358741  0.496804  0.166779  1
  Rh  Rh50  1  0.380390  0.984094  0.933610  1
  Rh  Rh51  1  0.441858  0.062832  0.216717  1
  Rh  Rh52  1  0.274661  0.614297  0.618525  1
  Rh  Rh53  1  0.211028  0.216066  0.806775  1
  Rh  Rh54  1  0.588766  0.802983  0.425926  1
  Rh  Rh55  1  0.657380  0.499623  0.806828  1
  Rh  Rh56  1  0.112846  0.241337  0.776633  1
  Rh  Rh57  1  0.758491  0.034842  0.132125  1
  Rh  Rh58  1  0.545666  0.672505  0.271569  1
  Rh  Rh59  1  0.489358  0.527192  0.543655  1
  Rh  Rh60  1  0.452619  0.333317  0.724087  1
  Rh  Rh61  1  0.904780  0.732677  0.181209  1
  Rh  Rh62  1  0.726807  0.539178  0.156284  1
  Rh  Rh63  1  0.408348  0.196946  0.578253  1
  Rh  Rh64  1  0.768656  0.812040  0.218821  1
  Rh  Rh65  1  0.731350  0.384880  0.370274  1
  Rh  Rh66  1  0.622005  0.010495  0.061020  1
  Rh  Rh67  1  0.715487  0.174822  0.379591  1
  Rh  Rh68  1  0.127822  0.211054  0.274870  1
  Rh  Rh69  1  0.189984  0.772085  0.425778  1
  Rh  Rh70  1  0.315002  0.202799  0.246108  1
