# generated using pymatgen
data_Ca2Ta2O7
_symmetry_space_group_name_H-M   'P 1'
_cell_length_a   7.42489440
_cell_length_b   7.42489437
_cell_length_c   48.80940413
_cell_angle_alpha   90.00000000
_cell_angle_beta   90.00000000
_cell_angle_gamma   119.86112671
_symmetry_Int_Tables_number   1
_chemical_formula_structural   Ca2Ta2O7
_chemical_formula_sum   'Ca32 Ta32 O112'
_cell_volume   2333.56950962
_cell_formula_units_Z   16
loop_
 _symmetry_equiv_pos_site_id
 _symmetry_equiv_pos_as_xyz
  1  'x, y, z'
loop_
 _atom_site_type_symbol
 _atom_site_label
 _atom_site_symmetry_multiplicity
 _atom_site_fract_x
 _atom_site_fract_y
 _atom_site_fract_z
 _atom_site_occupancy
  Ca  Ca0  1  0.744091  0.747066  0.812174  1
  Ca  Ca1  1  0.584878  0.420253  0.625740  1
  Ca  Ca2  1  0.246990  0.761559  0.314682  1
  Ca  Ca3  1  0.238441  0.753010  0.185318  1
  Ca  Ca4  1  0.567653  0.411357  0.437324  1
  Ca  Ca5  1  0.099522  0.942498  0.060740  1
  Ca  Ca6  1  0.411357  0.567653  0.562676  1
  Ca  Ca7  1  0.747066  0.744091  0.187826  1
  Ca  Ca8  1  0.255909  0.252934  0.312174  1
  Ca  Ca9  1  0.415122  0.579747  0.125740  1
  Ca  Ca10  1  0.242067  0.749269  0.814153  1
  Ca  Ca11  1  0.079736  0.432121  0.063663  1
  Ca  Ca12  1  0.749269  0.242067  0.185847  1
  Ca  Ca13  1  0.588643  0.432347  0.062676  1
  Ca  Ca14  1  0.432121  0.079736  0.936337  1
  Ca  Ca15  1  0.920264  0.567879  0.563663  1
  Ca  Ca16  1  0.942498  0.099522  0.939260  1
  Ca  Ca17  1  0.240165  0.240165  0.500000  1
  Ca  Ca18  1  0.757933  0.250731  0.314153  1
  Ca  Ca19  1  0.900478  0.057502  0.560740  1
  Ca  Ca20  1  0.753010  0.238441  0.814682  1
  Ca  Ca21  1  0.759835  0.759835  0.000000  1
  Ca  Ca22  1  0.057502  0.900478  0.439260  1
  Ca  Ca23  1  0.250731  0.757933  0.685847  1
  Ca  Ca24  1  0.567879  0.920264  0.436337  1
  Ca  Ca25  1  0.590283  0.409717  0.250000  1
  Ca  Ca26  1  0.432347  0.588643  0.937324  1
  Ca  Ca27  1  0.420253  0.584878  0.374260  1
  Ca  Ca28  1  0.761559  0.246990  0.685318  1
  Ca  Ca29  1  0.579747  0.415122  0.874260  1
  Ca  Ca30  1  0.252934  0.255909  0.687826  1
  Ca  Ca31  1  0.409717  0.590283  0.750000  1
  Ta  Ta32  1  0.590721  0.910700  0.247143  1
  Ta  Ta33  1  0.271597  0.273574  0.188775  1
  Ta  Ta34  1  0.409279  0.089300  0.747143  1
  Ta  Ta35  1  0.590207  0.917693  0.875615  1
  Ta  Ta36  1  0.103438  0.413361  0.437260  1
  Ta  Ta37  1  0.739822  0.739822  0.500000  1
  Ta  Ta38  1  0.911391  0.079452  0.373913  1
  Ta  Ta39  1  0.742830  0.241764  0.498423  1
  Ta  Ta40  1  0.088609  0.920548  0.873913  1
  Ta  Ta41  1  0.586639  0.896562  0.062740  1
  Ta  Ta42  1  0.089154  0.910846  0.250000  1
  Ta  Ta43  1  0.089300  0.409279  0.252857  1
  Ta  Ta44  1  0.912853  0.581820  0.376353  1
  Ta  Ta45  1  0.082307  0.409793  0.624385  1
  Ta  Ta46  1  0.409793  0.082307  0.375615  1
  Ta  Ta47  1  0.260178  0.260178  0.000000  1
  Ta  Ta48  1  0.418180  0.087147  0.123647  1
  Ta  Ta49  1  0.726426  0.728403  0.311225  1
  Ta  Ta50  1  0.257170  0.758236  0.998423  1
  Ta  Ta51  1  0.896562  0.586639  0.937260  1
  Ta  Ta52  1  0.758236  0.257170  0.001577  1
  Ta  Ta53  1  0.910846  0.089154  0.750000  1
  Ta  Ta54  1  0.917693  0.590207  0.124385  1
  Ta  Ta55  1  0.087147  0.418180  0.876353  1
  Ta  Ta56  1  0.910700  0.590721  0.752857  1
  Ta  Ta57  1  0.241764  0.742830  0.501577  1
  Ta  Ta58  1  0.413361  0.103438  0.562740  1
  Ta  Ta59  1  0.920548  0.088609  0.126087  1
  Ta  Ta60  1  0.273574  0.271597  0.811225  1
  Ta  Ta61  1  0.079452  0.911391  0.626087  1
  Ta  Ta62  1  0.581820  0.912853  0.623647  1
  Ta  Ta63  1  0.728403  0.726426  0.688775  1
  O  O64  1  0.787577  0.809989  0.869662  1
  O  O65  1  0.759052  0.723206  0.540854  1
  O  O66  1  0.039294  0.641298  0.862577  1
  O  O67  1  0.126988  0.996574  0.834802  1
  O  O68  1  0.837652  0.049376  0.086320  1
  O  O69  1  0.615992  0.384008  0.750000  1
  O  O70  1  0.207225  0.187227  0.740074  1
  O  O71  1  0.217526  0.782474  0.750000  1
  O  O72  1  0.789308  0.221895  0.870035  1
  O  O73  1  0.778105  0.210692  0.629965  1
  O  O74  1  0.740436  0.784807  0.044341  1
  O  O75  1  0.384008  0.615992  0.250000  1
  O  O76  1  0.625578  0.022029  0.758804  1
  O  O77  1  0.996574  0.126988  0.165198  1
  O  O78  1  0.387557  0.017022  0.880035  1
  O  O79  1  0.921910  0.565366  0.792543  1
  O  O80  1  0.434634  0.078090  0.707457  1
  O  O81  1  0.043108  0.447570  0.915917  1
  O  O82  1  0.271555  0.817861  0.540672  1
  O  O83  1  0.960706  0.358702  0.362577  1
  O  O84  1  0.457739  0.616824  0.329428  1
  O  O85  1  0.196180  0.149066  0.112626  1
  O  O86  1  0.850934  0.803820  0.387374  1
  O  O87  1  0.373629  0.131931  0.162840  1
  O  O88  1  0.010479  0.852911  0.289807  1
  O  O89  1  0.022029  0.625578  0.241196  1
  O  O90  1  0.842337  0.042524  0.505731  1
  O  O91  1  0.147089  0.989521  0.210193  1
  O  O92  1  0.565366  0.921910  0.207457  1
  O  O93  1  0.389191  0.615319  0.881753  1
  O  O94  1  0.565347  0.365656  0.581447  1
  O  O95  1  0.457873  0.614741  0.705658  1
  O  O96  1  0.099102  0.350741  0.211593  1
  O  O97  1  0.634344  0.434653  0.918553  1
  O  O98  1  0.049376  0.837652  0.913680  1
  O  O99  1  0.649259  0.900898  0.288407  1
  O  O100  1  0.852911  0.010479  0.710193  1
  O  O101  1  0.190011  0.212423  0.630338  1
  O  O102  1  0.078090  0.434634  0.292543  1
  O  O103  1  0.461176  0.016682  0.488008  1
  O  O104  1  0.542127  0.385259  0.205658  1
  O  O105  1  0.817861  0.271555  0.459328  1
  O  O106  1  0.803820  0.850934  0.612626  1
  O  O107  1  0.436538  0.636560  0.506380  1
  O  O108  1  0.374422  0.977971  0.258804  1
  O  O109  1  0.900898  0.649259  0.711593  1
  O  O110  1  0.625185  0.939044  0.916235  1
  O  O111  1  0.187227  0.207225  0.259926  1
  O  O112  1  0.447570  0.043108  0.084083  1
  O  O113  1  0.956892  0.552430  0.415917  1
  O  O114  1  0.792775  0.812773  0.240074  1
  O  O115  1  0.017022  0.387557  0.119965  1
  O  O116  1  0.616824  0.457739  0.670572  1
  O  O117  1  0.365656  0.565347  0.418553  1
  O  O118  1  0.162348  0.950624  0.586320  1
  O  O119  1  0.809989  0.787577  0.130338  1
  O  O120  1  0.276794  0.240948  0.959146  1
  O  O121  1  0.723206  0.759052  0.459146  1
  O  O122  1  0.157663  0.957476  0.005731  1
  O  O123  1  0.939044  0.625185  0.083765  1
  O  O124  1  0.374815  0.060956  0.416235  1
  O  O125  1  0.610809  0.384681  0.381753  1
  O  O126  1  0.989521  0.147089  0.789807  1
  O  O127  1  0.060956  0.374815  0.583765  1
  O  O128  1  0.042524  0.842337  0.494269  1
  O  O129  1  0.202882  0.659088  0.461630  1
  O  O130  1  0.563520  0.904786  0.834395  1
  O  O131  1  0.614741  0.457873  0.294342  1
  O  O132  1  0.563462  0.363440  0.006380  1
  O  O133  1  0.182139  0.728445  0.959328  1
  O  O134  1  0.384681  0.610809  0.618247  1
  O  O135  1  0.215193  0.259564  0.455659  1
  O  O136  1  0.782474  0.217526  0.250000  1
  O  O137  1  0.149066  0.196180  0.887374  1
  O  O138  1  0.983318  0.538824  0.011992  1
  O  O139  1  0.612443  0.982978  0.380035  1
  O  O140  1  0.538824  0.983318  0.988008  1
  O  O141  1  0.210692  0.778105  0.370035  1
  O  O142  1  0.358702  0.960706  0.637423  1
  O  O143  1  0.542261  0.383176  0.829428  1
  O  O144  1  0.131931  0.373629  0.837160  1
  O  O145  1  0.659088  0.202882  0.538370  1
  O  O146  1  0.340912  0.797118  0.038370  1
  O  O147  1  0.636560  0.436538  0.493620  1
  O  O148  1  0.977971  0.374422  0.741196  1
  O  O149  1  0.221895  0.789308  0.129965  1
  O  O150  1  0.434653  0.634344  0.081447  1
  O  O151  1  0.812773  0.792775  0.759926  1
  O  O152  1  0.950624  0.162348  0.413680  1
  O  O153  1  0.784807  0.740436  0.955659  1
  O  O154  1  0.728445  0.182139  0.040672  1
  O  O155  1  0.212423  0.190011  0.369662  1
  O  O156  1  0.003426  0.873012  0.665198  1
  O  O157  1  0.957476  0.157663  0.994269  1
  O  O158  1  0.350741  0.099102  0.788407  1
  O  O159  1  0.797118  0.340912  0.961630  1
  O  O160  1  0.436480  0.095214  0.334395  1
  O  O161  1  0.868069  0.626371  0.337160  1
  O  O162  1  0.016682  0.461176  0.511992  1
  O  O163  1  0.363440  0.563462  0.993620  1
  O  O164  1  0.240948  0.276794  0.040854  1
  O  O165  1  0.626371  0.868069  0.662840  1
  O  O166  1  0.095214  0.436480  0.665605  1
  O  O167  1  0.641298  0.039294  0.137423  1
  O  O168  1  0.904786  0.563520  0.165605  1
  O  O169  1  0.383176  0.542261  0.170572  1
  O  O170  1  0.259564  0.215193  0.544341  1
  O  O171  1  0.385259  0.542127  0.794342  1
  O  O172  1  0.615319  0.389191  0.118247  1
  O  O173  1  0.982978  0.612443  0.619965  1
  O  O174  1  0.552430  0.956892  0.584083  1
  O  O175  1  0.873012  0.003426  0.334802  1
