# generated using pymatgen
data_SrH2O3
_symmetry_space_group_name_H-M   'P 1'
_cell_length_a   3.79273390
_cell_length_b   5.85127404
_cell_length_c   6.57545431
_cell_angle_alpha   90.02359208
_cell_angle_beta   89.99999849
_cell_angle_gamma   90.00117926
_symmetry_Int_Tables_number   1
_chemical_formula_structural   SrH2O3
_chemical_formula_sum   'Sr2 H4 O6'
_cell_volume   145.92460922
_cell_formula_units_Z   2
loop_
 _symmetry_equiv_pos_site_id
 _symmetry_equiv_pos_as_xyz
  1  'x, y, z'
loop_
 _atom_site_type_symbol
 _atom_site_label
 _atom_site_symmetry_multiplicity
 _atom_site_fract_x
 _atom_site_fract_y
 _atom_site_fract_z
 _atom_site_occupancy
  Sr  Sr0  1  0.999999  0.641353  0.745965  1
  Sr  Sr1  1  1.000000  0.358647  0.245962  1
  H  H2  1  0.211734  0.118267  0.829404  1
  H  H3  1  0.788278  0.118272  0.829406  1
  H  H4  1  0.787862  0.881942  0.329321  1
  H  H5  1  0.212122  0.881935  0.329324  1
  O  O6  1  -0.000014  0.215899  0.869486  1
  O  O7  1  0.000018  0.783542  0.369778  1
  O  O8  1  0.500006  0.930025  0.763687  1
  O  O9  1  0.499997  0.070060  0.263610  1
  O  O10  1  0.499999  0.436250  0.525707  1
  O  O11  1  0.500000  0.563809  0.025749  1
