# generated using pymatgen
data_Os6C17S2O17
_symmetry_space_group_name_H-M   'P 1'
_cell_length_a   11.42126093
_cell_length_b   14.79696188
_cell_length_c   17.70686504
_cell_angle_alpha   90.00000000
_cell_angle_beta   90.00000000
_cell_angle_gamma   90.00000000
_symmetry_Int_Tables_number   1
_chemical_formula_structural   Os6C17S2O17
_chemical_formula_sum   'Os24 C68 S8 O68'
_cell_volume   2992.45952957
_cell_formula_units_Z   4
loop_
 _symmetry_equiv_pos_site_id
 _symmetry_equiv_pos_as_xyz
  1  'x, y, z'
loop_
 _atom_site_type_symbol
 _atom_site_label
 _atom_site_symmetry_multiplicity
 _atom_site_fract_x
 _atom_site_fract_y
 _atom_site_fract_z
 _atom_site_occupancy
  Os  Os0  1  0.037446  0.509644  0.925727  1
  Os  Os1  1  0.753146  0.090934  0.096606  1
  Os  Os2  1  0.626290  0.806614  0.105456  1
  Os  Os3  1  0.545250  0.933022  0.684448  1
  Os  Os4  1  0.275458  0.568329  0.802967  1
  Os  Os5  1  0.873710  0.193386  0.605456  1
  Os  Os6  1  0.976002  0.094207  0.731005  1
  Os  Os7  1  0.454750  0.433022  0.815552  1
  Os  Os8  1  0.962554  0.009644  0.574273  1
  Os  Os9  1  0.126290  0.693386  0.894544  1
  Os  Os10  1  0.775458  0.931671  0.197033  1
  Os  Os11  1  0.224542  0.431671  0.302967  1
  Os  Os12  1  0.246854  0.590934  0.403394  1
  Os  Os13  1  0.253146  0.409066  0.903394  1
  Os  Os14  1  0.724542  0.068329  0.697033  1
  Os  Os15  1  0.023998  0.594207  0.768995  1
  Os  Os16  1  0.537446  0.990356  0.074273  1
  Os  Os17  1  0.045250  0.566978  0.315552  1
  Os  Os18  1  0.373710  0.306614  0.394544  1
  Os  Os19  1  0.954750  0.066978  0.184448  1
  Os  Os20  1  0.523998  0.905793  0.231005  1
  Os  Os21  1  0.746854  0.909066  0.596606  1
  Os  Os22  1  0.462554  0.490356  0.425727  1
  Os  Os23  1  0.476002  0.405793  0.268995  1
  C  C24  1  0.128360  0.626604  0.232671  1
  C  C25  1  0.437221  0.988280  0.752678  1
  C  C26  1  0.345563  0.378738  0.987267  1
  C  C27  1  0.631318  0.372337  0.291641  1
  C  C28  1  0.895400  0.845633  0.189967  1
  C  C29  1  0.117116  0.973192  0.596615  1
  C  C30  1  0.382884  0.026808  0.096615  1
  C  C31  1  0.066073  0.392800  0.976490  1
  C  C32  1  0.654437  0.878738  0.512733  1
  C  C33  1  0.031654  0.029115  0.817977  1
  C  C34  1  0.447667  0.298979  0.213671  1
  C  C35  1  0.947667  0.201021  0.786329  1
  C  C36  1  0.986432  0.762141  0.892304  1
  C  C37  1  0.552333  0.798979  0.286329  1
  C  C38  1  0.513258  0.502506  0.901944  1
  C  C39  1  0.566073  0.107200  0.023510  1
  C  C40  1  0.518218  0.429144  0.512509  1
  C  C41  1  0.131318  0.127663  0.708359  1
  C  C42  1  0.741881  0.214305  0.120023  1
  C  C43  1  0.986742  0.497494  0.401944  1
  C  C44  1  0.055217  0.167984  0.163614  1
  C  C45  1  0.206907  0.433721  0.197640  1
  C  C46  1  0.882884  0.473192  0.903385  1
  C  C47  1  0.173078  0.750924  0.987007  1
  C  C48  1  0.826922  0.250924  0.512993  1
  C  C49  1  0.018218  0.070856  0.487491  1
  C  C50  1  0.968346  0.529115  0.682023  1
  C  C51  1  0.062779  0.011720  0.252678  1
  C  C52  1  0.481782  0.929144  0.987491  1
  C  C53  1  0.617116  0.526808  0.403385  1
  C  C54  1  0.433927  0.607200  0.476490  1
  C  C55  1  0.937221  0.511720  0.247322  1
  C  C56  1  0.013258  0.997494  0.098056  1
  C  C57  1  0.444783  0.832016  0.663614  1
  C  C58  1  0.371640  0.373396  0.732671  1
  C  C59  1  0.468346  0.970885  0.317977  1
  C  C60  1  0.701728  0.716617  0.162264  1
  C  C61  1  0.241881  0.285695  0.879977  1
  C  C62  1  0.944783  0.667984  0.336386  1
  C  C63  1  0.258119  0.714305  0.379977  1
  C  C64  1  0.486743  0.002506  0.598056  1
  C  C65  1  0.298272  0.216617  0.337736  1
  C  C66  1  0.871640  0.126604  0.267329  1
  C  C67  1  0.013568  0.262141  0.607696  1
  C  C68  1  0.154437  0.621262  0.487267  1
  C  C69  1  0.793093  0.933721  0.302360  1
  C  C70  1  0.673078  0.749076  0.012993  1
  C  C71  1  0.604600  0.154367  0.689967  1
  C  C72  1  0.486432  0.737859  0.107696  1
  C  C73  1  0.052333  0.701021  0.713671  1
  C  C74  1  0.326922  0.249076  0.487007  1
  C  C75  1  0.628360  0.873396  0.767329  1
  C  C76  1  0.513568  0.237859  0.392304  1
  C  C77  1  0.868682  0.627663  0.791641  1
  C  C78  1  0.798272  0.283383  0.662264  1
  C  C79  1  0.293093  0.566279  0.697640  1
  C  C80  1  0.933927  0.892800  0.523510  1
  C  C81  1  0.395400  0.654367  0.810033  1
  C  C82  1  0.845563  0.121262  0.012733  1
  C  C83  1  0.981782  0.570856  0.012509  1
  C  C84  1  0.368682  0.872337  0.208359  1
  C  C85  1  0.706907  0.066279  0.802360  1
  C  C86  1  0.201728  0.783383  0.837736  1
  C  C87  1  0.562779  0.488280  0.747322  1
  C  C88  1  0.758119  0.785695  0.620023  1
  C  C89  1  0.104600  0.345633  0.310033  1
  C  C90  1  0.555217  0.332016  0.836386  1
  C  C91  1  0.531654  0.470885  0.182023  1
  S  S92  1  0.243768  0.567640  0.943747  1
  S  S93  1  0.117879  0.451206  0.800602  1
  S  S94  1  0.256232  0.432360  0.443747  1
  S  S95  1  0.882121  0.951206  0.699398  1
  S  S96  1  0.743768  0.932360  0.056253  1
  S  S97  1  0.382121  0.548794  0.300602  1
  S  S98  1  0.756232  0.067640  0.556253  1
  S  S99  1  0.617879  0.048794  0.199398  1
  O  O100  1  0.125220  0.974924  0.293928  1
  O  O101  1  0.066814  0.990322  0.870365  1
  O  O102  1  0.625220  0.525076  0.706072  1
  O  O103  1  0.594757  0.859270  0.461659  1
  O  O104  1  0.773142  0.647674  0.806626  1
  O  O105  1  0.204015  0.790501  0.039921  1
  O  O106  1  0.882248  0.727958  0.348642  1
  O  O107  1  0.795985  0.290501  0.460079  1
  O  O108  1  0.943956  0.607618  0.065327  1
  O  O109  1  0.550908  0.543511  0.951885  1
  O  O110  1  0.433186  0.009678  0.370365  1
  O  O111  1  0.733000  0.291489  0.133128  1
  O  O112  1  0.273142  0.852326  0.193374  1
  O  O113  1  0.027939  0.293477  0.314832  1
  O  O114  1  0.069345  0.766282  0.678731  1
  O  O115  1  0.726858  0.352326  0.306626  1
  O  O116  1  0.675029  0.840173  0.817991  1
  O  O117  1  0.449092  0.043511  0.548115  1
  O  O118  1  0.961318  0.830855  0.486533  1
  O  O119  1  0.972061  0.793477  0.185168  1
  O  O120  1  0.430655  0.233718  0.178731  1
  O  O121  1  0.094757  0.640730  0.538341  1
  O  O122  1  0.905037  0.809485  0.892765  1
  O  O123  1  0.594963  0.190515  0.392765  1
  O  O124  1  0.556044  0.392382  0.565327  1
  O  O125  1  0.288046  0.052041  0.108006  1
  O  O126  1  0.472061  0.706523  0.814832  1
  O  O127  1  0.461318  0.669145  0.513467  1
  O  O128  1  0.905243  0.140730  0.961659  1
  O  O129  1  0.566814  0.509678  0.129635  1
  O  O130  1  0.711954  0.552041  0.391994  1
  O  O131  1  0.324971  0.340173  0.682009  1
  O  O132  1  0.056044  0.107618  0.434673  1
  O  O133  1  0.211954  0.947959  0.608006  1
  O  O134  1  0.788046  0.447959  0.891994  1
  O  O135  1  0.692674  0.062412  0.867710  1
  O  O136  1  0.807326  0.937588  0.367710  1
  O  O137  1  0.233000  0.208511  0.866872  1
  O  O138  1  0.192674  0.437588  0.132290  1
  O  O139  1  0.094963  0.309485  0.607235  1
  O  O140  1  0.038682  0.330855  0.013467  1
  O  O141  1  0.538682  0.169145  0.986533  1
  O  O142  1  0.307326  0.562412  0.632290  1
  O  O143  1  0.617752  0.272042  0.848642  1
  O  O144  1  0.374780  0.025076  0.793928  1
  O  O145  1  0.527939  0.206523  0.685168  1
  O  O146  1  0.295985  0.209499  0.539921  1
  O  O147  1  0.405037  0.690515  0.107235  1
  O  O148  1  0.569345  0.733718  0.321269  1
  O  O149  1  0.117752  0.227958  0.151358  1
  O  O150  1  0.226858  0.147674  0.693374  1
  O  O151  1  0.824971  0.159827  0.317991  1
  O  O152  1  0.443956  0.892382  0.934673  1
  O  O153  1  0.267000  0.791489  0.366872  1
  O  O154  1  0.243153  0.842011  0.803165  1
  O  O155  1  0.933186  0.490322  0.629635  1
  O  O156  1  0.050908  0.956489  0.048115  1
  O  O157  1  0.382248  0.772042  0.651358  1
  O  O158  1  0.949092  0.456489  0.451885  1
  O  O159  1  0.743153  0.657989  0.196835  1
  O  O160  1  0.767000  0.708511  0.633128  1
  O  O161  1  0.175029  0.659827  0.182009  1
  O  O162  1  0.405243  0.359270  0.038341  1
  O  O163  1  0.874780  0.474924  0.206072  1
  O  O164  1  0.256847  0.157989  0.303165  1
  O  O165  1  0.704015  0.709499  0.960079  1
  O  O166  1  0.930655  0.266282  0.821269  1
  O  O167  1  0.756847  0.342011  0.696835  1
