# generated using pymatgen
data_La2YbS4
_symmetry_space_group_name_H-M   'P 1'
_cell_length_a   7.51491099
_cell_length_b   7.51491113
_cell_length_c   7.51491101
_cell_angle_alpha   109.64405399
_cell_angle_beta   109.12611172
_cell_angle_gamma   109.64404842
_symmetry_Int_Tables_number   1
_chemical_formula_structural   La2YbS4
_chemical_formula_sum   'Yb2 La4 S8'
_cell_volume   326.69149001
_cell_formula_units_Z   2
loop_
 _symmetry_equiv_pos_site_id
 _symmetry_equiv_pos_as_xyz
  1  'x, y, z'
loop_
 _atom_site_type_symbol
 _atom_site_label
 _atom_site_symmetry_multiplicity
 _atom_site_fract_x
 _atom_site_fract_y
 _atom_site_fract_z
 _atom_site_occupancy
  Yb  Yb0  1  0.125000  0.750000  0.875000  1
  Yb  Yb1  1  0.375000  0.250000  0.625000  1
  La  La2  1  0.250000  0.630830  0.380830  1
  La  La3  1  0.619170  0.369170  0.250000  1
  La  La4  1  0.750000  0.869170  0.119170  1
  La  La5  1  0.880830  0.130830  0.750000  1
  S  S6  1  0.499556  0.002549  0.357360  1
  S  S7  1  0.145188  0.142196  0.142640  1
  S  S8  1  0.354812  0.497451  0.997007  1
  S  S9  1  0.642640  0.642196  0.645189  1
  S  S10  1  0.497007  0.997451  0.854811  1
  S  S11  1  0.002993  0.857804  0.500444  1
  S  S12  1  0.857360  0.502549  0.999556  1
  S  S13  1  0.000444  0.357804  0.502993  1
