# generated using pymatgen
data_NaSr8NdTi10O30
_symmetry_space_group_name_H-M   'P 1'
_cell_length_a   5.55391301
_cell_length_b   5.55392627
_cell_length_c   55.60795079
_cell_angle_alpha   119.95938031
_cell_angle_beta   119.95920351
_cell_angle_gamma   90.00003507
_symmetry_Int_Tables_number   1
_chemical_formula_structural   NaSr8NdTi10O30
_chemical_formula_sum   'Na2 Sr16 Nd2 Ti20 O60'
_cell_volume   1214.37974244
_cell_formula_units_Z   2
loop_
 _symmetry_equiv_pos_site_id
 _symmetry_equiv_pos_as_xyz
  1  'x, y, z'
loop_
 _atom_site_type_symbol
 _atom_site_label
 _atom_site_symmetry_multiplicity
 _atom_site_fract_x
 _atom_site_fract_y
 _atom_site_fract_z
 _atom_site_occupancy
  Na  Na0  1  0.747779  0.247780  0.949560  1
  Na  Na1  1  0.752242  0.252242  0.850442  1
  Sr  Sr2  1  0.253422  0.753419  0.750684  1
  Sr  Sr3  1  0.250175  0.750179  0.650036  1
  Sr  Sr4  1  0.752397  0.252398  0.750479  1
  Sr  Sr5  1  0.249995  0.749994  0.550000  1
  Sr  Sr6  1  0.750559  0.250558  0.650111  1
  Sr  Sr7  1  0.249985  0.749984  0.449997  1
  Sr  Sr8  1  0.749993  0.249993  0.549998  1
  Sr  Sr9  1  0.250012  0.750015  0.350003  1
  Sr  Sr10  1  0.749986  0.249987  0.449997  1
  Sr  Sr11  1  0.249993  0.749993  0.249999  1
  Sr  Sr12  1  0.750022  0.250023  0.350004  1
  Sr  Sr13  1  0.249813  0.749810  0.149963  1
  Sr  Sr14  1  0.750015  0.250015  0.250002  1
  Sr  Sr15  1  0.246574  0.746574  0.049315  1
  Sr  Sr16  1  0.749439  0.249439  0.149888  1
  Sr  Sr17  1  0.747610  0.247613  0.049520  1
  Nd  Nd18  1  0.249395  0.749394  0.949874  1
  Nd  Nd19  1  0.250605  0.750604  0.850126  1
  Ti  Ti20  1  0.000003  0.000004  0.900001  1
  Ti  Ti21  1  0.007848  0.007833  0.801570  1
  Ti  Ti22  1  0.500008  0.500005  0.900001  1
  Ti  Ti23  1  0.002174  0.002172  0.700434  1
  Ti  Ti24  1  0.507836  0.507855  0.801571  1
  Ti  Ti25  1  0.000335  0.000336  0.600068  1
  Ti  Ti26  1  0.502173  0.502172  0.700434  1
  Ti  Ti27  1  0.000011  0.000012  0.500003  1
  Ti  Ti28  1  0.500338  0.500337  0.600068  1
  Ti  Ti29  1  0.000003  0.000005  0.400000  1
  Ti  Ti30  1  0.500013  0.500012  0.500003  1
  Ti  Ti31  1  -0.000010  0.999987  0.299998  1
  Ti  Ti32  1  0.500003  0.500001  0.400000  1
  Ti  Ti33  1  0.999652  0.999655  0.199931  1
  Ti  Ti34  1  0.499986  0.499988  0.299997  1
  Ti  Ti35  1  0.997811  0.997812  0.099562  1
  Ti  Ti36  1  0.499656  0.499654  0.199931  1
  Ti  Ti37  1  0.992162  0.992149  0.998429  1
  Ti  Ti38  1  0.497813  0.497813  0.099562  1
  Ti  Ti39  1  0.492149  0.492164  0.998429  1
  O  O40  1  0.247787  0.247779  0.949557  1
  O  O41  1  0.227017  0.288261  0.901528  1
  O  O42  1  0.272980  0.772981  0.898472  1
  O  O43  1  0.252199  0.252218  0.850441  1
  O  O44  1  0.747779  0.747788  0.949557  1
  O  O45  1  0.232543  0.292454  0.802500  1
  O  O46  1  0.711729  0.211730  0.898471  1
  O  O47  1  0.269159  0.769160  0.800961  1
  O  O48  1  0.788261  0.727019  0.901528  1
  O  O49  1  0.253512  0.253515  0.750703  1
  O  O50  1  0.752215  0.752198  0.850441  1
  O  O51  1  0.236025  0.267598  0.700362  1
  O  O52  1  0.740436  0.240437  0.800961  1
  O  O53  1  0.265792  0.765792  0.700112  1
  O  O54  1  0.792455  0.732544  0.802501  1
  O  O55  1  0.250765  0.250767  0.650154  1
  O  O56  1  0.753518  0.753509  0.750703  1
  O  O57  1  0.234763  0.265585  0.600035  1
  O  O58  1  0.735333  0.235333  0.700113  1
  O  O59  1  0.265474  0.765474  0.600018  1
  O  O60  1  0.767600  0.736022  0.700362  1
  O  O61  1  0.250189  0.250191  0.550038  1
  O  O62  1  0.750770  0.750767  0.650154  1
  O  O63  1  0.234609  0.265406  0.500001  1
  O  O64  1  0.734708  0.234707  0.600018  1
  O  O65  1  0.265401  0.765401  0.500000  1
  O  O66  1  0.765582  0.734762  0.600034  1
  O  O67  1  0.250036  0.250037  0.450007  1
  O  O68  1  0.750192  0.750188  0.550038  1
  O  O69  1  0.234606  0.265401  0.400001  1
  O  O70  1  0.734601  0.234602  0.500000  1
  O  O71  1  0.265399  0.765398  0.400000  1
  O  O72  1  0.765402  0.734610  0.500001  1
  O  O73  1  0.249969  0.249972  0.349994  1
  O  O74  1  0.750038  0.750033  0.450007  1
  O  O75  1  0.234608  0.265403  0.300001  1
  O  O76  1  0.734603  0.234605  0.400001  1
  O  O77  1  0.265389  0.765390  0.299999  1
  O  O78  1  0.765401  0.734605  0.400001  1
  O  O79  1  0.249805  0.249809  0.249962  1
  O  O80  1  0.749974  0.749974  0.349994  1
  O  O81  1  0.234527  0.265287  0.199981  1
  O  O82  1  0.734600  0.234601  0.299999  1
  O  O83  1  0.265236  0.765235  0.199965  1
  O  O84  1  0.765403  0.734605  0.300001  1
  O  O85  1  0.249236  0.249242  0.149848  1
  O  O86  1  0.749809  0.749811  0.249962  1
  O  O87  1  0.234209  0.264669  0.099888  1
  O  O88  1  0.734413  0.234413  0.199965  1
  O  O89  1  0.263979  0.763980  0.099638  1
  O  O90  1  0.765291  0.734529  0.199982  1
  O  O91  1  0.246495  0.246499  0.049298  1
  O  O92  1  0.749240  0.749233  0.149848  1
  O  O93  1  0.230832  0.259556  0.999039  1
  O  O94  1  0.732402  0.232403  0.099638  1
  O  O95  1  0.267456  0.767455  0.997500  1
  O  O96  1  0.764672  0.734215  0.099889  1
  O  O97  1  0.746501  0.746492  0.049298  1
  O  O98  1  0.707542  0.207542  0.997499  1
  O  O99  1  0.759556  0.730832  0.999039  1
