# generated using pymatgen
data_Ba11(Nb3S14)2
_symmetry_space_group_name_H-M   'P 1'
_cell_length_a   14.62810648
_cell_length_b   14.65749774
_cell_length_c   29.20257029
_cell_angle_alpha   27.61932210
_cell_angle_beta   27.50707729
_cell_angle_gamma   27.73942626
_symmetry_Int_Tables_number   1
_chemical_formula_structural   Ba11(Nb3S14)2
_chemical_formula_sum   'Ba11 Nb6 S28'
_cell_volume   1188.11777939
_cell_formula_units_Z   1
loop_
 _symmetry_equiv_pos_site_id
 _symmetry_equiv_pos_as_xyz
  1  'x, y, z'
loop_
 _atom_site_type_symbol
 _atom_site_label
 _atom_site_symmetry_multiplicity
 _atom_site_fract_x
 _atom_site_fract_y
 _atom_site_fract_z
 _atom_site_occupancy
  Ba  Ba0  1  0.079478  0.069076  0.033420  1
  Ba  Ba1  1  0.194983  0.199553  0.105489  1
  Ba  Ba2  1  0.068173  0.075611  0.533751  1
  Ba  Ba3  1  0.207649  0.207916  0.593983  1
  Ba  Ba4  1  0.372199  0.307603  0.657984  1
  Ba  Ba5  1  0.732395  0.707250  0.280850  1
  Ba  Ba6  1  0.800145  0.797895  0.399689  1
  Ba  Ba7  1  0.933456  0.932578  0.460954  1
  Ba  Ba8  1  0.654726  0.643083  0.854669  1
  Ba  Ba9  1  0.798815  0.797697  0.899819  1
  Ba  Ba10  1  0.930889  0.923747  0.965342  1
  Nb  Nb11  1  0.424963  0.408996  0.216405  1
  Nb  Nb12  1  0.496454  0.516794  0.243444  1
  Nb  Nb13  1  0.578295  0.572760  0.292103  1
  Nb  Nb14  1  0.427068  0.434262  0.701419  1
  Nb  Nb15  1  0.490161  0.498097  0.755711  1
  Nb  Nb16  1  0.590438  0.566882  0.787559  1
  S  S17  1  0.053485  0.578081  0.283855  1
  S  S18  1  0.575689  0.572855  0.028164  1
  S  S19  1  0.559159  0.059193  0.283284  1
  S  S20  1  0.298149  0.799683  0.151296  1
  S  S21  1  0.305808  0.301151  0.395038  1
  S  S22  1  0.790888  0.297316  0.155139  1
  S  S23  1  0.208483  0.691877  0.353134  1
  S  S24  1  0.703726  0.697840  0.100772  1
  S  S25  1  0.689587  0.215658  0.352045  1
  S  S26  1  0.438538  0.941827  0.213287  1
  S  S27  1  0.436210  0.453042  0.468192  1
  S  S28  1  0.944433  0.433667  0.215100  1
  S  S29  1  0.936360  0.167772  0.448050  1
  S  S30  1  0.064152  0.547903  0.786251  1
  S  S31  1  0.571389  0.060730  0.778787  1
  S  S32  1  0.545610  0.576362  0.525739  1
  S  S33  1  0.306189  0.786983  0.648494  1
  S  S34  1  0.301793  0.300126  0.896950  1
  S  S35  1  0.787470  0.309906  0.646554  1
  S  S36  1  0.205591  0.701572  0.846753  1
  S  S37  1  0.701788  0.692442  0.604309  1
  S  S38  1  0.703248  0.207702  0.845504  1
  S  S39  1  0.438671  0.934866  0.717869  1
  S  S40  1  0.430290  0.429989  0.971233  1
  S  S41  1  0.944604  0.427997  0.722786  1
  S  S42  1  0.144555  0.838284  0.008442  1
  S  S43  1  0.949738  0.860174  0.594064  1
  S  S44  1  0.847761  0.136254  0.008147  1
