# generated using pymatgen
data_SrLaTa2(NO)3
_symmetry_space_group_name_H-M   'P 1'
_cell_length_a   5.72271372
_cell_length_b   5.72654526
_cell_length_c   8.21918068
_cell_angle_alpha   90.03104817
_cell_angle_beta   89.94504908
_cell_angle_gamma   91.06763557
_symmetry_Int_Tables_number   1
_chemical_formula_structural   SrLaTa2(NO)3
_chemical_formula_sum   'Sr2 La2 Ta4 N6 O6'
_cell_volume   269.30696454
_cell_formula_units_Z   2
loop_
 _symmetry_equiv_pos_site_id
 _symmetry_equiv_pos_as_xyz
  1  'x, y, z'
loop_
 _atom_site_type_symbol
 _atom_site_label
 _atom_site_symmetry_multiplicity
 _atom_site_fract_x
 _atom_site_fract_y
 _atom_site_fract_z
 _atom_site_occupancy
  Sr  Sr0  1  0.996741  0.017184  0.247606  1
  Sr  Sr1  1  0.493634  0.485950  0.742592  1
  La  La2  1  0.499473  0.530409  0.241900  1
  La  La3  1  0.993958  0.979860  0.746671  1
  Ta  Ta4  1  0.003402  0.490135  -0.011981  1
  Ta  Ta5  1  0.992070  0.510423  0.487498  1
  Ta  Ta6  1  0.504542  0.994183  0.491508  1
  Ta  Ta7  1  0.490222  0.011321  0.990612  1
  N  N8  1  0.073340  0.506438  0.255150  1
  N  N9  1  0.224317  0.220208  0.980527  1
  N  N10  1  0.453927  0.973112  0.254606  1
  N  N11  1  0.570954  0.018456  0.755005  1
  N  N12  1  0.768027  0.768115  0.484498  1
  N  N13  1  0.953956  0.494891  0.754652  1
  O  O14  1  0.211906  0.212060  0.535221  1
  O  O15  1  0.279957  0.724366  0.970483  1
  O  O16  1  0.270638  0.726366  0.537360  1
  O  O17  1  0.724004  0.281671  0.043283  1
  O  O18  1  0.717187  0.280564  0.463671  1
  O  O19  1  0.777744  0.774290  0.029138  1
