# generated using pymatgen
data_Lu2Se3
_symmetry_space_group_name_H-M   'P 1'
_cell_length_a   22.27424365
_cell_length_b   8.57689513
_cell_length_c   8.57689530
_cell_angle_alpha   90.00000000
_cell_angle_beta   54.71890398
_cell_angle_gamma   54.71890475
_symmetry_Int_Tables_number   1
_chemical_formula_structural   Lu2Se3
_chemical_formula_sum   'Lu16 Se24'
_cell_volume   945.24427126
_cell_formula_units_Z   8
loop_
 _symmetry_equiv_pos_site_id
 _symmetry_equiv_pos_as_xyz
  1  'x, y, z'
loop_
 _atom_site_type_symbol
 _atom_site_label
 _atom_site_symmetry_multiplicity
 _atom_site_fract_x
 _atom_site_fract_y
 _atom_site_fract_z
 _atom_site_occupancy
  Lu  Lu0  1  0.996557  0.388213  0.245370  1
  Lu  Lu1  1  0.079747  0.630379  0.380379  1
  Lu  Lu2  1  0.166667  0.250000  0.633802  1
  Lu  Lu3  1  0.253586  0.869621  0.119621  1
  Lu  Lu4  1  0.336776  0.377883  0.254630  1
  Lu  Lu5  1  0.336776  0.111787  0.735041  1
  Lu  Lu6  1  0.166667  0.750000  0.866198  1
  Lu  Lu7  1  0.496557  0.264959  0.622117  1
  Lu  Lu8  1  0.579747  0.880379  0.130379  1
  Lu  Lu9  1  0.666667  0.366198  0.250000  1
  Lu  Lu10  1  0.666667  0.133802  0.750000  1
  Lu  Lu11  1  0.496557  0.745370  0.888213  1
  Lu  Lu12  1  0.753586  0.619621  0.369621  1
  Lu  Lu13  1  0.836776  0.235041  0.611787  1
  Lu  Lu14  1  0.996557  0.122117  0.764959  1
  Lu  Lu15  1  0.836776  0.754630  0.877883  1
  Se  Se16  1  0.126164  0.493245  0.995009  1
  Se  Se17  1  0.046072  0.362062  0.495036  1
  Se  Se18  1  0.046072  0.999723  0.366748  1
  Se  Se19  1  0.287261  0.137938  0.133251  1
  Se  Se20  1  0.287261  0.500277  0.004964  1
  Se  Se21  1  0.207169  0.006755  0.873502  1
  Se  Se22  1  0.126164  0.628262  0.626498  1
  Se  Se23  1  0.207169  0.871738  0.504991  1
  Se  Se24  1  0.453102  0.491003  0.997183  1
  Se  Se25  1  0.380232  0.356489  0.508997  1
  Se  Se26  1  0.380232  0.002817  0.350309  1
  Se  Se27  1  0.626164  0.126498  0.128262  1
  Se  Se28  1  0.626164  0.495009  0.993245  1
  Se  Se29  1  0.453102  0.649691  0.643511  1
  Se  Se30  1  0.546072  0.995036  0.862062  1
  Se  Se31  1  0.546072  0.866749  0.499723  1
  Se  Se32  1  0.787261  0.504964  0.000277  1
  Se  Se33  1  0.707169  0.373502  0.506755  1
  Se  Se34  1  0.707169  0.004991  0.371738  1
  Se  Se35  1  0.953102  0.143511  0.149691  1
  Se  Se36  1  0.953102  0.497183  0.991003  1
  Se  Se37  1  0.787261  0.633251  0.637938  1
  Se  Se38  1  0.880232  0.008997  0.856489  1
  Se  Se39  1  0.880232  0.850309  0.502817  1
