# generated using pymatgen
data_Tl3In7Se10
_symmetry_space_group_name_H-M   'P 1'
_cell_length_a   6.76621700
_cell_length_b   33.87282092
_cell_length_c   13.47045993
_cell_angle_alpha   29.04008296
_cell_angle_beta   127.63773679
_cell_angle_gamma   118.41934610
_symmetry_Int_Tables_number   1
_chemical_formula_structural   Tl3In7Se10
_chemical_formula_sum   'Tl6 In14 Se20'
_cell_volume   1173.18397702
_cell_formula_units_Z   2
loop_
 _symmetry_equiv_pos_site_id
 _symmetry_equiv_pos_as_xyz
  1  'x, y, z'
loop_
 _atom_site_type_symbol
 _atom_site_label
 _atom_site_symmetry_multiplicity
 _atom_site_fract_x
 _atom_site_fract_y
 _atom_site_fract_z
 _atom_site_occupancy
  Tl  Tl0  1  0.250036  0.850018  0.999801  1
  Tl  Tl1  1  0.251450  0.650416  0.999490  1
  Tl  Tl2  1  0.748550  0.549584  0.000510  1
  Tl  Tl3  1  0.749964  0.349982  0.000199  1
  Tl  Tl4  1  0.248531  0.049734  0.999922  1
  Tl  Tl5  1  0.751469  0.150266  0.000078  1
  In  In6  1  0.249535  0.950101  0.499765  1
  In  In7  1  0.250117  0.749901  0.500372  1
  In  In8  1  0.749649  0.849953  0.500156  1
  In  In9  1  0.250431  0.549941  0.500031  1
  In  In10  1  0.749619  0.949889  0.000073  1
  In  In11  1  0.749569  0.650059  0.499969  1
  In  In12  1  0.250351  0.350047  0.499844  1
  In  In13  1  0.750314  0.750022  0.000048  1
  In  In14  1  0.749883  0.450099  0.499628  1
  In  In15  1  0.249686  0.449978  -0.000048  1
  In  In16  1  0.250267  0.149967  0.500275  1
  In  In17  1  0.750465  0.249899  0.500235  1
  In  In18  1  0.250381  0.250111  0.999927  1
  In  In19  1  0.749733  0.050033  0.499725  1
  Se  Se20  1  0.172774  0.865416  0.499945  1
  Se  Se21  1  0.673467  0.896172  0.846118  1
  Se  Se22  1  0.171146  0.665030  0.500129  1
  Se  Se23  1  0.672867  0.696691  0.845515  1
  Se  Se24  1  0.326896  0.903746  0.154373  1
  Se  Se25  1  0.827468  0.933588  0.502329  1
  Se  Se26  1  0.173275  0.464740  0.502094  1
  Se  Se27  1  0.327133  0.703783  0.154146  1
  Se  Se28  1  0.672867  0.496217  0.845854  1
  Se  Se29  1  0.826725  0.735260  0.497906  1
  Se  Se30  1  0.172532  0.266412  0.497671  1
  Se  Se31  1  0.327133  0.503309  0.154485  1
  Se  Se32  1  0.673104  0.296254  0.845627  1
  Se  Se33  1  0.828854  0.534970  0.499871  1
  Se  Se34  1  0.174889  0.065862  0.500012  1
  Se  Se35  1  0.326533  0.303828  0.153882  1
  Se  Se36  1  0.673172  0.095979  0.845340  1
  Se  Se37  1  0.827226  0.334584  0.500055  1
  Se  Se38  1  0.326828  0.104021  0.154660  1
  Se  Se39  1  0.825111  0.134138  0.499988  1
