# generated using pymatgen
data_HgH16(Br3N2)2
_symmetry_space_group_name_H-M   'P 1'
_cell_length_a   9.04224508
_cell_length_b   9.23237706
_cell_length_c   9.30946172
_cell_angle_alpha   90.00000000
_cell_angle_beta   90.00000000
_cell_angle_gamma   90.79341108
_symmetry_Int_Tables_number   1
_chemical_formula_structural   HgH16(Br3N2)2
_chemical_formula_sum   'Hg2 H32 Br12 N8'
_cell_volume   777.09253452
_cell_formula_units_Z   2
loop_
 _symmetry_equiv_pos_site_id
 _symmetry_equiv_pos_as_xyz
  1  'x, y, z'
loop_
 _atom_site_type_symbol
 _atom_site_label
 _atom_site_symmetry_multiplicity
 _atom_site_fract_x
 _atom_site_fract_y
 _atom_site_fract_z
 _atom_site_occupancy
  Hg  Hg0  1  0.000000  0.000000  0.000000  1
  Hg  Hg1  1  0.500000  0.500000  0.500000  1
  H  H2  1  0.874859  0.681845  0.441202  1
  H  H3  1  0.253808  0.298152  0.129599  1
  H  H4  1  0.349032  0.188479  0.237471  1
  H  H5  1  0.650968  0.811521  0.762529  1
  H  H6  1  0.160355  0.645843  0.605658  1
  H  H7  1  0.753808  0.798152  0.370401  1
  H  H8  1  0.849032  0.688479  0.262529  1
  H  H9  1  0.960144  0.213726  0.379320  1
  H  H10  1  0.839645  0.354157  0.394342  1
  H  H11  1  0.655201  0.251225  0.744453  1
  H  H12  1  0.344799  0.748775  0.255547  1
  H  H13  1  0.776875  0.182961  0.400568  1
  H  H14  1  0.438304  0.329742  0.156360  1
  H  H15  1  0.539856  0.286274  0.879320  1
  H  H16  1  0.746192  0.701848  0.870401  1
  H  H17  1  0.155201  0.751225  0.755547  1
  H  H18  1  0.276875  0.682961  0.099432  1
  H  H19  1  0.339645  0.854157  0.105658  1
  H  H20  1  0.844799  0.248775  0.244453  1
  H  H21  1  0.460144  0.713726  0.120680  1
  H  H22  1  0.246192  0.201848  0.629599  1
  H  H23  1  0.223125  0.817039  0.599432  1
  H  H24  1  0.561696  0.670258  0.843640  1
  H  H25  1  0.660355  0.145843  0.894342  1
  H  H26  1  0.039856  0.786274  0.620680  1
  H  H27  1  0.061696  0.170258  0.656360  1
  H  H28  1  0.374859  0.181845  0.058798  1
  H  H29  1  0.125141  0.318155  0.558798  1
  H  H30  1  0.625141  0.818155  0.941202  1
  H  H31  1  0.723125  0.317039  0.900568  1
  H  H32  1  0.938304  0.829742  0.343640  1
  H  H33  1  0.150968  0.311521  0.737471  1
  Br  Br34  1  0.367162  0.499021  0.823761  1
  Br  Br35  1  0.498957  0.779415  0.497743  1
  Br  Br36  1  0.176717  0.497039  0.372008  1
  Br  Br37  1  0.001043  0.720585  0.997743  1
  Br  Br38  1  0.632838  0.500979  0.176239  1
  Br  Br39  1  0.501043  0.220585  0.502257  1
  Br  Br40  1  0.867162  0.999021  0.676239  1
  Br  Br41  1  0.676717  0.997039  0.127992  1
  Br  Br42  1  0.998957  0.279415  0.002257  1
  Br  Br43  1  0.823283  0.502961  0.627992  1
  Br  Br44  1  0.132838  0.000979  0.323761  1
  Br  Br45  1  0.323283  0.002961  0.872008  1
  N  N46  1  0.144399  0.749482  0.645085  1
  N  N47  1  0.644399  0.249482  0.854915  1
  N  N48  1  0.144984  0.249791  0.645194  1
  N  N49  1  0.355016  0.250209  0.145194  1
  N  N50  1  0.855016  0.750209  0.354806  1
  N  N51  1  0.644984  0.749791  0.854806  1
  N  N52  1  0.855601  0.250518  0.354915  1
  N  N53  1  0.355601  0.750518  0.145085  1
