# generated using pymatgen
data_Co3(AsO4)2
_symmetry_space_group_name_H-M   'P 1'
_cell_length_a   7.71309715
_cell_length_b   7.50243675
_cell_length_c   10.02993860
_cell_angle_alpha   109.10519242
_cell_angle_beta   115.16816217
_cell_angle_gamma   87.84031195
_symmetry_Int_Tables_number   1
_chemical_formula_structural   Co3(AsO4)2
_chemical_formula_sum   'Co9 As6 O24'
_cell_volume   492.85834622
_cell_formula_units_Z   3
loop_
 _symmetry_equiv_pos_site_id
 _symmetry_equiv_pos_as_xyz
  1  'x, y, z'
loop_
 _atom_site_type_symbol
 _atom_site_label
 _atom_site_symmetry_multiplicity
 _atom_site_fract_x
 _atom_site_fract_y
 _atom_site_fract_z
 _atom_site_occupancy
  Co  Co0  1  0.145691  0.166398  0.753828  1
  Co  Co1  1  0.198303  0.190965  0.413880  1
  Co  Co2  1  0.334458  0.848828  0.245543  1
  Co  Co3  1  0.572443  0.584431  0.732093  1
  Co  Co4  1  0.589804  0.417110  0.994628  1
  Co  Co5  1  0.516874  0.117280  0.078363  1
  Co  Co6  1  0.848523  0.789929  0.603446  1
  Co  Co7  1  0.955966  0.475980  0.936356  1
  Co  Co8  1  0.915159  0.455998  0.307783  1
  As  As9  1  0.209532  0.638834  0.858310  1
  As  As10  1  0.074202  0.100503  0.052658  1
  As  As11  1  0.513913  0.106209  0.646143  1
  As  As12  1  0.457550  0.484659  0.404430  1
  As  As13  1  0.776973  0.121891  0.418935  1
  As  As14  1  0.833552  0.820097  0.121393  1
  O  O15  1  0.060144  0.236013  0.934055  1
  O  O16  1  0.111056  0.827215  0.802427  1
  O  O17  1  0.056103  0.430351  0.747627  1
  O  O18  1  0.076102  0.928496  0.246141  1
  O  O19  1  0.109949  0.290451  0.237786  1
  O  O20  1  0.265763  0.115242  0.596791  1
  O  O21  1  0.342028  0.450886  0.525384  1
  O  O22  1  0.409443  0.213701  0.906804  1
  O  O23  1  0.448482  0.620683  0.886679  1
  O  O24  1  0.332605  0.056309  0.134264  1
  O  O25  1  0.219229  0.649098  0.038660  1
  O  O26  1  0.395146  0.695509  0.369053  1
  O  O27  1  0.458646  0.097984  0.450361  1
  O  O28  1  0.635325  0.931071  0.701029  1
  O  O29  1  0.639787  0.330992  0.786451  1
  O  O30  1  0.638352  0.379026  0.180134  1
  O  O31  1  0.683459  0.570585  0.577829  1
  O  O32  1  0.724034  0.876157  0.260879  1
  O  O33  1  0.828663  0.708184  0.926436  1
  O  O34  1  0.890694  0.042787  0.582289  1
  O  O35  1  0.960144  0.656961  0.464584  1
  O  O36  1  0.959795  0.252128  0.408804  1
  O  O37  1  0.715469  0.003456  0.049029  1
  O  O38  1  0.846635  0.567603  0.118718  1
