# generated using pymatgen
data_Ti6Co16Si7
_symmetry_space_group_name_H-M   'P 1'
_cell_length_a   7.85227454
_cell_length_b   7.85270245
_cell_length_c   7.85204083
_cell_angle_alpha   59.99099100
_cell_angle_beta   59.99615290
_cell_angle_gamma   59.99579153
_symmetry_Int_Tables_number   1
_chemical_formula_structural   Ti6Co16Si7
_chemical_formula_sum   'Ti6 Co16 Si7'
_cell_volume   342.31517476
_cell_formula_units_Z   1
loop_
 _symmetry_equiv_pos_site_id
 _symmetry_equiv_pos_as_xyz
  1  'x, y, z'
loop_
 _atom_site_type_symbol
 _atom_site_label
 _atom_site_symmetry_multiplicity
 _atom_site_fract_x
 _atom_site_fract_y
 _atom_site_fract_z
 _atom_site_occupancy
  Ti  Ti0  1  0.801509  0.801471  0.198494  1
  Ti  Ti1  1  0.801484  0.198476  0.801516  1
  Ti  Ti2  1  0.198515  0.198485  0.801536  1
  Ti  Ti3  1  0.198497  0.801511  0.198482  1
  Ti  Ti4  1  0.198515  0.801441  0.801511  1
  Ti  Ti5  1  0.801506  0.198505  0.198523  1
  Co  Co6  1  0.618713  0.143871  0.618702  1
  Co  Co7  1  0.500102  0.166618  0.166632  1
  Co  Co8  1  0.381273  0.381332  0.856105  1
  Co  Co9  1  0.833394  0.833376  0.499854  1
  Co  Co10  1  0.166643  0.166612  0.500092  1
  Co  Co11  1  0.833367  0.499908  0.833386  1
  Co  Co12  1  0.166620  0.500142  0.166602  1
  Co  Co13  1  0.618697  0.618710  0.143913  1
  Co  Co14  1  0.166644  0.166630  0.166637  1
  Co  Co15  1  0.381305  0.856088  0.381301  1
  Co  Co16  1  0.618679  0.618732  0.618693  1
  Co  Co17  1  0.856106  0.381325  0.381261  1
  Co  Co18  1  0.381296  0.381315  0.381269  1
  Co  Co19  1  0.833388  0.833351  0.833397  1
  Co  Co20  1  0.143905  0.618724  0.618700  1
  Co  Co21  1  0.499866  0.833362  0.833400  1
  Si  Si22  1  -0.000036  0.500046  0.499975  1
  Si  Si23  1  0.500029  0.999941  0.500023  1
  Si  Si24  1  0.500012  0.500019  0.500013  1
  Si  Si25  1  -0.000007  0.500026  0.000007  1
  Si  Si26  1  0.500009  0.999971  -0.000002  1
  Si  Si27  1  0.499976  0.500041  -0.000028  1
  Si  Si28  1  -0.000010  0.999976  0.500007  1
