# generated using pymatgen
data_Na7Al12Si12H6ClO48
_symmetry_space_group_name_H-M   'P 1'
_cell_length_a   9.38294999
_cell_length_b   9.22842897
_cell_length_c   18.50251218
_cell_angle_alpha   92.72557856
_cell_angle_beta   90.13889951
_cell_angle_gamma   89.97630508
_symmetry_Int_Tables_number   1
_chemical_formula_structural   Na7Al12Si12H6ClO48
_chemical_formula_sum   'Na7 Al12 Si12 H6 Cl1 O48'
_cell_volume   1600.31325698
_cell_formula_units_Z   1
loop_
 _symmetry_equiv_pos_site_id
 _symmetry_equiv_pos_as_xyz
  1  'x, y, z'
loop_
 _atom_site_type_symbol
 _atom_site_label
 _atom_site_symmetry_multiplicity
 _atom_site_fract_x
 _atom_site_fract_y
 _atom_site_fract_z
 _atom_site_occupancy
  Na  Na0  1  0.299238  0.729638  0.136694  1
  Na  Na1  1  0.297798  0.264632  0.866105  1
  Na  Na2  1  0.269082  0.732383  0.637663  1
  Na  Na3  1  0.754485  0.190124  0.907889  1
  Na  Na4  1  0.788970  0.101415  0.419069  1
  Na  Na5  1  0.758624  0.811303  0.089677  1
  Na  Na6  1  0.790000  0.891941  0.589550  1
  Al  Al7  1  0.012030  0.767682  0.262234  1
  Al  Al8  1  0.007131  0.761762  0.768379  1
  Al  Al9  1  0.006411  0.236350  0.237991  1
  Al  Al10  1  0.013008  0.230668  0.737043  1
  Al  Al11  1  0.265640  0.498481  0.001251  1
  Al  Al12  1  0.260104  0.506001  0.506355  1
  Al  Al13  1  0.500703  0.968944  0.367572  1
  Al  Al14  1  0.506778  0.979122  0.876435  1
  Al  Al15  1  0.505031  0.017289  0.124136  1
  Al  Al16  1  0.508881  0.005738  0.627953  1
  Al  Al17  1  0.754424  0.497275  0.000622  1
  Al  Al18  1  0.743765  0.490695  0.509280  1
  Si  Si19  1  0.262174  0.998901  0.246108  1
  Si  Si20  1  0.266323  0.992725  0.750754  1
  Si  Si21  1  0.507702  0.748135  0.996005  1
  Si  Si22  1  0.501585  0.748108  0.500369  1
  Si  Si23  1  0.505992  0.248146  0.005368  1
  Si  Si24  1  0.507045  0.253043  0.507210  1
  Si  Si25  1  0.756225  0.000639  0.248872  1
  Si  Si26  1  0.758529  0.001927  0.754446  1
  Si  Si27  1  0.007608  0.516137  0.380208  1
  Si  Si28  1  0.007396  0.489026  0.119960  1
  Si  Si29  1  0.010112  0.484644  0.623098  1
  Si  Si30  1  0.008524  0.507574  0.883059  1
  H  H31  1  0.446981  0.204069  0.391684  1
  H  H32  1  0.776884  0.579044  0.398935  1
  H  H33  1  0.902518  0.310213  0.336161  1
  H  H34  1  0.927152  0.694925  0.160523  1
  H  H35  1  0.932110  0.702058  0.660516  1
  H  H36  1  0.927400  0.304907  0.836362  1
  Cl  Cl37  1  0.969997  0.987493  0.502167  1
  O  O38  1  0.994233  0.358096  0.326969  1
  O  O39  1  0.012021  0.645852  0.177961  1
  O  O40  1  0.014160  0.355947  0.821825  1
  O  O41  1  0.003236  0.639931  0.682270  1
  O  O42  1  0.157734  0.493767  0.079277  1
  O  O43  1  0.166688  0.497885  0.588924  1
  O  O44  1  0.132614  0.501216  0.435858  1
  O  O45  1  0.160299  0.502847  0.922426  1
  O  O46  1  0.158288  0.137158  0.236972  1
  O  O47  1  0.174259  0.847118  0.254679  1
  O  O48  1  0.170765  0.139578  0.742961  1
  O  O49  1  0.169379  0.846193  0.758675  1
  O  O50  1  0.361025  0.027541  0.317166  1
  O  O51  1  0.356392  0.965609  0.173450  1
  O  O52  1  0.362095  0.028652  0.822612  1
  O  O53  1  0.359312  0.958414  0.677597  1
  O  O54  1  0.382455  0.366435  0.492323  1
  O  O55  1  0.371083  0.651152  0.020623  1
  O  O56  1  0.369303  0.345410  0.981426  1
  O  O57  1  0.349672  0.671746  0.519364  1
  O  O58  1  0.477607  0.177372  0.081830  1
  O  O59  1  0.484775  0.153062  0.573700  1
  O  O60  1  0.490091  0.832471  0.425758  1
  O  O61  1  0.479110  0.819592  0.919532  1
  O  O62  1  0.505545  0.148698  0.424641  1
  O  O63  1  0.528308  0.129552  0.937494  1
  O  O64  1  0.534266  0.867085  0.063565  1
  O  O65  1  0.549049  0.855484  0.568995  1
  O  O66  1  0.656657  0.339254  0.007169  1
  O  O67  1  0.669281  0.318537  0.504732  1
  O  O68  1  0.630704  0.629317  0.490483  1
  O  O69  1  0.658187  0.656309  0.993274  1
  O  O70  1  0.664457  0.015319  0.175646  1
  O  O71  1  0.665699  0.973936  0.322919  1
  O  O72  1  0.664403  0.021518  0.681647  1
  O  O73  1  0.669480  0.985653  0.828529  1
  O  O74  1  0.853551  0.146989  0.268627  1
  O  O75  1  0.861716  0.145859  0.771199  1
  O  O76  1  0.861998  0.859014  0.231389  1
  O  O77  1  0.862891  0.860449  0.736475  1
  O  O78  1  0.867781  0.539582  0.075798  1
  O  O79  1  0.841236  0.507606  0.419461  1
  O  O80  1  0.871168  0.452608  0.927317  1
  O  O81  1  0.876413  0.523636  0.572487  1
  O  O82  1  0.985839  0.352261  0.168665  1
  O  O83  1  0.987186  0.344006  0.667920  1
  O  O84  1  0.993371  0.653209  0.332515  1
  O  O85  1  0.984360  0.652121  0.839872  1
