# generated using pymatgen
data_Ca5Yb3Ti5Mn3O24
_symmetry_space_group_name_H-M   'P 1'
_cell_length_a   5.34502931
_cell_length_b   5.45036053
_cell_length_c   15.18827946
_cell_angle_alpha   90.13768471
_cell_angle_beta   90.03184033
_cell_angle_gamma   89.96024403
_symmetry_Int_Tables_number   1
_chemical_formula_structural   Ca5Yb3Ti5Mn3O24
_chemical_formula_sum   'Ca5 Yb3 Ti5 Mn3 O24'
_cell_volume   442.46861993
_cell_formula_units_Z   1
loop_
 _symmetry_equiv_pos_site_id
 _symmetry_equiv_pos_as_xyz
  1  'x, y, z'
loop_
 _atom_site_type_symbol
 _atom_site_label
 _atom_site_symmetry_multiplicity
 _atom_site_fract_x
 _atom_site_fract_y
 _atom_site_fract_z
 _atom_site_occupancy
  Yb  Yb0  1  0.487479  0.449365  0.869368  1
  Yb  Yb1  1  0.509110  0.553585  0.626970  1
  Yb  Yb2  1  0.987154  0.051463  0.626722  1
  Ca  Ca3  1  0.013888  0.959035  0.379628  1
  Ca  Ca4  1  0.011056  0.953657  0.869691  1
  Ca  Ca5  1  0.491265  0.456216  0.379964  1
  Ca  Ca6  1  0.513153  0.542782  0.123490  1
  Ca  Ca7  1  0.988410  0.042764  0.124061  1
  Ti  Ti8  1  0.002415  0.498600  0.996416  1
  Ti  Ti9  1  0.005369  0.500370  0.250856  1
  Ti  Ti10  1  0.001540  0.503611  0.503500  1
  Ti  Ti11  1  0.503110  0.000990  0.251634  1
  Ti  Ti12  1  0.499183  0.998412  0.997063  1
  Mn  Mn13  1  0.000980  0.500115  0.749058  1
  Mn  Mn14  1  0.503558  0.002505  0.747343  1
  Mn  Mn15  1  0.503517  0.003294  0.504225  1
  O  O16  1  0.079526  0.478576  0.123880  1
  O  O17  1  0.078294  0.482231  0.627866  1
  O  O18  1  0.208017  0.208729  0.272621  1
  O  O19  1  0.214514  0.212342  0.483790  1
  O  O20  1  0.210326  0.213848  0.770215  1
  O  O21  1  0.210264  0.209243  0.975187  1
  O  O22  1  0.291155  0.709686  0.770139  1
  O  O23  1  0.290527  0.708315  0.272716  1
  O  O24  1  0.291047  0.716051  0.484090  1
  O  O25  1  0.292992  0.705405  0.975155  1
  O  O26  1  0.419542  0.978777  0.124032  1
  O  O27  1  0.410033  0.978245  0.626114  1
  O  O28  1  0.578102  0.019746  0.870058  1
  O  O29  1  0.579348  0.018310  0.379326  1
  O  O30  1  0.708057  0.288377  0.017063  1
  O  O31  1  0.708237  0.287745  0.229916  1
  O  O32  1  0.709138  0.285240  0.525508  1
  O  O33  1  0.708057  0.289563  0.725563  1
  O  O34  1  0.791284  0.788472  0.018187  1
  O  O35  1  0.789880  0.788489  0.229469  1
  O  O36  1  0.783933  0.790595  0.525846  1
  O  O37  1  0.787719  0.788726  0.724510  1
  O  O38  1  0.922463  0.519330  0.378022  1
  O  O39  1  0.916358  0.517197  0.870737  1
