# generated using pymatgen
data_Y2Th8O19
_symmetry_space_group_name_H-M   'P 1'
_cell_length_a   3.95712692
_cell_length_b   39.55165842
_cell_length_c   37.72536677
_cell_angle_alpha   5.20780026
_cell_angle_beta   58.38437083
_cell_angle_gamma   59.99915837
_symmetry_Int_Tables_number   1
_chemical_formula_structural   Y2Th8O19
_chemical_formula_sum   'Y2 Th8 O19'
_cell_volume   437.44437257
_cell_formula_units_Z   1
loop_
 _symmetry_equiv_pos_site_id
 _symmetry_equiv_pos_as_xyz
  1  'x, y, z'
loop_
 _atom_site_type_symbol
 _atom_site_label
 _atom_site_symmetry_multiplicity
 _atom_site_fract_x
 _atom_site_fract_y
 _atom_site_fract_z
 _atom_site_occupancy
  Y  Y0  1  0.029563  0.014203  0.979965  1
  Y  Y1  1  0.963688  0.075758  0.029970  1
  Th  Th2  1  0.009295  0.205626  0.992278  1
  Th  Th3  1  0.006152  0.300624  0.998461  1
  Th  Th4  1  0.004642  0.400779  0.998741  1
  Th  Th5  1  0.004128  0.500578  -0.000838  1
  Th  Th6  1  0.002440  0.599969  0.000177  1
  Th  Th7  1  0.000553  0.701231  0.999118  1
  Th  Th8  1  0.995371  0.797520  0.003473  1
  Th  Th9  1  0.990247  0.889654  0.012336  1
  O  O10  1  0.267946  0.010836  0.235609  1
  O  O11  1  0.252802  0.098870  0.250943  1
  O  O12  1  0.253786  0.201207  0.248449  1
  O  O13  1  0.254037  0.300600  0.249191  1
  O  O14  1  0.251391  0.400367  0.250039  1
  O  O15  1  0.251908  0.503927  0.245962  1
  O  O16  1  0.231125  0.584866  0.268812  1
  O  O17  1  0.264425  0.706506  0.240600  1
  O  O18  1  0.754238  0.104252  0.744744  1
  O  O19  1  0.705748  0.159010  0.799878  1
  O  O20  1  0.754389  0.303436  0.746423  1
  O  O21  1  0.232364  0.886447  0.266320  1
  O  O22  1  0.790171  0.433508  0.707600  1
  O  O23  1  0.746596  0.492791  0.758037  1
  O  O24  1  0.758511  0.602840  0.745821  1
  O  O25  1  0.753938  0.700683  0.748999  1
  O  O26  1  0.753311  0.799587  0.750390  1
  O  O27  1  0.753519  0.901462  0.748475  1
  O  O28  1  0.743799  0.997542  0.753904  1
