# generated using pymatgen
data_K2Na2Gd4Nb2O13
_symmetry_space_group_name_H-M   'P 1'
_cell_length_a   5.68226303
_cell_length_b   11.25431565
_cell_length_c   12.44017183
_cell_angle_alpha   115.59184918
_cell_angle_beta   103.20193334
_cell_angle_gamma   90.00000025
_symmetry_Int_Tables_number   1
_chemical_formula_structural   K2Na2Gd4Nb2O13
_chemical_formula_sum   'K4 Na4 Gd8 Nb4 O26'
_cell_volume   694.11510299
_cell_formula_units_Z   2
loop_
 _symmetry_equiv_pos_site_id
 _symmetry_equiv_pos_as_xyz
  1  'x, y, z'
loop_
 _atom_site_type_symbol
 _atom_site_label
 _atom_site_symmetry_multiplicity
 _atom_site_fract_x
 _atom_site_fract_y
 _atom_site_fract_z
 _atom_site_occupancy
  K  K0  1  0.804129  0.633270  0.498499  1
  K  K1  1  0.195871  0.366730  0.501501  1
  K  K2  1  0.305630  0.866730  0.501501  1
  K  K3  1  0.694370  0.133270  0.498499  1
  Na  Na4  1  0.198716  0.522273  0.317962  1
  Na  Na5  1  0.801284  0.477727  0.682038  1
  Na  Na6  1  0.119246  0.022273  0.317962  1
  Na  Na7  1  0.880754  0.977727  0.682038  1
  Gd  Gd8  1  0.608542  0.449510  0.125008  1
  Gd  Gd9  1  0.516466  0.949510  0.125008  1
  Gd  Gd10  1  0.901182  0.328495  0.875505  1
  Gd  Gd11  1  0.391458  0.550490  0.874992  1
  Gd  Gd12  1  0.483534  0.050490  0.874992  1
  Gd  Gd13  1  0.025677  0.171505  0.124495  1
  Gd  Gd14  1  0.974323  0.828495  0.875505  1
  Gd  Gd15  1  0.098818  0.671505  0.124495  1
  Nb  Nb16  1  0.383893  0.717669  0.699153  1
  Nb  Nb17  1  0.616107  0.282331  0.300847  1
  Nb  Nb18  1  0.315260  0.217669  0.699153  1
  Nb  Nb19  1  0.684740  0.782331  0.300847  1
  O  O20  1  0.753785  0.250000  1.000000  1
  O  O21  1  0.330799  0.622366  0.528495  1
  O  O22  1  0.248866  0.477426  0.002558  1
  O  O23  1  0.865214  0.377249  0.270196  1
  O  O24  1  0.595018  0.122751  0.729804  1
  O  O25  1  0.669201  0.377634  0.471505  1
  O  O26  1  0.246215  0.750000  0.000000  1
  O  O27  1  0.802304  0.877634  0.471505  1
  O  O28  1  0.170603  0.161000  0.801883  1
  O  O29  1  0.908041  0.638560  0.262657  1
  O  O30  1  0.246309  0.022574  0.997442  1
  O  O31  1  0.354616  0.138560  0.262657  1
  O  O32  1  0.631280  0.661000  0.801883  1
  O  O33  1  0.645384  0.861440  0.737343  1
  O  O34  1  0.134786  0.622751  0.729804  1
  O  O35  1  0.438801  0.635963  0.259225  1
  O  O36  1  0.751134  0.522574  0.997442  1
  O  O37  1  0.404982  0.877249  0.270196  1
  O  O38  1  0.368720  0.339000  0.198117  1
  O  O39  1  0.820424  0.135963  0.259225  1
  O  O40  1  0.829397  0.839000  0.198117  1
  O  O41  1  0.091959  0.361440  0.737343  1
  O  O42  1  0.197696  0.122366  0.528495  1
  O  O43  1  0.753691  0.977426  0.002558  1
  O  O44  1  0.561199  0.364037  0.740775  1
  O  O45  1  0.179576  0.864037  0.740775  1
