# generated using pymatgen
data_KHo2Cu(MoO4)4
_symmetry_space_group_name_H-M   'P 1'
_cell_length_a   5.28425843
_cell_length_b   6.87111154
_cell_length_c   19.69633090
_cell_angle_alpha   88.85906112
_cell_angle_beta   86.70753336
_cell_angle_gamma   67.39987952
_symmetry_Int_Tables_number   1
_chemical_formula_structural   KHo2Cu(MoO4)4
_chemical_formula_sum   'K2 Ho4 Cu2 Mo8 O32'
_cell_volume   659.14044407
_cell_formula_units_Z   2
loop_
 _symmetry_equiv_pos_site_id
 _symmetry_equiv_pos_as_xyz
  1  'x, y, z'
loop_
 _atom_site_type_symbol
 _atom_site_label
 _atom_site_symmetry_multiplicity
 _atom_site_fract_x
 _atom_site_fract_y
 _atom_site_fract_z
 _atom_site_occupancy
  K  K0  1  0.972659  0.056910  0.248244  1
  K  K1  1  0.026646  0.939287  0.748272  1
  Ho  Ho2  1  0.851495  0.293817  0.468718  1
  Ho  Ho3  1  0.854589  0.294090  0.030743  1
  Ho  Ho4  1  0.145706  0.704468  0.968190  1
  Ho  Ho5  1  0.150171  0.704181  0.531838  1
  Cu  Cu6  1  0.690094  0.617536  0.249502  1
  Cu  Cu7  1  0.308834  0.382202  0.750603  1
  Mo  Mo8  1  0.545674  0.876326  0.091413  1
  Mo  Mo9  1  0.267949  0.481984  0.353544  1
  Mo  Mo10  1  0.420993  0.122210  0.591311  1
  Mo  Mo11  1  0.250714  0.480325  0.146021  1
  Mo  Mo12  1  0.454091  0.122637  0.908386  1
  Mo  Mo13  1  0.731766  0.516430  0.646528  1
  Mo  Mo14  1  0.579939  0.874799  0.409242  1
  Mo  Mo15  1  0.749617  0.515836  0.852648  1
  O  O16  1  0.216487  0.038088  0.962770  1
  O  O17  1  0.507258  0.660829  0.041246  1
  O  O18  1  0.303227  0.180185  0.828044  1
  O  O19  1  0.907183  0.695762  0.630501  1
  O  O20  1  0.931355  0.595069  0.785377  1
  O  O21  1  0.696363  0.819546  0.171903  1
  O  O22  1  0.776733  0.903086  0.899301  1
  O  O23  1  0.581588  0.479154  0.565823  1
  O  O24  1  0.471072  0.596180  0.713633  1
  O  O25  1  0.067570  0.402809  0.213140  1
  O  O26  1  0.511898  0.184694  0.671446  1
  O  O27  1  0.839571  0.660093  0.457890  1
  O  O28  1  0.487343  0.817477  0.328732  1
  O  O29  1  0.059717  0.520858  0.065840  1
  O  O30  1  0.422802  0.522802  0.433229  1
  O  O31  1  0.269746  0.719367  0.171949  1
  O  O32  1  0.604026  0.299100  0.129049  1
  O  O33  1  0.942785  0.476368  0.932526  1
  O  O34  1  0.016157  0.721641  0.327215  1
  O  O35  1  0.320926  0.901658  0.601052  1
  O  O36  1  0.259227  0.960059  0.464297  1
  O  O37  1  0.495104  0.338136  0.957864  1
  O  O38  1  0.733418  0.276889  0.826564  1
  O  O39  1  0.222940  0.095623  0.100170  1
  O  O40  1  0.745209  0.037937  0.537770  1
  O  O41  1  0.092619  0.302382  0.370233  1
  O  O42  1  0.528989  0.400258  0.286310  1
  O  O43  1  0.679549  0.095929  0.400661  1
  O  O44  1  0.167348  0.338074  0.541742  1
  O  O45  1  0.783654  0.960009  0.036954  1
  O  O46  1  0.985930  0.274255  0.671334  1
  O  O47  1  0.395729  0.696921  0.869630  1
