# generated using pymatgen
data_V(CO)6
_symmetry_space_group_name_H-M   'P 1'
_cell_length_a   6.82088823
_cell_length_b   11.29383021
_cell_length_c   12.79412800
_cell_angle_alpha   90.00000000
_cell_angle_beta   90.00000000
_cell_angle_gamma   90.00000000
_symmetry_Int_Tables_number   1
_chemical_formula_structural   V(CO)6
_chemical_formula_sum   'V4 C24 O24'
_cell_volume   985.58226208
_cell_formula_units_Z   4
loop_
 _symmetry_equiv_pos_site_id
 _symmetry_equiv_pos_as_xyz
  1  'x, y, z'
loop_
 _atom_site_type_symbol
 _atom_site_label
 _atom_site_symmetry_multiplicity
 _atom_site_fract_x
 _atom_site_fract_y
 _atom_site_fract_z
 _atom_site_occupancy
  V  V0  1  0.938456  0.750000  0.873021  1
  V  V1  1  0.438456  0.250000  0.626979  1
  V  V2  1  0.061544  0.250000  0.126979  1
  V  V3  1  0.561544  0.750000  0.373021  1
  C  C4  1  0.688887  0.750000  0.785285  1
  C  C5  1  0.188887  0.250000  0.714715  1
  C  C6  1  0.311113  0.250000  0.214715  1
  C  C7  1  0.811113  0.750000  0.285285  1
  C  C8  1  0.189820  0.750000  0.959587  1
  C  C9  1  0.689820  0.250000  0.540413  1
  C  C10  1  0.810180  0.250000  0.040413  1
  C  C11  1  0.310180  0.750000  0.459587  1
  C  C12  1  0.820336  0.868720  0.971611  1
  C  C13  1  0.320336  0.131280  0.528389  1
  C  C14  1  0.179664  0.368720  0.028389  1
  C  C15  1  0.679664  0.631280  0.471611  1
  C  C16  1  0.179664  0.131280  0.028389  1
  C  C17  1  0.679664  0.868720  0.471611  1
  C  C18  1  0.820336  0.631280  0.971611  1
  C  C19  1  0.320336  0.368720  0.528389  1
  C  C20  1  0.058077  0.869997  0.775727  1
  C  C21  1  0.558077  0.130003  0.724273  1
  C  C22  1  0.941923  0.369997  0.224273  1
  C  C23  1  0.441923  0.630003  0.275727  1
  C  C24  1  0.941923  0.130003  0.224273  1
  C  C25  1  0.441923  0.869997  0.275727  1
  C  C26  1  0.058077  0.630003  0.775727  1
  C  C27  1  0.558077  0.369997  0.724273  1
  O  O28  1  0.547823  0.750000  0.735202  1
  O  O29  1  0.047823  0.250000  0.764798  1
  O  O30  1  0.452177  0.250000  0.264798  1
  O  O31  1  0.952177  0.750000  0.235202  1
  O  O32  1  0.332726  0.750000  0.008026  1
  O  O33  1  0.832726  0.250000  0.491974  1
  O  O34  1  0.667274  0.250000  0.991974  1
  O  O35  1  0.167274  0.750000  0.508026  1
  O  O36  1  0.752822  0.935548  0.030340  1
  O  O37  1  0.252822  0.064452  0.469660  1
  O  O38  1  0.247178  0.435548  0.969660  1
  O  O39  1  0.747178  0.564452  0.530340  1
  O  O40  1  0.247178  0.064452  0.969660  1
  O  O41  1  0.747178  0.935548  0.530340  1
  O  O42  1  0.752822  0.564452  0.030340  1
  O  O43  1  0.252822  0.435548  0.469660  1
  O  O44  1  0.128332  0.938094  0.719212  1
  O  O45  1  0.628332  0.061906  0.780788  1
  O  O46  1  0.871668  0.438094  0.280788  1
  O  O47  1  0.371667  0.561906  0.219212  1
  O  O48  1  0.871668  0.061906  0.280788  1
  O  O49  1  0.371667  0.938094  0.219212  1
  O  O50  1  0.128332  0.561906  0.719212  1
  O  O51  1  0.628332  0.438094  0.780788  1
