# generated using pymatgen
data_K2Ca2C2O3F2
_symmetry_space_group_name_H-M   'P 1'
_cell_length_a   9.79198778
_cell_length_b   8.25491553
_cell_length_c   6.73133061
_cell_angle_alpha   90.07906882
_cell_angle_beta   43.38300526
_cell_angle_gamma   90.08695629
_symmetry_Int_Tables_number   1
_chemical_formula_structural   K2Ca2C2O3F2
_chemical_formula_sum   'K4 Ca4 C4 O6 F4'
_cell_volume   373.73147548
_cell_formula_units_Z   2
loop_
 _symmetry_equiv_pos_site_id
 _symmetry_equiv_pos_as_xyz
  1  'x, y, z'
loop_
 _atom_site_type_symbol
 _atom_site_label
 _atom_site_symmetry_multiplicity
 _atom_site_fract_x
 _atom_site_fract_y
 _atom_site_fract_z
 _atom_site_occupancy
  K  K0  1  0.000198  0.994417  0.001306  1
  K  K1  1  0.248274  0.493969  0.001079  1
  K  K2  1  0.501920  0.995921  0.997960  1
  K  K3  1  0.747695  0.495162  0.003740  1
  Ca  Ca4  1  0.993537  0.825731  0.500913  1
  Ca  Ca5  1  0.233894  0.320606  0.500977  1
  Ca  Ca6  1  0.512431  0.821095  0.500944  1
  Ca  Ca7  1  0.757239  0.326896  0.499245  1
  C  C8  1  0.249433  0.683021  0.505141  1
  C  C9  1  0.498195  0.183517  0.498479  1
  C  C10  1  0.732893  0.674666  0.499720  1
  C  C11  1  0.015170  0.175490  0.499924  1
  O  O12  1  0.136085  0.596749  0.505193  1
  O  O13  1  0.361544  0.595045  0.504182  1
  O  O14  1  0.383683  0.095746  0.502460  1
  O  O15  1  0.612114  0.097329  0.495237  1
  O  O16  1  0.849050  0.591606  0.497017  1
  O  O17  1  0.901640  0.091847  0.499013  1
  F  F18  1  0.997451  0.334884  0.005879  1
  F  F19  1  0.244738  0.833398  0.006202  1
  F  F20  1  0.503551  0.333036  0.995188  1
  F  F21  1  0.750013  0.834301  0.996577  1
