# generated using pymatgen
data_Zn3In2O6
_symmetry_space_group_name_H-M   'P 1'
_cell_length_a   14.44803020
_cell_length_b   28.90616412
_cell_length_c   43.07583159
_cell_angle_alpha   9.02754908
_cell_angle_beta   11.96938180
_cell_angle_gamma   13.54234044
_symmetry_Int_Tables_number   1
_chemical_formula_structural   Zn3In2O6
_chemical_formula_sum   'Zn12 In8 O24'
_cell_volume   575.19161436
_cell_formula_units_Z   4
loop_
 _symmetry_equiv_pos_site_id
 _symmetry_equiv_pos_as_xyz
  1  'x, y, z'
loop_
 _atom_site_type_symbol
 _atom_site_label
 _atom_site_symmetry_multiplicity
 _atom_site_fract_x
 _atom_site_fract_y
 _atom_site_fract_z
 _atom_site_occupancy
  Zn  Zn0  1  0.134772  0.034619  0.066914  1
  Zn  Zn1  1  0.272018  0.067473  0.126195  1
  Zn  Zn2  1  0.132620  0.532090  0.070303  1
  Zn  Zn3  1  0.251531  0.565362  0.134123  1
  Zn  Zn4  1  0.730478  0.190076  0.367867  1
  Zn  Zn5  1  0.858967  0.223683  0.432379  1
  Zn  Zn6  1  0.268238  0.308022  0.634152  1
  Zn  Zn7  1  0.746393  0.679362  0.368952  1
  Zn  Zn8  1  0.137943  0.788551  0.563033  1
  Zn  Zn9  1  0.255283  0.821036  0.629608  1
  Zn  Zn10  1  0.737171  0.933020  0.870387  1
  Zn  Zn11  1  0.879722  0.961918  0.933309  1
  In  In12  1  0.003034  0.996779  0.000294  1
  In  In13  1  0.992966  0.500559  0.001202  1
  In  In14  1  0.140212  0.275583  0.571784  1
  In  In15  1  -0.000126  0.249560  0.500464  1
  In  In16  1  0.876849  0.711516  0.431683  1
  In  In17  1  0.001638  0.752277  0.497128  1
  In  In18  1  0.739949  0.436084  0.869739  1
  In  In19  1  0.846567  0.473797  0.932822  1
  O  O20  1  0.091680  0.006265  0.050053  1
  O  O21  1  0.223531  0.051856  0.082885  1
  O  O22  1  0.310877  0.080214  0.151276  1
  O  O23  1  0.063821  0.524347  0.046974  1
  O  O24  1  0.156215  0.550098  0.105908  1
  O  O25  1  0.305658  0.574918  0.156371  1
  O  O26  1  0.692866  0.171795  0.345843  1
  O  O27  1  0.079047  0.270580  0.544045  1
  O  O28  1  0.832678  0.197101  0.397381  1
  O  O29  1  0.202806  0.276017  0.604579  1
  O  O30  1  0.910536  0.230133  0.458787  1
  O  O31  1  0.307629  0.327685  0.654341  1
  O  O32  1  0.690522  0.674014  0.344856  1
  O  O33  1  0.102709  0.781882  0.529034  1
  O  O34  1  0.802300  0.714075  0.400626  1
  O  O35  1  0.180576  0.819173  0.585816  1
  O  O36  1  0.919000  0.726537  0.458228  1
  O  O37  1  0.309026  0.826656  0.654485  1
  O  O38  1  0.691752  0.422379  0.845675  1
  O  O39  1  0.809506  0.454702  0.900855  1
  O  O40  1  0.912173  0.479916  0.958090  1
  O  O41  1  0.689972  0.921746  0.846856  1
  O  O42  1  0.789555  0.936299  0.918886  1
  O  O43  1  0.919336  0.980246  0.955809  1
