# generated using pymatgen
data_K4UC3O11
_symmetry_space_group_name_H-M   'P 1'
_cell_length_a   7.02041533
_cell_length_b   7.02041534
_cell_length_c   12.45348188
_cell_angle_alpha   86.62786694
_cell_angle_beta   86.62786694
_cell_angle_gamma   83.54087109
_symmetry_Int_Tables_number   1
_chemical_formula_structural   K4UC3O11
_chemical_formula_sum   'K8 U2 C6 O22'
_cell_volume   607.98936699
_cell_formula_units_Z   2
loop_
 _symmetry_equiv_pos_site_id
 _symmetry_equiv_pos_as_xyz
  1  'x, y, z'
loop_
 _atom_site_type_symbol
 _atom_site_label
 _atom_site_symmetry_multiplicity
 _atom_site_fract_x
 _atom_site_fract_y
 _atom_site_fract_z
 _atom_site_occupancy
  C  C0  1  0.489931  0.510069  0.250000  1
  C  C1  1  0.510069  0.489931  0.750000  1
  C  C2  1  0.080981  0.168221  0.413630  1
  C  C3  1  0.831779  0.919019  0.086370  1
  C  C4  1  0.919019  0.831779  0.586370  1
  C  C5  1  0.168221  0.080981  0.913630  1
  O  O6  1  0.959335  0.363953  0.179119  1
  O  O7  1  0.636047  0.040665  0.320881  1
  O  O8  1  0.040665  0.636047  0.820881  1
  O  O9  1  0.363953  0.959335  0.679119  1
  O  O10  1  0.476113  0.608508  0.828894  1
  O  O11  1  0.391492  0.523887  0.671106  1
  O  O12  1  0.523887  0.391492  0.171106  1
  O  O13  1  0.608508  0.476113  0.328894  1
  O  O14  1  0.287279  0.920864  0.919954  1
  O  O15  1  0.079136  0.712721  0.580046  1
  O  O16  1  0.712721  0.079136  0.080046  1
  O  O17  1  0.920864  0.287279  0.419954  1
  O  O18  1  0.044976  0.084341  0.837462  1
  O  O19  1  0.915659  0.955024  0.662538  1
  O  O20  1  0.955024  0.915659  0.162538  1
  O  O21  1  0.084341  0.044976  0.337462  1
  O  O22  1  0.645602  0.354398  0.750000  1
  O  O23  1  0.354398  0.645602  0.250000  1
  O  O24  1  0.173705  0.217846  0.973903  1
  O  O25  1  0.782154  0.826295  0.526097  1
  O  O26  1  0.826295  0.782154  0.026097  1
  O  O27  1  0.217846  0.173705  0.473903  1
  K  K28  1  0.787481  0.425406  0.957096  1
  K  K29  1  0.574594  0.212519  0.542904  1
  K  K30  1  0.212519  0.574594  0.042904  1
  K  K31  1  0.425406  0.787481  0.457096  1
  K  K32  1  0.333910  0.033377  0.156563  1
  K  K33  1  0.966623  0.666090  0.343437  1
  K  K34  1  0.666090  0.966623  0.843437  1
  K  K35  1  0.033377  0.333910  0.656563  1
  U  U36  1  0.799926  0.200074  0.250000  1
  U  U37  1  0.200074  0.799926  0.750000  1
