# generated using pymatgen
data_Ce5C2Cl9
_symmetry_space_group_name_H-M   'P 1'
_cell_length_a   8.68597888
_cell_length_b   8.80159007
_cell_length_c   11.90748892
_cell_angle_alpha   95.41750830
_cell_angle_beta   96.22190973
_cell_angle_gamma   60.89695111
_symmetry_Int_Tables_number   1
_chemical_formula_structural   Ce5C2Cl9
_chemical_formula_sum   'Ce10 C4 Cl18'
_cell_volume   789.80285873
_cell_formula_units_Z   2
loop_
 _symmetry_equiv_pos_site_id
 _symmetry_equiv_pos_as_xyz
  1  'x, y, z'
loop_
 _atom_site_type_symbol
 _atom_site_label
 _atom_site_symmetry_multiplicity
 _atom_site_fract_x
 _atom_site_fract_y
 _atom_site_fract_z
 _atom_site_occupancy
  Ce  Ce0  1  0.896888  0.295197  0.009910  1
  Ce  Ce1  1  0.103112  0.704803  0.990090  1
  Ce  Ce2  1  0.128049  0.264555  0.733218  1
  Ce  Ce3  1  0.233688  0.905743  0.267483  1
  Ce  Ce4  1  0.377812  0.402138  0.217347  1
  Ce  Ce5  1  0.206185  0.670751  0.512640  1
  Ce  Ce6  1  0.793815  0.329249  0.487360  1
  Ce  Ce7  1  0.622188  0.597862  0.782653  1
  Ce  Ce8  1  0.766312  0.094257  0.732517  1
  Ce  Ce9  1  0.871951  0.735445  0.266782  1
  C  C10  1  0.170496  0.679044  0.311772  1
  C  C11  1  0.140298  0.692097  0.186939  1
  C  C12  1  0.829504  0.320956  0.688228  1
  C  C13  1  0.859702  0.307903  0.813061  1
  Cl  Cl14  1  0.928547  0.652288  0.769365  1
  Cl  Cl15  1  0.789806  0.666423  0.028027  1
  Cl  Cl16  1  0.465297  0.325281  0.450131  1
  Cl  Cl17  1  0.786885  0.039646  0.965800  1
  Cl  Cl18  1  0.071453  0.347712  0.230635  1
  Cl  Cl19  1  0.213115  0.960354  0.034200  1
  Cl  Cl20  1  0.164147  0.059197  0.498322  1
  Cl  Cl21  1  0.495787  0.988031  0.754750  1
  Cl  Cl22  1  0.210194  0.333577  0.971973  1
  Cl  Cl23  1  0.534703  0.674719  0.549869  1
  Cl  Cl24  1  0.848382  0.116502  0.253287  1
  Cl  Cl25  1  0.151618  0.883498  0.746713  1
  Cl  Cl26  1  0.500000  0.500000  0.000000  1
  Cl  Cl27  1  0.504213  0.011969  0.245250  1
  Cl  Cl28  1  0.835853  0.940803  0.501678  1
  Cl  Cl29  1  0.000000  0.500000  0.500000  1
  Cl  Cl30  1  0.394006  0.426230  0.722260  1
  Cl  Cl31  1  0.605994  0.573770  0.277740  1
