# generated using pymatgen
data_Co27Se32
_symmetry_space_group_name_H-M   'P 1'
_cell_length_a   25.06918583
_cell_length_b   17.60249588
_cell_length_c   18.17489227
_cell_angle_alpha   35.24151408
_cell_angle_beta   22.22341101
_cell_angle_gamma   19.60457375
_symmetry_Int_Tables_number   1
_chemical_formula_structural   Co27Se32
_chemical_formula_sum   'Co27 Se32'
_cell_volume   915.96800125
_cell_formula_units_Z   1
loop_
 _symmetry_equiv_pos_site_id
 _symmetry_equiv_pos_as_xyz
  1  'x, y, z'
loop_
 _atom_site_type_symbol
 _atom_site_label
 _atom_site_symmetry_multiplicity
 _atom_site_fract_x
 _atom_site_fract_y
 _atom_site_fract_z
 _atom_site_occupancy
  Co  Co0  1  0.003192  0.239465  0.011913  1
  Co  Co1  1  0.253395  0.239096  0.012391  1
  Co  Co2  1  0.128999  0.991755  0.499701  1
  Co  Co3  1  0.248951  0.501075  0.000538  1
  Co  Co4  1  0.109537  0.280060  0.500443  1
  Co  Co5  1  0.498256  0.242379  0.016669  1
  Co  Co6  1  0.375000  0.000000  0.500000  1
  Co  Co7  1  0.124481  0.499969  0.500886  1
  Co  Co8  1  0.501049  0.498925  0.999462  1
  Co  Co9  1  0.370643  0.274186  0.490942  1
  Co  Co10  1  0.746280  0.242211  0.019960  1
  Co  Co11  1  0.146567  0.718401  0.496942  1
  Co  Co12  1  0.621001  0.008245  0.500299  1
  Co  Co13  1  0.743672  0.499542  0.008723  1
  Co  Co14  1  0.603433  0.281599  0.503058  1
  Co  Co15  1  0.379357  0.725814  0.509058  1
  Co  Co16  1  0.875000  0.000000  0.500000  1
  Co  Co17  1  0.625519  0.500031  0.499114  1
  Co  Co18  1  0.006328  0.500458  0.991277  1
  Co  Co19  1  0.867966  0.274717  0.492993  1
  Co  Co20  1  0.251744  0.757621  0.983331  1
  Co  Co21  1  0.640463  0.719940  0.499557  1
  Co  Co22  1  0.875000  0.500000  0.500000  1
  Co  Co23  1  0.496605  0.760904  0.987609  1
  Co  Co24  1  0.882034  0.725283  0.507007  1
  Co  Co25  1  0.746808  0.760535  0.988087  1
  Co  Co26  1  0.003720  0.757789  0.980040  1
  Se  Se27  1  0.083562  0.213037  0.164922  1
  Se  Se28  1  0.055513  0.279066  0.330326  1
  Se  Se29  1  0.333204  0.210921  0.168314  1
  Se  Se30  1  0.090231  0.697755  0.168397  1
  Se  Se31  1  0.303482  0.280570  0.331748  1
  Se  Se32  1  0.041514  0.792622  0.331361  1
  Se  Se33  1  0.207304  0.207034  0.670382  1
  Se  Se34  1  0.584973  0.209675  0.166149  1
  Se  Se35  1  0.340313  0.696985  0.168507  1
  Se  Se36  1  0.158343  0.306090  0.830523  1
  Se  Se37  1  0.550601  0.286218  0.332230  1
  Se  Se38  1  0.282900  0.803671  0.329534  1
  Se  Se39  1  0.467100  0.196329  0.670466  1
  Se  Se40  1  0.836911  0.206699  0.168128  1
  Se  Se41  1  0.199399  0.713782  0.667770  1
  Se  Se42  1  0.591657  0.693910  0.169477  1
  Se  Se43  1  0.409687  0.303015  0.831493  1
  Se  Se44  1  0.800645  0.281647  0.332999  1
  Se  Se45  1  0.165027  0.790324  0.833851  1
  Se  Se46  1  0.542696  0.792966  0.329618  1
  Se  Se47  1  0.708486  0.207378  0.668639  1
  Se  Se48  1  0.446518  0.719430  0.668252  1
  Se  Se49  1  0.843172  0.695457  0.166327  1
  Se  Se50  1  0.659770  0.302245  0.831603  1
  Se  Se51  1  0.416796  0.789079  0.831686  1
  Se  Se52  1  0.788969  0.795107  0.333094  1
  Se  Se53  1  0.961031  0.204893  0.666906  1
  Se  Se54  1  0.694487  0.720934  0.669674  1
  Se  Se55  1  0.906828  0.304543  0.833673  1
  Se  Se56  1  0.666438  0.786963  0.835078  1
  Se  Se57  1  0.949355  0.718353  0.667001  1
  Se  Se58  1  0.913089  0.793301  0.831872  1
