# generated using pymatgen
data_Ce2SbS5Br
_symmetry_space_group_name_H-M   'P 1'
_cell_length_a   5.48691099
_cell_length_b   8.85921453
_cell_length_c   17.73000829
_cell_angle_alpha   90.00000000
_cell_angle_beta   90.00000000
_cell_angle_gamma   90.00000000
_symmetry_Int_Tables_number   1
_chemical_formula_structural   Ce2SbS5Br
_chemical_formula_sum   'Ce8 Sb4 S20 Br4'
_cell_volume   861.85076637
_cell_formula_units_Z   4
loop_
 _symmetry_equiv_pos_site_id
 _symmetry_equiv_pos_as_xyz
  1  'x, y, z'
loop_
 _atom_site_type_symbol
 _atom_site_label
 _atom_site_symmetry_multiplicity
 _atom_site_fract_x
 _atom_site_fract_y
 _atom_site_fract_z
 _atom_site_occupancy
  Ce  Ce0  1  0.250000  0.276879  0.529706  1
  Ce  Ce1  1  0.750000  0.223121  0.029706  1
  Ce  Ce2  1  0.750000  0.723121  0.470294  1
  Ce  Ce3  1  0.250000  0.344952  0.799707  1
  Ce  Ce4  1  0.750000  0.155048  0.299707  1
  Ce  Ce5  1  0.250000  0.844952  0.700293  1
  Ce  Ce6  1  0.250000  0.776879  0.970294  1
  Ce  Ce7  1  0.750000  0.655048  0.200293  1
  Sb  Sb8  1  0.750000  0.013506  0.828802  1
  Sb  Sb9  1  0.750000  0.513506  0.671198  1
  Sb  Sb10  1  0.250000  0.486494  0.328802  1
  Sb  Sb11  1  0.250000  0.986494  0.171198  1
  S  S12  1  0.059265  0.155373  0.673258  1
  S  S13  1  0.559265  0.844627  0.326742  1
  S  S14  1  0.559265  0.344627  0.173258  1
  S  S15  1  0.750000  0.479758  0.344829  1
  S  S16  1  0.750000  0.979757  0.155171  1
  S  S17  1  0.250000  0.520243  0.655171  1
  S  S18  1  0.750000  0.425239  0.541094  1
  S  S19  1  0.059265  0.655373  0.826742  1
  S  S20  1  0.250000  0.574761  0.458906  1
  S  S21  1  0.250000  0.020243  0.844829  1
  S  S22  1  0.750000  0.287170  0.857582  1
  S  S23  1  0.750000  0.925239  0.958906  1
  S  S24  1  0.440735  0.655373  0.826742  1
  S  S25  1  0.250000  0.212830  0.357582  1
  S  S26  1  0.750000  0.787170  0.642418  1
  S  S27  1  0.250000  0.712830  0.142418  1
  S  S28  1  0.440735  0.155373  0.673258  1
  S  S29  1  0.940735  0.344627  0.173258  1
  S  S30  1  0.250000  0.074761  0.041094  1
  S  S31  1  0.940735  0.844627  0.326742  1
  Br  Br32  1  0.250000  0.903659  0.527943  1
  Br  Br33  1  0.250000  0.403659  0.972057  1
  Br  Br34  1  0.750000  0.096341  0.472057  1
  Br  Br35  1  0.750000  0.596341  0.027943  1
