# generated using pymatgen
data_Rb2ZnBr4
_symmetry_space_group_name_H-M   'P 1'
_cell_length_a   7.78697986
_cell_length_b   9.92611177
_cell_length_c   13.70025113
_cell_angle_alpha   90.00000000
_cell_angle_beta   89.74483928
_cell_angle_gamma   90.00000000
_symmetry_Int_Tables_number   1
_chemical_formula_structural   Rb2ZnBr4
_chemical_formula_sum   'Rb8 Zn4 Br16'
_cell_volume   1058.94263427
_cell_formula_units_Z   4
loop_
 _symmetry_equiv_pos_site_id
 _symmetry_equiv_pos_as_xyz
  1  'x, y, z'
loop_
 _atom_site_type_symbol
 _atom_site_label
 _atom_site_symmetry_multiplicity
 _atom_site_fract_x
 _atom_site_fract_y
 _atom_site_fract_z
 _atom_site_occupancy
  Rb  Rb0  1  0.761996  0.877167  0.896856  1
  Rb  Rb1  1  0.253835  0.485410  0.827841  1
  Rb  Rb2  1  0.246165  0.985410  0.672159  1
  Rb  Rb3  1  0.753835  0.014590  0.327841  1
  Rb  Rb4  1  0.261996  0.622833  0.396856  1
  Rb  Rb5  1  0.746165  0.514590  0.172159  1
  Rb  Rb6  1  0.738004  0.377167  0.603144  1
  Rb  Rb7  1  0.238004  0.122833  0.103144  1
  Zn  Zn8  1  0.749208  0.773829  0.576736  1
  Zn  Zn9  1  0.250792  0.226171  0.423264  1
  Zn  Zn10  1  0.249208  0.726171  0.076736  1
  Zn  Zn11  1  0.750792  0.273829  0.923264  1
  Br  Br12  1  0.241337  0.482590  0.083849  1
  Br  Br13  1  0.258663  0.982590  0.416151  1
  Br  Br14  1  0.298927  0.820283  0.914079  1
  Br  Br15  1  0.201073  0.320283  0.585921  1
  Br  Br16  1  0.978391  0.822123  0.134845  1
  Br  Br17  1  0.478391  0.677877  0.634845  1
  Br  Br18  1  0.758663  0.517410  0.916151  1
  Br  Br19  1  0.741337  0.017410  0.583849  1
  Br  Br20  1  0.021609  0.177877  0.865155  1
  Br  Br21  1  0.798927  0.679717  0.414079  1
  Br  Br22  1  0.978692  0.695464  0.682696  1
  Br  Br23  1  0.521609  0.322123  0.365155  1
  Br  Br24  1  0.521308  0.195464  0.817304  1
  Br  Br25  1  0.701073  0.179717  0.085921  1
  Br  Br26  1  0.021308  0.304536  0.317304  1
  Br  Br27  1  0.478692  0.804536  0.182696  1
