# generated using pymatgen
data_Ag7NO6
_symmetry_space_group_name_H-M   'P 1'
_cell_length_a   6.66573720
_cell_length_b   6.66574858
_cell_length_c   6.66574056
_cell_angle_alpha   60.00010089
_cell_angle_beta   60.00012938
_cell_angle_gamma   60.00005158
_symmetry_Int_Tables_number   1
_chemical_formula_structural   Ag7NO6
_chemical_formula_sum   'Ag7 N1 O6'
_cell_volume   209.42641082
_cell_formula_units_Z   1
loop_
 _symmetry_equiv_pos_site_id
 _symmetry_equiv_pos_as_xyz
  1  'x, y, z'
loop_
 _atom_site_type_symbol
 _atom_site_label
 _atom_site_symmetry_multiplicity
 _atom_site_fract_x
 _atom_site_fract_y
 _atom_site_fract_z
 _atom_site_occupancy
  Ag  Ag0  1  0.500000  0.500000  0.500000  1
  Ag  Ag1  1  0.504246  0.995754  0.995754  1
  Ag  Ag2  1  0.504246  0.504246  0.995753  1
  Ag  Ag3  1  0.504245  0.995754  0.504245  1
  Ag  Ag4  1  0.995753  0.504246  0.504245  1
  Ag  Ag5  1  0.995754  0.995754  0.504246  1
  Ag  Ag6  1  0.995754  0.504246  0.995754  1
  N  N7  1  0.000000  -0.000000  0.000001  1
  O  O8  1  0.250001  0.250002  0.250001  1
  O  O9  1  0.749999  0.749999  0.750000  1
  O  O10  1  0.745880  0.084707  0.084707  1
  O  O11  1  0.084707  0.084707  0.745879  1
  O  O12  1  0.084707  0.745880  0.084707  1
  O  O13  1  0.084707  0.084707  0.084708  1
