# generated using pymatgen
data_Na4Ga3Si3NO14
_symmetry_space_group_name_H-M   'P 1'
_cell_length_a   9.22651473
_cell_length_b   9.26344116
_cell_length_c   9.40644479
_cell_angle_alpha   89.69481915
_cell_angle_beta   90.06347053
_cell_angle_gamma   89.40421226
_symmetry_Int_Tables_number   1
_chemical_formula_structural   Na4Ga3Si3NO14
_chemical_formula_sum   'Na8 Ga6 Si6 N2 O28'
_cell_volume   803.90661580
_cell_formula_units_Z   2
loop_
 _symmetry_equiv_pos_site_id
 _symmetry_equiv_pos_as_xyz
  1  'x, y, z'
loop_
 _atom_site_type_symbol
 _atom_site_label
 _atom_site_symmetry_multiplicity
 _atom_site_fract_x
 _atom_site_fract_y
 _atom_site_fract_z
 _atom_site_occupancy
  Na  Na0  1  0.194836  0.180964  0.193346  1
  Na  Na1  1  0.185172  0.802430  0.802217  1
  Na  Na2  1  0.328439  0.312398  0.681885  1
  Na  Na3  1  0.292696  0.691773  0.325034  1
  Na  Na4  1  0.684072  0.317591  0.299972  1
  Na  Na5  1  0.703377  0.695686  0.705366  1
  Na  Na6  1  0.809334  0.185533  0.819760  1
  Na  Na7  1  0.796985  0.803873  0.216912  1
  Ga  Ga8  1  0.986194  0.753267  0.542243  1
  Ga  Ga9  1  0.252638  0.488416  0.969315  1
  Ga  Ga10  1  0.495430  0.988739  0.738382  1
  Ga  Ga11  1  0.475584  0.985467  0.209355  1
  Ga  Ga12  1  0.760805  0.493250  0.000153  1
  Ga  Ga13  1  0.997562  0.248883  0.509196  1
  Si  Si14  1  0.002562  0.480614  0.745167  1
  Si  Si15  1  0.260983  0.009816  0.479916  1
  Si  Si16  1  0.491093  0.732154  0.980215  1
  Si  Si17  1  0.510670  0.244784  0.988140  1
  Si  Si18  1  0.769635  0.000996  0.525786  1
  Si  Si19  1  0.982869  0.509395  0.281782  1
  N  N20  1  0.588291  0.408770  0.530006  1
  N  N21  1  0.174451  0.064401  0.912393  1
  O  O22  1  0.076067  0.341870  0.662310  1
  O  O23  1  0.040446  0.646317  0.371443  1
  O  O24  1  0.145728  0.460404  0.210811  1
  O  O25  1  0.142238  0.558634  0.820512  1
  O  O26  1  0.146188  0.138069  0.434556  1
  O  O27  1  0.173613  0.863429  0.545576  1
  O  O28  1  0.364694  0.071523  0.607509  1
  O  O29  1  0.318327  0.953935  0.324162  1
  O  O30  1  0.387362  0.350042  0.916296  1
  O  O31  1  0.352261  0.641893  0.045220  1
  O  O32  1  0.443019  0.163953  0.130384  1
  O  O33  1  0.434541  0.832244  0.845942  1
  O  O34  1  0.303695  0.763689  0.565460  1
  O  O35  1  0.563223  0.132353  0.863531  1
  O  O36  1  0.549152  0.833590  0.108680  1
  O  O37  1  0.653133  0.331247  0.050559  1
  O  O38  1  0.631512  0.632625  0.931184  1
  O  O39  1  0.678987  0.090693  0.395990  1
  O  O40  1  0.656263  0.930656  0.638153  1
  O  O41  1  0.869958  0.883212  0.442152  1
  O  O42  1  0.856762  0.137624  0.592847  1
  O  O43  1  0.858317  0.559505  0.163382  1
  O  O44  1  0.878833  0.424230  0.858035  1
  O  O45  1  0.923505  0.363823  0.362094  1
  O  O46  1  0.915496  0.581459  0.628165  1
  O  O47  1  0.631670  0.956659  0.325254  1
  O  O48  1  0.947432  0.827015  0.729922  1
  O  O49  1  0.116896  0.380107  0.074329  1
