# generated using pymatgen
data_U(OF)2
_symmetry_space_group_name_H-M   'P 1'
_cell_length_a   10.99972231
_cell_length_b   3.99300329
_cell_length_c   5.76944566
_cell_angle_alpha   128.07868316
_cell_angle_beta   162.41574222
_cell_angle_gamma   49.68618816
_symmetry_Int_Tables_number   1
_chemical_formula_structural   U(OF)2
_chemical_formula_sum   'U1 O2 F2'
_cell_volume   58.37469025
_cell_formula_units_Z   1
loop_
 _symmetry_equiv_pos_site_id
 _symmetry_equiv_pos_as_xyz
  1  'x, y, z'
loop_
 _atom_site_type_symbol
 _atom_site_label
 _atom_site_symmetry_multiplicity
 _atom_site_fract_x
 _atom_site_fract_y
 _atom_site_fract_z
 _atom_site_occupancy
  U  U0  1  0.000000  0.000000  0.000000  1
  O  O1  1  0.367899  0.313087  0.000000  1
  O  O2  1  0.632101  0.686913  1.000000  1
  F  F3  1  0.137437  0.203215  1.000000  1
  F  F4  1  0.862563  0.796785  0.000000  1
