# generated using pymatgen
data_WO3
_symmetry_space_group_name_H-M   'P 1'
_cell_length_a   7.49997968
_cell_length_b   15.31865953
_cell_length_c   12.90737145
_cell_angle_alpha   28.47631243
_cell_angle_beta   53.37079120
_cell_angle_gamma   57.78492330
_symmetry_Int_Tables_number   1
_chemical_formula_structural   WO3
_chemical_formula_sum   'W7 O21'
_cell_volume   567.27290097
_cell_formula_units_Z   7
loop_
 _symmetry_equiv_pos_site_id
 _symmetry_equiv_pos_as_xyz
  1  'x, y, z'
loop_
 _atom_site_type_symbol
 _atom_site_label
 _atom_site_symmetry_multiplicity
 _atom_site_fract_x
 _atom_site_fract_y
 _atom_site_fract_z
 _atom_site_occupancy
  W  W0  1  0.020831  0.254514  0.014433  1
  W  W1  1  0.022691  0.500037  0.996693  1
  W  W2  1  0.469547  0.995077  0.984540  1
  W  W3  1  0.002321  0.246006  0.528566  1
  W  W4  1  0.991251  0.747352  0.982062  1
  W  W5  1  0.512995  0.492809  0.013704  1
  W  W6  1  0.981759  0.758224  0.477617  1
  O  O7  1  0.082748  0.289154  0.093856  1
  O  O8  1  0.052593  0.211649  0.678024  1
  O  O9  1  0.306825  0.314202  0.315093  1
  O  O10  1  0.706325  0.312295  0.067379  1
  O  O11  1  0.061348  0.490343  0.703727  1
  O  O12  1  0.687624  0.488082  0.075511  1
  O  O13  1  0.353372  0.001467  0.896580  1
  O  O14  1  0.929938  0.005208  0.292493  1
  O  O15  1  0.044560  0.666133  0.706229  1
  O  O16  1  0.292211  0.175804  0.940436  1
  O  O17  1  0.299928  0.815101  0.302071  1
  O  O18  1  0.691750  0.179767  0.710530  1
  O  O19  1  0.708085  0.817682  0.066614  1
  O  O20  1  0.938280  0.336336  0.299632  1
  O  O21  1  0.067382  0.996926  0.713956  1
  O  O22  1  0.934869  0.513173  0.295949  1
  O  O23  1  0.313299  0.507822  0.932435  1
  O  O24  1  0.298070  0.683303  0.938547  1
  O  O25  1  0.681547  0.681922  0.694857  1
  O  O26  1  0.926592  0.804451  0.318521  1
  O  O27  1  0.932559  0.715161  0.898644  1
