# generated using pymatgen
data_Ag33(PbO3)14
_symmetry_space_group_name_H-M   'P 1'
_cell_length_a   42.17866555
_cell_length_b   10.44386107
_cell_length_c   8.88152522
_cell_angle_alpha   53.97754245
_cell_angle_beta   47.17377613
_cell_angle_gamma   30.07939922
_symmetry_Int_Tables_number   1
_chemical_formula_structural   Ag33(PbO3)14
_chemical_formula_sum   'Ag33 Pb14 O42'
_cell_volume   1438.15018623
_cell_formula_units_Z   1
loop_
 _symmetry_equiv_pos_site_id
 _symmetry_equiv_pos_as_xyz
  1  'x, y, z'
loop_
 _atom_site_type_symbol
 _atom_site_label
 _atom_site_symmetry_multiplicity
 _atom_site_fract_x
 _atom_site_fract_y
 _atom_site_fract_z
 _atom_site_occupancy
  Ag  Ag0  1  0.070613  0.002529  0.998942  1
  Ag  Ag1  1  0.998644  0.502642  0.001756  1
  Ag  Ag2  1  0.109123  0.000435  0.235728  1
  Ag  Ag3  1  0.071398  0.499893  -0.000084  1
  Ag  Ag4  1  0.214861  0.999192  0.998805  1
  Ag  Ag5  1  0.142588  0.499609  0.001665  1
  Ag  Ag6  1  0.250642  0.004638  0.236079  1
  Ag  Ag7  1  0.214866  0.498631  0.998101  1
  Ag  Ag8  1  0.357332  0.997743  0.998401  1
  Ag  Ag9  1  0.032174  0.009279  0.763802  1
  Ag  Ag10  1  0.285895  0.499652  0.999600  1
  Ag  Ag11  1  0.395345  0.998825  0.234889  1
  Ag  Ag12  1  0.357389  0.502490  0.998345  1
  Ag  Ag13  1  0.499812  0.002346  0.001554  1
  Ag  Ag14  1  0.175995  0.001135  0.766089  1
  Ag  Ag15  1  0.535366  0.007989  0.236251  1
  Ag  Ag16  1  0.499730  0.497597  0.001594  1
  Ag  Ag17  1  0.642301  0.000639  0.001186  1
  Ag  Ag18  1  0.321765  0.992024  0.763906  1
  Ag  Ag19  1  0.571224  0.500357  0.000417  1
  Ag  Ag20  1  0.681114  0.998806  0.234147  1
  Ag  Ag21  1  0.642287  0.501201  0.001967  1
  Ag  Ag22  1  0.786582  0.997245  0.001029  1
  Ag  Ag23  1  0.461858  0.001003  0.765085  1
  Ag  Ag24  1  0.714567  0.500304  0.998341  1
  Ag  Ag25  1  0.824977  0.990956  0.235839  1
  Ag  Ag26  1  0.785751  0.499984  0.000199  1
  Ag  Ag27  1  0.928576  0.000049  0.999967  1
  Ag  Ag28  1  0.606480  0.995391  0.763874  1
  Ag  Ag29  1  0.858478  0.497447  0.998194  1
  Ag  Ag30  1  0.966423  0.998791  0.235821  1
  Ag  Ag31  1  0.748025  0.999459  0.764420  1
  Ag  Ag32  1  0.890705  0.001323  0.764068  1
  Pb  Pb33  1  0.069264  0.334304  0.506597  1
  Pb  Pb34  1  0.070536  0.669579  0.499638  1
  Pb  Pb35  1  0.214958  0.330352  0.499862  1
  Pb  Pb36  1  0.214706  0.666355  0.499732  1
  Pb  Pb37  1  0.358796  0.333942  0.493833  1
  Pb  Pb38  1  0.358810  0.660674  0.493528  1
  Pb  Pb39  1  0.498398  0.339399  0.506090  1
  Pb  Pb40  1  0.498222  0.666201  0.506668  1
  Pb  Pb41  1  0.642366  0.334060  0.500716  1
  Pb  Pb42  1  0.642267  0.669557  0.499924  1
  Pb  Pb43  1  0.786628  0.330563  0.499749  1
  Pb  Pb44  1  0.787892  0.665514  0.493730  1
  Pb  Pb45  1  0.927613  0.339524  0.493911  1
  Pb  Pb46  1  0.929477  0.660567  0.506309  1
  O  O47  1  0.009700  0.624956  0.307305  1
  O  O48  1  0.133077  0.000089  0.691707  1
  O  O49  1  0.007829  0.624520  0.693977  1
  O  O50  1  0.132404  0.377606  0.312778  1
  O  O51  1  0.009229  0.002015  0.306556  1
  O  O52  1  0.132948  0.377090  0.690966  1
  O  O53  1  0.152940  0.622028  0.308249  1
  O  O54  1  0.277758  0.993994  0.687331  1
  O  O55  1  0.151565  0.622970  0.691952  1
  O  O56  1  0.277162  0.375929  0.308818  1
  O  O57  1  0.152786  0.999700  0.309053  1
  O  O58  1  0.277503  0.374777  0.687475  1
  O  O59  1  0.295803  0.625082  0.306286  1
  O  O60  1  0.418681  0.000375  0.691318  1
  O  O61  1  0.293566  0.626026  0.692219  1
  O  O62  1  0.420344  0.372245  0.313708  1
  O  O63  1  0.295605  0.998613  0.306628  1
  O  O64  1  0.418517  0.377725  0.691717  1
  O  O65  1  0.438658  0.622226  0.308161  1
  O  O66  1  0.561529  0.001408  0.693317  1
  O  O67  1  0.436818  0.627652  0.686267  1
  O  O68  1  0.563592  0.373973  0.307773  1
  O  O69  1  0.438466  -0.000250  0.308638  1
  O  O70  1  0.561336  0.374895  0.693722  1
  O  O71  1  0.579595  0.625289  0.312617  1
  O  O72  1  0.704361  0.000303  0.690945  1
  O  O73  1  0.579996  0.624017  0.691120  1
  O  O74  1  0.705600  0.376913  0.308034  1
  O  O75  1  0.579379  0.006007  0.312730  1
  O  O76  1  0.704255  0.377792  0.691689  1
  O  O77  1  0.724156  0.622990  0.309126  1
  O  O78  1  0.847885  0.998089  0.693364  1
  O  O79  1  0.724724  0.622371  0.687302  1
  O  O80  1  0.849301  0.375535  0.306015  1
  O  O81  1  0.724055  -0.000060  0.308289  1
  O  O82  1  0.847445  0.375035  0.692731  1
  O  O83  1  0.865739  0.627348  0.313586  1
  O  O84  1  0.989284  0.005705  0.687681  1
  O  O85  1  0.866137  0.622288  0.691605  1
  O  O86  1  0.991055  0.377579  0.308233  1
  O  O87  1  0.867890  0.994218  0.312228  1
  O  O88  1  0.991368  0.372742  0.686522  1
