# generated using pymatgen
data_Si2H2O3
_symmetry_space_group_name_H-M   'P 1'
_cell_length_a   12.39390065
_cell_length_b   10.43123876
_cell_length_c   12.42746523
_cell_angle_alpha   96.39356199
_cell_angle_beta   140.05772467
_cell_angle_gamma   97.81869132
_symmetry_Int_Tables_number   1
_chemical_formula_structural   Si2H2O3
_chemical_formula_sum   'Si20 H20 O30'
_cell_volume   961.38420475
_cell_formula_units_Z   10
loop_
 _symmetry_equiv_pos_site_id
 _symmetry_equiv_pos_as_xyz
  1  'x, y, z'
loop_
 _atom_site_type_symbol
 _atom_site_label
 _atom_site_symmetry_multiplicity
 _atom_site_fract_x
 _atom_site_fract_y
 _atom_site_fract_z
 _atom_site_occupancy
  Si  Si0  1  0.677598  0.859598  0.545611  1
  Si  Si1  1  0.704679  0.685061  0.317881  1
  Si  Si2  1  0.300097  0.114129  0.437371  1
  Si  Si3  1  0.329001  0.349074  0.678567  1
  Si  Si4  1  0.154156  0.111973  0.853976  1
  Si  Si5  1  0.785832  0.437302  0.554737  1
  Si  Si6  1  0.911636  0.881252  0.171078  1
  Si  Si7  1  0.357123  0.592528  0.550656  1
  Si  Si8  1  0.416485  0.013614  0.199961  1
  Si  Si9  1  0.205695  0.498778  0.919278  1
  Si  Si10  1  0.618014  0.992495  0.828663  1
  Si  Si11  1  0.795774  0.509284  0.098737  1
  Si  Si12  1  0.406174  0.742253  0.929897  1
  Si  Si13  1  0.339050  0.773386  0.277235  1
  Si  Si14  1  0.587486  0.227718  0.058392  1
  Si  Si15  1  0.831134  0.308480  0.869501  1
  Si  Si16  1  0.113617  0.879267  0.593400  1
  Si  Si17  1  0.681832  0.631551  0.695142  1
  Si  Si18  1  0.887646  0.141194  0.413333  1
  Si  Si19  1  0.253554  0.369367  0.237011  1
  H  H20  1  0.909357  0.015035  0.819578  1
  H  H21  1  0.723719  0.452325  0.330503  1
  H  H22  1  0.979807  0.594798  0.839339  1
  H  H23  1  0.025899  0.478359  0.363534  1
  H  H24  1  0.918199  0.163016  0.051008  1
  H  H25  1  0.765243  0.268829  0.036478  1
  H  H26  1  0.096210  0.660270  0.613760  1
  H  H27  1  0.990034  0.749129  0.962460  1
  H  H28  1  0.231965  0.142145  0.185043  1
  H  H29  1  0.080971  0.387561  0.577203  1
  H  H30  1  0.902362  0.839876  0.606514  1
  H  H31  1  0.075343  0.166516  0.373325  1
  H  H32  1  0.192626  0.891923  0.845598  1
  H  H33  1  0.523384  0.470683  0.425679  1
  H  H34  1  0.789640  0.058767  0.163926  1
  H  H35  1  0.204504  0.349106  0.383112  1
  H  H36  1  0.293517  0.780537  0.014017  1
  H  H37  1  0.341735  0.563348  0.193642  1
  H  H38  1  0.422409  0.026406  0.821838  1
  H  H39  1  0.901694  0.538365  0.997995  1
  O  O40  1  0.856854  0.010276  0.707221  1
  O  O41  1  0.776846  0.529784  0.428024  1
  O  O42  1  0.113067  0.977901  0.282699  1
  O  O43  1  0.326243  0.494479  0.630339  1
  O  O44  1  0.255766  0.078059  0.040600  1
  O  O45  1  0.996372  0.554389  0.776140  1
  O  O46  1  0.773700  0.936147  0.990812  1
  O  O47  1  0.997822  0.556750  0.320653  1
  O  O48  1  0.278861  0.884106  0.162808  1
  O  O49  1  0.273400  0.587206  0.864713  1
  O  O50  1  0.802154  0.175652  0.952772  1
  O  O51  1  0.740455  0.327113  0.080527  1
  O  O52  1  0.197587  0.746128  0.687531  1
  O  O53  1  0.907664  0.652944  0.895546  1
  O  O54  1  0.743208  0.216943  0.264587  1
  O  O55  1  0.050676  0.332281  0.025050  1
  O  O56  1  0.711612  0.782331  0.674766  1
  O  O57  1  0.900118  0.772989  0.418693  1
  O  O58  1  0.229986  0.200438  0.251146  1
  O  O59  1  0.102165  0.304372  0.561640  1
  O  O60  1  0.769241  0.785853  0.505292  1
  O  O61  1  0.201514  0.225630  0.449212  1
  O  O62  1  0.109316  0.933951  0.746641  1
  O  O63  1  0.663599  0.522911  0.550428  1
  O  O64  1  0.903573  0.066503  0.287325  1
  O  O65  1  0.237200  0.427194  0.361501  1
  O  O66  1  0.347001  0.846030  0.002818  1
  O  O67  1  0.316435  0.634497  0.136142  1
  O  O68  1  0.555275  0.073252  0.931505  1
  O  O69  1  0.861099  0.454581  0.005536  1
