# generated using pymatgen
data_Bi2O3
_symmetry_space_group_name_H-M   'P 1'
_cell_length_a   4.08046193
_cell_length_b   3.74137356
_cell_length_c   8.20278716
_cell_angle_alpha   62.66371656
_cell_angle_beta   62.59337005
_cell_angle_gamma   61.13164830
_symmetry_Int_Tables_number   1
_chemical_formula_structural   Bi2O3
_chemical_formula_sum   'Bi2 O3'
_cell_volume   92.72427696
_cell_formula_units_Z   1
loop_
 _symmetry_equiv_pos_site_id
 _symmetry_equiv_pos_as_xyz
  1  'x, y, z'
loop_
 _atom_site_type_symbol
 _atom_site_label
 _atom_site_symmetry_multiplicity
 _atom_site_fract_x
 _atom_site_fract_y
 _atom_site_fract_z
 _atom_site_occupancy
  Bi  Bi0  1  0.946029  0.028220  0.013308  1
  Bi  Bi1  1  0.079023  0.994276  0.492394  1
  O  O2  1  0.305839  0.221561  0.157295  1
  O  O3  1  0.740353  0.688628  0.471626  1
  O  O4  1  0.876757  0.751315  0.839377  1
