# generated using pymatgen
data_KLiH4S2(NO3)2
_symmetry_space_group_name_H-M   'P 1'
_cell_length_a   5.30237396
_cell_length_b   8.56878363
_cell_length_c   9.00311988
_cell_angle_alpha   90.00000000
_cell_angle_beta   104.84464534
_cell_angle_gamma   90.00000000
_symmetry_Int_Tables_number   1
_chemical_formula_structural   KLiH4S2(NO3)2
_chemical_formula_sum   'K2 Li2 H8 S4 N4 O12'
_cell_volume   395.40318211
_cell_formula_units_Z   2
loop_
 _symmetry_equiv_pos_site_id
 _symmetry_equiv_pos_as_xyz
  1  'x, y, z'
loop_
 _atom_site_type_symbol
 _atom_site_label
 _atom_site_symmetry_multiplicity
 _atom_site_fract_x
 _atom_site_fract_y
 _atom_site_fract_z
 _atom_site_occupancy
  K  K0  1  0.797606  0.499986  0.464585  1
  K  K1  1  0.202394  -0.000014  0.535415  1
  Li  Li2  1  0.906964  0.192682  0.843395  1
  Li  Li3  1  0.093036  0.692682  0.156605  1
  H  H4  1  0.541301  0.841339  0.858461  1
  H  H5  1  0.458699  0.341339  0.141539  1
  H  H6  1  0.512822  0.708104  0.714966  1
  H  H7  1  0.487178  0.208104  0.285034  1
  H  H8  1  0.373066  0.977192  0.047681  1
  H  H9  1  0.626934  0.477192  0.952319  1
  H  H10  1  0.681242  0.046989  0.079006  1
  H  H11  1  0.318758  0.546989  0.920994  1
  S  S12  1  0.913042  0.808699  0.794087  1
  S  S13  1  0.086958  0.308699  0.205913  1
  S  S14  1  0.641866  0.867369  0.253437  1
  S  S15  1  0.358134  0.367369  0.746563  1
  N  N16  1  0.589669  0.814560  0.757230  1
  N  N17  1  0.410331  0.314560  0.242770  1
  N  N18  1  0.568014  0.949236  0.079155  1
  N  N19  1  0.431986  0.449236  0.920845  1
  O  O20  1  0.969893  0.742566  0.656637  1
  O  O21  1  0.030107  0.242566  0.343363  1
  O  O22  1  0.000955  0.971791  0.822835  1
  O  O23  1  0.999045  0.471791  0.177165  1
  O  O24  1  0.018059  0.710545  0.931386  1
  O  O25  1  0.981941  0.210545  0.068614  1
  O  O26  1  0.599772  0.979344  0.368310  1
  O  O27  1  0.400228  0.479344  0.631690  1
  O  O28  1  0.469238  0.730364  0.236949  1
  O  O29  1  0.530762  0.230364  0.763051  1
  O  O30  1  0.918698  0.823035  0.280715  1
  O  O31  1  0.081302  0.323035  0.719285  1
