# generated using pymatgen
data_Fe3O4
_symmetry_space_group_name_H-M   'P 1'
_cell_length_a   6.09551771
_cell_length_b   6.07897708
_cell_length_c   17.13006636
_cell_angle_alpha   90.00000000
_cell_angle_beta   90.00000000
_cell_angle_gamma   90.00000000
_symmetry_Int_Tables_number   1
_chemical_formula_structural   Fe3O4
_chemical_formula_sum   'Fe24 O32'
_cell_volume   634.74625720
_cell_formula_units_Z   8
loop_
 _symmetry_equiv_pos_site_id
 _symmetry_equiv_pos_as_xyz
  1  'x, y, z'
loop_
 _atom_site_type_symbol
 _atom_site_label
 _atom_site_symmetry_multiplicity
 _atom_site_fract_x
 _atom_site_fract_y
 _atom_site_fract_z
 _atom_site_occupancy
  O  O0  1  0.509085  0.511437  0.627585  1
  O  O1  1  0.509085  0.488563  0.872415  1
  O  O2  1  0.490915  0.011437  0.372415  1
  O  O3  1  0.490915  0.988563  0.127585  1
  O  O4  1  0.490915  0.488563  0.372415  1
  O  O5  1  0.490915  0.511437  0.127585  1
  O  O6  1  0.509085  0.988563  0.627585  1
  O  O7  1  0.509085  0.011437  0.872415  1
  O  O8  1  0.988563  0.509327  0.631101  1
  O  O9  1  0.988563  0.490673  0.868899  1
  O  O10  1  0.011437  0.009326  0.368899  1
  O  O11  1  0.011437  0.990673  0.131101  1
  O  O12  1  0.011437  0.490673  0.368899  1
  O  O13  1  0.011437  0.509327  0.131101  1
  O  O14  1  0.988563  0.990673  0.631101  1
  O  O15  1  0.988563  0.009326  0.868899  1
  O  O16  1  0.771876  0.750000  0.250043  1
  O  O17  1  0.771876  0.250000  0.249957  1
  O  O18  1  0.228124  0.250000  0.749957  1
  O  O19  1  0.228124  0.750000  0.750043  1
  O  O20  1  0.230573  0.750000  0.244977  1
  O  O21  1  0.230573  0.250000  0.255023  1
  O  O22  1  0.769427  0.250000  0.755023  1
  O  O23  1  0.769427  0.750000  0.744977  1
  O  O24  1  0.739371  0.750000  0.002015  1
  O  O25  1  0.739371  0.250000  0.497985  1
  O  O26  1  0.260629  0.250000  0.997985  1
  O  O27  1  0.260629  0.750000  0.502015  1
  O  O28  1  0.244523  0.750000  0.004344  1
  O  O29  1  0.244523  0.250000  0.495656  1
  O  O30  1  0.755477  0.250000  0.995656  1
  O  O31  1  0.755477  0.750000  0.504344  1
  Fe  Fe32  1  0.749725  0.750000  0.123959  1
  Fe  Fe33  1  0.749725  0.250000  0.376041  1
  Fe  Fe34  1  0.250275  0.250000  0.876041  1
  Fe  Fe35  1  0.250275  0.750000  0.623959  1
  Fe  Fe36  1  0.255624  0.750000  0.121504  1
  Fe  Fe37  1  0.255624  0.250000  0.378496  1
  Fe  Fe38  1  0.744376  0.250000  0.878496  1
  Fe  Fe39  1  0.744376  0.750000  0.621504  1
  Fe  Fe40  1  0.999277  0.500000  0.750000  1
  Fe  Fe41  1  0.000723  0.000000  0.250000  1
  Fe  Fe42  1  0.000723  0.500000  0.250000  1
  Fe  Fe43  1  0.999277  0.000000  0.750000  1
  Fe  Fe44  1  0.500000  0.500000  0.500000  1
  Fe  Fe45  1  0.500000  0.500000  0.000000  1
  Fe  Fe46  1  0.500000  0.000000  0.500000  1
  Fe  Fe47  1  0.500000  0.000000  0.000000  1
  Fe  Fe48  1  0.497817  0.750000  0.311113  1
  Fe  Fe49  1  0.497817  0.250000  0.188887  1
  Fe  Fe50  1  0.502183  0.250000  0.688887  1
  Fe  Fe51  1  0.502183  0.750000  0.811113  1
  Fe  Fe52  1  0.007284  0.750000  0.436719  1
  Fe  Fe53  1  0.007284  0.250000  0.063281  1
  Fe  Fe54  1  0.992716  0.250000  0.563281  1
  Fe  Fe55  1  0.992716  0.750000  0.936719  1
