# generated using pymatgen
data_Pb2O3
_symmetry_space_group_name_H-M   'P 1'
_cell_length_a   5.73608196
_cell_length_b   6.89521038
_cell_length_c   8.36612258
_cell_angle_alpha   90.02351022
_cell_angle_beta   89.94350184
_cell_angle_gamma   91.26233035
_symmetry_Int_Tables_number   1
_chemical_formula_structural   Pb2O3
_chemical_formula_sum   'Pb8 O12'
_cell_volume   330.81213891
_cell_formula_units_Z   4
loop_
 _symmetry_equiv_pos_site_id
 _symmetry_equiv_pos_as_xyz
  1  'x, y, z'
loop_
 _atom_site_type_symbol
 _atom_site_label
 _atom_site_symmetry_multiplicity
 _atom_site_fract_x
 _atom_site_fract_y
 _atom_site_fract_z
 _atom_site_occupancy
  Pb  Pb0  1  -0.000880  0.000170  0.249952  1
  Pb  Pb1  1  0.501750  0.241372  0.500041  1
  Pb  Pb2  1  -0.000210  0.500481  0.749881  1
  Pb  Pb3  1  0.497967  0.750958  -0.000513  1
  Pb  Pb4  1  0.493599  0.244124  0.001093  1
  Pb  Pb5  1  -0.000593  0.001264  0.749904  1
  Pb  Pb6  1  -0.000028  0.501418  0.250132  1
  Pb  Pb7  1  0.501565  0.749666  0.500685  1
  O  O8  1  0.884717  0.500852  0.500023  1
  O  O9  1  0.254228  0.756269  0.749963  1
  O  O10  1  0.746034  0.248015  0.754502  1
  O  O11  1  0.104562  -0.002800  0.499870  1
  O  O12  1  0.745955  0.248122  0.245619  1
  O  O13  1  0.745711  0.745147  0.247911  1
  O  O14  1  0.255124  0.258528  0.743119  1
  O  O15  1  0.745932  0.744995  0.752238  1
  O  O16  1  0.254672  0.258237  0.256367  1
  O  O17  1  0.254111  0.756839  0.249420  1
  O  O18  1  0.119238  0.496216  -0.000151  1
  O  O19  1  0.896546  0.000127  -0.000058  1
