# generated using pymatgen
data_Ce4GeS3
_symmetry_space_group_name_H-M   'P 1'
_cell_length_a   8.17123280
_cell_length_b   10.80642212
_cell_length_c   7.07068067
_cell_angle_alpha   29.22842418
_cell_angle_beta   54.71660163
_cell_angle_gamma   40.86829420
_symmetry_Int_Tables_number   1
_chemical_formula_structural   Ce4GeS3
_chemical_formula_sum   'Ce4 Ge1 S3'
_cell_volume   192.74776374
_cell_formula_units_Z   1
loop_
 _symmetry_equiv_pos_site_id
 _symmetry_equiv_pos_as_xyz
  1  'x, y, z'
loop_
 _atom_site_type_symbol
 _atom_site_label
 _atom_site_symmetry_multiplicity
 _atom_site_fract_x
 _atom_site_fract_y
 _atom_site_fract_z
 _atom_site_occupancy
  Ce  Ce0  1  0.002775  0.994326  0.004357  1
  Ce  Ce1  1  0.500851  0.996786  0.001962  1
  Ce  Ce2  1  0.248756  0.494231  0.013324  1
  Ce  Ce3  1  0.756647  0.494226  0.995382  1
  Ge  Ge4  1  0.502910  0.495182  0.503433  1
  S  S5  1  0.000555  0.496590  0.501949  1
  S  S6  1  0.252036  0.995428  0.503387  1
  S  S7  1  0.753386  0.992787  0.505903  1
