# generated using pymatgen
data_Ca2B5H2ClO10
_symmetry_space_group_name_H-M   'P 1'
_cell_length_a   11.53456546
_cell_length_b   6.53458445
_cell_length_c   6.53458445
_cell_angle_alpha   121.75276926
_cell_angle_beta   90.03129192
_cell_angle_gamma   90.03129192
_symmetry_Int_Tables_number   1
_chemical_formula_structural   Ca2B5H2ClO10
_chemical_formula_sum   'Ca4 B10 H4 Cl2 O20'
_cell_volume   418.81552915
_cell_formula_units_Z   2
loop_
 _symmetry_equiv_pos_site_id
 _symmetry_equiv_pos_as_xyz
  1  'x, y, z'
loop_
 _atom_site_type_symbol
 _atom_site_label
 _atom_site_symmetry_multiplicity
 _atom_site_fract_x
 _atom_site_fract_y
 _atom_site_fract_z
 _atom_site_occupancy
  Ca  Ca0  1  0.499518  0.748288  0.250972  1
  Ca  Ca1  1  0.999518  0.250972  0.748288  1
  Ca  Ca2  1  0.773903  0.371502  0.312822  1
  Ca  Ca3  1  0.273903  0.312822  0.371502  1
  B  B4  1  0.760566  0.450443  0.841510  1
  B  B5  1  0.260566  0.841510  0.450443  1
  B  B6  1  0.771720  0.855073  0.910835  1
  B  B7  1  0.271720  0.910835  0.855073  1
  B  B8  1  0.725190  0.014115  0.626875  1
  B  B9  1  0.225190  0.626875  0.014115  1
  B  B10  1  0.836060  0.778836  0.237550  1
  B  B11  1  0.336060  0.237550  0.778836  1
  B  B12  1  0.560128  0.284008  0.798253  1
  B  B13  1  0.060128  0.798253  0.284008  1
  H  H14  1  0.535306  0.754750  0.804219  1
  H  H15  1  0.035306  0.804219  0.754750  1
  H  H16  1  0.540206  0.026536  0.015866  1
  H  H17  1  0.040206  0.015866  0.026536  1
  Cl  Cl18  1  0.524291  0.409212  0.392259  1
  Cl  Cl19  1  0.024291  0.392259  0.409212  1
  O  O20  1  0.766753  0.612915  0.743003  1
  O  O21  1  0.266753  0.743003  0.612915  1
  O  O22  1  0.845731  0.524797  0.037851  1
  O  O23  1  0.345731  0.037851  0.524797  1
  O  O24  1  0.641365  0.461610  0.934831  1
  O  O25  1  0.141365  0.934831  0.461610  1
  O  O26  1  0.789516  0.214851  0.639477  1
  O  O27  1  0.289517  0.639477  0.214851  1
  O  O28  1  0.795051  0.937485  0.148955  1
  O  O29  1  0.295051  0.148955  0.937485  1
  O  O30  1  0.949080  0.869936  0.357397  1
  O  O31  1  0.449080  0.357397  0.869936  1
  O  O32  1  0.752881  0.785116  0.413296  1
  O  O33  1  0.252881  0.413296  0.785116  1
  O  O34  1  0.747407  0.030084  0.862562  1
  O  O35  1  0.247407  0.862562  0.030084  1
  O  O36  1  0.594940  0.055431  0.621945  1
  O  O37  1  0.094940  0.621945  0.055431  1
  O  O38  1  0.509099  0.867872  0.968022  1
  O  O39  1  0.009099  0.968022  0.867872  1
