# generated using pymatgen
data_In2Cu2O5
_symmetry_space_group_name_H-M   'P 1'
_cell_length_a   3.32945713
_cell_length_b   10.71817789
_cell_length_c   13.55581925
_cell_angle_alpha   113.14013418
_cell_angle_beta   90.00000000
_cell_angle_gamma   90.00000000
_symmetry_Int_Tables_number   1
_chemical_formula_structural   In2Cu2O5
_chemical_formula_sum   'In8 Cu8 O20'
_cell_volume   444.82975497
_cell_formula_units_Z   4
loop_
 _symmetry_equiv_pos_site_id
 _symmetry_equiv_pos_as_xyz
  1  'x, y, z'
loop_
 _atom_site_type_symbol
 _atom_site_label
 _atom_site_symmetry_multiplicity
 _atom_site_fract_x
 _atom_site_fract_y
 _atom_site_fract_z
 _atom_site_occupancy
  In  In0  1  0.562267  0.505118  0.334537  1
  In  In1  1  0.634485  0.006092  0.335018  1
  In  In2  1  0.562267  0.494882  0.665463  1
  In  In3  1  0.143662  0.670817  0.164459  1
  In  In4  1  0.056414  0.170555  0.165114  1
  In  In5  1  0.143662  0.329183  0.835541  1
  In  In6  1  0.634485  0.993908  0.664982  1
  In  In7  1  0.056414  0.829445  0.834886  1
  Cu  Cu8  1  0.694447  0.604937  0.945624  1
  Cu  Cu9  1  0.694447  0.395063  0.054376  1
  Cu  Cu10  1  0.018793  0.342374  0.447423  1
  Cu  Cu11  1  0.189733  0.160185  0.553302  1
  Cu  Cu12  1  0.189733  0.839815  0.446698  1
  Cu  Cu13  1  0.507067  0.107343  0.946964  1
  Cu  Cu14  1  0.018793  0.657626  0.552577  1
  Cu  Cu15  1  0.507067  0.892657  0.053036  1
  O  O16  1  0.163371  0.000000  0.000000  1
  O  O17  1  0.066046  0.352280  0.596416  1
  O  O18  1  0.568495  0.049184  0.192225  1
  O  O19  1  0.132458  0.148135  0.403045  1
  O  O20  1  0.631189  0.550889  0.193240  1
  O  O21  1  0.649661  0.255687  0.904989  1
  O  O22  1  0.649661  0.744313  0.095011  1
  O  O23  1  0.631189  0.449111  0.806760  1
  O  O24  1  0.551042  0.246607  0.097402  1
  O  O25  1  0.045819  0.500000  0.000000  1
  O  O26  1  0.135894  0.142479  0.693465  1
  O  O27  1  0.135894  0.857521  0.306535  1
  O  O28  1  0.650465  0.500000  0.500000  1
  O  O29  1  0.540460  0.000000  0.500000  1
  O  O30  1  0.061188  0.642390  0.692827  1
  O  O31  1  0.551042  0.753393  0.902598  1
  O  O32  1  0.061188  0.357610  0.307173  1
  O  O33  1  0.066046  0.647720  0.403584  1
  O  O34  1  0.568495  0.950816  0.807775  1
  O  O35  1  0.132458  0.851865  0.596955  1
