# generated using pymatgen
data_Cs2Tb6Te7N2
_symmetry_space_group_name_H-M   'P 1'
_cell_length_a   4.22321453
_cell_length_b   11.53593210
_cell_length_c   12.32819714
_cell_angle_alpha   103.47182670
_cell_angle_beta   99.91945198
_cell_angle_gamma   90.14883755
_symmetry_Int_Tables_number   1
_chemical_formula_structural   Cs2Tb6Te7N2
_chemical_formula_sum   'Cs2 Tb6 Te7 N2'
_cell_volume   574.78355407
_cell_formula_units_Z   1
loop_
 _symmetry_equiv_pos_site_id
 _symmetry_equiv_pos_as_xyz
  1  'x, y, z'
loop_
 _atom_site_type_symbol
 _atom_site_label
 _atom_site_symmetry_multiplicity
 _atom_site_fract_x
 _atom_site_fract_y
 _atom_site_fract_z
 _atom_site_occupancy
  Tb  Tb0  1  0.172281  0.388897  0.329685  1
  Tb  Tb1  1  0.833919  0.611047  0.670442  1
  Tb  Tb2  1  0.591833  0.135945  0.182925  1
  Tb  Tb3  1  0.410550  0.861978  0.817996  1
  Tb  Tb4  1  0.785401  0.870012  0.570414  1
  Tb  Tb5  1  0.215255  0.131561  0.431521  1
  Cs  Cs6  1  0.067051  0.699501  0.135029  1
  Cs  Cs7  1  0.938742  0.303998  0.871068  1
  Te  Te8  1  0.666820  0.943235  0.328881  1
  Te  Te9  1  0.340009  0.057525  0.671952  1
  Te  Te10  1  0.001185  0.996929  0.001485  1
  Te  Te11  1  0.765496  0.338944  0.520331  1
  Te  Te12  1  0.583481  0.403135  0.151391  1
  Te  Te13  1  0.426758  0.595785  0.848785  1
  Te  Te14  1  0.238975  0.661242  0.482736  1
  N  N15  1  0.140879  0.194822  0.275616  1
  N  N16  1  0.860100  0.805418  0.725437  1
