# generated using pymatgen
data_H9BrO4
_symmetry_space_group_name_H-M   'P 1'
_cell_length_a   7.12266511
_cell_length_b   11.70130559
_cell_length_c   7.42588989
_cell_angle_alpha   90.17983550
_cell_angle_beta   111.67255575
_cell_angle_gamma   88.97071183
_symmetry_Int_Tables_number   1
_chemical_formula_structural   H9BrO4
_chemical_formula_sum   'H36 Br4 O16'
_cell_volume   575.05926795
_cell_formula_units_Z   4
loop_
 _symmetry_equiv_pos_site_id
 _symmetry_equiv_pos_as_xyz
  1  'x, y, z'
loop_
 _atom_site_type_symbol
 _atom_site_label
 _atom_site_symmetry_multiplicity
 _atom_site_fract_x
 _atom_site_fract_y
 _atom_site_fract_z
 _atom_site_occupancy
  H  H0  1  0.325776  0.335672  0.018636  1
  H  H1  1  0.203073  0.252162  0.845061  1
  H  H2  1  0.909028  0.762559  -0.000527  1
  H  H3  1  0.687513  0.826106  0.030757  1
  H  H4  1  0.966339  0.183435  0.149421  1
  H  H5  1  0.805335  0.251845  0.953480  1
  H  H6  1  0.072227  0.267123  0.033953  1
  H  H7  1  0.009501  0.689192  0.851988  1
  H  H8  1  0.178798  0.759366  0.026504  1
  H  H9  1  0.570644  0.161052  0.802749  1
  H  H10  1  0.635781  0.245304  0.668744  1
  H  H11  1  0.447443  0.663988  0.200142  1
  H  H12  1  0.387159  0.755097  0.325908  1
  H  H13  1  0.621759  0.174874  0.381001  1
  H  H14  1  0.642433  0.310167  0.369854  1
  H  H15  1  0.073343  0.741661  0.481228  1
  H  H16  1  0.366164  0.813365  0.646506  1
  H  H17  1  0.382364  0.678324  0.623529  1
  H  H18  1  0.129115  0.159659  0.536168  1
  H  H19  1  0.949479  0.238635  0.538432  1
  H  H20  1  0.826714  0.741872  0.205187  1
  H  H21  1  0.904263  0.657917  0.491633  1
  H  H22  1  0.163835  0.440686  0.343742  1
  H  H23  1  0.198754  0.333530  0.514771  1
  H  H24  1  0.352712  0.450246  0.567260  1
  H  H25  1  0.643544  0.947210  0.440481  1
  H  H26  1  0.807122  0.832669  0.503646  1
  H  H27  1  0.833730  0.942719  0.667390  1
  H  H28  1  0.500875  0.523482  0.841672  1
  H  H29  1  0.623240  0.533550  0.702130  1
  H  H30  1  0.496107  0.023904  0.160363  1
  H  H31  1  0.366616  0.032659  0.292212  1
  H  H32  1  0.023886  0.505974  0.055012  1
  H  H33  1  0.886151  0.503305  0.178576  1
  H  H34  1  0.973406  0.997610  0.948899  1
  H  H35  1  0.104764  0.003999  0.818899  1
  Br  Br36  1  0.937531  0.518675  0.713162  1
  Br  Br37  1  0.045593  0.017354  0.277954  1
  Br  Br38  1  0.555018  0.479261  0.154950  1
  Br  Br39  1  0.447860  0.978128  0.853702  1
  O  O40  1  0.242572  0.265822  0.986201  1
  O  O41  1  0.772906  0.755569  0.059661  1
  O  O42  1  0.943219  0.258929  0.077867  1
  O  O43  1  0.033897  0.761966  0.927210  1
  O  O44  1  0.617165  0.239776  0.795177  1
  O  O45  1  0.401939  0.744626  0.199789  1
  O  O46  1  0.690416  0.242973  0.456066  1
  O  O47  1  0.318437  0.749559  0.553234  1
  O  O48  1  0.101242  0.233267  0.588429  1
  O  O49  1  0.920995  0.732480  0.435371  1
  O  O50  1  0.267148  0.394351  0.461260  1
  O  O51  1  0.731877  0.893799  0.550824  1
  O  O52  1  0.483488  0.539359  0.704214  1
  O  O53  1  0.508115  0.038626  0.296753  1
  O  O54  1  0.027641  0.515027  0.188859  1
  O  O55  1  0.964634  0.013526  0.814483  1
