# generated using pymatgen
data_Tl2Mo4O13
_symmetry_space_group_name_H-M   'P 1'
_cell_length_a   7.83722126
_cell_length_b   15.71964625
_cell_length_c   19.39629340
_cell_angle_alpha   90.00000000
_cell_angle_beta   90.00000000
_cell_angle_gamma   90.00000000
_symmetry_Int_Tables_number   1
_chemical_formula_structural   Tl2Mo4O13
_chemical_formula_sum   'Tl16 Mo32 O104'
_cell_volume   2389.59126134
_cell_formula_units_Z   8
loop_
 _symmetry_equiv_pos_site_id
 _symmetry_equiv_pos_as_xyz
  1  'x, y, z'
loop_
 _atom_site_type_symbol
 _atom_site_label
 _atom_site_symmetry_multiplicity
 _atom_site_fract_x
 _atom_site_fract_y
 _atom_site_fract_z
 _atom_site_occupancy
  Tl  Tl0  1  0.724450  0.785695  0.436260  1
  Tl  Tl1  1  0.609569  0.471328  0.915800  1
  Tl  Tl2  1  0.275550  0.285695  0.063740  1
  Tl  Tl3  1  0.724450  0.714305  0.936260  1
  Tl  Tl4  1  0.390431  0.528672  0.084200  1
  Tl  Tl5  1  0.890431  0.528672  0.415800  1
  Tl  Tl6  1  0.224450  0.714305  0.563740  1
  Tl  Tl7  1  0.775550  0.285695  0.436260  1
  Tl  Tl8  1  0.109569  0.028672  0.084200  1
  Tl  Tl9  1  0.275550  0.214305  0.563740  1
  Tl  Tl10  1  0.390431  0.971328  0.584200  1
  Tl  Tl11  1  0.609569  0.028672  0.415800  1
  Tl  Tl12  1  0.224450  0.785695  0.063740  1
  Tl  Tl13  1  0.109569  0.471328  0.584200  1
  Tl  Tl14  1  0.890431  0.971328  0.915800  1
  Tl  Tl15  1  0.775550  0.214305  0.936260  1
  Mo  Mo16  1  0.294691  0.142354  0.899586  1
  Mo  Mo17  1  0.107648  0.064632  0.389961  1
  Mo  Mo18  1  0.827275  0.928267  0.255469  1
  Mo  Mo19  1  0.577466  0.219197  0.250996  1
  Mo  Mo20  1  0.892352  0.564632  0.110039  1
  Mo  Mo21  1  0.607648  0.064632  0.110039  1
  Mo  Mo22  1  0.607648  0.435368  0.610039  1
  Mo  Mo23  1  0.327275  0.571733  0.744531  1
  Mo  Mo24  1  0.392352  0.564632  0.389961  1
  Mo  Mo25  1  0.294691  0.357646  0.399586  1
  Mo  Mo26  1  0.205309  0.642354  0.899586  1
  Mo  Mo27  1  0.827275  0.571733  0.755469  1
  Mo  Mo28  1  0.794691  0.142354  0.600414  1
  Mo  Mo29  1  0.892352  0.935368  0.610039  1
  Mo  Mo30  1  0.172725  0.071733  0.744531  1
  Mo  Mo31  1  0.077466  0.219197  0.249004  1
  Mo  Mo32  1  0.392352  0.935368  0.889961  1
  Mo  Mo33  1  0.077466  0.280803  0.749004  1
  Mo  Mo34  1  0.422534  0.780803  0.749004  1
  Mo  Mo35  1  0.172725  0.428267  0.244531  1
  Mo  Mo36  1  0.577466  0.280803  0.750996  1
  Mo  Mo37  1  0.672725  0.428267  0.255469  1
  Mo  Mo38  1  0.672725  0.071733  0.755469  1
  Mo  Mo39  1  0.107648  0.435368  0.889961  1
  Mo  Mo40  1  0.422534  0.719197  0.249004  1
  Mo  Mo41  1  0.922534  0.780803  0.750996  1
  Mo  Mo42  1  0.327275  0.928267  0.244531  1
  Mo  Mo43  1  0.705309  0.642354  0.600414  1
  Mo  Mo44  1  0.794691  0.357646  0.100414  1
  Mo  Mo45  1  0.705309  0.857646  0.100414  1
  Mo  Mo46  1  0.922534  0.719197  0.250996  1
  Mo  Mo47  1  0.205309  0.857646  0.399586  1
  O  O48  1  0.550473  0.947393  0.078851  1
  O  O49  1  0.118845  0.924746  0.208944  1
  O  O50  1  0.055966  0.345120  0.677076  1
  O  O51  1  0.055966  0.154880  0.177076  1
  O  O52  1  0.165017  0.142608  0.317544  1
  O  O53  1  0.719719  0.475457  0.167952  1
  O  O54  1  0.377369  0.630179  0.956463  1
  O  O55  1  0.550473  0.552607  0.578851  1
  O  O56  1  0.269169  0.415758  0.950330  1
  O  O57  1  0.930005  0.381896  0.923295  1
  O  O58  1  0.665017  0.142608  0.182456  1
  O  O59  1  0.944034  0.654880  0.322924  1
  O  O60  1  0.930005  0.118104  0.423295  1
  O  O61  1  0.280281  0.524543  0.832048  1
  O  O62  1  0.230831  0.915758  0.950330  1
  O  O63  1  0.280281  0.975457  0.332048  1
  O  O64  1  0.920730  0.488746  0.804561  1
  O  O65  1  0.449527  0.447393  0.421149  1
  O  O66  1  0.923884  0.829515  0.302720  1
  O  O67  1  0.555966  0.345120  0.822924  1
  O  O68  1  0.095587  0.730250  0.932502  1
  O  O69  1  0.219719  0.475457  0.332048  1
  O  O70  1  0.069995  0.618104  0.076705  1
  O  O71  1  0.192221  0.182062  0.815902  1
  O  O72  1  0.050473  0.947393  0.421149  1
  O  O73  1  0.404413  0.230250  0.932502  1
  O  O74  1  0.076116  0.329515  0.197280  1
  O  O75  1  0.807779  0.682062  0.684098  1
  O  O76  1  0.230831  0.584242  0.450330  1
  O  O77  1  0.769169  0.084242  0.049670  1
  O  O78  1  0.076116  0.170485  0.697280  1
  O  O79  1  0.449527  0.052607  0.921149  1
  O  O80  1  0.730831  0.915758  0.549670  1
  O  O81  1  0.807779  0.817938  0.184098  1
  O  O82  1  0.307779  0.682062  0.815902  1
  O  O83  1  0.122631  0.130179  0.956463  1
  O  O84  1  0.095587  0.769750  0.432502  1
  O  O85  1  0.430005  0.381896  0.576705  1
  O  O86  1  0.622631  0.130179  0.543537  1
  O  O87  1  0.579270  0.511254  0.304561  1
  O  O88  1  0.079270  0.511254  0.195439  1
  O  O89  1  0.692221  0.182062  0.684098  1
  O  O90  1  0.334983  0.857392  0.817544  1
  O  O91  1  0.576116  0.170485  0.802720  1
  O  O92  1  0.622631  0.369821  0.043537  1
  O  O93  1  0.366482  0.225722  0.218266  1
  O  O94  1  0.118845  0.575254  0.708944  1
  O  O95  1  0.877369  0.869821  0.043537  1
  O  O96  1  0.269169  0.084242  0.450330  1
  O  O97  1  0.307779  0.817938  0.315902  1
  O  O98  1  0.366482  0.274278  0.718266  1
  O  O99  1  0.920730  0.011254  0.304561  1
  O  O100  1  0.881155  0.424746  0.291056  1
  O  O101  1  0.949527  0.447393  0.078851  1
  O  O102  1  0.904413  0.230250  0.567498  1
  O  O103  1  0.944034  0.845120  0.822924  1
  O  O104  1  0.430005  0.118104  0.076705  1
  O  O105  1  0.334983  0.642608  0.317544  1
  O  O106  1  0.133518  0.725722  0.218266  1
  O  O107  1  0.555966  0.154880  0.322924  1
  O  O108  1  0.618845  0.924746  0.291056  1
  O  O109  1  0.381155  0.075254  0.708944  1
  O  O110  1  0.949527  0.052607  0.578851  1
  O  O111  1  0.618845  0.575254  0.791056  1
  O  O112  1  0.923884  0.670485  0.802720  1
  O  O113  1  0.122631  0.369821  0.456463  1
  O  O114  1  0.133518  0.774278  0.718266  1
  O  O115  1  0.692221  0.317938  0.184098  1
  O  O116  1  0.069995  0.881896  0.576705  1
  O  O117  1  0.877369  0.630179  0.543537  1
  O  O118  1  0.769169  0.415758  0.549670  1
  O  O119  1  0.569995  0.618104  0.423295  1
  O  O120  1  0.079270  0.988746  0.695439  1
  O  O121  1  0.165017  0.357392  0.817544  1
  O  O122  1  0.423884  0.829515  0.197280  1
  O  O123  1  0.579270  0.988746  0.804561  1
  O  O124  1  0.219719  0.024543  0.832048  1
  O  O125  1  0.595587  0.769750  0.067498  1
  O  O126  1  0.780281  0.975457  0.167952  1
  O  O127  1  0.420730  0.011254  0.195439  1
  O  O128  1  0.381155  0.424746  0.208944  1
  O  O129  1  0.904413  0.269750  0.067498  1
  O  O130  1  0.730831  0.584242  0.049670  1
  O  O131  1  0.866482  0.274278  0.781734  1
  O  O132  1  0.192221  0.317938  0.315902  1
  O  O133  1  0.881155  0.075254  0.791056  1
  O  O134  1  0.444034  0.845120  0.677076  1
  O  O135  1  0.404413  0.269750  0.432502  1
  O  O136  1  0.633518  0.774278  0.781734  1
  O  O137  1  0.866482  0.225722  0.281734  1
  O  O138  1  0.576116  0.329515  0.302720  1
  O  O139  1  0.595587  0.730250  0.567498  1
  O  O140  1  0.377369  0.869821  0.456463  1
  O  O141  1  0.665017  0.357392  0.682456  1
  O  O142  1  0.050473  0.552607  0.921149  1
  O  O143  1  0.420730  0.488746  0.695439  1
  O  O144  1  0.423884  0.670485  0.697280  1
  O  O145  1  0.633518  0.725722  0.281734  1
  O  O146  1  0.834983  0.642608  0.182456  1
  O  O147  1  0.834983  0.857392  0.682456  1
  O  O148  1  0.780281  0.524543  0.667952  1
  O  O149  1  0.719719  0.024543  0.667952  1
  O  O150  1  0.569995  0.881896  0.923295  1
  O  O151  1  0.444034  0.654880  0.177076  1
