# generated using pymatgen
data_NaZr2SN2Cl
_symmetry_space_group_name_H-M   'P 1'
_cell_length_a   10.23341555
_cell_length_b   40.98625507
_cell_length_c   20.15952970
_cell_angle_alpha   10.35228035
_cell_angle_beta   18.12316516
_cell_angle_gamma   20.78492117
_symmetry_Int_Tables_number   1
_chemical_formula_structural   NaZr2SN2Cl
_chemical_formula_sum   'Na4 Zr8 S4 N8 Cl4'
_cell_volume   472.64191588
_cell_formula_units_Z   4
loop_
 _symmetry_equiv_pos_site_id
 _symmetry_equiv_pos_as_xyz
  1  'x, y, z'
loop_
 _atom_site_type_symbol
 _atom_site_label
 _atom_site_symmetry_multiplicity
 _atom_site_fract_x
 _atom_site_fract_y
 _atom_site_fract_z
 _atom_site_occupancy
  Na  Na0  1  0.013283  0.000044  0.990703  1
  Na  Na1  1  0.013283  0.249956  0.990879  1
  Na  Na2  1  0.986717  0.500044  0.009121  1
  Na  Na3  1  0.986717  0.749956  0.009297  1
  Zr  Zr4  1  0.186477  0.241604  0.239374  1
  Zr  Zr5  1  0.765605  0.994024  0.816121  1
  Zr  Zr6  1  0.234395  0.494024  0.207782  1
  Zr  Zr7  1  0.765605  0.255976  0.792218  1
  Zr  Zr8  1  0.234395  0.755976  0.183879  1
  Zr  Zr9  1  0.813523  0.508396  0.760626  1
  Zr  Zr10  1  0.186477  0.008396  0.205788  1
  Zr  Zr11  1  0.813523  0.741604  0.794212  1
  S  S12  1  0.602528  0.997719  0.607566  1
  S  S13  1  0.602528  0.252281  0.598443  1
  S  S14  1  0.397472  0.497719  0.401557  1
  S  S15  1  0.397472  0.752281  0.392434  1
  N  N16  1  0.108056  0.008322  0.135319  1
  N  N17  1  0.108056  0.241678  0.168608  1
  N  N18  1  0.165892  0.489867  0.143834  1
  N  N19  1  0.165892  0.760133  0.103300  1
  N  N20  1  0.834108  0.260133  0.856166  1
  N  N21  1  0.891944  0.508322  0.831392  1
  N  N22  1  0.891944  0.741678  0.864681  1
  N  N23  1  0.834108  0.989867  0.896700  1
  Cl  Cl24  1  0.393101  0.003313  0.383172  1
  Cl  Cl25  1  0.393101  0.246687  0.396424  1
  Cl  Cl26  1  0.606899  0.503313  0.603576  1
  Cl  Cl27  1  0.606899  0.746687  0.616828  1
