# generated using pymatgen
data_Mg2TiO4
_symmetry_space_group_name_H-M   'P 1'
_cell_length_a   6.08037166
_cell_length_b   12.16609853
_cell_length_c   10.32729070
_cell_angle_alpha   53.91203447
_cell_angle_beta   90.12853173
_cell_angle_gamma   90.00000000
_symmetry_Int_Tables_number   1
_chemical_formula_structural   Mg2TiO4
_chemical_formula_sum   'Mg16 Ti8 O32'
_cell_volume   617.36017645
_cell_formula_units_Z   8
loop_
 _symmetry_equiv_pos_site_id
 _symmetry_equiv_pos_as_xyz
  1  'x, y, z'
loop_
 _atom_site_type_symbol
 _atom_site_label
 _atom_site_symmetry_multiplicity
 _atom_site_fract_x
 _atom_site_fract_y
 _atom_site_fract_z
 _atom_site_occupancy
  Mg  Mg0  1  0.000000  0.622242  0.000000  1
  Mg  Mg1  1  0.000931  0.125700  0.499325  1
  Mg  Mg2  1  0.248868  0.125824  0.751010  1
  Mg  Mg3  1  0.248772  0.624631  0.748664  1
  Mg  Mg4  1  0.243182  0.309676  0.127747  1
  Mg  Mg5  1  0.246779  0.812367  0.122095  1
  Mg  Mg6  1  0.255666  0.437360  0.376254  1
  Mg  Mg7  1  0.259310  0.941086  0.372745  1
  Mg  Mg8  1  0.500000  0.125544  0.000000  1
  Mg  Mg9  1  0.740690  0.313831  0.627255  1
  Mg  Mg10  1  0.756818  0.437423  0.872253  1
  Mg  Mg11  1  0.744334  0.813614  0.623746  1
  Mg  Mg12  1  0.753221  0.934462  0.877905  1
  Mg  Mg13  1  0.751228  0.373295  0.251336  1
  Mg  Mg14  1  0.751132  0.876835  0.248990  1
  Mg  Mg15  1  -0.000931  0.625025  0.500675  1
  Ti  Ti16  1  0.000000  0.119469  0.000000  1
  Ti  Ti17  1  0.254297  0.377105  0.750024  1
  Ti  Ti18  1  0.232556  0.872863  0.750023  1
  Ti  Ti19  1  0.502312  0.128137  0.508284  1
  Ti  Ti20  1  0.497688  0.636421  0.491716  1
  Ti  Ti21  1  0.500000  0.616229  0.000000  1
  Ti  Ti22  1  0.745703  0.127130  0.249976  1
  Ti  Ti23  1  0.767444  0.622886  0.249977  1
  O  O24  1  0.016245  0.251194  0.761542  1
  O  O25  1  0.031410  0.496890  0.745119  1
  O  O26  1  0.027092  0.756109  0.748865  1
  O  O27  1  0.030897  0.992860  0.750106  1
  O  O28  1  0.240959  0.248395  -0.014091  1
  O  O29  1  0.260355  0.746241  -0.014430  1
  O  O30  1  0.263663  0.000930  0.516239  1
  O  O31  1  0.258628  0.504241  0.512133  1
  O  O32  1  0.263890  0.234312  0.500957  1
  O  O33  1  0.262743  0.513127  0.000540  1
  O  O34  1  0.235112  0.015132  0.001134  1
  O  O35  1  0.263637  0.737404  0.497426  1
  O  O36  1  0.466689  0.254759  0.754923  1
  O  O37  1  0.479808  0.747308  0.764473  1
  O  O38  1  0.516247  0.740375  0.260594  1
  O  O39  1  0.517772  0.236606  0.263545  1
  O  O40  1  0.533311  0.009682  0.245077  1
  O  O41  1  0.482228  0.500151  0.736455  1
  O  O42  1  0.520192  0.511781  0.235527  1
  O  O43  1  0.483753  0.000968  0.739406  1
  O  O44  1  0.764888  0.016266  0.998866  1
  O  O45  1  0.737257  0.513667  0.999460  1
  O  O46  1  0.736363  0.234830  0.502574  1
  O  O47  1  0.736110  0.735270  0.499043  1
  O  O48  1  0.736337  0.517169  0.483761  1
  O  O49  1  0.739645  0.731812  0.014430  1
  O  O50  1  0.759041  0.234303  0.014091  1
  O  O51  1  0.741372  0.016374  0.487867  1
  O  O52  1  0.983755  0.012736  0.238458  1
  O  O53  1  0.968590  0.242008  0.254881  1
  O  O54  1  0.972908  0.504974  0.251135  1
  O  O55  1  0.969103  0.742966  0.249894  1
