# generated using pymatgen
data_Ce10Se19
_symmetry_space_group_name_H-M   'P 1'
_cell_length_a   9.39427308
_cell_length_b   9.39427308
_cell_length_c   16.66787630
_cell_angle_alpha   90.00000000
_cell_angle_beta   90.00000000
_cell_angle_gamma   90.00000000
_symmetry_Int_Tables_number   1
_chemical_formula_structural   Ce10Se19
_chemical_formula_sum   'Ce20 Se38'
_cell_volume   1470.97953136
_cell_formula_units_Z   2
loop_
 _symmetry_equiv_pos_site_id
 _symmetry_equiv_pos_as_xyz
  1  'x, y, z'
loop_
 _atom_site_type_symbol
 _atom_site_label
 _atom_site_symmetry_multiplicity
 _atom_site_fract_x
 _atom_site_fract_y
 _atom_site_fract_z
 _atom_site_occupancy
  Ce  Ce0  1  0.250000  0.750000  0.381078  1
  Ce  Ce1  1  0.448437  0.147083  0.392338  1
  Ce  Ce2  1  0.250000  0.750000  0.881078  1
  Ce  Ce3  1  0.750000  0.250000  0.118922  1
  Ce  Ce4  1  0.352917  0.448437  0.107662  1
  Ce  Ce5  1  0.457090  0.150952  0.880054  1
  Ce  Ce6  1  0.849048  0.957090  0.380054  1
  Ce  Ce7  1  0.051563  0.352917  0.392338  1
  Ce  Ce8  1  0.349048  0.457090  0.619946  1
  Ce  Ce9  1  0.551563  0.852917  0.607662  1
  Ce  Ce10  1  0.150952  0.042910  0.619946  1
  Ce  Ce11  1  0.042910  0.349048  0.880054  1
  Ce  Ce12  1  0.948437  0.647083  0.607662  1
  Ce  Ce13  1  0.852917  0.948437  0.892338  1
  Ce  Ce14  1  0.650952  0.542910  0.380054  1
  Ce  Ce15  1  0.957090  0.650952  0.119946  1
  Ce  Ce16  1  0.750000  0.250000  0.618922  1
  Ce  Ce17  1  0.542910  0.849048  0.119946  1
  Ce  Ce18  1  0.147083  0.051563  0.107662  1
  Ce  Ce19  1  0.647083  0.551563  0.892338  1
  Se  Se20  1  0.941411  0.130781  0.750096  1
  Se  Se21  1  0.750000  0.250000  0.934161  1
  Se  Se22  1  0.025657  0.828622  0.749789  1
  Se  Se23  1  0.474343  0.671378  0.749789  1
  Se  Se24  1  0.058589  0.869219  0.249904  1
  Se  Se25  1  0.369219  0.941411  0.749904  1
  Se  Se26  1  0.828622  0.474343  0.750211  1
  Se  Se27  1  0.250000  0.750000  0.565839  1
  Se  Se28  1  0.649938  0.553524  0.565146  1
  Se  Se29  1  0.250000  0.750000  0.065839  1
  Se  Se30  1  0.671378  0.025657  0.750211  1
  Se  Se31  1  0.869219  0.441411  0.250096  1
  Se  Se32  1  0.053524  0.350062  0.065146  1
  Se  Se33  1  0.974343  0.171378  0.250211  1
  Se  Se34  1  0.152100  0.048792  0.927371  1
  Se  Se35  1  0.951208  0.652100  0.427371  1
  Se  Se36  1  0.328622  0.974343  0.249789  1
  Se  Se37  1  0.548792  0.847900  0.427371  1
  Se  Se38  1  0.347900  0.451208  0.927371  1
  Se  Se39  1  0.130781  0.558589  0.749904  1
  Se  Se40  1  0.525657  0.328622  0.250211  1
  Se  Se41  1  0.048792  0.347900  0.572629  1
  Se  Se42  1  0.350062  0.446476  0.434854  1
  Se  Se43  1  0.847900  0.951208  0.072629  1
  Se  Se44  1  0.441411  0.630781  0.249904  1
  Se  Se45  1  0.250000  0.250000  0.750000  1
  Se  Se46  1  0.558589  0.369219  0.750096  1
  Se  Se47  1  0.451208  0.152100  0.572629  1
  Se  Se48  1  0.171378  0.525657  0.249789  1
  Se  Se49  1  0.946476  0.649938  0.934854  1
  Se  Se50  1  0.630781  0.058589  0.250096  1
  Se  Se51  1  0.652100  0.548792  0.072629  1
  Se  Se52  1  0.446476  0.149938  0.065146  1
  Se  Se53  1  0.553524  0.850062  0.934854  1
  Se  Se54  1  0.850062  0.946476  0.565146  1
  Se  Se55  1  0.149938  0.053524  0.434854  1
  Se  Se56  1  0.750000  0.250000  0.434161  1
  Se  Se57  1  0.750000  0.750000  0.250000  1
