# generated using pymatgen
data_Na12B26O45
_symmetry_space_group_name_H-M   'P 1'
_cell_length_a   9.64026865
_cell_length_b   10.74742573
_cell_length_c   18.32923563
_cell_angle_alpha   106.94742132
_cell_angle_beta   105.25088317
_cell_angle_gamma   90.05721963
_symmetry_Int_Tables_number   1
_chemical_formula_structural   Na12B26O45
_chemical_formula_sum   'Na24 B52 O90'
_cell_volume   1746.39292418
_cell_formula_units_Z   2
loop_
 _symmetry_equiv_pos_site_id
 _symmetry_equiv_pos_as_xyz
  1  'x, y, z'
loop_
 _atom_site_type_symbol
 _atom_site_label
 _atom_site_symmetry_multiplicity
 _atom_site_fract_x
 _atom_site_fract_y
 _atom_site_fract_z
 _atom_site_occupancy
  Na  Na0  1  0.389212  0.313242  0.910641  1
  Na  Na1  1  0.716255  0.323588  0.751213  1
  Na  Na2  1  0.588298  0.835239  0.407097  1
  Na  Na3  1  0.304091  0.196099  0.398601  1
  Na  Na4  1  0.034442  0.826134  0.751881  1
  Na  Na5  1  0.818009  0.335385  0.405303  1
  Na  Na6  1  0.698250  0.798745  0.600155  1
  Na  Na7  1  0.036068  0.225097  0.910764  1
  Na  Na8  1  0.502589  0.301844  0.255273  1
  Na  Na9  1  0.962703  0.309336  0.088356  1
  Na  Na10  1  0.498441  0.044163  0.745600  1
  Na  Na11  1  0.478414  0.902440  0.089171  1
  Na  Na12  1  0.278687  0.573889  0.247585  1
  Na  Na13  1  0.094320  0.697761  0.400971  1
  Na  Na14  1  0.522726  0.809157  0.910850  1
  Na  Na15  1  0.749057  0.799818  0.255502  1
  Na  Na16  1  0.872976  0.724024  0.911049  1
  Na  Na17  1  0.906987  0.297791  0.600011  1
  Na  Na18  1  0.249059  0.545921  0.746774  1
  Na  Na19  1  0.963138  0.071222  0.247497  1
  Na  Na20  1  0.408077  0.425602  0.593885  1
  Na  Na21  1  0.182502  0.926894  0.592278  1
  Na  Na22  1  0.608130  0.401617  0.090845  1
  Na  Na23  1  0.125632  0.814642  0.089001  1
  B  B24  1  0.920544  0.014590  0.047186  1
  B  B25  1  0.604487  0.229029  0.540172  1
  B  B26  1  0.790905  0.855319  0.088421  1
  B  B27  1  0.567443  0.037557  0.308883  1
  B  B28  1  0.430569  0.161092  0.605220  1
  B  B29  1  0.105953  0.433976  0.534275  1
  B  B30  1  0.580832  0.586531  0.765113  1
  B  B31  1  0.892770  0.898294  0.464715  1
  B  B32  1  0.689924  0.793591  0.771243  1
  B  B33  1  0.061358  0.190407  0.459320  1
  B  B34  1  0.816360  0.321647  0.234941  1
  B  B35  1  0.428616  0.932987  0.534478  1
  B  B36  1  0.417565  0.820975  0.235095  1
  B  B37  1  0.185223  0.088042  0.766032  1
  B  B38  1  0.660958  0.071578  0.611817  1
  B  B39  1  0.339565  0.460361  0.388988  1
  B  B40  1  0.269822  0.152248  0.129369  1
  B  B41  1  0.741113  0.538014  0.308866  1
  B  B42  1  0.920447  0.088923  0.697837  1
  B  B43  1  0.776199  0.587835  0.696367  1
  B  B44  1  0.080449  0.391491  0.303850  1
  B  B45  1  0.639691  0.118134  0.986202  1
  B  B46  1  0.380329  0.599395  0.123316  1
  B  B47  1  0.872054  0.468113  0.952054  1
  B  B48  1  0.432490  0.730347  0.691653  1
  B  B49  1  0.259409  0.976102  0.876793  1
  B  B50  1  0.617206  0.475977  0.876755  1
  B  B51  1  0.175596  0.661183  0.605224  1
  B  B52  1  0.704165  0.266652  0.912017  1
  B  B53  1  0.951270  0.571822  0.611484  1
  B  B54  1  0.569177  0.556148  0.394551  1
  B  B55  1  0.295513  0.354858  0.087634  1
  B  B56  1  0.258815  0.229514  0.691256  1
  B  B57  1  0.347639  0.619858  0.986835  1
  B  B58  1  0.360944  0.132422  0.013657  1
  B  B59  1  0.731921  0.022454  0.870965  1
  B  B60  1  0.919673  0.521969  0.228835  1
  B  B61  1  0.079695  0.968898  0.952363  1
  B  B62  1  0.742342  0.099380  0.123369  1
  B  B63  1  0.397470  0.689037  0.459991  1
  B  B64  1  0.082050  0.294616  0.771570  1
  B  B65  1  0.572332  0.397769  0.464892  1
  B  B66  1  0.222271  0.890446  0.303570  1
  B  B67  1  0.140324  0.524311  0.871170  1
  B  B68  1  0.825013  0.056477  0.394252  1
  B  B69  1  0.937557  0.728142  0.539099  1
  B  B70  1  0.858438  0.652720  0.129642  1
  B  B71  1  0.310101  0.022247  0.229550  1
  B  B72  1  0.650977  0.633563  0.014159  1
  B  B73  1  0.208437  0.768531  0.913015  1
  B  B74  1  0.048606  0.960821  0.388665  1
  B  B75  1  0.126044  0.515514  0.047119  1
  O  O76  1  0.655399  0.713456  0.817166  1
  O  O77  1  0.323981  0.803736  0.288157  1
  O  O78  1  0.949949  0.595778  0.178393  1
  O  O79  1  0.917925  0.175103  0.455025  1
  O  O80  1  0.877477  0.784620  0.141806  1
  O  O81  1  0.890827  0.887398  0.043449  1
  O  O82  1  0.696673  0.107753  0.353060  1
  O  O83  1  0.265568  0.002393  0.805021  1
  O  O84  1  0.555168  0.902652  0.290469  1
  O  O85  1  0.786663  0.024045  0.657336  1
  O  O86  1  0.604484  0.333150  0.865364  1
  O  O87  1  0.870697  0.523723  0.656741  1
  O  O88  1  0.962120  0.305797  0.289311  1
  O  O89  1  0.737031  0.197167  0.195312  1
  O  O90  1  0.353618  0.811192  0.493514  1
  O  O91  1  0.138925  0.312023  0.492753  1
  O  O92  1  0.330754  0.740306  0.974284  1
  O  O93  1  0.293083  0.588011  0.428479  1
  O  O94  1  0.998890  0.045993  0.999466  1
  O  O95  1  0.133780  0.089279  0.427695  1
  O  O96  1  0.151424  0.388274  0.043107  1
  O  O97  1  0.561544  0.553608  0.944392  1
  O  O98  1  0.129346  0.867060  0.344345  1
  O  O99  1  0.782168  0.723772  0.720044  1
  O  O100  1  0.081395  0.718353  0.543969  1
  O  O101  1  0.619218  0.107638  0.055658  1
  O  O102  1  0.708290  0.160077  0.572446  1
  O  O103  1  0.536573  0.673889  0.455811  1
  O  O104  1  0.739081  0.142449  0.859102  1
  O  O105  1  0.539233  0.501533  0.804554  1
  O  O106  1  0.219714  0.619258  0.097078  1
  O  O107  1  0.213855  0.366913  0.344320  1
  O  O108  1  0.674216  0.008132  0.931245  1
  O  O109  1  0.937527  0.224865  0.722013  1
  O  O110  1  0.026029  0.903859  0.451950  1
  O  O111  1  0.344734  0.897015  0.183178  1
  O  O112  1  0.644159  0.238301  0.973562  1
  O  O113  1  0.878342  0.117995  0.098134  1
  O  O114  1  0.214737  0.001770  0.278724  1
  O  O115  1  0.773692  0.916504  0.821945  1
  O  O116  1  0.907224  0.982724  0.340586  1
  O  O117  1  0.093098  0.641898  0.659094  1
  O  O118  1  0.382321  0.052273  0.944781  1
  O  O119  1  0.109442  0.846277  0.957433  1
  O  O120  1  0.732641  0.402906  0.289416  1
  O  O121  1  0.120191  0.644927  0.860071  1
  O  O122  1  0.437561  0.608779  0.056211  1
  O  O123  1  0.838658  0.396518  0.182858  1
  O  O124  1  0.258553  0.510317  0.931471  1
  O  O125  1  0.432364  0.483694  0.340831  1
  O  O126  1  0.426063  0.402114  0.451680  1
  O  O127  1  0.740022  0.968766  0.135139  1
  O  O128  1  0.658352  0.608502  0.354194  1
  O  O129  1  0.123130  0.021353  0.901735  1
  O  O130  1  0.457723  0.696452  0.195704  1
  O  O131  1  0.865416  0.659615  0.571460  1
  O  O132  1  0.647395  0.316084  0.505510  1
  O  O133  1  0.324267  0.076925  0.068030  1
  O  O134  1  0.836332  0.603343  0.283992  1
  O  O135  1  0.038097  0.018045  0.713369  1
  O  O136  1  0.064255  0.501915  0.278273  1
  O  O137  1  0.465380  0.219334  0.545294  1
  O  O138  1  0.229878  0.096776  0.179554  1
  O  O139  1  0.998995  0.546223  0.999511  1
  O  O140  1  0.667562  0.766618  0.027362  1
  O  O141  1  0.786278  0.970081  0.437301  1
  O  O142  1  0.650902  0.469105  0.436894  1
  O  O143  1  0.973726  0.451374  0.548237  1
  O  O144  1  0.575111  0.950678  0.548564  1
  O  O145  1  0.741035  0.578445  0.068938  1
  O  O146  1  0.266920  0.114004  0.710528  1
  O  O147  1  0.349089  0.032033  0.561583  1
  O  O148  1  0.443851  0.613590  0.710018  1
  O  O149  1  0.859232  0.815537  0.504623  1
  O  O150  1  0.393285  0.468419  0.134852  1
  O  O151  1  0.550824  0.822112  0.717973  1
  O  O152  1  0.566188  0.140809  0.659262  1
  O  O153  1  0.777712  0.521219  0.901900  1
  O  O154  1  0.213715  0.532172  0.562377  1
  O  O155  1  0.260287  0.833637  0.865446  1
  O  O156  1  0.358054  0.265661  0.026891  1
  O  O157  1  0.674472  0.516349  0.712284  1
  O  O158  1  0.304054  0.754410  0.645353  1
  O  O159  1  0.448267  0.103718  0.284762  1
  O  O160  1  0.848157  0.344618  0.955774  1
  O  O161  1  0.166057  0.321239  0.716762  1
  O  O162  1  0.341162  0.253526  0.644955  1
  O  O163  1  0.163486  0.215504  0.817904  1
  O  O164  1  0.050552  0.418625  0.821629  1
  O  O165  1  0.261821  0.283572  0.140650  1
