# generated using pymatgen
data_Rb2Cd2(SO4)3
_symmetry_space_group_name_H-M   'P 1'
_cell_length_a   10.59517809
_cell_length_b   10.59517809
_cell_length_c   10.59517809
_cell_angle_alpha   90.00000000
_cell_angle_beta   90.00000000
_cell_angle_gamma   90.00000000
_symmetry_Int_Tables_number   1
_chemical_formula_structural   Rb2Cd2(SO4)3
_chemical_formula_sum   'Rb8 Cd8 S12 O48'
_cell_volume   1189.39136984
_cell_formula_units_Z   4
loop_
 _symmetry_equiv_pos_site_id
 _symmetry_equiv_pos_as_xyz
  1  'x, y, z'
loop_
 _atom_site_type_symbol
 _atom_site_label
 _atom_site_symmetry_multiplicity
 _atom_site_fract_x
 _atom_site_fract_y
 _atom_site_fract_z
 _atom_site_occupancy
  O  O0  1  0.336609  0.003505  0.103796  1
  O  O1  1  0.836609  0.496495  0.896204  1
  O  O2  1  0.663391  0.503505  0.396204  1
  O  O3  1  0.496495  0.896204  0.836609  1
  O  O4  1  0.396204  0.663391  0.503505  1
  O  O5  1  0.896204  0.836609  0.496495  1
  O  O6  1  0.003505  0.103796  0.336609  1
  O  O7  1  0.103796  0.336609  0.003505  1
  O  O8  1  0.503505  0.396204  0.663391  1
  O  O9  1  0.996495  0.603796  0.163391  1
  O  O10  1  0.603796  0.163391  0.996495  1
  O  O11  1  0.163391  0.996495  0.603796  1
  O  O12  1  0.261742  0.994062  0.318998  1
  O  O13  1  0.761742  0.505938  0.681002  1
  O  O14  1  0.738258  0.494062  0.181002  1
  O  O15  1  0.505938  0.681002  0.761742  1
  O  O16  1  0.181002  0.738258  0.494062  1
  O  O17  1  0.681002  0.761742  0.505938  1
  O  O18  1  0.252253  0.576439  0.344161  1
  O  O19  1  0.994062  0.318998  0.261742  1
  O  O20  1  0.494062  0.181002  0.738258  1
  O  O21  1  0.005938  0.818998  0.238258  1
  O  O22  1  0.818998  0.238258  0.005938  1
  O  O23  1  0.238258  0.005938  0.818998  1
  O  O24  1  0.423561  0.844161  0.247747  1
  O  O25  1  0.923561  0.655839  0.752253  1
  O  O26  1  0.576439  0.344161  0.252253  1
  O  O27  1  0.655839  0.752253  0.923561  1
  O  O28  1  0.026546  0.934923  0.780311  1
  O  O29  1  0.780311  0.026546  0.934923  1
  O  O30  1  0.934923  0.780311  0.026546  1
  O  O31  1  0.565077  0.219689  0.526546  1
  O  O32  1  0.280311  0.473454  0.065077  1
  O  O33  1  0.065077  0.280311  0.473454  1
  O  O34  1  0.719689  0.973454  0.434923  1
  O  O35  1  0.219689  0.526546  0.565077  1
  O  O36  1  0.434923  0.719689  0.973454  1
  O  O37  1  0.526546  0.565077  0.219689  1
  O  O38  1  0.973454  0.434923  0.719689  1
  O  O39  1  0.473454  0.065077  0.280311  1
  O  O40  1  0.076439  0.155839  0.747747  1
  O  O41  1  0.747747  0.076439  0.155839  1
  O  O42  1  0.155839  0.747747  0.076439  1
  O  O43  1  0.344161  0.252253  0.576439  1
  O  O44  1  0.247747  0.423561  0.844161  1
  O  O45  1  0.844161  0.247747  0.423561  1
  O  O46  1  0.752253  0.923561  0.655839  1
  O  O47  1  0.318998  0.261742  0.994062  1
  S  S48  1  0.374326  0.976338  0.236399  1
  S  S49  1  0.874326  0.523662  0.763601  1
  S  S50  1  0.625674  0.476338  0.263601  1
  S  S51  1  0.523662  0.763601  0.874326  1
  S  S52  1  0.263601  0.625674  0.476338  1
  S  S53  1  0.763601  0.874326  0.523662  1
  S  S54  1  0.976338  0.236399  0.374326  1
  S  S55  1  0.236399  0.374326  0.976338  1
  S  S56  1  0.476338  0.263601  0.625674  1
  S  S57  1  0.125674  0.023662  0.736399  1
  S  S58  1  0.736399  0.125674  0.023662  1
  S  S59  1  0.023662  0.736399  0.125674  1
  Rb  Rb60  1  0.437760  0.937760  0.562240  1
  Rb  Rb61  1  0.562240  0.437760  0.937760  1
  Rb  Rb62  1  0.698496  0.801504  0.198496  1
  Rb  Rb63  1  0.937760  0.562240  0.437760  1
  Rb  Rb64  1  0.301504  0.301504  0.301504  1
  Rb  Rb65  1  0.198496  0.698496  0.801504  1
  Rb  Rb66  1  0.801504  0.198496  0.698496  1
  Rb  Rb67  1  0.062240  0.062240  0.062240  1
  Cd  Cd68  1  0.418910  0.081090  0.918910  1
  Cd  Cd69  1  0.918910  0.418910  0.081090  1
  Cd  Cd70  1  0.081090  0.918910  0.418910  1
  Cd  Cd71  1  0.581090  0.581090  0.581090  1
  Cd  Cd72  1  0.164329  0.335671  0.664329  1
  Cd  Cd73  1  0.335671  0.664329  0.164329  1
  Cd  Cd74  1  0.835671  0.835671  0.835671  1
  Cd  Cd75  1  0.664329  0.164329  0.335671  1
