# generated using pymatgen
data_Cs3(FeS2)2
_symmetry_space_group_name_H-M   'P 1'
_cell_length_a   7.62960407
_cell_length_b   11.13846626
_cell_length_c   13.11640526
_cell_angle_alpha   90.00000000
_cell_angle_beta   90.00000000
_cell_angle_gamma   90.00000000
_symmetry_Int_Tables_number   1
_chemical_formula_structural   Cs3(FeS2)2
_chemical_formula_sum   'Cs12 Fe8 S16'
_cell_volume   1114.65949963
_cell_formula_units_Z   4
loop_
 _symmetry_equiv_pos_site_id
 _symmetry_equiv_pos_as_xyz
  1  'x, y, z'
loop_
 _atom_site_type_symbol
 _atom_site_label
 _atom_site_symmetry_multiplicity
 _atom_site_fract_x
 _atom_site_fract_y
 _atom_site_fract_z
 _atom_site_occupancy
  Cs  Cs0  1  0.988408  0.750000  0.053167  1
  Cs  Cs1  1  0.108027  0.029871  0.211885  1
  Cs  Cs2  1  0.511592  0.250000  0.553167  1
  Cs  Cs3  1  0.011592  0.250000  0.946833  1
  Cs  Cs4  1  0.608027  0.470129  0.288115  1
  Cs  Cs5  1  0.891973  0.529871  0.788115  1
  Cs  Cs6  1  0.891973  0.970129  0.788115  1
  Cs  Cs7  1  0.391973  0.529871  0.711885  1
  Cs  Cs8  1  0.391973  0.970129  0.711885  1
  Cs  Cs9  1  0.108027  0.470129  0.211885  1
  Cs  Cs10  1  0.488408  0.750000  0.446833  1
  Cs  Cs11  1  0.608027  0.029871  0.288115  1
  Fe  Fe12  1  0.990532  0.372375  0.506861  1
  Fe  Fe13  1  0.509468  0.872375  0.006861  1
  Fe  Fe14  1  0.490532  0.127625  0.993139  1
  Fe  Fe15  1  0.009468  0.872375  0.493139  1
  Fe  Fe16  1  0.490532  0.372375  0.993139  1
  Fe  Fe17  1  0.009468  0.627625  0.493139  1
  Fe  Fe18  1  0.990532  0.127625  0.506861  1
  Fe  Fe19  1  0.509468  0.627625  0.006861  1
  S  S20  1  0.044524  0.250000  0.642659  1
  S  S21  1  0.594632  0.750000  0.876663  1
  S  S22  1  0.725765  0.489119  0.036960  1
  S  S23  1  0.455476  0.750000  0.142659  1
  S  S24  1  0.725765  0.010881  0.036960  1
  S  S25  1  0.905368  0.250000  0.376663  1
  S  S26  1  0.225765  0.010881  0.463040  1
  S  S27  1  0.544524  0.250000  0.857341  1
  S  S28  1  0.225765  0.489119  0.463040  1
  S  S29  1  0.774235  0.510881  0.536960  1
  S  S30  1  0.955476  0.750000  0.357341  1
  S  S31  1  0.405368  0.250000  0.123337  1
  S  S32  1  0.274235  0.989119  0.963040  1
  S  S33  1  0.774235  0.989119  0.536960  1
  S  S34  1  0.094632  0.750000  0.623337  1
  S  S35  1  0.274235  0.510881  0.963040  1
