# generated using pymatgen
data_DyH6C6Cl3(O3F2)3
_symmetry_space_group_name_H-M   'P 1'
_cell_length_a   9.57495098
_cell_length_b   10.52773004
_cell_length_c   20.00599870
_cell_angle_alpha   90.00000000
_cell_angle_beta   90.00000000
_cell_angle_gamma   114.48710102
_symmetry_Int_Tables_number   1
_chemical_formula_structural   DyH6C6Cl3(O3F2)3
_chemical_formula_sum   'Dy4 H24 C24 Cl12 O36 F24'
_cell_volume   1835.26587097
_cell_formula_units_Z   4
loop_
 _symmetry_equiv_pos_site_id
 _symmetry_equiv_pos_as_xyz
  1  'x, y, z'
loop_
 _atom_site_type_symbol
 _atom_site_label
 _atom_site_symmetry_multiplicity
 _atom_site_fract_x
 _atom_site_fract_y
 _atom_site_fract_z
 _atom_site_occupancy
  Dy  Dy0  1  0.703708  0.027040  0.929885  1
  Dy  Dy1  1  0.296292  0.972960  0.070115  1
  Dy  Dy2  1  0.703708  0.527040  0.570115  1
  Dy  Dy3  1  0.296292  0.472960  0.429885  1
  H  H4  1  0.947803  0.813392  0.060864  1
  H  H5  1  0.124268  0.667145  0.109602  1
  H  H6  1  0.004404  0.336794  0.514010  1
  H  H7  1  0.410682  0.966823  0.209808  1
  H  H8  1  0.849465  0.264141  0.818946  1
  H  H9  1  0.849465  0.764141  0.681054  1
  H  H10  1  0.052197  0.186608  0.939136  1
  H  H11  1  0.150535  0.735859  0.181054  1
  H  H12  1  0.676629  0.428157  0.711835  1
  H  H13  1  0.947803  0.313392  0.439136  1
  H  H14  1  0.875732  0.332855  0.890398  1
  H  H15  1  0.323371  0.071843  0.211835  1
  H  H16  1  0.124268  0.167145  0.390398  1
  H  H17  1  0.150535  0.235859  0.318946  1
  H  H18  1  0.052197  0.686608  0.560864  1
  H  H19  1  0.995596  0.663206  0.485990  1
  H  H20  1  0.875732  0.832855  0.609602  1
  H  H21  1  0.589318  0.533177  0.709808  1
  H  H22  1  0.410682  0.466823  0.290192  1
  H  H23  1  0.589318  0.033177  0.790192  1
  H  H24  1  0.995596  0.163206  0.014010  1
  H  H25  1  0.323371  0.571843  0.288165  1
  H  H26  1  0.004404  0.836794  0.985990  1
  H  H27  1  0.676629  0.928157  0.788165  1
  C  C28  1  0.840836  0.335745  0.668447  1
  C  C29  1  0.277618  0.593521  0.939916  1
  C  C30  1  0.638381  0.248964  0.040565  1
  C  C31  1  0.631633  0.908384  0.082987  1
  C  C32  1  0.361619  0.251036  0.540565  1
  C  C33  1  0.638381  0.748964  0.459435  1
  C  C34  1  0.840836  0.835745  0.831553  1
  C  C35  1  0.361619  0.751036  0.959435  1
  C  C36  1  0.331107  0.154755  0.852496  1
  C  C37  1  0.159164  0.164255  0.168447  1
  C  C38  1  0.063242  0.253233  0.163275  1
  C  C39  1  0.936758  0.246767  0.663275  1
  C  C40  1  0.368368  0.591616  0.582987  1
  C  C41  1  0.631633  0.408384  0.417013  1
  C  C42  1  0.722382  0.906479  0.439916  1
  C  C43  1  0.668893  0.345245  0.352496  1
  C  C44  1  0.936758  0.746767  0.836725  1
  C  C45  1  0.331107  0.654755  0.647504  1
  C  C46  1  0.722382  0.406479  0.060084  1
  C  C47  1  0.159164  0.664255  0.331553  1
  C  C48  1  0.668893  0.845245  0.147504  1
  C  C49  1  0.063242  0.753233  0.336725  1
  C  C50  1  0.277618  0.093521  0.560084  1
  C  C51  1  0.368368  0.091616  0.917013  1
  Cl  Cl52  1  0.807004  0.571992  0.855631  1
  Cl  Cl53  1  0.266060  0.069743  0.647845  1
  Cl  Cl54  1  0.733940  0.430257  0.147845  1
  Cl  Cl55  1  0.542009  0.166528  0.345387  1
  Cl  Cl56  1  0.457991  0.333472  0.845387  1
  Cl  Cl57  1  0.457991  0.833472  0.654613  1
  Cl  Cl58  1  0.192996  0.928008  0.355631  1
  Cl  Cl59  1  0.807004  0.071992  0.644369  1
  Cl  Cl60  1  0.542009  0.666528  0.154613  1
  Cl  Cl61  1  0.733940  0.930257  0.352155  1
  Cl  Cl62  1  0.192996  0.428008  0.144369  1
  Cl  Cl63  1  0.266060  0.569743  0.852155  1
  O  O64  1  0.640902  0.487923  0.683912  1
  O  O65  1  0.359098  0.012077  0.183912  1
  O  O66  1  0.495445  0.311966  0.562868  1
  O  O67  1  0.504555  0.688034  0.437132  1
  O  O68  1  0.714593  0.703888  0.496241  1
  O  O69  1  0.787053  0.838479  0.774440  1
  O  O70  1  0.276325  0.069066  0.965151  1
  O  O71  1  0.504555  0.188034  0.062868  1
  O  O72  1  0.511997  0.928884  0.086901  1
  O  O73  1  0.212947  0.161521  0.225560  1
  O  O74  1  0.488003  0.071116  0.913099  1
  O  O75  1  0.176011  0.110738  0.114208  1
  O  O76  1  0.511997  0.428884  0.413099  1
  O  O77  1  0.176011  0.610738  0.385792  1
  O  O78  1  0.723675  0.930934  0.034849  1
  O  O79  1  0.964647  0.637016  0.532026  1
  O  O80  1  0.035353  0.362984  0.467974  1
  O  O81  1  0.149684  0.755241  0.133164  1
  O  O82  1  0.850316  0.244759  0.866836  1
  O  O83  1  0.359098  0.512077  0.316088  1
  O  O84  1  0.714593  0.203888  0.003759  1
  O  O85  1  0.285407  0.796112  0.996241  1
  O  O86  1  0.723675  0.430934  0.465151  1
  O  O87  1  0.035353  0.862984  0.032026  1
  O  O88  1  0.850316  0.744759  0.633164  1
  O  O89  1  0.285407  0.296112  0.503759  1
  O  O90  1  0.787053  0.338479  0.725560  1
  O  O91  1  0.488003  0.571116  0.586901  1
  O  O92  1  0.823989  0.389262  0.614208  1
  O  O93  1  0.276325  0.569066  0.534849  1
  O  O94  1  0.823989  0.889262  0.885792  1
  O  O95  1  0.964647  0.137016  0.967974  1
  O  O96  1  0.149684  0.255241  0.366836  1
  O  O97  1  0.212947  0.661521  0.274440  1
  O  O98  1  0.640902  0.987923  0.816088  1
  O  O99  1  0.495445  0.811966  0.937132  1
  F  F100  1  0.652667  0.916600  0.202298  1
  F  F101  1  0.046830  0.793494  0.885604  1
  F  F102  1  0.183507  0.143235  0.851131  1
  F  F103  1  0.132345  0.035100  0.534374  1
  F  F104  1  0.953170  0.706506  0.385604  1
  F  F105  1  0.355178  0.021925  0.532571  1
  F  F106  1  0.347333  0.083400  0.797702  1
  F  F107  1  0.988056  0.751319  0.278528  1
  F  F108  1  0.132345  0.535100  0.965626  1
  F  F109  1  0.816493  0.356765  0.351131  1
  F  F110  1  0.347333  0.583400  0.702298  1
  F  F111  1  0.644822  0.978075  0.467429  1
  F  F112  1  0.644822  0.478075  0.032571  1
  F  F113  1  0.953170  0.206506  0.114396  1
  F  F114  1  0.046830  0.293494  0.614396  1
  F  F115  1  0.867655  0.964900  0.465626  1
  F  F116  1  0.355178  0.521925  0.967429  1
  F  F117  1  0.816493  0.856765  0.148869  1
  F  F118  1  0.652667  0.416600  0.297702  1
  F  F119  1  0.011944  0.748681  0.778528  1
  F  F120  1  0.183507  0.643235  0.648869  1
  F  F121  1  0.867655  0.464900  0.034374  1
  F  F122  1  0.011944  0.248681  0.721472  1
  F  F123  1  0.988056  0.251319  0.221472  1
