# generated using pymatgen
data_Ba(H8O5)2
_symmetry_space_group_name_H-M   'P 1'
_cell_length_a   6.43959735
_cell_length_b   6.37666868
_cell_length_c   11.88136578
_cell_angle_alpha   91.37994634
_cell_angle_beta   92.78252286
_cell_angle_gamma   90.52122831
_symmetry_Int_Tables_number   1
_chemical_formula_structural   Ba(H8O5)2
_chemical_formula_sum   'Ba2 H32 O20'
_cell_volume   487.14434557
_cell_formula_units_Z   2
loop_
 _symmetry_equiv_pos_site_id
 _symmetry_equiv_pos_as_xyz
  1  'x, y, z'
loop_
 _atom_site_type_symbol
 _atom_site_label
 _atom_site_symmetry_multiplicity
 _atom_site_fract_x
 _atom_site_fract_y
 _atom_site_fract_z
 _atom_site_occupancy
  Ba  Ba0  1  0.004947  0.002774  0.506044  1
  Ba  Ba1  1  0.999619  0.002254  0.992701  1
  H  H2  1  0.267021  0.386728  0.386806  1
  H  H3  1  0.032551  0.453517  0.380276  1
  H  H4  1  0.847265  0.675834  0.290120  1
  H  H5  1  0.701529  0.604324  0.392775  1
  H  H6  1  0.612276  0.283931  0.387627  1
  H  H7  1  0.533208  0.051267  0.368815  1
  H  H8  1  0.392693  0.728370  0.397172  1
  H  H9  1  0.280725  0.832935  0.289102  1
  H  H10  1  0.777490  0.280835  0.785105  1
  H  H11  1  0.708726  0.400545  0.897502  1
  H  H12  1  0.272561  0.603672  0.900840  1
  H  H13  1  0.042288  0.541039  0.859117  1
  H  H14  1  0.391027  0.281748  0.901364  1
  H  H15  1  0.279216  0.222315  0.783733  1
  H  H16  1  0.590042  0.723688  0.903675  1
  H  H17  1  0.538082  0.953768  0.857663  1
  H  H18  1  0.738751  0.598872  0.599251  1
  H  H19  1  0.850385  0.695255  0.711954  1
  H  H20  1  0.292303  0.399774  0.602989  1
  H  H21  1  0.070752  0.444484  0.648737  1
  H  H22  1  0.324640  0.820417  0.714548  1
  H  H23  1  0.422441  0.722613  0.604886  1
  H  H24  1  0.616530  0.290585  0.603234  1
  H  H25  1  0.571680  0.061669  0.648050  1
  H  H26  1  0.288867  0.616926  0.109804  1
  H  H27  1  0.058972  0.557631  0.136910  1
  H  H28  1  0.733908  0.401878  0.112588  1
  H  H29  1  0.880809  0.291298  0.209879  1
  H  H30  1  0.669853  0.897462  0.215311  1
  H  H31  1  0.609660  0.718166  0.112900  1
  H  H32  1  0.398046  0.284697  0.111801  1
  H  H33  1  0.463581  0.048793  0.118682  1
  O  O34  1  0.500081  0.521942  0.427924  1
  O  O35  1  0.505422  0.502341  0.951769  1
  O  O36  1  0.515000  0.514293  0.553400  1
  O  O37  1  0.522753  0.511360  0.077560  1
  O  O38  1  0.122868  0.329236  0.373215  1
  O  O39  1  0.849222  0.661166  0.371629  1
  O  O40  1  0.662253  0.139552  0.369110  1
  O  O41  1  0.332046  0.866911  0.367189  1
  O  O42  1  0.833308  0.336994  0.859419  1
  O  O43  1  0.142147  0.660702  0.863063  1
  O  O44  1  0.324125  0.159442  0.856198  1
  O  O45  1  0.650720  0.850428  0.866028  1
  O  O46  1  0.877549  0.656968  0.633659  1
  O  O47  1  0.176563  0.332563  0.643628  1
  O  O48  1  0.359076  0.857124  0.638045  1
  O  O49  1  0.683178  0.169517  0.644471  1
  O  O50  1  0.155337  0.680126  0.134534  1
  O  O51  1  0.879288  0.343176  0.132669  1
  O  O52  1  0.677253  0.866505  0.134366  1
  O  O53  1  0.340460  0.139844  0.120317  1
