# generated using pymatgen
data_Cr2CoSe4
_symmetry_space_group_name_H-M   'P 1'
_cell_length_a   4.85192508
_cell_length_b   5.58760914
_cell_length_c   49.38875093
_cell_angle_alpha   121.08558738
_cell_angle_beta   103.83926851
_cell_angle_gamma   84.29036171
_symmetry_Int_Tables_number   1
_chemical_formula_structural   Cr2CoSe4
_chemical_formula_sum   'Cr16 Co8 Se32'
_cell_volume   1112.93076023
_cell_formula_units_Z   8
loop_
 _symmetry_equiv_pos_site_id
 _symmetry_equiv_pos_as_xyz
  1  'x, y, z'
loop_
 _atom_site_type_symbol
 _atom_site_label
 _atom_site_symmetry_multiplicity
 _atom_site_fract_x
 _atom_site_fract_y
 _atom_site_fract_z
 _atom_site_occupancy
  Cr  Cr0  1  0.274799  0.299206  0.942685  1
  Cr  Cr1  1  0.256416  0.290852  0.855218  1
  Cr  Cr2  1  0.671252  0.791078  0.934674  1
  Cr  Cr3  1  0.360423  0.112561  0.723543  1
  Cr  Cr4  1  0.637456  0.761083  0.772892  1
  Cr  Cr5  1  0.345798  0.207164  0.601613  1
  Cr  Cr6  1  0.625386  0.884491  0.651599  1
  Cr  Cr7  1  0.365211  0.130262  0.472494  1
  Cr  Cr8  1  0.629048  0.831805  0.523515  1
  Cr  Cr9  1  0.360503  0.236224  0.352934  1
  Cr  Cr10  1  0.639439  0.875592  0.400921  1
  Cr  Cr11  1  0.242156  0.221373  0.183683  1
  Cr  Cr12  1  0.744407  0.708833  0.269826  1
  Cr  Cr13  1  0.186533  0.260442  0.021233  1
  Cr  Cr14  1  0.687184  0.728522  0.182017  1
  Cr  Cr15  1  0.817885  0.734811  0.102971  1
  Co  Co16  1  0.962314  0.970333  0.874367  1
  Co  Co17  1  0.954808  0.004813  0.749769  1
  Co  Co18  1  0.032973  0.009410  0.626485  1
  Co  Co19  1  0.022591  0.008541  0.501409  1
  Co  Co20  1  0.042392  -0.014529  0.374980  1
  Co  Co21  1  0.043164  0.035964  0.251387  1
  Co  Co22  1  0.377054  0.292505  0.106527  1
  Co  Co23  1  0.693521  0.716595  0.021630  1
  Se  Se24  1  0.098262  0.770755  0.907134  1
  Se  Se25  1  0.435202  0.820109  0.978970  1
  Se  Se26  1  0.157860  0.891411  0.789385  1
  Se  Se27  1  0.588014  0.267209  0.903062  1
  Se  Se28  1  0.254305  0.657468  0.842683  1
  Se  Se29  1  0.158449  0.814587  0.660449  1
  Se  Se30  1  0.195745  0.883011  0.037741  1
  Se  Se31  1  0.641482  0.327775  0.779562  1
  Se  Se32  1  0.292072  0.670792  0.721756  1
  Se  Se33  1  0.171274  0.841223  0.537601  1
  Se  Se34  1  0.751098  0.123168  0.838387  1
  Se  Se35  1  0.690548  0.330022  0.654057  1
  Se  Se36  1  0.336062  0.673073  0.596338  1
  Se  Se37  1  0.168913  0.789013  0.408398  1
  Se  Se38  1  0.830666  0.203508  0.716384  1
  Se  Se39  1  0.670672  0.317200  0.528076  1
  Se  Se40  1  0.313198  0.656782  0.469753  1
  Se  Se41  1  0.252661  0.878686  0.287389  1
  Se  Se42  1  0.817260  0.144857  0.588353  1
  Se  Se43  1  0.711053  0.320630  0.403498  1
  Se  Se44  1  0.353373  0.663777  0.345205  1
  Se  Se45  1  0.785468  0.085425  0.083606  1
  Se  Se46  1  0.838897  0.175103  0.464384  1
  Se  Se47  1  0.750796  0.346752  0.283148  1
  Se  Se48  1  0.409241  0.735018  0.222470  1
  Se  Se49  1  0.885367  0.295494  0.973325  1
  Se  Se50  1  0.840553  0.105341  0.336006  1
  Se  Se51  1  0.295323  0.586810  0.085055  1
  Se  Se52  1  0.602740  0.192366  0.148718  1
  Se  Se53  1  0.896284  0.240139  0.219271  1
  Se  Se54  1  0.718028  0.406193  0.040392  1
  Se  Se55  1  0.116423  0.688370  0.151071  1
