# generated using pymatgen
data_Sb3Pd8
_symmetry_space_group_name_H-M   'P 1'
_cell_length_a   15.68701676
_cell_length_b   15.68701727
_cell_length_c   15.68701745
_cell_angle_alpha   28.80936156
_cell_angle_beta   28.80935843
_cell_angle_gamma   28.80935957
_symmetry_Int_Tables_number   1
_chemical_formula_structural   Sb3Pd8
_chemical_formula_sum   'Sb12 Pd32'
_cell_volume   792.69080396
_cell_formula_units_Z   4
loop_
 _symmetry_equiv_pos_site_id
 _symmetry_equiv_pos_as_xyz
  1  'x, y, z'
loop_
 _atom_site_type_symbol
 _atom_site_label
 _atom_site_symmetry_multiplicity
 _atom_site_fract_x
 _atom_site_fract_y
 _atom_site_fract_z
 _atom_site_occupancy
  Sb  Sb0  1  0.704808  0.911759  0.321004  1
  Sb  Sb1  1  0.911759  0.321004  0.704808  1
  Sb  Sb2  1  0.821004  0.411759  0.204808  1
  Sb  Sb3  1  0.411759  0.204808  0.821004  1
  Sb  Sb4  1  0.569912  0.569912  0.569912  1
  Sb  Sb5  1  0.069912  0.069912  0.069912  1
  Sb  Sb6  1  0.292198  0.292198  0.292198  1
  Sb  Sb7  1  0.923043  0.923043  0.923043  1
  Sb  Sb8  1  0.423043  0.423043  0.423043  1
  Sb  Sb9  1  0.792198  0.792198  0.792198  1
  Sb  Sb10  1  0.204808  0.821004  0.411759  1
  Sb  Sb11  1  0.321004  0.704808  0.911759  1
  Pd  Pd12  1  0.515057  0.223784  0.876171  1
  Pd  Pd13  1  0.052719  0.613340  0.327249  1
  Pd  Pd14  1  0.552719  0.827249  0.113340  1
  Pd  Pd15  1  0.723784  0.015057  0.376171  1
  Pd  Pd16  1  0.009896  0.009896  0.009896  1
  Pd  Pd17  1  0.095912  0.417597  0.792078  1
  Pd  Pd18  1  0.087351  0.714989  0.390486  1
  Pd  Pd19  1  0.876171  0.515057  0.223784  1
  Pd  Pd20  1  0.587351  0.890486  0.214989  1
  Pd  Pd21  1  0.236036  0.236036  0.236036  1
  Pd  Pd22  1  0.509896  0.509896  0.509896  1
  Pd  Pd23  1  0.792078  0.095912  0.417597  1
  Pd  Pd24  1  0.736036  0.736036  0.736036  1
  Pd  Pd25  1  0.390486  0.087351  0.714989  1
  Pd  Pd26  1  0.890486  0.214989  0.587351  1
  Pd  Pd27  1  0.865697  0.865697  0.865697  1
  Pd  Pd28  1  0.613340  0.327249  0.052719  1
  Pd  Pd29  1  0.417597  0.792078  0.095912  1
  Pd  Pd30  1  0.327249  0.052719  0.613340  1
  Pd  Pd31  1  0.223784  0.876171  0.515057  1
  Pd  Pd32  1  0.917597  0.595912  0.292078  1
  Pd  Pd33  1  0.113340  0.552719  0.827249  1
  Pd  Pd34  1  0.714989  0.390486  0.087351  1
  Pd  Pd35  1  0.675614  0.675614  0.675614  1
  Pd  Pd36  1  0.175614  0.175614  0.175614  1
  Pd  Pd37  1  0.376171  0.723784  0.015057  1
  Pd  Pd38  1  0.365697  0.365697  0.365697  1
  Pd  Pd39  1  0.595912  0.292078  0.917597  1
  Pd  Pd40  1  0.292078  0.917597  0.595912  1
  Pd  Pd41  1  0.214989  0.587351  0.890486  1
  Pd  Pd42  1  0.015057  0.376171  0.723784  1
  Pd  Pd43  1  0.827249  0.113340  0.552719  1
