# generated using pymatgen
data_InP3(HO5)2
_symmetry_space_group_name_H-M   'P 1'
_cell_length_a   9.02110421
_cell_length_b   9.26590224
_cell_length_c   13.42957334
_cell_angle_alpha   90.00000000
_cell_angle_beta   104.37285481
_cell_angle_gamma   90.00000000
_symmetry_Int_Tables_number   1
_chemical_formula_structural   InP3(HO5)2
_chemical_formula_sum   'In4 P12 H8 O40'
_cell_volume   1087.42501867
_cell_formula_units_Z   4
loop_
 _symmetry_equiv_pos_site_id
 _symmetry_equiv_pos_as_xyz
  1  'x, y, z'
loop_
 _atom_site_type_symbol
 _atom_site_label
 _atom_site_symmetry_multiplicity
 _atom_site_fract_x
 _atom_site_fract_y
 _atom_site_fract_z
 _atom_site_occupancy
  In  In0  1  0.701771  0.894627  0.769355  1
  In  In1  1  0.798229  0.394627  0.730645  1
  In  In2  1  0.201771  0.605373  0.269355  1
  In  In3  1  0.298229  0.105373  0.230645  1
  P  P4  1  0.245162  0.405460  0.083854  1
  P  P5  1  0.497586  0.601859  0.749731  1
  P  P6  1  0.997586  0.898141  0.249731  1
  P  P7  1  0.754838  0.594540  0.916146  1
  P  P8  1  0.745162  0.094540  0.583854  1
  P  P9  1  0.383435  0.987512  0.025103  1
  P  P10  1  0.002414  0.101859  0.750269  1
  P  P11  1  0.883435  0.512488  0.525103  1
  P  P12  1  0.502414  0.398141  0.250269  1
  P  P13  1  0.254838  0.905460  0.416146  1
  P  P14  1  0.116565  0.487512  0.474897  1
  P  P15  1  0.616565  0.012488  0.974897  1
  H  H16  1  0.147026  0.342962  0.920614  1
  H  H17  1  0.289778  0.520012  0.655696  1
  H  H18  1  0.352974  0.842962  0.579386  1
  H  H19  1  0.210222  0.020012  0.844304  1
  H  H20  1  0.852974  0.657038  0.079386  1
  H  H21  1  0.647026  0.157038  0.420614  1
  H  H22  1  0.789778  -0.020012  0.155696  1
  H  H23  1  0.710222  0.479988  0.344304  1
  O  O24  1  0.168023  0.047933  0.765576  1
  O  O25  1  0.809011  0.731588  0.873522  1
  O  O26  1  0.092276  0.988065  0.193919  1
  O  O27  1  0.672285  0.956745  0.613378  1
  O  O28  1  0.592276  0.511935  0.693919  1
  O  O29  1  0.001994  0.622595  0.488284  1
  O  O30  1  0.770468  0.003061  0.047422  1
  O  O31  1  -0.000824  0.264015  0.776554  1
  O  O32  1  0.229532  -0.003061  0.952578  1
  O  O33  1  0.407724  0.488065  0.306081  1
  O  O34  1  0.228034  0.401139  0.965152  1
  O  O35  1  0.498006  0.122595  0.011716  1
  O  O36  1  0.668023  0.452067  0.265576  1
  O  O37  1  0.611216  0.036124  0.862523  1
  O  O38  1  0.827715  0.456745  0.886622  1
  O  O39  1  0.907724  0.011935  0.806081  1
  O  O40  1  0.729532  0.503061  0.452578  1
  O  O41  1  0.111216  0.463876  0.362523  1
  O  O42  1  0.190989  0.268412  0.126478  1
  O  O43  1  0.388784  0.963876  0.137477  1
  O  O44  1  0.331977  0.547933  0.734424  1
  O  O45  1  0.888784  0.536124  0.637477  1
  O  O46  1  0.309011  0.768412  0.373522  1
  O  O47  1  0.271966  0.901139  0.534848  1
  O  O48  1  0.270468  0.496939  0.547422  1
  O  O49  1  0.499176  0.235985  0.276554  1
  O  O50  1  0.172285  0.543255  0.113378  1
  O  O51  1  0.429535  0.416959  0.126668  1
  O  O52  1  0.831977  0.952067  0.234424  1
  O  O53  1  0.690989  0.231588  0.626478  1
  O  O54  1  0.070465  0.916959  0.373332  1
  O  O55  1  0.327715  0.043255  0.386622  1
  O  O56  1  0.771966  0.598861  0.034848  1
  O  O57  1  0.000824  0.735985  0.223446  1
  O  O58  1  0.501994  0.877405  0.988284  1
  O  O59  1  0.500824  0.764015  0.723446  1
  O  O60  1  0.570465  0.583041  0.873332  1
  O  O61  1  0.728034  0.098861  0.465152  1
  O  O62  1  -0.001994  0.377405  0.511716  1
  O  O63  1  0.929535  0.083041  0.626668  1
