# generated using pymatgen
data_HoAgSe2
_symmetry_space_group_name_H-M   'P 1'
_cell_length_a   8.07006275
_cell_length_b   10.86835176
_cell_length_c   7.27507472
_cell_angle_alpha   28.88072017
_cell_angle_beta   56.26054981
_cell_angle_gamma   41.98899641
_symmetry_Int_Tables_number   1
_chemical_formula_structural   HoAgSe2
_chemical_formula_sum   'Ho2 Ag2 Se4'
_cell_volume   196.97933769
_cell_formula_units_Z   2
loop_
 _symmetry_equiv_pos_site_id
 _symmetry_equiv_pos_as_xyz
  1  'x, y, z'
loop_
 _atom_site_type_symbol
 _atom_site_label
 _atom_site_symmetry_multiplicity
 _atom_site_fract_x
 _atom_site_fract_y
 _atom_site_fract_z
 _atom_site_occupancy
  Ho  Ho0  1  -0.000582  0.994942  0.004089  1
  Ho  Ho1  1  0.751405  0.493076  0.005397  1
  Ag  Ag2  1  0.244962  0.502137  0.997421  1
  Ag  Ag3  1  0.499640  0.005523  0.997394  1
  Se  Se4  1  0.988233  0.493975  0.532057  1
  Se  Se5  1  0.513701  0.502299  0.469597  1
  Se  Se6  1  0.236215  0.995875  0.530864  1
  Se  Se7  1  0.760595  0.997815  0.473861  1
