# generated using pymatgen
data_Na2Sn(H2N)6
_symmetry_space_group_name_H-M   'P 1'
_cell_length_a   8.31919054
_cell_length_b   8.31919054
_cell_length_c   8.31919026
_cell_angle_alpha   37.56226313
_cell_angle_beta   37.56226314
_cell_angle_gamma   37.56226232
_symmetry_Int_Tables_number   1
_chemical_formula_structural   Na2Sn(H2N)6
_chemical_formula_sum   'Na2 Sn1 H12 N6'
_cell_volume   191.92125284
_cell_formula_units_Z   1
loop_
 _symmetry_equiv_pos_site_id
 _symmetry_equiv_pos_as_xyz
  1  'x, y, z'
loop_
 _atom_site_type_symbol
 _atom_site_label
 _atom_site_symmetry_multiplicity
 _atom_site_fract_x
 _atom_site_fract_y
 _atom_site_fract_z
 _atom_site_occupancy
  Na  Na0  1  0.795594  0.795594  0.795594  1
  Na  Na1  1  0.204406  0.204406  0.204406  1
  Sn  Sn2  1  0.000000  0.000000  0.000000  1
  H  H3  1  0.641470  0.459065  0.636048  1
  H  H4  1  0.459065  0.636048  0.641470  1
  H  H5  1  0.636048  0.641470  0.459065  1
  H  H6  1  0.358530  0.540935  0.363952  1
  H  H7  1  0.540935  0.363952  0.358530  1
  H  H8  1  0.363952  0.358530  0.540935  1
  H  H9  1  0.001107  0.565336  0.423629  1
  H  H10  1  0.565336  0.423629  0.001107  1
  H  H11  1  0.423629  0.001107  0.565336  1
  H  H12  1  0.998893  0.434664  0.576371  1
  H  H13  1  0.434664  0.576371  0.998893  1
  H  H14  1  0.576371  0.998893  0.434664  1
  N  N15  1  0.810619  0.081322  0.796301  1
  N  N16  1  0.081322  0.796301  0.810619  1
  N  N17  1  0.796301  0.810619  0.081322  1
  N  N18  1  0.189381  0.918678  0.203699  1
  N  N19  1  0.918678  0.203699  0.189381  1
  N  N20  1  0.203699  0.189381  0.918678  1
