# generated using pymatgen
data_Eu(ZnSn)2
_symmetry_space_group_name_H-M   'P 1'
_cell_length_a   4.58474465
_cell_length_b   4.63670643
_cell_length_c   11.32971571
_cell_angle_alpha   90.74313932
_cell_angle_beta   90.00000000
_cell_angle_gamma   90.00000000
_symmetry_Int_Tables_number   1
_chemical_formula_structural   Eu(ZnSn)2
_chemical_formula_sum   'Eu2 Zn4 Sn4'
_cell_volume   240.82814124
_cell_formula_units_Z   2
loop_
 _symmetry_equiv_pos_site_id
 _symmetry_equiv_pos_as_xyz
  1  'x, y, z'
loop_
 _atom_site_type_symbol
 _atom_site_label
 _atom_site_symmetry_multiplicity
 _atom_site_fract_x
 _atom_site_fract_y
 _atom_site_fract_z
 _atom_site_occupancy
  Eu  Eu0  1  0.749614  0.740646  0.245915  1
  Eu  Eu1  1  0.249614  0.259354  0.754085  1
  Zn  Zn2  1  0.243718  0.260544  0.360669  1
  Zn  Zn3  1  0.750572  0.279714  0.999217  1
  Zn  Zn4  1  0.743718  0.739456  0.639331  1
  Zn  Zn5  1  0.250572  0.720286  0.000783  1
  Sn  Sn6  1  0.250164  0.221039  0.132385  1
  Sn  Sn7  1  0.750164  0.778961  0.867615  1
  Sn  Sn8  1  0.747332  0.242298  0.500510  1
  Sn  Sn9  1  0.247332  0.757702  0.499490  1
