# generated using pymatgen
data_KC2N3
_symmetry_space_group_name_H-M   'P 1'
_cell_length_a   3.90294156
_cell_length_b   6.91343744
_cell_length_c   16.27757142
_cell_angle_alpha   90.00000000
_cell_angle_beta   90.00000000
_cell_angle_gamma   99.43486976
_symmetry_Int_Tables_number   1
_chemical_formula_structural   KC2N3
_chemical_formula_sum   'K4 C8 N12'
_cell_volume   433.27208958
_cell_formula_units_Z   4
loop_
 _symmetry_equiv_pos_site_id
 _symmetry_equiv_pos_as_xyz
  1  'x, y, z'
loop_
 _atom_site_type_symbol
 _atom_site_label
 _atom_site_symmetry_multiplicity
 _atom_site_fract_x
 _atom_site_fract_y
 _atom_site_fract_z
 _atom_site_occupancy
  K  K0  1  0.657015  0.325116  0.903984  1
  K  K1  1  0.657015  0.825116  0.596016  1
  K  K2  1  0.342985  0.174884  0.403984  1
  K  K3  1  0.342985  0.674884  0.096016  1
  C  C4  1  0.129074  0.958249  0.784892  1
  C  C5  1  0.870926  0.041751  0.215108  1
  C  C6  1  0.048648  0.655633  0.413012  1
  C  C7  1  0.951352  0.844367  0.913012  1
  C  C8  1  0.870926  0.541751  0.284892  1
  C  C9  1  0.048648  0.155633  0.086988  1
  C  C10  1  0.951352  0.344367  0.586988  1
  C  C11  1  0.129074  0.458249  0.715108  1
  N  N12  1  0.152302  0.774074  0.463417  1
  N  N13  1  0.804543  0.054649  0.285312  1
  N  N14  1  0.936073  0.013260  0.137617  1
  N  N15  1  0.847698  0.725926  0.963417  1
  N  N16  1  0.195457  0.945351  0.714688  1
  N  N17  1  0.804543  0.554649  0.214688  1
  N  N18  1  0.195457  0.445351  0.785312  1
  N  N19  1  0.152302  0.274074  0.036583  1
  N  N20  1  0.063927  0.986740  0.862383  1
  N  N21  1  0.063927  0.486740  0.637617  1
  N  N22  1  0.936073  0.513260  0.362383  1
  N  N23  1  0.847698  0.225926  0.536583  1
