# generated using pymatgen
data_Li2FeCl4
_symmetry_space_group_name_H-M   'P 1'
_cell_length_a   7.41014313
_cell_length_b   7.27618000
_cell_length_c   36.41412607
_cell_angle_alpha   60.15170447
_cell_angle_beta   60.77726982
_cell_angle_gamma   60.96975244
_symmetry_Int_Tables_number   1
_chemical_formula_structural   Li2FeCl4
_chemical_formula_sum   'Li20 Fe10 Cl40'
_cell_volume   1407.99226841
_cell_formula_units_Z   10
loop_
 _symmetry_equiv_pos_site_id
 _symmetry_equiv_pos_as_xyz
  1  'x, y, z'
loop_
 _atom_site_type_symbol
 _atom_site_label
 _atom_site_symmetry_multiplicity
 _atom_site_fract_x
 _atom_site_fract_y
 _atom_site_fract_z
 _atom_site_occupancy
  Li  Li0  1  0.406977  0.043399  0.208496  1
  Li  Li1  1  0.512276  0.988325  0.098781  1
  Li  Li2  1  0.512563  0.488656  0.199976  1
  Li  Li3  1  0.396182  0.030315  0.412410  1
  Li  Li4  1  0.014214  0.494302  0.495735  1
  Li  Li5  1  0.926126  0.856994  0.169295  1
  Li  Li6  1  0.507390  0.009118  0.298300  1
  Li  Li7  1  0.501275  0.485173  0.403774  1
  Li  Li8  1  -0.000626  0.502513  0.696356  1
  Li  Li9  1  0.928525  0.844534  0.370515  1
  Li  Li10  1  0.071410  0.164012  0.826521  1
  Li  Li11  1  0.498116  0.021905  0.496720  1
  Li  Li12  1  0.982262  0.487428  0.908098  1
  Li  Li13  1  0.501443  0.002743  0.800039  1
  Li  Li14  1  0.427279  0.044323  0.601026  1
  Li  Li15  1  0.924972  0.851485  0.570721  1
  Li  Li16  1  0.509374  0.004717  0.696967  1
  Li  Li17  1  0.935496  0.842509  0.771637  1
  Li  Li18  1  0.484604  0.996802  0.906151  1
  Li  Li19  1  0.875328  0.865614  0.975599  1
  Fe  Fe20  1  0.034986  0.510683  0.095722  1
  Fe  Fe21  1  0.484821  0.501273  0.094706  1
  Fe  Fe22  1  0.004989  0.496181  0.300395  1
  Fe  Fe23  1  0.504773  0.489981  0.297939  1
  Fe  Fe24  1  0.510467  0.487646  0.496787  1
  Fe  Fe25  1  0.508462  0.494742  0.606308  1
  Fe  Fe26  1  0.511505  0.495175  0.692117  1
  Fe  Fe27  1  0.498480  0.501799  0.800606  1
  Fe  Fe28  1  0.483849  0.493718  0.903577  1
  Fe  Fe29  1  0.469349  0.509049  0.011026  1
  Cl  Cl30  1  0.249639  0.274831  0.051827  1
  Cl  Cl31  1  0.243960  0.767016  0.049936  1
  Cl  Cl32  1  0.256804  0.260976  0.146110  1
  Cl  Cl33  1  0.721336  0.267517  0.051027  1
  Cl  Cl34  1  0.243444  0.269547  0.252887  1
  Cl  Cl35  1  0.301612  0.724511  0.144189  1
  Cl  Cl36  1  0.739584  0.252052  0.148511  1
  Cl  Cl37  1  0.758984  0.720418  0.054891  1
  Cl  Cl38  1  0.258265  0.259754  0.347086  1
  Cl  Cl39  1  0.255527  0.736157  0.251934  1
  Cl  Cl40  1  0.718005  0.271313  0.253242  1
  Cl  Cl41  1  0.767072  0.732029  0.146161  1
  Cl  Cl42  1  0.256813  0.259157  0.451444  1
  Cl  Cl43  1  0.306959  0.724058  0.344803  1
  Cl  Cl44  1  0.757168  0.259569  0.346413  1
  Cl  Cl45  1  0.256948  0.270155  0.546211  1
  Cl  Cl46  1  0.746890  0.742720  0.250969  1
  Cl  Cl47  1  0.260809  0.731716  0.452669  1
  Cl  Cl48  1  0.768462  0.729907  0.345659  1
  Cl  Cl49  1  0.731093  0.261653  0.454105  1
  Cl  Cl50  1  0.270825  0.261772  0.650187  1
  Cl  Cl51  1  0.302625  0.719550  0.549023  1
  Cl  Cl52  1  0.728626  0.258956  0.552894  1
  Cl  Cl53  1  0.269573  0.253958  0.747218  1
  Cl  Cl54  1  0.728821  0.750911  0.451043  1
  Cl  Cl55  1  0.255712  0.739747  0.651346  1
  Cl  Cl56  1  0.719671  0.748157  0.555068  1
  Cl  Cl57  1  0.740871  0.250242  0.651486  1
  Cl  Cl58  1  0.262020  0.260336  0.846999  1
  Cl  Cl59  1  0.307368  0.722594  0.745298  1
  Cl  Cl60  1  0.257538  0.755161  0.847299  1
  Cl  Cl61  1  0.741908  0.251659  0.750699  1
  Cl  Cl62  1  0.739011  0.739098  0.651940  1
  Cl  Cl63  1  0.255761  0.274519  0.944313  1
  Cl  Cl64  1  0.703918  0.266062  0.852696  1
  Cl  Cl65  1  0.739864  0.740076  0.751926  1
  Cl  Cl66  1  0.272926  0.733486  0.950726  1
  Cl  Cl67  1  0.726232  0.272221  0.949732  1
  Cl  Cl68  1  0.725098  0.745963  0.851385  1
  Cl  Cl69  1  0.725387  0.735364  0.952346  1
