# generated using pymatgen
data_Sr3La7Ti3Mn7O30
_symmetry_space_group_name_H-M   'P 1'
_cell_length_a   5.57950841
_cell_length_b   27.86564616
_cell_length_c   9.63640069
_cell_angle_alpha   30.25161594
_cell_angle_beta   55.42037748
_cell_angle_gamma   60.63986958
_symmetry_Int_Tables_number   1
_chemical_formula_structural   Sr3La7Ti3Mn7O30
_chemical_formula_sum   'Sr3 La7 Ti3 Mn7 O30'
_cell_volume   621.46251601
_cell_formula_units_Z   1
loop_
 _symmetry_equiv_pos_site_id
 _symmetry_equiv_pos_as_xyz
  1  'x, y, z'
loop_
 _atom_site_type_symbol
 _atom_site_label
 _atom_site_symmetry_multiplicity
 _atom_site_fract_x
 _atom_site_fract_y
 _atom_site_fract_z
 _atom_site_occupancy
  Sr  Sr0  1  0.247411  0.201975  0.248623  1
  Sr  Sr1  1  0.252651  0.999469  0.248501  1
  Sr  Sr2  1  0.748044  0.998998  0.755777  1
  La  La3  1  0.249687  0.398704  0.252058  1
  La  La4  1  0.248962  0.598960  0.253247  1
  La  La5  1  0.751239  0.201047  0.744541  1
  La  La6  1  0.247621  0.799942  0.253087  1
  La  La7  1  0.747498  0.399544  0.753994  1
  La  La8  1  0.749321  0.601461  0.746251  1
  La  La9  1  0.751363  0.799791  0.748163  1
  Ti  Ti10  1  0.997882  0.002851  0.993364  1
  Ti  Ti11  1  0.001617  0.197610  0.006146  1
  Ti  Ti12  1  0.502836  0.998261  0.504342  1
  Mn  Mn13  1  0.999511  0.400993  0.997822  1
  Mn  Mn14  1  0.999316  0.599257  0.002216  1
  Mn  Mn15  1  0.495918  0.199316  0.502203  1
  Mn  Mn16  1  0.996361  0.800008  0.001289  1
  Mn  Mn17  1  0.496637  0.400530  0.500616  1
  Mn  Mn18  1  0.498124  0.600340  0.500099  1
  Mn  Mn19  1  0.503278  0.799893  0.499225  1
  O  O20  1  0.206125  0.091105  0.295638  1
  O  O21  1  0.748095  0.022727  0.194287  1
  O  O22  1  0.185050  0.292006  0.306497  1
  O  O23  1  0.704065  0.111574  0.240947  1
  O  O24  1  0.288034  0.085596  0.763509  1
  O  O25  1  0.237860  0.181415  0.804689  1
  O  O26  1  0.761580  0.226967  0.172487  1
  O  O27  1  0.183920  0.487044  0.314980  1
  O  O28  1  0.691814  0.313657  0.246583  1
  O  O29  1  0.317445  0.288096  0.740535  1
  O  O30  1  0.801829  0.107277  0.711868  1
  O  O31  1  0.248367  0.381836  0.796445  1
  O  O32  1  0.749338  0.427214  0.181475  1
  O  O33  1  0.187908  0.685966  0.315935  1
  O  O34  1  0.684659  0.512526  0.249738  1
  O  O35  1  0.317709  0.487288  0.750062  1
  O  O36  1  0.820468  0.312503  0.684919  1
  O  O37  1  0.249233  0.574584  0.814075  1
  O  O38  1  0.749272  0.625789  0.185416  1
  O  O39  1  0.184272  0.885580  0.313203  1
  O  O40  1  0.682277  0.710888  0.255092  1
  O  O41  1  0.314669  0.687291  0.750654  1
  O  O42  1  0.814976  0.514342  0.682366  1
  O  O43  1  0.250231  0.773417  0.816153  1
  O  O44  1  0.749585  0.818076  0.205121  1
  O  O45  1  0.708512  0.907403  0.259120  1
  O  O46  1  0.320357  0.889042  0.747575  1
  O  O47  1  0.813407  0.711591  0.689721  1
  O  O48  1  0.251096  0.976509  0.806930  1
  O  O49  1  0.792572  0.911741  0.692418  1
