# generated using pymatgen
data_Ba2La2MgTi3O12
_symmetry_space_group_name_H-M   'P 1'
_cell_length_a   5.66540754
_cell_length_b   5.67474565
_cell_length_c   33.87046274
_cell_angle_alpha   89.92277912
_cell_angle_beta   120.16690872
_cell_angle_gamma   120.10757687
_symmetry_Int_Tables_number   1
_chemical_formula_structural   Ba2La2MgTi3O12
_chemical_formula_sum   'Ba6 La6 Mg3 Ti9 O36'
_cell_volume   767.30547330
_cell_formula_units_Z   3
loop_
 _symmetry_equiv_pos_site_id
 _symmetry_equiv_pos_as_xyz
  1  'x, y, z'
loop_
 _atom_site_type_symbol
 _atom_site_label
 _atom_site_symmetry_multiplicity
 _atom_site_fract_x
 _atom_site_fract_y
 _atom_site_fract_z
 _atom_site_occupancy
  Ba  Ba0  1  0.488648  0.244514  0.955643  1
  Ba  Ba1  1  0.511352  0.755486  0.377690  1
  Ba  Ba2  1  0.508285  0.253839  0.293615  1
  Ba  Ba3  1  0.502471  0.750958  0.209049  1
  Ba  Ba4  1  0.497529  0.249042  0.124284  1
  Ba  Ba5  1  0.491715  0.746161  0.039719  1
  La  La6  1  0.488614  0.741508  0.872396  1
  La  La7  1  0.502338  0.252660  0.790595  1
  La  La8  1  0.498653  0.749376  0.707819  1
  La  La9  1  0.497662  0.747340  0.542739  1
  La  La10  1  0.501347  0.250624  0.625514  1
  La  La11  1  0.511386  0.258492  0.460937  1
  Mg  Mg12  1  0.984491  0.991787  0.830293  1
  Mg  Mg13  1  0.000000  0.000000  0.666667  1
  Mg  Mg14  1  0.015509  0.008213  0.503040  1
  Ti  Ti15  1  0.996855  0.499833  0.748599  1
  Ti  Ti16  1  0.981141  0.494831  0.910406  1
  Ti  Ti17  1  0.018859  0.505169  0.422928  1
  Ti  Ti18  1  0.003145  0.500167  0.584734  1
  Ti  Ti19  1  0.981921  0.990944  0.996506  1
  Ti  Ti20  1  0.018079  0.009056  0.336827  1
  Ti  Ti21  1  0.005783  0.501560  0.251549  1
  Ti  Ti22  1  0.994217  0.498440  0.081784  1
  Ti  Ti23  1  0.000000  0.000000  0.166667  1
  O  O24  1  0.972466  0.743219  0.952878  1
  O  O25  1  0.056179  0.751183  0.875181  1
  O  O26  1  0.493623  0.737856  0.956546  1
  O  O27  1  0.126177  0.803081  0.719374  1
  O  O28  1  0.995789  0.253535  0.708520  1
  O  O29  1  0.475699  0.674136  0.799311  1
  O  O30  1  0.500151  0.302262  0.866045  1
  O  O31  1  0.950773  0.214220  0.950313  1
  O  O32  1  0.124297  0.802856  0.553828  1
  O  O33  1  0.001964  0.254717  0.544270  1
  O  O34  1  0.486783  0.679160  0.634516  1
  O  O35  1  0.513217  0.320839  0.698817  1
  O  O36  1  0.958693  0.236984  0.870152  1
  O  O37  1  0.998036  0.745283  0.789064  1
  O  O38  1  0.875703  0.197144  0.779505  1
  O  O39  1  0.049227  0.785780  0.383020  1
  O  O40  1  0.027534  0.256781  0.380455  1
  O  O41  1  0.499849  0.697738  0.467289  1
  O  O42  1  0.524301  0.325864  0.534022  1
  O  O43  1  0.004211  0.746465  0.624813  1
  O  O44  1  0.873823  0.196919  0.613960  1
  O  O45  1  0.997576  0.749026  0.208765  1
  O  O46  1  0.003227  0.251721  0.209076  1
  O  O47  1  0.510020  0.756148  0.294028  1
  O  O48  1  0.506377  0.262144  0.376788  1
  O  O49  1  0.041307  0.763016  0.463181  1
  O  O50  1  0.943821  0.248817  0.458152  1
  O  O51  1  0.990726  0.743138  0.039727  1
  O  O52  1  0.498858  0.752375  0.124063  1
  O  O53  1  0.501142  0.247625  0.209270  1
  O  O54  1  0.007169  0.752328  0.294049  1
  O  O55  1  0.009274  0.256862  0.293606  1
  O  O56  1  0.489980  0.243852  0.039305  1
  O  O57  1  0.996773  0.748279  0.124257  1
  O  O58  1  0.002424  0.250974  0.124569  1
  O  O59  1  0.992831  0.247672  0.039285  1
