# generated using pymatgen
data_RbCr4BiO14
_symmetry_space_group_name_H-M   'P 1'
_cell_length_a   8.41931049
_cell_length_b   8.92000785
_cell_length_c   17.23711741
_cell_angle_alpha   90.00000000
_cell_angle_beta   90.00000000
_cell_angle_gamma   91.53514780
_symmetry_Int_Tables_number   1
_chemical_formula_structural   RbCr4BiO14
_chemical_formula_sum   'Rb4 Cr16 Bi4 O56'
_cell_volume   1294.04833043
_cell_formula_units_Z   4
loop_
 _symmetry_equiv_pos_site_id
 _symmetry_equiv_pos_as_xyz
  1  'x, y, z'
loop_
 _atom_site_type_symbol
 _atom_site_label
 _atom_site_symmetry_multiplicity
 _atom_site_fract_x
 _atom_site_fract_y
 _atom_site_fract_z
 _atom_site_occupancy
  Rb  Rb0  1  0.754407  0.501585  0.376811  1
  Rb  Rb1  1  0.745593  0.498415  0.876811  1
  Rb  Rb2  1  0.254407  0.501585  0.123189  1
  Rb  Rb3  1  0.245593  0.498415  0.623189  1
  Cr  Cr4  1  0.916831  0.788005  0.184251  1
  Cr  Cr5  1  0.416831  0.788005  0.315749  1
  Cr  Cr6  1  0.910192  0.204969  0.058687  1
  Cr  Cr7  1  0.868757  0.269658  0.552835  1
  Cr  Cr8  1  0.131243  0.730342  0.447165  1
  Cr  Cr9  1  0.589808  0.795031  0.558687  1
  Cr  Cr10  1  0.664866  0.236217  0.204549  1
  Cr  Cr11  1  0.164866  0.236217  0.295451  1
  Cr  Cr12  1  0.835134  0.763783  0.704549  1
  Cr  Cr13  1  0.631243  0.730342  0.052835  1
  Cr  Cr14  1  0.410192  0.204969  0.441313  1
  Cr  Cr15  1  0.583169  0.211995  0.684251  1
  Cr  Cr16  1  0.368757  0.269658  0.947165  1
  Cr  Cr17  1  0.335134  0.763783  0.795451  1
  Cr  Cr18  1  0.083169  0.211995  0.815749  1
  Cr  Cr19  1  0.089808  0.795031  0.941313  1
  Bi  Bi20  1  0.291262  0.995873  0.123816  1
  Bi  Bi21  1  0.791262  0.995873  0.376184  1
  Bi  Bi22  1  0.708738  0.004127  0.876184  1
  Bi  Bi23  1  0.208738  0.004127  0.623816  1
  O  O24  1  0.110224  0.798861  0.160436  1
  O  O25  1  0.556166  0.381869  0.207086  1
  O  O26  1  0.232199  0.866980  0.996552  1
  O  O27  1  0.700164  0.190614  0.600244  1
  O  O28  1  0.433804  0.905413  0.834298  1
  O  O29  1  0.166868  0.719750  0.853972  1
  O  O30  1  0.640521  0.550381  0.049825  1
  O  O31  1  0.066196  0.094587  0.334298  1
  O  O32  1  0.130755  0.077643  0.755334  1
  O  O33  1  0.529614  0.223007  0.898283  1
  O  O34  1  0.610224  0.798861  0.339564  1
  O  O35  1  0.038287  0.073801  0.081722  1
  O  O36  1  0.970386  0.776993  0.398283  1
  O  O37  1  0.140521  0.550381  0.450175  1
  O  O38  1  0.732199  0.866980  0.503448  1
  O  O39  1  0.859479  0.449619  0.549825  1
  O  O40  1  0.333132  0.280250  0.353972  1
  O  O41  1  0.833132  0.280250  0.146028  1
  O  O42  1  0.774816  0.801759  0.795249  1
  O  O43  1  0.868575  0.201886  0.463185  1
  O  O44  1  0.630755  0.077643  0.744666  1
  O  O45  1  0.000586  0.341836  0.014864  1
  O  O46  1  0.500586  0.341836  0.485136  1
  O  O47  1  0.267801  0.133020  0.496552  1
  O  O48  1  0.377356  0.627373  0.277738  1
  O  O49  1  0.767801  0.133020  0.003448  1
  O  O50  1  0.666868  0.719750  0.646028  1
  O  O51  1  0.725184  0.198241  0.295249  1
  O  O52  1  0.359479  0.449619  0.950175  1
  O  O53  1  0.029614  0.223007  0.601717  1
  O  O54  1  0.538287  0.073801  0.418278  1
  O  O55  1  0.461713  0.926199  0.581722  1
  O  O56  1  0.200164  0.190614  0.899756  1
  O  O57  1  0.470386  0.776993  0.101717  1
  O  O58  1  0.961713  0.926199  0.918278  1
  O  O59  1  0.566196  0.094587  0.165702  1
  O  O60  1  0.274816  0.801759  0.704751  1
  O  O61  1  0.869245  0.922357  0.244666  1
  O  O62  1  0.299836  0.809386  0.399756  1
  O  O63  1  0.368575  0.201886  0.036815  1
  O  O64  1  0.225184  0.198241  0.204751  1
  O  O65  1  0.389776  0.201139  0.660436  1
  O  O66  1  0.131425  0.798114  0.536815  1
  O  O67  1  0.499414  0.658164  0.514864  1
  O  O68  1  0.877356  0.627373  0.222262  1
  O  O69  1  0.622644  0.372627  0.722262  1
  O  O70  1  0.056166  0.381869  0.292914  1
  O  O71  1  0.631425  0.798114  0.963185  1
  O  O72  1  0.933804  0.905413  0.665702  1
  O  O73  1  0.999414  0.658164  0.985136  1
  O  O74  1  0.799836  0.809386  0.100244  1
  O  O75  1  0.443834  0.618131  0.792914  1
  O  O76  1  0.122644  0.372627  0.777738  1
  O  O77  1  0.369245  0.922357  0.255334  1
  O  O78  1  0.943834  0.618131  0.707086  1
  O  O79  1  0.889776  0.201139  0.839564  1
