# generated using pymatgen
data_Os4C13SO13
_symmetry_space_group_name_H-M   'P 1'
_cell_length_a   9.70661405
_cell_length_b   15.57688503
_cell_length_c   15.85994481
_cell_angle_alpha   113.26233624
_cell_angle_beta   99.37368042
_cell_angle_gamma   95.54733822
_symmetry_Int_Tables_number   1
_chemical_formula_structural   Os4C13SO13
_chemical_formula_sum   'Os16 C52 S4 O52'
_cell_volume   2139.08536227
_cell_formula_units_Z   4
loop_
 _symmetry_equiv_pos_site_id
 _symmetry_equiv_pos_as_xyz
  1  'x, y, z'
loop_
 _atom_site_type_symbol
 _atom_site_label
 _atom_site_symmetry_multiplicity
 _atom_site_fract_x
 _atom_site_fract_y
 _atom_site_fract_z
 _atom_site_occupancy
  Os  Os0  1  0.826014  0.879812  0.829803  1
  Os  Os1  1  0.173986  0.120188  0.170197  1
  Os  Os2  1  0.575553  0.177323  0.690928  1
  Os  Os3  1  0.431093  0.315945  0.662499  1
  Os  Os4  1  0.061401  0.803020  0.761770  1
  Os  Os5  1  0.672713  0.271266  0.584825  1
  Os  Os6  1  0.315956  0.213257  0.763600  1
  Os  Os7  1  0.824971  0.345144  0.192297  1
  Os  Os8  1  0.424447  0.822677  0.309072  1
  Os  Os9  1  0.938599  0.196980  0.238230  1
  Os  Os10  1  0.568907  0.684055  0.337501  1
  Os  Os11  1  0.327287  0.728734  0.415175  1
  Os  Os12  1  0.175029  0.654856  0.807703  1
  Os  Os13  1  0.094781  0.285412  0.151173  1
  Os  Os14  1  0.905219  0.714588  0.848827  1
  Os  Os15  1  0.684044  0.786743  0.236400  1
  C  C16  1  0.792501  0.612862  0.738275  1
  C  C17  1  0.726302  0.241013  0.070514  1
  C  C18  1  0.312159  0.194221  0.284906  1
  C  C19  1  0.260572  0.827617  0.766774  1
  C  C20  1  0.935829  0.437173  0.315780  1
  C  C21  1  0.320737  0.664672  0.494632  1
  C  C22  1  0.302193  0.080237  0.090207  1
  C  C23  1  0.142727  0.252389  0.793839  1
  C  C24  1  0.784926  0.883923  0.361961  1
  C  C25  1  0.686382  0.872896  0.178220  1
  C  C26  1  0.064171  0.562827  0.684220  1
  C  C27  1  0.572050  0.681591  0.121308  1
  C  C28  1  0.798147  0.198007  0.520377  1
  C  C29  1  0.433338  0.386415  0.586455  1
  C  C30  1  0.215075  0.116077  0.638039  1
  C  C31  1  0.345572  0.645961  0.762500  1
  C  C32  1  0.257226  0.870109  0.343248  1
  C  C33  1  0.197643  0.558777  0.853126  1
  C  C34  1  0.743999  0.736054  0.904336  1
  C  C35  1  0.201853  0.801993  0.479623  1
  C  C36  1  0.961636  0.093782  0.272766  1
  C  C37  1  0.810375  0.366283  0.687409  1
  C  C38  1  0.683283  0.248208  0.816925  1
  C  C39  1  0.490857  0.942934  0.309921  1
  C  C40  1  0.857273  0.747611  0.206161  1
  C  C41  1  0.316717  0.751792  0.183075  1
  C  C42  1  0.509143  0.057066  0.690079  1
  C  C43  1  0.845715  0.002820  0.831993  1
  C  C44  1  0.654428  0.354039  0.237500  1
  C  C45  1  0.679263  0.335328  0.505368  1
  C  C46  1  0.955441  0.644681  0.922759  1
  C  C47  1  0.189625  0.633717  0.312591  1
  C  C48  1  0.766107  0.677586  0.343530  1
  C  C49  1  0.008920  0.282178  0.367560  1
  C  C50  1  0.044559  0.355319  0.077241  1
  C  C51  1  0.207499  0.387138  0.261725  1
  C  C52  1  0.486152  0.572048  0.226437  1
  C  C53  1  0.802357  0.441223  0.146874  1
  C  C54  1  0.038364  0.906218  0.727234  1
  C  C55  1  0.313618  0.127104  0.821780  1
  C  C56  1  0.739428  0.172383  0.233226  1
  C  C57  1  0.513848  0.427952  0.773563  1
  C  C58  1  0.697807  0.919763  0.909793  1
  C  C59  1  0.427950  0.318409  0.878692  1
  C  C60  1  0.154285  0.997180  0.168007  1
  C  C61  1  0.566662  0.613585  0.413545  1
  C  C62  1  0.687841  0.805779  0.715094  1
  C  C63  1  0.233893  0.322414  0.656470  1
  C  C64  1  0.273698  0.758987  0.929486  1
  C  C65  1  0.256001  0.263946  0.095664  1
  C  C66  1  0.991080  0.717822  0.632440  1
  C  C67  1  0.742774  0.129891  0.656752  1
  S  S68  1  0.449987  0.164984  0.539674  1
  S  S69  1  0.038420  0.875493  0.924273  1
  S  S70  1  0.550013  0.835016  0.460326  1
  S  S71  1  0.961580  0.124507  0.075727  1
  O  O72  1  0.430241  0.502087  0.161418  1
  O  O73  1  0.157066  0.904953  0.355857  1
  O  O74  1  0.308665  0.625019  0.542334  1
  O  O75  1  0.859540  0.079499  0.835877  1
  O  O76  1  0.877232  0.155058  0.480621  1
  O  O77  1  0.967613  0.602143  0.968951  1
  O  O78  1  0.281729  0.444970  0.330296  1
  O  O79  1  0.150960  0.059790  0.566226  1
  O  O80  1  0.646963  0.739122  0.939588  1
  O  O81  1  0.620672  0.151609  0.233042  1
  O  O82  1  0.691335  0.374981  0.457666  1
  O  O83  1  0.889431  0.424074  0.753221  1
  O  O84  1  0.122768  0.844942  0.519379  1
  O  O85  1  0.311555  0.074673  0.857114  1
  O  O86  1  0.960756  0.034946  0.300930  1
  O  O87  1  0.449547  0.639878  0.735179  1
  O  O88  1  0.488439  0.380377  0.948562  1
  O  O89  1  0.379897  0.053901  0.040589  1
  O  O90  1  0.110569  0.575926  0.246779  1
  O  O91  1  0.379328  0.848391  0.766958  1
  O  O92  1  0.842934  0.095047  0.644143  1
  O  O93  1  0.511561  0.619623  0.051438  1
  O  O94  1  0.421693  0.432421  0.544212  1
  O  O95  1  0.520830  0.018749  0.313419  1
  O  O96  1  0.140460  0.920501  0.164123  1
  O  O97  1  0.754178  0.293749  0.891540  1
  O  O98  1  0.613130  0.748774  0.646394  1
  O  O99  1  0.479170  0.981251  0.686581  1
  O  O100  1  0.963619  0.724979  0.189699  1
  O  O101  1  0.340835  0.818037  0.998991  1
  O  O102  1  0.620103  0.946099  0.959411  1
  O  O103  1  0.032387  0.397857  0.031049  1
  O  O104  1  0.214547  0.500878  0.880423  1
  O  O105  1  0.688445  0.925327  0.142886  1
  O  O106  1  0.849040  0.940210  0.433774  1
  O  O107  1  0.659165  0.181963  0.001009  1
  O  O108  1  0.785453  0.499122  0.119577  1
  O  O109  1  0.550453  0.360122  0.264821  1
  O  O110  1  0.039244  0.965054  0.699070  1
  O  O111  1  0.036381  0.275021  0.810301  1
  O  O112  1  0.116538  0.335222  0.647339  1
  O  O113  1  0.057776  0.330626  0.446544  1
  O  O114  1  0.569759  0.497913  0.838582  1
  O  O115  1  0.942224  0.669374  0.553456  1
  O  O116  1  0.353037  0.260878  0.060412  1
  O  O117  1  0.994598  0.493838  0.389147  1
  O  O118  1  0.005402  0.506162  0.610853  1
  O  O119  1  0.245822  0.706251  0.108460  1
  O  O120  1  0.386870  0.251226  0.353606  1
  O  O121  1  0.718271  0.555030  0.669704  1
  O  O122  1  0.578307  0.567579  0.455788  1
  O  O123  1  0.883462  0.664778  0.352661  1
