# generated using pymatgen
data_H3NO4
_symmetry_space_group_name_H-M   'P 1'
_cell_length_a   5.62348937
_cell_length_b   8.93316560
_cell_length_c   6.58457401
_cell_angle_alpha   90.00000000
_cell_angle_beta   90.00000000
_cell_angle_gamma   90.00000000
_symmetry_Int_Tables_number   1
_chemical_formula_structural   H3NO4
_chemical_formula_sum   'H12 N4 O16'
_cell_volume   330.77977455
_cell_formula_units_Z   4
loop_
 _symmetry_equiv_pos_site_id
 _symmetry_equiv_pos_as_xyz
  1  'x, y, z'
loop_
 _atom_site_type_symbol
 _atom_site_label
 _atom_site_symmetry_multiplicity
 _atom_site_fract_x
 _atom_site_fract_y
 _atom_site_fract_z
 _atom_site_occupancy
  H  H0  1  0.407076  0.340595  0.854272  1
  H  H1  1  0.907076  0.659405  0.145728  1
  H  H2  1  0.907076  0.840595  0.645728  1
  H  H3  1  0.407076  0.159405  0.354272  1
  H  H4  1  0.691479  0.277107  0.891756  1
  H  H5  1  0.460436  0.155366  0.869980  1
  H  H6  1  0.960436  0.844634  0.130020  1
  H  H7  1  0.191479  0.722893  0.108244  1
  H  H8  1  0.191479  0.777107  0.608244  1
  H  H9  1  0.960436  0.655366  0.630020  1
  H  H10  1  0.691479  0.222893  0.391756  1
  H  H11  1  0.460436  0.344634  0.369980  1
  N  N12  1  0.023886  0.418410  0.782412  1
  N  N13  1  0.523886  0.581590  0.217588  1
  N  N14  1  0.523886  0.918410  0.717588  1
  N  N15  1  0.023886  0.081590  0.282412  1
  O  O16  1  0.863447  0.503425  0.711978  1
  O  O17  1  0.363447  0.496575  0.288022  1
  O  O18  1  0.363447  0.003425  0.788022  1
  O  O19  1  0.863447  0.996575  0.211978  1
  O  O20  1  0.240574  0.456374  0.767682  1
  O  O21  1  0.740574  0.543626  0.232318  1
  O  O22  1  0.740574  0.956374  0.732318  1
  O  O23  1  0.240574  0.043626  0.267682  1
  O  O24  1  0.967251  0.295997  0.867454  1
  O  O25  1  0.467251  0.704003  0.132546  1
  O  O26  1  0.467251  0.795997  0.632546  1
  O  O27  1  0.967251  0.204003  0.367454  1
  O  O28  1  0.514122  0.259208  0.921360  1
  O  O29  1  0.014122  0.740792  0.078640  1
  O  O30  1  0.014122  0.759208  0.578640  1
  O  O31  1  0.514122  0.240792  0.421360  1
