# generated using pymatgen
data_Ce5NiGe2
_symmetry_space_group_name_H-M   'P 1'
_cell_length_a   6.11573145
_cell_length_b   11.44441854
_cell_length_c   11.44441854
_cell_angle_alpha   90.00000000
_cell_angle_beta   90.00000000
_cell_angle_gamma   90.00000000
_symmetry_Int_Tables_number   1
_chemical_formula_structural   Ce5NiGe2
_chemical_formula_sum   'Ce20 Ni4 Ge8'
_cell_volume   801.00618808
_cell_formula_units_Z   4
loop_
 _symmetry_equiv_pos_site_id
 _symmetry_equiv_pos_as_xyz
  1  'x, y, z'
loop_
 _atom_site_type_symbol
 _atom_site_label
 _atom_site_symmetry_multiplicity
 _atom_site_fract_x
 _atom_site_fract_y
 _atom_site_fract_z
 _atom_site_occupancy
  Ce  Ce0  1  0.170358  0.961644  0.829568  1
  Ce  Ce1  1  0.170358  0.829568  0.538356  1
  Ce  Ce2  1  0.670358  0.538356  0.829568  1
  Ce  Ce3  1  0.170358  0.538356  0.670432  1
  Ce  Ce4  1  0.829642  0.038356  0.170432  1
  Ce  Ce5  1  0.829642  0.170432  0.461644  1
  Ce  Ce6  1  0.829642  0.461644  0.329568  1
  Ce  Ce7  1  0.329642  0.329568  0.461644  1
  Ce  Ce8  1  0.500000  0.750000  0.250000  1
  Ce  Ce9  1  0.670358  0.829568  0.961644  1
  Ce  Ce10  1  0.500000  0.250000  0.750000  1
  Ce  Ce11  1  0.170358  0.670432  0.961644  1
  Ce  Ce12  1  0.670358  0.670432  0.538356  1
  Ce  Ce13  1  0.329642  0.038356  0.329568  1
  Ce  Ce14  1  0.329642  0.170432  0.038356  1
  Ce  Ce15  1  0.829642  0.329568  0.038356  1
  Ce  Ce16  1  0.670358  0.961644  0.670432  1
  Ce  Ce17  1  0.000000  0.250000  0.750000  1
  Ce  Ce18  1  0.329642  0.461644  0.170432  1
  Ce  Ce19  1  0.000000  0.750000  0.250000  1
  Ni  Ni20  1  0.929547  0.750000  0.750000  1
  Ni  Ni21  1  0.570453  0.250000  0.250000  1
  Ni  Ni22  1  0.429547  0.750000  0.750000  1
  Ni  Ni23  1  0.070453  0.250000  0.250000  1
  Ge  Ge24  1  0.250000  0.586888  0.413112  1
  Ge  Ge25  1  0.750000  0.913112  0.413112  1
  Ge  Ge26  1  0.750000  0.413112  0.586888  1
  Ge  Ge27  1  0.250000  0.086888  0.586888  1
  Ge  Ge28  1  0.750000  0.086888  0.913112  1
  Ge  Ge29  1  0.750000  0.586888  0.086888  1
  Ge  Ge30  1  0.250000  0.913112  0.086888  1
  Ge  Ge31  1  0.250000  0.413112  0.913112  1
