# generated using pymatgen
data_CaBi2(CO)2
_symmetry_space_group_name_H-M   'P 1'
_cell_length_a   9.82296023
_cell_length_b   9.82296023
_cell_length_c   9.82296023
_cell_angle_alpha   157.97159249
_cell_angle_beta   157.97159249
_cell_angle_gamma   31.35100447
_symmetry_Int_Tables_number   1
_chemical_formula_structural   CaBi2(CO)2
_chemical_formula_sum   'Ca1 Bi2 C2 O2'
_cell_volume   133.23896763
_cell_formula_units_Z   1
loop_
 _symmetry_equiv_pos_site_id
 _symmetry_equiv_pos_as_xyz
  1  'x, y, z'
loop_
 _atom_site_type_symbol
 _atom_site_label
 _atom_site_symmetry_multiplicity
 _atom_site_fract_x
 _atom_site_fract_y
 _atom_site_fract_z
 _atom_site_occupancy
  Ca  Ca0  1  0.000000  0.000000  0.000000  1
  Bi  Bi1  1  0.823205  0.823205  0.000000  1
  Bi  Bi2  1  0.176795  0.176795  0.000000  1
  C  C3  1  0.534021  0.534021  0.000000  1
  C  C4  1  0.465979  0.465979  0.000000  1
  O  O5  1  0.750000  0.250000  0.500000  1
  O  O6  1  0.250000  0.750000  0.500000  1
