# generated using pymatgen
data_NaLa(PO3)4
_symmetry_space_group_name_H-M   'P 1'
_cell_length_a   7.36023134
_cell_length_b   10.18386845
_cell_length_c   13.42166584
_cell_angle_alpha   90.00000000
_cell_angle_beta   90.00000000
_cell_angle_gamma   90.29245775
_symmetry_Int_Tables_number   1
_chemical_formula_structural   NaLa(PO3)4
_chemical_formula_sum   'Na4 La4 P16 O48'
_cell_volume   1006.01628197
_cell_formula_units_Z   4
loop_
 _symmetry_equiv_pos_site_id
 _symmetry_equiv_pos_as_xyz
  1  'x, y, z'
loop_
 _atom_site_type_symbol
 _atom_site_label
 _atom_site_symmetry_multiplicity
 _atom_site_fract_x
 _atom_site_fract_y
 _atom_site_fract_z
 _atom_site_occupancy
  O  O0  1  0.073715  0.707286  0.611119  1
  O  O1  1  0.426285  0.792714  0.111119  1
  O  O2  1  0.926285  0.292714  0.388881  1
  O  O3  1  0.573715  0.207286  0.888881  1
  O  O4  1  0.688191  0.601860  0.645324  1
  O  O5  1  0.811809  0.898140  0.145324  1
  O  O6  1  0.311809  0.398140  0.354676  1
  O  O7  1  0.188191  0.101860  0.854676  1
  O  O8  1  0.215968  0.403220  0.609473  1
  O  O9  1  0.284032  0.096780  0.109473  1
  O  O10  1  0.784032  0.596780  0.390527  1
  O  O11  1  0.715968  0.903220  0.890527  1
  O  O12  1  0.074854  0.169792  0.620852  1
  O  O13  1  0.425146  0.330208  0.120852  1
  O  O14  1  0.925146  0.830208  0.379148  1
  O  O15  1  0.574854  0.669792  0.879148  1
  O  O16  1  0.320575  0.839202  0.865622  1
  O  O17  1  0.404662  0.205604  0.663072  1
  O  O18  1  0.179425  0.660798  0.365622  1
  O  O19  1  0.820575  0.339202  0.634378  1
  O  O20  1  0.789054  0.137966  0.520208  1
  O  O21  1  0.710946  0.362034  0.020208  1
  O  O22  1  0.210946  0.862034  0.479792  1
  O  O23  1  0.289054  0.637966  0.979792  1
  O  O24  1  0.786694  0.715893  0.013624  1
  O  O25  1  0.713306  0.784107  0.513624  1
  O  O26  1  0.213306  0.284107  0.986376  1
  O  O27  1  0.286694  0.215893  0.486376  1
  O  O28  1  0.756395  0.413412  0.839984  1
  O  O29  1  0.743605  0.086588  0.339984  1
  O  O30  1  0.243605  0.586588  0.160016  1
  O  O31  1  0.256395  0.913412  0.660016  1
  O  O32  1  0.132034  0.345387  0.814016  1
  O  O33  1  0.367966  0.154613  0.314016  1
  O  O34  1  0.867966  0.654613  0.185984  1
  O  O35  1  0.632034  0.845387  0.685984  1
  O  O36  1  0.290140  0.602126  0.795214  1
  O  O37  1  0.209860  0.897874  0.295214  1
  O  O38  1  0.709860  0.397874  0.204786  1
  O  O39  1  0.790140  0.102126  0.704786  1
  O  O40  1  0.909552  0.211303  0.920343  1
  O  O41  1  0.590448  0.288697  0.420343  1
  O  O42  1  0.090448  0.788697  0.079657  1
  O  O43  1  0.409552  0.711303  0.579657  1
  O  O44  1  0.904662  0.705604  0.836928  1
  O  O45  1  0.595338  0.794396  0.336928  1
  O  O46  1  0.095338  0.294396  0.163072  1
  O  O47  1  0.679425  0.160798  0.134378  1
  Na  Na48  1  0.500301  0.435286  0.721035  1
  Na  Na49  1  0.999699  0.064714  0.221035  1
  Na  Na50  1  0.499699  0.564714  0.278965  1
  Na  Na51  1  0.000301  0.935286  0.778965  1
  P  P52  1  0.228658  0.799758  0.590146  1
  P  P53  1  0.271342  0.700242  0.090146  1
  P  P54  1  0.771342  0.200242  0.409854  1
  P  P55  1  0.728658  0.299758  0.909854  1
  P  P56  1  0.858424  0.194955  0.625942  1
  P  P57  1  0.641576  0.305045  0.125942  1
  P  P58  1  0.141576  0.805045  0.374058  1
  P  P59  1  0.358424  0.694955  0.874058  1
  P  P60  1  0.617696  0.733780  0.613708  1
  P  P61  1  0.882304  0.766220  0.113708  1
  P  P62  1  0.382304  0.266220  0.386292  1
  P  P63  1  0.117696  0.233780  0.886292  1
  P  P64  1  0.251936  0.258297  0.599834  1
  P  P65  1  0.248064  0.241703  0.099834  1
  P  P66  1  0.748064  0.741703  0.400166  1
  P  P67  1  0.751936  0.758297  0.900166  1
  La  La68  1  0.486823  0.022247  0.779549  1
  La  La69  1  0.013177  0.477753  0.279549  1
  La  La70  1  0.513177  0.977753  0.220451  1
  La  La71  1  0.986823  0.522247  0.720451  1
