# generated using pymatgen
data_CdI2
_symmetry_space_group_name_H-M   'P 1'
_cell_length_a   4.34311885
_cell_length_b   4.34311912
_cell_length_c   110.40329062
_cell_angle_alpha   90.00000000
_cell_angle_beta   90.00000000
_cell_angle_gamma   119.99999798
_symmetry_Int_Tables_number   1
_chemical_formula_structural   CdI2
_chemical_formula_sum   'Cd15 I30'
_cell_volume   1803.49986442
_cell_formula_units_Z   15
loop_
 _symmetry_equiv_pos_site_id
 _symmetry_equiv_pos_as_xyz
  1  'x, y, z'
loop_
 _atom_site_type_symbol
 _atom_site_label
 _atom_site_symmetry_multiplicity
 _atom_site_fract_x
 _atom_site_fract_y
 _atom_site_fract_z
 _atom_site_occupancy
  Cd  Cd0  1  0.666667  0.333333  0.016669  1
  Cd  Cd1  1  0.666667  0.333333  0.816663  1
  Cd  Cd2  1  0.000000  0.000000  0.616662  1
  Cd  Cd3  1  0.666667  0.333333  0.683334  1
  Cd  Cd4  1  0.000000  0.000000  0.483341  1
  Cd  Cd5  1  0.000000  0.000000  0.949994  1
  Cd  Cd6  1  0.666667  0.333333  0.550011  1
  Cd  Cd7  1  0.666667  0.333333  0.283336  1
  Cd  Cd8  1  0.000000  0.000000  0.216661  1
  Cd  Cd9  1  0.000000  0.000000  0.083331  1
  Cd  Cd10  1  0.666667  0.333333  0.149995  1
  Cd  Cd11  1  0.000000  0.000000  0.883333  1
  Cd  Cd12  1  0.666667  0.333333  0.416664  1
  Cd  Cd13  1  0.000000  0.000000  0.749997  1
  Cd  Cd14  1  0.000000  0.000000  0.349987  1
  I  I15  1  0.333333  0.666667  0.565664  1
  I  I16  1  0.000000  0.000000  0.401006  1
  I  I17  1  0.333333  0.666667  0.432317  1
  I  I18  1  0.666667  0.333333  0.334331  1
  I  I19  1  0.333333  0.666667  0.365646  1
  I  I20  1  0.333333  0.666667  0.898995  1
  I  I21  1  0.333333  0.666667  0.965649  1
  I  I22  1  0.333333  0.666667  0.232324  1
  I  I23  1  0.000000  0.000000  0.534358  1
  I  I24  1  0.333333  0.666667  0.698991  1
  I  I25  1  0.666667  0.333333  0.867679  1
  I  I26  1  0.333333  0.666667  0.765654  1
  I  I27  1  0.000000  0.000000  0.667682  1
  I  I28  1  0.000000  0.000000  0.801017  1
  I  I29  1  0.666667  0.333333  0.467684  1
  I  I30  1  0.666667  0.333333  0.734341  1
  I  I31  1  0.333333  0.666667  0.632317  1
  I  I32  1  0.666667  0.333333  0.201009  1
  I  I33  1  0.333333  0.666667  0.098988  1
  I  I34  1  0.666667  0.333333  0.601001  1
  I  I35  1  0.000000  0.000000  0.001017  1
  I  I36  1  0.000000  0.000000  0.134348  1
  I  I37  1  0.666667  0.333333  0.067673  1
  I  I38  1  0.333333  0.666667  0.032327  1
  I  I39  1  0.000000  0.000000  0.267682  1
  I  I40  1  0.333333  0.666667  0.298998  1
  I  I41  1  0.666667  0.333333  0.934337  1
  I  I42  1  0.333333  0.666667  0.832323  1
  I  I43  1  0.333333  0.666667  0.165655  1
  I  I44  1  0.333333  0.666667  0.499005  1
