# generated using pymatgen
data_TaTi9Al3Zn23O48
_symmetry_space_group_name_H-M   'P 1'
_cell_length_a   6.06220087
_cell_length_b   6.05445963
_cell_length_c   36.12178753
_cell_angle_alpha   60.28679238
_cell_angle_beta   60.31435429
_cell_angle_gamma   59.21895442
_symmetry_Int_Tables_number   1
_chemical_formula_structural   TaTi9Al3Zn23O48
_chemical_formula_sum   'Ta1 Ti9 Al3 Zn23 O48'
_cell_volume   935.97914953
_cell_formula_units_Z   1
loop_
 _symmetry_equiv_pos_site_id
 _symmetry_equiv_pos_as_xyz
  1  'x, y, z'
loop_
 _atom_site_type_symbol
 _atom_site_label
 _atom_site_symmetry_multiplicity
 _atom_site_fract_x
 _atom_site_fract_y
 _atom_site_fract_z
 _atom_site_occupancy
  Ta  Ta0  1  0.624041  0.623716  0.438468  1
  Ti  Ti1  1  0.626031  0.623198  0.016816  1
  Ti  Ti2  1  0.628872  0.629443  0.099162  1
  Ti  Ti3  1  0.624173  0.623967  0.183711  1
  Ti  Ti4  1  0.628281  0.628209  0.266365  1
  Ti  Ti5  1  0.623812  0.623995  0.350862  1
  Ti  Ti6  1  0.623550  0.625895  0.525819  1
  Ti  Ti7  1  0.622635  0.122161  0.771465  1
  Ti  Ti8  1  0.625009  0.637000  0.686283  1
  Ti  Ti9  1  0.625247  0.610348  0.856400  1
  Al  Al10  1  0.622333  0.618662  0.607012  1
  Al  Al11  1  0.626125  0.624175  0.770814  1
  Al  Al12  1  0.625828  0.630275  0.935809  1
  Zn  Zn13  1  0.990410  0.990695  0.001657  1
  Zn  Zn14  1  0.987149  0.986592  0.168754  1
  Zn  Zn15  1  0.273089  0.272988  0.035977  1
  Zn  Zn16  1  0.126577  0.625907  0.104085  1
  Zn  Zn17  1  0.625601  0.126493  0.104154  1
  Zn  Zn18  1  0.991108  0.990508  0.333568  1
  Zn  Zn19  1  0.266436  0.267012  0.205369  1
  Zn  Zn20  1  0.126868  0.625549  0.270780  1
  Zn  Zn21  1  0.625462  0.126864  0.270781  1
  Zn  Zn22  1  0.975126  0.975322  0.506218  1
  Zn  Zn23  1  0.265078  0.265624  0.372378  1
  Zn  Zn24  1  0.124731  0.624973  0.437662  1
  Zn  Zn25  1  0.625161  0.124819  0.437602  1
  Zn  Zn26  1  0.986949  0.997155  0.669085  1
  Zn  Zn27  1  0.254689  0.254504  0.542448  1
  Zn  Zn28  1  0.122897  0.616127  0.605454  1
  Zn  Zn29  1  0.621368  0.123779  0.604715  1
  Zn  Zn30  1  0.266922  0.252742  0.705454  1
  Zn  Zn31  1  0.124459  0.624442  0.770916  1
  Zn  Zn32  1  0.262570  0.251481  0.872970  1
  Zn  Zn33  1  0.124250  0.631090  0.937233  1
  Zn  Zn34  1  0.979705  0.998824  0.836760  1
  Zn  Zn35  1  0.625760  0.122572  0.938130  1
  O  O36  1  0.399935  0.400148  0.060962  1
  O  O37  1  0.400461  0.400568  0.139466  1
  O  O38  1  0.404194  0.856694  0.061788  1
  O  O39  1  0.856557  0.403962  0.061716  1
  O  O40  1  0.395521  0.845405  0.147020  1
  O  O41  1  0.399542  0.399826  0.228069  1
  O  O42  1  0.399512  0.399819  0.306455  1
  O  O43  1  0.845055  0.395302  0.147078  1
  O  O44  1  0.404400  0.855547  0.228927  1
  O  O45  1  0.851038  0.851019  0.069313  1
  O  O46  1  0.850006  0.849740  0.148233  1
  O  O47  1  0.855381  0.403987  0.228964  1
  O  O48  1  0.396601  0.844683  0.313654  1
  O  O49  1  0.399121  0.399465  0.395055  1
  O  O50  1  0.393213  0.393202  0.474888  1
  O  O51  1  0.850907  0.850661  0.236063  1
  O  O52  1  0.402791  0.853573  0.395988  1
  O  O53  1  0.844190  0.396407  0.313708  1
  O  O54  1  0.853381  0.402529  0.396022  1
  O  O55  1  0.849823  0.849583  0.314719  1
  O  O56  1  0.402949  0.403741  0.558649  1
  O  O57  1  0.392057  0.849517  0.479727  1
  O  O58  1  0.403455  0.399183  0.638655  1
  O  O59  1  0.855018  0.855058  0.400704  1
  O  O60  1  0.408510  0.848124  0.563754  1
  O  O61  1  0.849390  0.391981  0.479659  1
  O  O62  1  0.848904  0.408213  0.563461  1
  O  O63  1  0.849798  0.849673  0.480405  1
  O  O64  1  0.408363  0.370850  0.730219  1
  O  O65  1  0.396439  0.835953  0.648392  1
  O  O66  1  0.413502  0.388552  0.804843  1
  O  O67  1  0.840731  0.843930  0.572353  1
  O  O68  1  0.840218  0.401214  0.646766  1
  O  O69  1  0.407551  0.834455  0.730949  1
  O  O70  1  0.850567  0.844341  0.650814  1
  O  O71  1  0.842792  0.379112  0.732408  1
  O  O72  1  0.406504  0.873767  0.808994  1
  O  O73  1  0.399702  0.405418  0.890758  1
  O  O74  1  0.409087  0.406224  0.969440  1
  O  O75  1  0.836790  0.861351  0.736755  1
  O  O76  1  0.842064  0.416780  0.810662  1
  O  O77  1  0.411192  0.848233  0.894816  1
  O  O78  1  0.843007  0.880418  0.811185  1
  O  O79  1  0.854454  0.413234  0.893334  1
  O  O80  1  0.400226  0.842710  0.978573  1
  O  O81  1  0.842187  0.401264  0.978302  1
  O  O82  1  0.846226  0.849967  0.903241  1
  O  O83  1  0.848381  0.847508  0.982956  1
