# generated using pymatgen
data_Gd5AgSe8
_symmetry_space_group_name_H-M   'P 1'
_cell_length_a   7.61331907
_cell_length_b   7.61331892
_cell_length_c   7.61331904
_cell_angle_alpha   109.76909484
_cell_angle_beta   109.76909447
_cell_angle_gamma   108.87710459
_symmetry_Int_Tables_number   1
_chemical_formula_structural   Gd5AgSe8
_chemical_formula_sum   'Gd5 Ag1 Se8'
_cell_volume   339.67625959
_cell_formula_units_Z   1
loop_
 _symmetry_equiv_pos_site_id
 _symmetry_equiv_pos_as_xyz
  1  'x, y, z'
loop_
 _atom_site_type_symbol
 _atom_site_label
 _atom_site_symmetry_multiplicity
 _atom_site_fract_x
 _atom_site_fract_y
 _atom_site_fract_z
 _atom_site_occupancy
  Gd  Gd0  1  0.113720  0.747625  0.871481  1
  Gd  Gd1  1  0.252375  0.623856  0.366095  1
  Gd  Gd2  1  0.376144  0.242239  0.628519  1
  Gd  Gd3  1  0.625000  0.375000  0.250000  1
  Gd  Gd4  1  0.757761  0.886280  0.133905  1
  Ag  Ag5  1  0.875000  0.125000  0.750000  1
  Se  Se6  1  0.994095  0.855086  0.500792  1
  Se  Se7  1  0.144914  0.145706  0.139009  1
  Se  Se8  1  0.506697  0.005905  0.360991  1
  Se  Se9  1  0.372985  0.514606  0.007557  1
  Se  Se10  1  0.634572  0.627015  0.641621  1
  Se  Se11  1  0.485394  0.992950  0.858379  1
  Se  Se12  1  0.854294  0.493303  0.999208  1
  Se  Se13  1  0.007050  0.365428  0.492443  1
