# generated using pymatgen
data_Ca5Cu19As10
_symmetry_space_group_name_H-M   'P 1'
_cell_length_a   39.65402459
_cell_length_b   23.06241037
_cell_length_c   30.61521616
_cell_angle_alpha   13.67561821
_cell_angle_beta   15.14812226
_cell_angle_gamma   9.99525927
_symmetry_Int_Tables_number   1
_chemical_formula_structural   Ca5Cu19As10
_chemical_formula_sum   'Ca10 Cu38 As20'
_cell_volume   1124.87227575
_cell_formula_units_Z   2
loop_
 _symmetry_equiv_pos_site_id
 _symmetry_equiv_pos_as_xyz
  1  'x, y, z'
loop_
 _atom_site_type_symbol
 _atom_site_label
 _atom_site_symmetry_multiplicity
 _atom_site_fract_x
 _atom_site_fract_y
 _atom_site_fract_z
 _atom_site_occupancy
  Ca  Ca0  1  0.998111  0.001880  0.001714  1
  Ca  Ca1  1  0.201371  0.996447  0.000322  1
  Ca  Ca2  1  0.400112  0.997135  0.002153  1
  Ca  Ca3  1  0.600248  0.001596  0.997947  1
  Ca  Ca4  1  0.799976  0.996969  0.001589  1
  Ca  Ca5  1  0.999884  0.002870  0.497850  1
  Ca  Ca6  1  0.198628  0.003559  0.499676  1
  Ca  Ca7  1  0.401887  0.998129  0.498283  1
  Ca  Ca8  1  0.600018  0.003038  0.498415  1
  Ca  Ca9  1  0.799751  0.998407  0.502052  1
  Cu  Cu10  1  0.142730  0.143743  0.071121  1
  Cu  Cu11  1  0.026572  0.434487  0.218584  1
  Cu  Cu12  1  0.355235  0.112930  0.077325  1
  Cu  Cu13  1  0.223349  0.440177  0.218212  1
  Cu  Cu14  1  0.141624  0.147355  0.569620  1
  Cu  Cu15  1  0.541993  0.143983  0.071708  1
  Cu  Cu16  1  0.176655  0.559822  0.281783  1
  Cu  Cu17  1  0.023842  0.437356  0.719698  1
  Cu  Cu18  1  0.424418  0.438049  0.218356  1
  Cu  Cu19  1  0.340629  0.146823  0.572110  1
  Cu  Cu20  1  0.044785  0.886996  0.422703  1
  Cu  Cu21  1  0.742234  0.144333  0.071684  1
  Cu  Cu22  1  0.373423  0.565523  0.281417  1
  Cu  Cu23  1  0.225739  0.436799  0.717691  1
  Cu  Cu24  1  0.546309  0.153824  0.557848  1
  Cu  Cu25  1  0.257265  0.856260  0.428885  1
  Cu  Cu26  1  0.929524  0.155835  0.077309  1
  Cu  Cu27  1  0.174260  0.563219  0.782303  1
  Cu  Cu28  1  0.574982  0.564813  0.280506  1
  Cu  Cu29  1  0.424843  0.436476  0.719102  1
  Cu  Cu30  1  0.825046  0.435188  0.219452  1
  Cu  Cu31  1  0.059375  0.853169  0.927895  1
  Cu  Cu32  1  0.742061  0.138876  0.574855  1
  Cu  Cu33  1  0.470503  0.844154  0.422669  1
  Cu  Cu34  1  0.376144  0.562656  0.780300  1
  Cu  Cu35  1  0.625750  0.436159  0.718123  1
  Cu  Cu36  1  0.258357  0.852671  0.930385  1
  Cu  Cu37  1  0.945805  0.138486  0.571002  1
  Cu  Cu38  1  0.657788  0.855624  0.428325  1
  Cu  Cu39  1  0.575395  0.560817  0.782806  1
  Cu  Cu40  1  0.975587  0.561951  0.281644  1
  Cu  Cu41  1  0.824598  0.439142  0.717227  1
  Cu  Cu42  1  0.454171  0.861573  0.928984  1
  Cu  Cu43  1  0.858009  0.856011  0.428295  1
  Cu  Cu44  1  0.774250  0.563810  0.781869  1
  Cu  Cu45  1  0.657939  0.861131  0.925141  1
  Cu  Cu46  1  0.975146  0.563543  0.780896  1
  Cu  Cu47  1  0.853692  0.846168  0.942161  1
  As  As48  1  0.088907  0.261386  0.130352  1
  As  As49  1  0.299379  0.251585  0.125746  1
  As  As50  1  0.098576  0.252264  0.626886  1
  As  As51  1  0.509937  0.225065  0.131192  1
  As  As52  1  0.100623  0.748417  0.374251  1
  As  As53  1  0.300050  0.251714  0.625626  1
  As  As54  1  0.699912  0.250598  0.126399  1
  As  As55  1  0.311092  0.738617  0.369648  1
  As  As56  1  0.500007  0.253225  0.623831  1
  As  As57  1  0.899651  0.249895  0.126540  1
  As  As58  1  0.099946  0.748284  0.874382  1
  As  As59  1  0.500351  0.750107  0.373457  1
  As  As60  1  0.703766  0.259675  0.612813  1
  As  As61  1  0.301426  0.747738  0.873110  1
  As  As62  1  0.700086  0.749404  0.373604  1
  As  As63  1  0.899106  0.253499  0.625425  1
  As  As64  1  0.500888  0.746513  0.874574  1
  As  As65  1  0.890061  0.774943  0.368807  1
  As  As66  1  0.696231  0.740324  0.887192  1
  As  As67  1  0.899993  0.746777  0.876169  1
