# generated using pymatgen
data_CeNiSnH
_symmetry_space_group_name_H-M   'P 1'
_cell_length_a   7.27787383
_cell_length_b   8.39731819
_cell_length_c   4.38992800
_cell_angle_alpha   90.00000000
_cell_angle_beta   90.00000000
_cell_angle_gamma   90.00000000
_symmetry_Int_Tables_number   1
_chemical_formula_structural   CeNiSnH
_chemical_formula_sum   'Ce4 Ni4 Sn4 H4'
_cell_volume   268.28879163
_cell_formula_units_Z   4
loop_
 _symmetry_equiv_pos_site_id
 _symmetry_equiv_pos_as_xyz
  1  'x, y, z'
loop_
 _atom_site_type_symbol
 _atom_site_label
 _atom_site_symmetry_multiplicity
 _atom_site_fract_x
 _atom_site_fract_y
 _atom_site_fract_z
 _atom_site_occupancy
  Ce  Ce0  1  0.510902  0.192233  0.242970  1
  Ce  Ce1  1  0.489098  0.807767  0.742970  1
  Ce  Ce2  1  0.989098  0.692233  0.742970  1
  Ce  Ce3  1  0.010902  0.307767  0.242970  1
  Ni  Ni4  1  0.283253  0.602832  0.242072  1
  Ni  Ni5  1  0.716747  0.397168  0.742072  1
  Ni  Ni6  1  0.216747  0.102832  0.742072  1
  Ni  Ni7  1  0.783253  0.897168  0.242072  1
  Sn  Sn8  1  0.168516  0.927564  0.242883  1
  Sn  Sn9  1  0.831484  0.072436  0.742883  1
  Sn  Sn10  1  0.331484  0.427564  0.742883  1
  Sn  Sn11  1  0.668516  0.572436  0.242883  1
  H  H12  1  0.942140  0.419013  0.743075  1
  H  H13  1  0.057860  0.580987  0.243075  1
  H  H14  1  0.557860  0.919013  0.243075  1
  H  H15  1  0.442140  0.080987  0.743075  1
