# generated using pymatgen
data_TeHO3
_symmetry_space_group_name_H-M   'P 1'
_cell_length_a   11.98458543
_cell_length_b   8.32789197
_cell_length_c   4.83496042
_cell_angle_alpha   90.00000000
_cell_angle_beta   89.95927336
_cell_angle_gamma   90.00000000
_symmetry_Int_Tables_number   1
_chemical_formula_structural   TeHO3
_chemical_formula_sum   'Te8 H8 O24'
_cell_volume   482.55954691
_cell_formula_units_Z   8
loop_
 _symmetry_equiv_pos_site_id
 _symmetry_equiv_pos_as_xyz
  1  'x, y, z'
loop_
 _atom_site_type_symbol
 _atom_site_label
 _atom_site_symmetry_multiplicity
 _atom_site_fract_x
 _atom_site_fract_y
 _atom_site_fract_z
 _atom_site_occupancy
  Te  Te0  1  0.612023  0.464359  0.000673  1
  Te  Te1  1  0.388081  0.536188  0.500965  1
  Te  Te2  1  0.888081  0.963812  0.500965  1
  Te  Te3  1  0.112023  0.035641  0.000673  1
  Te  Te4  1  0.938684  0.358104  0.855365  1
  Te  Te5  1  0.061419  0.641088  0.355148  1
  Te  Te6  1  0.561419  0.858912  0.355148  1
  Te  Te7  1  0.438684  0.141896  0.855365  1
  H  H8  1  0.729776  0.561830  0.594050  1
  H  H9  1  0.271324  0.443122  0.089603  1
  H  H10  1  0.771324  0.056878  0.089603  1
  H  H11  1  0.229776  0.938170  0.594050  1
  H  H12  1  0.708179  0.317659  0.393972  1
  H  H13  1  0.292856  0.686166  0.893332  1
  H  H14  1  0.792856  0.813834  0.893332  1
  H  H15  1  0.208179  0.182341  0.393972  1
  O  O16  1  0.738903  0.482166  0.741463  1
  O  O17  1  0.260834  0.517965  0.243873  1
  O  O18  1  0.760834  0.982035  0.243873  1
  O  O19  1  0.238903  0.017834  0.741463  1
  O  O20  1  0.957369  0.450086  0.499417  1
  O  O21  1  0.042669  0.549266  0.999258  1
  O  O22  1  0.542669  0.950734  0.999258  1
  O  O23  1  0.457369  0.049914  0.499417  1
  O  O24  1  0.348474  0.346770  0.699409  1
  O  O25  1  0.651711  0.654040  0.198009  1
  O  O26  1  0.151711  0.845960  0.198009  1
  O  O27  1  0.848474  0.153230  0.699409  1
  O  O28  1  0.482772  0.406933  0.240755  1
  O  O29  1  0.517105  0.593877  0.740989  1
  O  O30  1  0.017105  0.906123  0.740989  1
  O  O31  1  0.982772  0.093067  0.240755  1
  O  O32  1  0.575549  0.268018  0.795464  1
  O  O33  1  0.424374  0.732831  0.296194  1
  O  O34  1  0.924374  0.767169  0.296194  1
  O  O35  1  0.075549  0.231982  0.795464  1
  O  O36  1  0.722387  0.333966  0.195705  1
  O  O37  1  0.277040  0.665557  0.697160  1
  O  O38  1  0.777040  0.834443  0.697160  1
  O  O39  1  0.222387  0.166034  0.195705  1
