# generated using pymatgen
data_Os3C9S2O9
_symmetry_space_group_name_H-M   'P 1'
_cell_length_a   6.80263284
_cell_length_b   9.59862997
_cell_length_c   13.70757008
_cell_angle_alpha   82.66263008
_cell_angle_beta   84.63063692
_cell_angle_gamma   69.56613677
_symmetry_Int_Tables_number   1
_chemical_formula_structural   Os3C9S2O9
_chemical_formula_sum   'Os6 C18 S4 O18'
_cell_volume   830.70422099
_cell_formula_units_Z   2
loop_
 _symmetry_equiv_pos_site_id
 _symmetry_equiv_pos_as_xyz
  1  'x, y, z'
loop_
 _atom_site_type_symbol
 _atom_site_label
 _atom_site_symmetry_multiplicity
 _atom_site_fract_x
 _atom_site_fract_y
 _atom_site_fract_z
 _atom_site_occupancy
  Os  Os0  1  0.671565  0.760233  0.844465  1
  Os  Os1  1  0.294317  0.600219  0.242144  1
  Os  Os2  1  0.705683  0.399781  0.757856  1
  Os  Os3  1  0.418048  0.301922  0.340529  1
  Os  Os4  1  0.581952  0.698078  0.659471  1
  Os  Os5  1  0.328435  0.239767  0.155535  1
  C  C6  1  0.794151  0.280332  0.877244  1
  C  C7  1  0.559779  0.070927  0.115240  1
  C  C8  1  0.909210  0.267956  0.673180  1
  C  C9  1  0.440221  0.929073  0.884760  1
  C  C10  1  0.697158  0.226893  0.384951  1
  C  C11  1  0.205849  0.719668  0.122756  1
  C  C12  1  0.145990  0.122859  0.178153  1
  C  C13  1  0.307766  0.398308  0.456746  1
  C  C14  1  0.245091  0.319724  0.026884  1
  C  C15  1  0.754909  0.680276  0.973116  1
  C  C16  1  0.302842  0.773107  0.615049  1
  C  C17  1  0.090790  0.732044  0.326820  1
  C  C18  1  0.498313  0.313436  0.739179  1
  C  C19  1  0.501687  0.686564  0.260821  1
  C  C20  1  0.692234  0.601692  0.543254  1
  C  C21  1  0.374831  0.115784  0.378024  1
  C  C22  1  0.854010  0.877141  0.821847  1
  C  C23  1  0.625169  0.884216  0.621976  1
  S  S24  1  0.548436  0.382000  0.178709  1
  S  S25  1  0.451564  0.618000  0.821291  1
  S  S26  1  0.094006  0.433114  0.251836  1
  S  S27  1  0.905994  0.566886  0.748164  1
  O  O28  1  0.967702  0.809963  0.378336  1
  O  O29  1  0.348479  0.003269  0.404726  1
  O  O30  1  0.195158  0.373521  0.948039  1
  O  O31  1  0.964618  0.947437  0.807447  1
  O  O32  1  0.626276  0.740445  0.270773  1
  O  O33  1  0.303043  0.032998  0.908172  1
  O  O34  1  0.840284  0.213785  0.953723  1
  O  O35  1  0.035382  0.052563  0.192553  1
  O  O36  1  0.032298  0.190037  0.621664  1
  O  O37  1  0.804842  0.626479  0.051961  1
  O  O38  1  0.651521  0.996731  0.595274  1
  O  O39  1  0.867746  0.182598  0.411018  1
  O  O40  1  0.373724  0.259555  0.729227  1
  O  O41  1  0.760310  0.540491  0.473087  1
  O  O42  1  0.696957  0.967002  0.091828  1
  O  O43  1  0.132254  0.817402  0.588982  1
  O  O44  1  0.239690  0.459509  0.526913  1
  O  O45  1  0.159716  0.786215  0.046277  1
