# generated using pymatgen
data_Na13Zr7Si5P7O48
_symmetry_space_group_name_H-M   'P 1'
_cell_length_a   9.34485543
_cell_length_b   9.31322904
_cell_length_c   18.62582108
_cell_angle_alpha   59.46304723
_cell_angle_beta   59.31615522
_cell_angle_gamma   59.51425535
_symmetry_Int_Tables_number   1
_chemical_formula_structural   Na13Zr7Si5P7O48
_chemical_formula_sum   'Na13 Zr7 Si5 P7 O48'
_cell_volume   1131.39148489
_cell_formula_units_Z   1
loop_
 _symmetry_equiv_pos_site_id
 _symmetry_equiv_pos_as_xyz
  1  'x, y, z'
loop_
 _atom_site_type_symbol
 _atom_site_label
 _atom_site_symmetry_multiplicity
 _atom_site_fract_x
 _atom_site_fract_y
 _atom_site_fract_z
 _atom_site_occupancy
  Na  Na0  1  0.017070  0.005027  0.004197  1
  Na  Na1  1  0.073462  0.352603  0.377444  1
  Na  Na2  1  0.338617  0.839041  0.068832  1
  Na  Na3  1  0.835152  0.131726  0.172591  1
  Na  Na4  1  0.490944  0.468310  0.265861  1
  Na  Na5  1  0.255635  0.888520  0.297224  1
  Na  Na6  1  0.129712  0.341544  0.916206  1
  Na  Na7  1  0.905459  0.588323  0.127970  1
  Na  Na8  1  0.358006  0.749455  0.543086  1
  Na  Na9  1  0.751436  0.091319  0.675604  1
  Na  Na10  1  0.474047  0.524261  0.747662  1
  Na  Na11  1  0.546283  0.228765  0.957463  1
  Na  Na12  1  0.892747  0.636146  0.619713  1
  Zr  Zr13  1  0.351013  0.354388  0.174624  1
  Zr  Zr14  1  0.147071  0.141929  0.572443  1
  Zr  Zr15  1  0.353597  0.351148  0.681833  1
  Zr  Zr16  1  0.646950  0.630092  0.337044  1
  Zr  Zr17  1  0.852085  0.858745  0.423528  1
  Zr  Zr18  1  0.649363  0.666714  0.813822  1
  Zr  Zr19  1  0.853792  0.855638  0.923464  1
  Si  Si20  1  0.043519  0.729604  0.234504  1
  Si  Si21  1  0.461345  0.037454  0.371157  1
  Si  Si22  1  0.042007  0.741688  0.726979  1
  Si  Si23  1  0.471147  0.050583  0.866362  1
  Si  Si24  1  0.746388  0.467259  0.531242  1
  P  P25  1  0.725872  0.476465  0.017909  1
  P  P26  1  0.249326  0.542636  0.479500  1
  P  P27  1  0.561006  0.940853  0.129955  1
  P  P28  1  0.945481  0.254899  0.272708  1
  P  P29  1  0.256303  0.556105  0.969201  1
  P  P30  1  0.544198  0.961497  0.620430  1
  P  P31  1  0.957131  0.246870  0.773195  1
  O  O32  1  0.107461  0.298693  0.254240  1
  O  O33  1  0.290546  0.504450  0.055269  1
  O  O34  1  0.046955  0.887974  0.142593  1
  O  O35  1  0.518683  0.113826  0.143309  1
  O  O36  1  0.016503  0.771890  0.318108  1
  O  O37  1  0.229316  0.555545  0.226343  1
  O  O38  1  0.286512  0.079163  0.457688  1
  O  O39  1  0.440181  0.212880  0.282930  1
  O  O40  1  0.561139  0.463077  0.105055  1
  O  O41  1  0.210123  0.378455  0.503467  1
  O  O42  1  0.084670  0.712037  0.472371  1
  O  O43  1  0.400274  0.949836  0.125111  1
  O  O44  1  0.643051  0.994672  0.382485  1
  O  O45  1  0.114881  0.293005  0.753942  1
  O  O46  1  0.872221  0.299369  0.023639  1
  O  O47  1  0.776633  0.626096  0.005833  1
  O  O48  1  0.400306  0.569934  0.388097  1
  O  O49  1  0.298311  0.514117  0.555627  1
  O  O50  1  0.609389  0.770483  0.208492  1
  O  O51  1  0.069991  0.919509  0.640952  1
  O  O52  1  0.504709  0.114470  0.647905  1
  O  O53  1  0.729892  0.928760  0.044349  1
  O  O54  1  0.980046  0.773542  0.819174  1
  O  O55  1  0.229247  0.579185  0.714963  1
  O  O56  1  0.765950  0.391491  0.308873  1
  O  O57  1  0.952004  0.268825  0.186596  1
  O  O58  1  0.285546  0.040673  0.941408  1
  O  O59  1  0.468744  0.861715  0.367226  1
  O  O60  1  0.960238  0.071123  0.346859  1
  O  O61  1  0.445362  0.243770  0.784872  1
  O  O62  1  0.708090  0.502219  0.446950  1
  O  O63  1  0.571633  0.437161  0.617827  1
  O  O64  1  0.258989  0.394813  0.966351  1
  O  O65  1  0.075803  0.710614  0.973655  1
  O  O66  1  0.882213  0.659826  0.268747  1
  O  O67  1  0.382935  0.991301  0.604653  1
  O  O68  1  0.620869  0.023355  0.900217  1
  O  O69  1  0.918971  0.286944  0.540476  1
  O  O70  1  0.779154  0.637069  0.517697  1
  O  O71  1  0.404758  0.620338  0.883360  1
  O  O72  1  0.579106  0.778476  0.696508  1
  O  O73  1  0.713366  0.950621  0.538409  1
  O  O74  1  0.781597  0.407381  0.785065  1
  O  O75  1  0.994202  0.207453  0.692967  1
  O  O76  1  0.575352  0.903378  0.816374  1
  O  O77  1  0.936803  0.084571  0.859845  1
  O  O78  1  0.673775  0.538214  0.937086  1
  O  O79  1  0.895481  0.693042  0.728057  1
