# generated using pymatgen
data_NaCoBP2H2O9
_symmetry_space_group_name_H-M   'P 1'
_cell_length_a   6.58616643
_cell_length_b   9.72370605
_cell_length_c   11.49928139
_cell_angle_alpha   90.00000000
_cell_angle_beta   90.00000000
_cell_angle_gamma   107.13525256
_symmetry_Int_Tables_number   1
_chemical_formula_structural   NaCoBP2H2O9
_chemical_formula_sum   'Na4 Co4 B4 P8 H8 O36'
_cell_volume   703.74736527
_cell_formula_units_Z   4
loop_
 _symmetry_equiv_pos_site_id
 _symmetry_equiv_pos_as_xyz
  1  'x, y, z'
loop_
 _atom_site_type_symbol
 _atom_site_label
 _atom_site_symmetry_multiplicity
 _atom_site_fract_x
 _atom_site_fract_y
 _atom_site_fract_z
 _atom_site_occupancy
  Na  Na0  1  0.930205  0.448406  0.312978  1
  Na  Na1  1  0.930205  0.948406  0.187022  1
  Na  Na2  1  0.069795  0.551594  0.687022  1
  Na  Na3  1  0.069795  0.051594  0.812978  1
  Co  Co4  1  0.381290  0.598562  0.923592  1
  Co  Co5  1  0.618710  0.401438  0.076408  1
  Co  Co6  1  0.618710  0.901438  0.423592  1
  Co  Co7  1  0.381290  0.098562  0.576408  1
  B  B8  1  0.730706  0.151862  0.955421  1
  B  B9  1  0.730706  0.651862  0.544579  1
  B  B10  1  0.269294  0.348138  0.455421  1
  B  B11  1  0.269294  0.848138  0.044579  1
  P  P12  1  0.528903  0.565123  0.327116  1
  P  P13  1  0.076183  0.317431  0.062617  1
  P  P14  1  0.076183  0.817431  0.437383  1
  P  P15  1  0.923817  0.682569  0.937383  1
  P  P16  1  0.471097  0.934877  0.827116  1
  P  P17  1  0.923817  0.182569  0.562617  1
  P  P18  1  0.528903  0.065123  0.172884  1
  P  P19  1  0.471097  0.434877  0.672884  1
  H  H20  1  0.737959  0.790257  0.828810  1
  H  H21  1  0.262041  0.709743  0.328810  1
  H  H22  1  0.737959  0.290257  0.671190  1
  H  H23  1  0.424034  0.725676  0.136203  1
  H  H24  1  0.575966  0.774324  0.636203  1
  H  H25  1  0.262041  0.209743  0.171190  1
  H  H26  1  0.575966  0.274323  0.863797  1
  H  H27  1  0.424034  0.225677  0.363797  1
  O  O28  1  0.306389  0.452835  0.358595  1
  O  O29  1  0.965310  0.725292  0.546882  1
  O  O30  1  0.631063  0.013227  0.274320  1
  O  O31  1  0.693611  0.047165  0.858595  1
  O  O32  1  0.701187  0.087833  0.528269  1
  O  O33  1  0.512601  0.289041  0.694385  1
  O  O34  1  0.396457  0.247913  0.444670  1
  O  O35  1  0.070335  0.103882  0.614608  1
  O  O36  1  0.306389  0.952835  0.141405  1
  O  O37  1  0.929665  0.896118  0.385392  1
  O  O38  1  0.298813  0.912167  0.471731  1
  O  O39  1  0.487399  0.710959  0.305615  1
  O  O40  1  0.682568  0.072468  0.067326  1
  O  O41  1  0.317432  0.427532  0.567326  1
  O  O42  1  0.965310  0.225292  0.953118  1
  O  O43  1  0.070335  0.603882  0.885392  1
  O  O44  1  0.034690  0.274708  0.453118  1
  O  O45  1  0.396457  0.747913  0.055330  1
  O  O46  1  0.929665  0.396118  0.114608  1
  O  O47  1  0.682568  0.572468  0.432674  1
  O  O48  1  0.368937  0.486773  0.774320  1
  O  O49  1  0.693611  0.547165  0.641405  1
  O  O50  1  0.603543  0.752087  0.555330  1
  O  O51  1  0.487399  0.210959  0.194385  1
  O  O52  1  0.893919  0.796347  0.844631  1
  O  O53  1  0.034690  0.774708  0.046882  1
  O  O54  1  0.603543  0.252087  0.944670  1
  O  O55  1  0.298813  0.412167  0.028269  1
  O  O56  1  0.106081  0.703653  0.344631  1
  O  O57  1  0.893919  0.296347  0.655369  1
  O  O58  1  0.368937  0.986773  0.725680  1
  O  O59  1  0.631063  0.513227  0.225680  1
  O  O60  1  0.512601  0.789041  0.805615  1
  O  O61  1  0.106081  0.203653  0.155369  1
  O  O62  1  0.701187  0.587833  0.971731  1
  O  O63  1  0.317432  0.927532  0.932674  1
