# generated using pymatgen
data_MnH2SO5
_symmetry_space_group_name_H-M   'P 1'
_cell_length_a   5.28039482
_cell_length_b   5.28039482
_cell_length_c   8.06314019
_cell_angle_alpha   71.67042404
_cell_angle_beta   108.32957596
_cell_angle_gamma   85.23622248
_symmetry_Int_Tables_number   1
_chemical_formula_structural   MnH2SO5
_chemical_formula_sum   'Mn2 H4 S2 O10'
_cell_volume   198.41370768
_cell_formula_units_Z   2
loop_
 _symmetry_equiv_pos_site_id
 _symmetry_equiv_pos_as_xyz
  1  'x, y, z'
loop_
 _atom_site_type_symbol
 _atom_site_label
 _atom_site_symmetry_multiplicity
 _atom_site_fract_x
 _atom_site_fract_y
 _atom_site_fract_z
 _atom_site_occupancy
  Mn  Mn0  1  0.500000  0.500000  0.500000  1
  Mn  Mn1  1  0.500000  0.500000  0.000000  1
  H  H2  1  0.398386  0.145308  0.790649  1
  H  H3  1  0.145308  0.398386  0.709351  1
  H  H4  1  0.601614  0.854692  0.209351  1
  H  H5  1  0.854692  0.601614  0.290649  1
  S  S6  1  0.848883  0.848883  0.750000  1
  S  S7  1  0.151117  0.151117  0.250000  1
  O  O8  1  0.126533  0.791629  0.891643  1
  O  O9  1  0.791629  0.126533  0.608357  1
  O  O10  1  0.873467  0.208371  0.108357  1
  O  O11  1  0.208371  0.873467  0.391643  1
  O  O12  1  0.832784  0.640993  0.658407  1
  O  O13  1  0.640993  0.832784  0.841593  1
  O  O14  1  0.167216  0.359007  0.341593  1
  O  O15  1  0.359007  0.167216  0.158407  1
  O  O16  1  0.346745  0.346745  0.750000  1
  O  O17  1  0.653255  0.653255  0.250000  1
