# generated using pymatgen
data_Li2MnBr4
_symmetry_space_group_name_H-M   'P 1'
_cell_length_a   7.87975792
_cell_length_b   15.74045711
_cell_length_c   13.62617904
_cell_angle_alpha   30.04008665
_cell_angle_beta   54.67028506
_cell_angle_gamma   59.95993859
_symmetry_Int_Tables_number   1
_chemical_formula_structural   Li2MnBr4
_chemical_formula_sum   'Li8 Mn4 Br16'
_cell_volume   690.24614661
_cell_formula_units_Z   4
loop_
 _symmetry_equiv_pos_site_id
 _symmetry_equiv_pos_as_xyz
  1  'x, y, z'
loop_
 _atom_site_type_symbol
 _atom_site_label
 _atom_site_symmetry_multiplicity
 _atom_site_fract_x
 _atom_site_fract_y
 _atom_site_fract_z
 _atom_site_occupancy
  Br  Br0  1  0.247209  0.240562  0.265760  1
  Br  Br1  1  0.253196  0.003618  0.752628  1
  Br  Br2  1  0.265689  0.496382  0.247372  1
  Br  Br3  1  0.752668  0.240559  0.253227  1
  Br  Br4  1  0.240240  0.259441  0.746773  1
  Br  Br5  1  0.257378  0.742891  0.247284  1
  Br  Br6  1  0.752702  0.002385  0.737849  1
  Br  Br7  1  0.733169  0.497615  0.262151  1
  Br  Br8  1  0.266915  0.497583  0.742577  1
  Br  Br9  1  0.247236  0.002417  0.257423  1
  Br  Br10  1  0.742658  0.742866  0.266921  1
  Br  Br11  1  0.759854  0.259438  0.734240  1
  Br  Br12  1  0.262232  0.757134  0.733079  1
  Br  Br13  1  0.734221  0.496400  0.759899  1
  Br  Br14  1  0.746820  0.003600  0.240101  1
  Br  Br15  1  0.737729  0.757109  0.752716  1
  Li  Li16  1  0.000021  0.000962  0.999039  1
  Li  Li17  1  0.500968  0.250000  0.000000  1
  Li  Li18  1  0.500024  0.499038  0.000961  1
  Li  Li19  1  0.999082  0.250000  0.000000  1
  Li  Li20  1  0.499078  0.250000  0.500000  1
  Li  Li21  1  0.000898  0.250000  0.500000  1
  Li  Li22  1  0.000021  0.499010  0.500987  1
  Li  Li23  1  0.500014  0.000990  0.499013  1
  Mn  Mn24  1  0.497632  0.750000  0.000000  1
  Mn  Mn25  1  0.500076  0.497807  0.502150  1
  Mn  Mn26  1  0.502278  0.750000  0.500000  1
  Mn  Mn27  1  -0.000008  0.002193  0.497850  1
