# generated using pymatgen
data_Sc2Cu3H36(NF)12
_symmetry_space_group_name_H-M   'P 1'
_cell_length_a   9.06831416
_cell_length_b   8.82700123
_cell_length_c   9.62945766
_cell_angle_alpha   84.73742287
_cell_angle_beta   90.93638599
_cell_angle_gamma   100.60359141
_symmetry_Int_Tables_number   1
_chemical_formula_structural   Sc2Cu3H36(NF)12
_chemical_formula_sum   'Sc2 Cu3 H36 N12 F12'
_cell_volume   754.44375282
_cell_formula_units_Z   1
loop_
 _symmetry_equiv_pos_site_id
 _symmetry_equiv_pos_as_xyz
  1  'x, y, z'
loop_
 _atom_site_type_symbol
 _atom_site_label
 _atom_site_symmetry_multiplicity
 _atom_site_fract_x
 _atom_site_fract_y
 _atom_site_fract_z
 _atom_site_occupancy
  Sc  Sc0  1  0.500000  0.000000  0.500000  1
  Sc  Sc1  1  0.000000  0.500000  0.000000  1
  Cu  Cu2  1  0.500000  0.000000  0.000000  1
  Cu  Cu3  1  0.500000  0.500000  0.500000  1
  Cu  Cu4  1  0.000000  0.000000  0.500000  1
  H  H5  1  0.880139  0.089449  0.974508  1
  H  H6  1  0.119861  0.910551  0.025492  1
  H  H7  1  0.660491  0.914750  0.737050  1
  H  H8  1  0.339509  0.085250  0.262950  1
  H  H9  1  0.873894  0.884525  0.961475  1
  H  H10  1  0.126106  0.115475  0.038525  1
  H  H11  1  0.691892  0.326848  0.115382  1
  H  H12  1  0.308108  0.673152  0.884618  1
  H  H13  1  0.533155  0.183018  0.727034  1
  H  H14  1  0.466845  0.816982  0.272966  1
  H  H15  1  0.447184  0.104023  0.099361  1
  H  H16  1  0.552816  0.895977  0.900639  1
  H  H17  1  0.144143  0.307720  0.332939  1
  H  H18  1  0.855857  0.692280  0.667061  1
  H  H19  1  0.232502  0.518347  0.549518  1
  H  H20  1  0.767498  0.481653  0.450482  1
  H  H21  1  0.473481  0.262028  0.573046  1
  H  H22  1  0.526519  0.737972  0.426954  1
  H  H23  1  0.592418  0.576826  0.174816  1
  H  H24  1  0.407582  0.423174  0.825184  1
  H  H25  1  0.565163  0.565589  0.249070  1
  H  H26  1  0.434837  0.434411  0.750930  1
  H  H27  1  0.635307  0.332435  0.169490  1
  H  H28  1  0.364693  0.667565  0.830510  1
  H  H29  1  0.762780  0.234884  0.526806  1
  H  H30  1  0.237220  0.765116  0.473194  1
  H  H31  1  0.012332  0.410633  0.360591  1
  H  H32  1  -0.012332  0.589367  0.639409  1
  H  H33  1  0.995073  0.264925  0.563397  1
  H  H34  1  0.004927  0.735075  0.436603  1
  H  H35  1  0.830612  0.969850  0.311759  1
  H  H36  1  0.169388  0.030150  0.688241  1
  H  H37  1  0.848108  0.006265  0.238768  1
  H  H38  1  0.151892  0.993735  0.761232  1
  H  H39  1  0.857556  0.621596  0.157725  1
  H  H40  1  0.142444  0.378404  0.842275  1
  N  N41  1  0.929562  0.992610  -0.019809  1
  N  N42  1  0.070438  0.007390  0.019809  1
  N  N43  1  0.694797  0.295647  0.580063  1
  N  N44  1  0.305203  0.704353  0.419937  1
  N  N45  1  0.325758  0.568456  0.493228  1
  N  N46  1  0.674242  0.431544  0.506772  1
  N  N47  1  0.447362  0.798074  0.381539  1
  N  N48  1  0.552638  0.201926  0.618461  1
  N  N49  1  -0.012821  0.203670  0.477124  1
  N  N50  1  0.012821  0.796330  0.522876  1
  N  N51  1  0.032835  0.301484  0.354726  1
  N  N52  1  0.967165  0.698516  0.645274  1
  F  F53  1  0.555393  0.869306  0.137084  1
  F  F54  1  0.444607  0.130694  0.862916  1
  F  F55  1  0.492985  0.150595  0.343291  1
  F  F56  1  0.507015  0.849405  0.656709  1
  F  F57  1  0.764153  0.966112  0.719466  1
  F  F58  1  0.235847  0.033888  0.280534  1
  F  F59  1  0.831748  0.618914  0.010831  1
  F  F60  1  0.168252  0.381086  -0.010831  1
  F  F61  1  0.871287  0.299651  0.983985  1
  F  F62  1  0.128713  0.700349  0.016015  1
  F  F63  1  0.906628  0.594851  0.248904  1
  F  F64  1  0.093372  0.405149  0.751096  1
