# generated using pymatgen
data_CaRe2H6C(NO5)2
_symmetry_space_group_name_H-M   'P 1'
_cell_length_a   7.44432437
_cell_length_b   9.25117325
_cell_length_c   9.31243193
_cell_angle_alpha   111.56349895
_cell_angle_beta   91.29683141
_cell_angle_gamma   104.93102690
_symmetry_Int_Tables_number   1
_chemical_formula_structural   CaRe2H6C(NO5)2
_chemical_formula_sum   'Ca2 Re4 H12 C2 N4 O20'
_cell_volume   571.37725599
_cell_formula_units_Z   2
loop_
 _symmetry_equiv_pos_site_id
 _symmetry_equiv_pos_as_xyz
  1  'x, y, z'
loop_
 _atom_site_type_symbol
 _atom_site_label
 _atom_site_symmetry_multiplicity
 _atom_site_fract_x
 _atom_site_fract_y
 _atom_site_fract_z
 _atom_site_occupancy
  Ca  Ca0  1  0.418938  0.783898  0.516189  1
  Ca  Ca1  1  0.581062  0.216102  0.483811  1
  Re  Re2  1  0.162724  0.384506  0.639035  1
  Re  Re3  1  0.837276  0.615494  0.360965  1
  Re  Re4  1  0.283051  0.326712  0.171061  1
  Re  Re5  1  0.716949  0.673288  0.828939  1
  H  H6  1  0.156988  0.720120  0.014421  1
  H  H7  1  0.843012  0.279880  0.985579  1
  H  H8  1  0.373952  0.725960  0.092879  1
  H  H9  1  0.626048  0.274040  0.907121  1
  H  H10  1  0.981867  0.880785  0.170390  1
  H  H11  1  0.018133  0.119215  0.829610  1
  H  H12  1  0.074886  0.008688  0.363071  1
  H  H13  1  0.925114  0.991312  0.636929  1
  H  H14  1  0.149286  0.852666  0.769614  1
  H  H15  1  0.850714  0.147334  0.230386  1
  H  H16  1  0.343455  0.984377  0.839583  1
  H  H17  1  0.656545  0.015623  0.160417  1
  C  C18  1  0.245782  0.878658  0.244260  1
  C  C19  1  0.754218  0.121342  0.755740  1
  N  N20  1  0.261776  0.771039  0.104903  1
  N  N21  1  0.738224  0.228961  0.895097  1
  N  N22  1  0.087772  0.925556  0.258635  1
  N  N23  1  0.912228  0.074444  0.741365  1
  O  O24  1  0.271903  0.531960  0.568215  1
  O  O25  1  0.728097  0.468040  0.431785  1
  O  O26  1  0.266906  0.224770  0.575492  1
  O  O27  1  0.733094  0.775230  0.424508  1
  O  O28  1  0.923450  0.307225  0.565064  1
  O  O29  1  0.076550  0.692775  0.434936  1
  O  O30  1  0.187460  0.469622  0.842331  1
  O  O31  1  0.812540  0.530378  0.157669  1
  O  O32  1  0.374775  0.538904  0.256278  1
  O  O33  1  0.625225  0.461096  0.743722  1
  O  O34  1  0.379205  0.238199  0.278691  1
  O  O35  1  0.620795  0.761801  0.721309  1
  O  O36  1  0.036583  0.269312  0.163503  1
  O  O37  1  0.963417  0.730688  0.836497  1
  O  O38  1  0.336022  0.250392  0.980465  1
  O  O39  1  0.663978  0.749608  0.019535  1
  O  O40  1  0.267312  0.907172  0.741437  1
  O  O41  1  0.732688  0.092828  0.258563  1
  O  O42  1  0.376156  0.934597  0.359060  1
  O  O43  1  0.623844  0.065403  0.640940  1
