# generated using pymatgen
data_Fe3Te2(CO)9
_symmetry_space_group_name_H-M   'P 1'
_cell_length_a   6.97209369
_cell_length_b   9.39229676
_cell_length_c   13.16161315
_cell_angle_alpha   94.83288257
_cell_angle_beta   95.23050593
_cell_angle_gamma   110.47618420
_symmetry_Int_Tables_number   1
_chemical_formula_structural   Fe3Te2(CO)9
_chemical_formula_sum   'Fe6 Te4 C18 O18'
_cell_volume   797.80236551
_cell_formula_units_Z   2
loop_
 _symmetry_equiv_pos_site_id
 _symmetry_equiv_pos_as_xyz
  1  'x, y, z'
loop_
 _atom_site_type_symbol
 _atom_site_label
 _atom_site_symmetry_multiplicity
 _atom_site_fract_x
 _atom_site_fract_y
 _atom_site_fract_z
 _atom_site_occupancy
  Fe  Fe0  1  0.126706  0.891149  0.245530  1
  Fe  Fe1  1  0.873294  0.108851  0.754470  1
  Fe  Fe2  1  0.429493  0.274523  0.161804  1
  Fe  Fe3  1  0.570507  0.725477  0.838196  1
  Fe  Fe4  1  0.286056  0.189711  0.343809  1
  Fe  Fe5  1  0.713944  0.810289  0.656191  1
  Te  Te6  1  0.054836  0.111233  0.171034  1
  Te  Te7  1  0.497397  0.936291  0.750857  1
  Te  Te8  1  0.502603  0.063709  0.249143  1
  Te  Te9  1  0.945164  0.888767  0.828966  1
  C  C10  1  0.788489  0.229675  0.676547  1
  C  C11  1  0.092285  0.783016  0.124088  1
  C  C12  1  0.504017  0.358011  0.389666  1
  C  C13  1  0.699451  0.386951  0.188352  1
  C  C14  1  0.211511  0.770325  0.323453  1
  C  C15  1  0.574900  0.793390  0.967452  1
  C  C16  1  0.272858  0.079253  0.446898  1
  C  C17  1  0.896492  0.731408  0.615916  1
  C  C18  1  0.103508  0.268592  0.384084  1
  C  C19  1  0.647119  0.563927  0.854349  1
  C  C20  1  0.866556  0.811468  0.275304  1
  C  C21  1  0.133444  0.188532  0.724696  1
  C  C22  1  0.495983  0.641989  0.610334  1
  C  C23  1  0.727142  0.920747  0.553102  1
  C  C24  1  0.425100  0.206610  0.032548  1
  C  C25  1  0.907715  0.216984  0.875912  1
  C  C26  1  0.300549  0.613049  0.811648  1
  C  C27  1  0.352881  0.436073  0.145651  1
  O  O28  1  0.261664  0.689264  0.371830  1
  O  O29  1  0.738336  0.310736  0.628170  1
  O  O30  1  0.699329  0.752867  0.293113  1
  O  O31  1  0.577702  0.837498  0.053051  1
  O  O32  1  0.937641  0.287275  0.956421  1
  O  O33  1  0.125412  0.540870  0.796526  1
  O  O34  1  0.062359  0.712725  0.043579  1
  O  O35  1  0.987373  0.320053  0.413709  1
  O  O36  1  0.311325  0.543026  0.133849  1
  O  O37  1  0.422298  0.162502  0.946949  1
  O  O38  1  0.730245  0.983866  0.480394  1
  O  O39  1  0.300671  0.247133  0.706887  1
  O  O40  1  0.356270  0.532956  0.575494  1
  O  O41  1  0.688675  0.456974  0.866151  1
  O  O42  1  0.269755  0.016134  0.519606  1
  O  O43  1  0.874588  0.459130  0.203474  1
  O  O44  1  0.012627  0.679947  0.586291  1
  O  O45  1  0.643730  0.467044  0.424506  1
