# generated using pymatgen
data_CuSb2(XeF8)2
_symmetry_space_group_name_H-M   'P 1'
_cell_length_a   5.64327227
_cell_length_b   9.36018668
_cell_length_c   15.05853019
_cell_angle_alpha   90.00000000
_cell_angle_beta   90.00000000
_cell_angle_gamma   91.14528271
_symmetry_Int_Tables_number   1
_chemical_formula_structural   CuSb2(XeF8)2
_chemical_formula_sum   'Cu2 Sb4 Xe4 F32'
_cell_volume   795.26401259
_cell_formula_units_Z   2
loop_
 _symmetry_equiv_pos_site_id
 _symmetry_equiv_pos_as_xyz
  1  'x, y, z'
loop_
 _atom_site_type_symbol
 _atom_site_label
 _atom_site_symmetry_multiplicity
 _atom_site_fract_x
 _atom_site_fract_y
 _atom_site_fract_z
 _atom_site_occupancy
  Cu  Cu0  1  0.000000  0.000000  0.500000  1
  Cu  Cu1  1  0.000000  0.500000  0.000000  1
  Sb  Sb2  1  0.510764  0.249238  0.418583  1
  Sb  Sb3  1  0.510764  0.749238  0.081417  1
  Sb  Sb4  1  0.489236  0.750762  0.581417  1
  Sb  Sb5  1  0.489236  0.250762  0.918583  1
  Xe  Xe6  1  0.004449  0.836337  0.832070  1
  Xe  Xe7  1  0.004449  0.336337  0.667930  1
  Xe  Xe8  1  0.995551  0.163663  0.167930  1
  Xe  Xe9  1  0.995551  0.663663  0.332070  1
  F  F10  1  0.972555  0.996922  0.252488  1
  F  F11  1  0.775549  0.374670  0.917428  1
  F  F12  1  0.224451  0.125330  0.417428  1
  F  F13  1  0.675664  0.084992  0.902583  1
  F  F14  1  0.518456  0.740241  0.455356  1
  F  F15  1  0.967266  0.152515  0.581056  1
  F  F16  1  0.518456  0.240241  0.044644  1
  F  F17  1  0.775549  0.874670  0.582572  1
  F  F18  1  0.027445  0.503078  0.752488  1
  F  F19  1  0.324336  0.915008  0.097417  1
  F  F20  1  0.201076  0.640873  0.579616  1
  F  F21  1  0.693211  0.573276  0.067400  1
  F  F22  1  0.675664  0.584992  0.597417  1
  F  F23  1  0.526602  0.220021  0.292835  1
  F  F24  1  0.324336  0.415008  0.402583  1
  F  F25  1  0.526602  0.720021  0.207165  1
  F  F26  1  0.481544  0.759759  0.955356  1
  F  F27  1  0.967266  0.652515  0.918944  1
  F  F28  1  0.473398  0.279979  0.792835  1
  F  F29  1  0.693211  0.073276  0.432600  1
  F  F30  1  0.201076  0.140873  0.920384  1
  F  F31  1  0.027445  0.003078  0.747512  1
  F  F32  1  0.306789  0.926724  0.567400  1
  F  F33  1  0.473398  0.779979  0.707165  1
  F  F34  1  0.306789  0.426724  0.932600  1
  F  F35  1  0.032734  0.847485  0.418944  1
  F  F36  1  0.481544  0.259759  0.544644  1
  F  F37  1  0.798924  0.859127  0.079616  1
  F  F38  1  0.032734  0.347485  0.081056  1
  F  F39  1  0.224451  0.625330  0.082572  1
  F  F40  1  0.798924  0.359127  0.420384  1
  F  F41  1  0.972555  0.496922  0.247512  1
