# generated using pymatgen
data_Li5TiN3
_symmetry_space_group_name_H-M   'P 1'
_cell_length_a   8.45156932
_cell_length_b   8.46718172
_cell_length_c   25.39790619
_cell_angle_alpha   109.52132040
_cell_angle_beta   109.42496045
_cell_angle_gamma   109.44378677
_symmetry_Int_Tables_number   1
_chemical_formula_structural   Li5TiN3
_chemical_formula_sum   'Li80 Ti16 N48'
_cell_volume   1399.51771230
_cell_formula_units_Z   16
loop_
 _symmetry_equiv_pos_site_id
 _symmetry_equiv_pos_as_xyz
  1  'x, y, z'
loop_
 _atom_site_type_symbol
 _atom_site_label
 _atom_site_symmetry_multiplicity
 _atom_site_fract_x
 _atom_site_fract_y
 _atom_site_fract_z
 _atom_site_occupancy
  Li  Li0  1  0.974054  0.965062  0.745804  1
  Li  Li1  1  0.980819  0.522592  0.918195  1
  Li  Li2  1  0.258509  0.720214  0.921891  1
  Li  Li3  1  0.027110  0.014005  0.922067  1
  Li  Li4  1  0.021338  0.740278  0.678955  1
  Li  Li5  1  0.266435  0.540736  0.832437  1
  Li  Li6  1  0.945227  0.217749  0.647521  1
  Li  Li7  1  0.992942  0.984456  0.413706  1
  Li  Li8  1  0.994187  0.537216  0.586021  1
  Li  Li9  1  0.252658  0.959692  0.661496  1
  Li  Li10  1  0.272509  0.243788  0.911217  1
  Li  Li11  1  0.261983  0.745405  0.762722  1
  Li  Li12  1  0.499387  0.999684  0.758595  1
  Li  Li13  1  0.270071  0.703604  0.584905  1
  Li  Li14  1  0.043151  0.034024  0.589920  1
  Li  Li15  1  0.516216  0.534325  0.919744  1
  Li  Li16  1  0.537377  0.747947  0.834890  1
  Li  Li17  1  0.008652  0.741995  0.341889  1
  Li  Li18  1  0.244787  0.000438  0.823810  1
  Li  Li19  1  0.274281  0.243246  0.578915  1
  Li  Li20  1  0.758232  0.005124  0.840333  1
  Li  Li21  1  0.511435  0.261633  0.843366  1
  Li  Li22  1  0.263278  0.505814  0.488574  1
  Li  Li23  1  0.978334  0.224552  0.326779  1
  Li  Li24  1  0.531324  0.506006  0.753159  1
  Li  Li25  1  0.256749  0.985547  0.338936  1
  Li  Li26  1  0.248885  0.753023  0.423219  1
  Li  Li27  1  0.532417  0.784328  0.675978  1
  Li  Li28  1  0.993755  0.537413  0.252858  1
  Li  Li29  1  0.773235  0.761955  0.922157  1
  Li  Li30  1  0.507064  0.012018  0.423815  1
  Li  Li31  1  0.237931  0.235024  0.408320  1
  Li  Li32  1  0.269056  0.735842  0.259241  1
  Li  Li33  1  0.482252  0.506423  0.582951  1
  Li  Li34  1  0.472481  0.246137  0.665978  1
  Li  Li35  1  0.502499  0.740409  0.486203  1
  Li  Li36  1  0.725459  0.491847  0.838342  1
  Li  Li37  1  0.041170  0.030517  0.258050  1
  Li  Li38  1  0.777738  0.041391  0.682007  1
  Li  Li39  1  0.755373  0.274900  0.917145  1
  Li  Li40  1  0.739820  0.757910  0.752258  1
  Li  Li41  1  0.243264  0.006688  0.492909  1
  Li  Li42  1  0.729975  0.502928  0.667622  1
  Li  Li43  1  0.759120  0.013286  0.508170  1
  Li  Li44  1  0.275031  0.243504  0.247525  1
  Li  Li45  1  0.956411  0.217209  0.985745  1
  Li  Li46  1  0.472440  0.253724  0.494333  1
  Li  Li47  1  0.500948  0.478924  0.418003  1
  Li  Li48  1  0.263580  0.541993  0.165188  1
  Li  Li49  1  0.235883  0.747704  0.086774  1
  Li  Li50  1  0.532995  0.783605  0.342860  1
  Li  Li51  1  0.711047  0.253391  0.746491  1
  Li  Li52  1  0.498105  0.999209  0.090351  1
  Li  Li53  1  0.975195  0.462151  0.737004  1
  Li  Li54  1  0.740287  0.282069  0.579224  1
  Li  Li55  1  0.726374  0.459908  0.494259  1
  Li  Li56  1  0.483868  0.252731  0.337922  1
  Li  Li57  1  0.481658  0.510506  0.251158  1
  Li  Li58  1  0.773927  0.024855  0.344912  1
  Li  Li59  1  0.500695  0.742046  0.153082  1
  Li  Li60  1  0.740287  0.754232  0.418807  1
  Li  Li61  1  0.242731  0.003100  0.158998  1
  Li  Li62  1  0.725895  0.497313  0.332836  1
  Li  Li63  1  0.761067  0.010670  0.175331  1
  Li  Li64  1  0.530696  0.503968  0.086426  1
  Li  Li65  1  0.506070  0.258773  0.175208  1
  Li  Li66  1  0.249580  0.969014  0.997652  1
  Li  Li67  1  0.524785  0.781552  0.005664  1
  Li  Li68  1  0.714857  0.239361  0.408204  1
  Li  Li69  1  0.984042  0.470479  0.403812  1
  Li  Li70  1  0.473610  0.248916  0.999818  1
  Li  Li71  1  0.726987  0.458848  0.161855  1
  Li  Li72  1  0.771107  0.282886  0.253840  1
  Li  Li73  1  0.738823  0.756073  0.083382  1
  Li  Li74  1  0.724722  0.488496  0.995410  1
  Li  Li75  1  0.980838  0.970457  0.079056  1
  Li  Li76  1  0.706671  0.226238  0.071172  1
  Li  Li77  1  0.971915  0.460492  0.069697  1
  Li  Li78  1  0.770687  0.011198  0.006044  1
  Li  Li79  1  0.989300  0.735696  0.000958  1
  Ti  Ti80  1  0.001764  0.737626  0.832040  1
  Ti  Ti81  1  -0.000407  0.262250  0.831158  1
  Ti  Ti82  1  0.008575  0.738701  0.501044  1
  Ti  Ti83  1  0.236320  0.238968  0.744018  1
  Ti  Ti84  1  0.005044  0.262517  0.499550  1
  Ti  Ti85  1  0.253142  0.496901  0.664739  1
  Ti  Ti86  1  0.497883  0.994034  0.914860  1
  Ti  Ti87  1  0.005079  0.739406  0.166962  1
  Ti  Ti88  1  0.002761  0.262234  0.165426  1
  Ti  Ti89  1  0.254126  0.503876  0.332292  1
  Ti  Ti90  1  0.505721  0.000005  0.248330  1
  Ti  Ti91  1  0.502918  0.995998  0.581166  1
  Ti  Ti92  1  0.767981  0.762995  0.587060  1
  Ti  Ti93  1  0.243003  0.245545  0.079714  1
  Ti  Ti94  1  0.252547  0.498439  0.997817  1
  Ti  Ti95  1  0.760114  0.755651  0.251381  1
  N  N96  1  0.994596  0.492681  0.829918  1
  N  N97  1  0.002492  0.999104  0.666090  1
  N  N98  1  0.244335  0.974201  0.908220  1
  N  N99  1  0.023760  0.269051  0.912628  1
  N  N100  1  0.218464  0.246249  0.820942  1
  N  N101  1  0.504252  0.995546  0.840186  1
  N  N102  1  0.981338  0.974155  0.326574  1
  N  N103  1  0.252087  0.974249  0.576277  1
  N  N104  1  0.019541  0.272789  0.582128  1
  N  N105  1  0.244720  0.470498  0.740171  1
  N  N106  1  0.508553  0.774381  0.917196  1
  N  N107  1  0.259749  0.727631  0.669437  1
  N  N108  1  0.718403  0.223405  0.991562  1
  N  N109  1  0.459525  0.238068  0.747496  1
  N  N110  1  0.744860  0.508943  0.919570  1
  N  N111  1  0.224162  0.254156  0.497736  1
  N  N112  1  0.479689  0.503221  0.666169  1
  N  N113  1  0.505148  0.005187  0.508779  1
  N  N114  1  0.249888  0.973155  0.240885  1
  N  N115  1  0.533218  0.772328  0.583982  1
  N  N116  1  0.021612  0.270109  0.246462  1
  N  N117  1  0.244286  0.492860  0.405643  1
  N  N118  1  0.784799  0.751983  0.834728  1
  N  N119  1  0.256664  0.734297  0.336961  1
  N  N120  1  0.714806  0.229562  0.656657  1
  N  N121  1  0.487779  0.238261  0.415749  1
  N  N122  1  0.228467  0.254535  0.159444  1
  N  N123  1  0.994190  0.737770  0.756173  1
  N  N124  1  0.752825  0.539927  0.587784  1
  N  N125  1  0.772975  0.035198  0.760743  1
  N  N126  1  0.483138  0.506780  0.333784  1
  N  N127  1  0.504719  0.003776  0.174113  1
  N  N128  1  0.024083  0.019257  0.006590  1
  N  N129  1  0.246655  0.479116  0.074570  1
  N  N130  1  0.787708  0.759378  0.511064  1
  N  N131  1  0.523952  0.771487  0.249791  1
  N  N132  1  0.256684  0.729152  0.003838  1
  N  N133  1  0.723855  0.227806  0.323228  1
  N  N134  1  0.746967  0.527584  0.252170  1
  N  N135  1  0.469610  0.240425  0.082716  1
  N  N136  1  0.994528  0.742263  0.426709  1
  N  N137  1  0.781216  0.031139  0.428602  1
  N  N138  1  0.006450  0.502604  0.499150  1
  N  N139  1  0.481175  0.507112  0.000919  1
  N  N140  1  0.779615  0.751137  0.173416  1
  N  N141  1  0.992287  0.741500  0.092588  1
  N  N142  1  0.778040  0.033432  0.095415  1
  N  N143  1  0.999912  0.498951  0.165421  1
