# generated using pymatgen
data_CaSmCuClO3
_symmetry_space_group_name_H-M   'P 1'
_cell_length_a   3.92161550
_cell_length_b   3.92162138
_cell_length_c   13.57128338
_cell_angle_alpha   90.00004366
_cell_angle_beta   90.00002279
_cell_angle_gamma   89.99997472
_symmetry_Int_Tables_number   1
_chemical_formula_structural   CaSmCuClO3
_chemical_formula_sum   'Ca2 Sm2 Cu2 Cl2 O6'
_cell_volume   208.71400465
_cell_formula_units_Z   2
loop_
 _symmetry_equiv_pos_site_id
 _symmetry_equiv_pos_as_xyz
  1  'x, y, z'
loop_
 _atom_site_type_symbol
 _atom_site_label
 _atom_site_symmetry_multiplicity
 _atom_site_fract_x
 _atom_site_fract_y
 _atom_site_fract_z
 _atom_site_occupancy
  Ca  Ca0  1  0.250001  0.250000  0.161000  1
  Ca  Ca1  1  0.750000  0.750000  0.839008  1
  Sm  Sm2  1  0.249999  0.249999  0.410962  1
  Sm  Sm3  1  0.750000  0.750001  0.589031  1
  Cu  Cu4  1  0.250000  0.250000  0.722807  1
  Cu  Cu5  1  0.750000  0.750000  0.277183  1
  Cl  Cl6  1  0.250001  0.250000  0.926027  1
  Cl  Cl7  1  0.749999  0.750000  0.073984  1
  O  O8  1  0.250000  0.750000  0.725519  1
  O  O9  1  0.250000  0.750001  0.274482  1
  O  O10  1  0.750000  0.250000  0.725519  1
  O  O11  1  0.250001  0.749999  0.499997  1
  O  O12  1  0.750001  0.250000  0.274482  1
  O  O13  1  0.749999  0.250000  0.499997  1
