# generated using pymatgen
data_Sr2B8Ru7
_symmetry_space_group_name_H-M   'P 1'
_cell_length_a   6.46733680
_cell_length_b   6.46736544
_cell_length_c   10.21333462
_cell_angle_alpha   90.00036893
_cell_angle_beta   90.00014133
_cell_angle_gamma   89.99946588
_symmetry_Int_Tables_number   1
_chemical_formula_structural   Sr2B8Ru7
_chemical_formula_sum   'Sr4 B16 Ru14'
_cell_volume   427.18937340
_cell_formula_units_Z   2
loop_
 _symmetry_equiv_pos_site_id
 _symmetry_equiv_pos_as_xyz
  1  'x, y, z'
loop_
 _atom_site_type_symbol
 _atom_site_label
 _atom_site_symmetry_multiplicity
 _atom_site_fract_x
 _atom_site_fract_y
 _atom_site_fract_z
 _atom_site_occupancy
  Sr  Sr0  1  0.231825  0.390527  -0.000001  1
  Sr  Sr1  1  0.609470  0.231826  0.500002  1
  Sr  Sr2  1  0.390528  0.768178  0.500000  1
  Sr  Sr3  1  0.768172  0.609464  0.999998  1
  B  B4  1  1.000000  0.499999  0.588559  1
  B  B5  1  -0.000001  0.500000  0.411441  1
  B  B6  1  0.397786  0.775933  0.169019  1
  B  B7  1  0.602218  0.224067  0.830981  1
  B  B8  1  0.999999  0.000001  0.340711  1
  B  B9  1  0.999999  0.000002  0.840711  1
  B  B10  1  0.775934  0.602218  0.669019  1
  B  B11  1  0.602219  0.224068  0.169018  1
  B  B12  1  0.775933  0.602217  0.330981  1
  B  B13  1  0.397786  0.775934  0.830981  1
  B  B14  1  0.999999  0.000001  0.659288  1
  B  B15  1  0.999998  0.000000  0.159289  1
  B  B16  1  0.500005  -0.000001  0.911441  1
  B  B17  1  0.224068  0.397783  0.669018  1
  B  B18  1  0.224069  0.397784  0.330982  1
  B  B19  1  0.500007  0.000001  0.088558  1
  Ru  Ru20  1  0.705681  0.894393  0.756182  1
  Ru  Ru21  1  0.906541  0.787444  0.500001  1
  Ru  Ru22  1  0.894395  0.294330  0.256176  1
  Ru  Ru23  1  0.705679  0.894393  0.243822  1
  Ru  Ru24  1  0.093458  0.212561  0.500000  1
  Ru  Ru25  1  0.105606  0.705672  0.743823  1
  Ru  Ru26  1  0.787435  0.093449  0.000003  1
  Ru  Ru27  1  0.212555  0.906541  0.000000  1
  Ru  Ru28  1  0.294321  0.105607  0.243819  1
  Ru  Ru29  1  0.294321  0.105604  0.756176  1
  Ru  Ru30  1  0.894400  0.294320  0.743821  1
  Ru  Ru31  1  0.499995  0.500003  0.250000  1
  Ru  Ru32  1  0.105600  0.705681  0.256175  1
  Ru  Ru33  1  0.499997  0.500001  0.750001  1
