# generated using pymatgen
data_Np2InRh2
_symmetry_space_group_name_H-M   'P 1'
_cell_length_a   3.38895417
_cell_length_b   7.74450963
_cell_length_c   7.74016930
_cell_angle_alpha   89.78853147
_cell_angle_beta   89.95520123
_cell_angle_gamma   89.98870652
_symmetry_Int_Tables_number   1
_chemical_formula_structural   Np2InRh2
_chemical_formula_sum   'Np4 In2 Rh4'
_cell_volume   203.14539460
_cell_formula_units_Z   2
loop_
 _symmetry_equiv_pos_site_id
 _symmetry_equiv_pos_as_xyz
  1  'x, y, z'
loop_
 _atom_site_type_symbol
 _atom_site_label
 _atom_site_symmetry_multiplicity
 _atom_site_fract_x
 _atom_site_fract_y
 _atom_site_fract_z
 _atom_site_occupancy
  Np  Np0  1  0.500054  0.836332  0.336512  1
  Np  Np1  1  0.499964  0.163825  0.663974  1
  Np  Np2  1  0.500042  0.663737  0.836234  1
  Np  Np3  1  0.499990  0.336475  0.163409  1
  In  In4  1  0.999994  0.999576  0.999469  1
  In  In5  1  -0.000036  0.500022  0.500600  1
  Rh  Rh6  1  -0.000004  0.641709  0.140892  1
  Rh  Rh7  1  0.000016  0.857952  0.642217  1
  Rh  Rh8  1  0.999989  0.358849  0.858041  1
  Rh  Rh9  1  0.999991  0.141524  0.358652  1
