# generated using pymatgen
data_Ba9(LaS6)2
_symmetry_space_group_name_H-M   'P 1'
_cell_length_a   13.51323514
_cell_length_b   7.80191150
_cell_length_c   17.91556109
_cell_angle_alpha   54.50689400
_cell_angle_beta   59.81316215
_cell_angle_gamma   29.99947390
_symmetry_Int_Tables_number   1
_chemical_formula_structural   Ba9(LaS6)2
_chemical_formula_sum   'Ba9 La2 S12'
_cell_volume   768.91293515
_cell_formula_units_Z   1
loop_
 _symmetry_equiv_pos_site_id
 _symmetry_equiv_pos_as_xyz
  1  'x, y, z'
loop_
 _atom_site_type_symbol
 _atom_site_label
 _atom_site_symmetry_multiplicity
 _atom_site_fract_x
 _atom_site_fract_y
 _atom_site_fract_z
 _atom_site_occupancy
  Ba  Ba0  1  1.000000  0.001234  0.240835  1
  Ba  Ba1  1  0.000000  0.000000  0.500000  1
  Ba  Ba2  1  0.322298  0.034517  0.240669  1
  Ba  Ba3  1  0.337655  0.993517  0.500000  1
  Ba  Ba4  1  0.322298  0.998588  0.759331  1
  Ba  Ba5  1  0.662345  0.006483  0.500000  1
  Ba  Ba6  1  0.677702  0.965483  0.759331  1
  Ba  Ba7  1  0.677702  0.001412  0.240669  1
  Ba  Ba8  1  0.000000  0.998766  0.759165  1
  La  La9  1  0.333307  0.000039  0.000000  1
  La  La10  1  0.666693  0.999961  1.000000  1
  S  S11  1  0.368292  0.482573  0.111826  1
  S  S12  1  0.333086  0.507959  0.369206  1
  S  S13  1  0.631708  0.587450  0.111826  1
  S  S14  1  0.333086  0.492783  0.630794  1
  S  S15  1  0.666914  0.507217  0.369206  1
  S  S16  1  0.368292  0.412550  0.888174  1
  S  S17  1  1.000000  0.482645  0.111828  1
  S  S18  1  0.666914  0.492041  0.630794  1
  S  S19  1  0.000000  0.502556  0.373260  1
  S  S20  1  0.631708  0.517427  0.888174  1
  S  S21  1  1.000000  0.497444  0.626740  1
  S  S22  1  0.000000  0.517355  0.888172  1
