# generated using pymatgen
data_BaDy2ZnO5
_symmetry_space_group_name_H-M   'P 1'
_cell_length_a   5.76047013
_cell_length_b   7.14998842
_cell_length_c   12.44543829
_cell_angle_alpha   90.00000000
_cell_angle_beta   90.00000000
_cell_angle_gamma   90.00000000
_symmetry_Int_Tables_number   1
_chemical_formula_structural   BaDy2ZnO5
_chemical_formula_sum   'Ba4 Dy8 Zn4 O20'
_cell_volume   512.59393481
_cell_formula_units_Z   4
loop_
 _symmetry_equiv_pos_site_id
 _symmetry_equiv_pos_as_xyz
  1  'x, y, z'
loop_
 _atom_site_type_symbol
 _atom_site_label
 _atom_site_symmetry_multiplicity
 _atom_site_fract_x
 _atom_site_fract_y
 _atom_site_fract_z
 _atom_site_occupancy
  O  O0  1  0.250000  0.424930  0.600313  1
  O  O1  1  0.750000  0.575070  0.399687  1
  O  O2  1  0.750000  0.924930  0.899687  1
  O  O3  1  0.250000  0.075070  0.100313  1
  O  O4  1  0.000422  0.858017  0.275329  1
  O  O5  1  0.500422  0.141983  0.724671  1
  O  O6  1  0.999578  0.358017  0.224671  1
  O  O7  1  0.499578  0.641983  0.775329  1
  O  O8  1  0.999578  0.141983  0.724671  1
  O  O9  1  0.499578  0.858017  0.275329  1
  O  O10  1  0.000422  0.641983  0.775329  1
  O  O11  1  0.500422  0.358017  0.224671  1
  O  O12  1  0.498420  0.662944  0.066148  1
  O  O13  1  0.998420  0.337056  0.933852  1
  O  O14  1  0.501580  0.162944  0.433852  1
  O  O15  1  0.001580  0.837056  0.566148  1
  O  O16  1  0.998420  0.162944  0.433852  1
  O  O17  1  0.498420  0.837056  0.566148  1
  O  O18  1  0.001580  0.662944  0.066148  1
  O  O19  1  0.501580  0.337056  0.933852  1
  Zn  Zn20  1  0.250000  0.808427  0.149876  1
  Zn  Zn21  1  0.750000  0.191573  0.850124  1
  Zn  Zn22  1  0.750000  0.308427  0.350124  1
  Zn  Zn23  1  0.250000  0.691573  0.649876  1
  Ba  Ba24  1  0.750000  0.077117  0.101547  1
  Ba  Ba25  1  0.750000  0.422883  0.601547  1
  Ba  Ba26  1  0.250000  0.577117  0.398453  1
  Ba  Ba27  1  0.250000  0.922883  0.898453  1
  Dy  Dy28  1  0.250000  0.399687  0.074436  1
  Dy  Dy29  1  0.750000  0.618323  0.208042  1
  Dy  Dy30  1  0.750000  0.881677  0.708042  1
  Dy  Dy31  1  0.250000  0.118323  0.291958  1
  Dy  Dy32  1  0.750000  0.600313  0.925564  1
  Dy  Dy33  1  0.750000  0.899687  0.425564  1
  Dy  Dy34  1  0.250000  0.100313  0.574436  1
  Dy  Dy35  1  0.250000  0.381677  0.791958  1
