# generated using pymatgen
data_NbS2
_symmetry_space_group_name_H-M   'P 1'
_cell_length_a   12.29143460
_cell_length_b   5.20577319
_cell_length_c   6.27816232
_cell_angle_alpha   145.70792405
_cell_angle_beta   157.97541462
_cell_angle_gamma   22.27924974
_symmetry_Int_Tables_number   1
_chemical_formula_structural   NbS2
_chemical_formula_sum   'Nb1 S2'
_cell_volume   55.68050478
_cell_formula_units_Z   1
loop_
 _symmetry_equiv_pos_site_id
 _symmetry_equiv_pos_as_xyz
  1  'x, y, z'
loop_
 _atom_site_type_symbol
 _atom_site_label
 _atom_site_symmetry_multiplicity
 _atom_site_fract_x
 _atom_site_fract_y
 _atom_site_fract_z
 _atom_site_occupancy
  Nb  Nb0  1  0.969035  0.920732  0.797623  1
  S  S1  1  0.650805  0.874259  0.478701  1
  S  S2  1  0.376605  0.203994  0.705301  1
