# generated using pymatgen
data_ScH8(NF2)3
_symmetry_space_group_name_H-M   'P 1'
_cell_length_a   6.52146351
_cell_length_b   6.51927407
_cell_length_c   9.50101878
_cell_angle_alpha   90.00000000
_cell_angle_beta   90.48614647
_cell_angle_gamma   90.00000000
_symmetry_Int_Tables_number   1
_chemical_formula_structural   ScH8(NF2)3
_chemical_formula_sum   'Sc2 H16 N6 F12'
_cell_volume   403.92324910
_cell_formula_units_Z   2
loop_
 _symmetry_equiv_pos_site_id
 _symmetry_equiv_pos_as_xyz
  1  'x, y, z'
loop_
 _atom_site_type_symbol
 _atom_site_label
 _atom_site_symmetry_multiplicity
 _atom_site_fract_x
 _atom_site_fract_y
 _atom_site_fract_z
 _atom_site_occupancy
  Sc  Sc0  1  0.500000  0.500000  0.500000  1
  Sc  Sc1  1  0.000000  0.000000  0.000000  1
  H  H2  1  0.055131  0.425171  0.163169  1
  H  H3  1  0.555131  0.074829  0.663169  1
  H  H4  1  0.944869  0.574829  0.836831  1
  H  H5  1  0.444869  0.925171  0.336831  1
  H  H6  1  0.085903  0.470479  0.337200  1
  H  H7  1  0.585903  0.029521  0.837200  1
  H  H8  1  0.914097  0.529521  0.662800  1
  H  H9  1  0.414097  0.970479  0.162800  1
  H  H10  1  0.013881  0.666388  0.228549  1
  H  H11  1  0.513881  0.833612  0.728549  1
  H  H12  1  0.986119  0.333612  0.771451  1
  H  H13  1  0.486119  0.166388  0.271451  1
  H  H14  1  0.847116  0.479226  0.265108  1
  H  H15  1  0.347116  0.020774  0.765108  1
  H  H16  1  0.152884  0.520774  0.734892  1
  H  H17  1  0.652884  0.979226  0.234892  1
  N  N18  1  0.000000  0.000000  0.500000  1
  N  N19  1  0.500000  0.500000  0.000000  1
  N  N20  1  0.001574  0.510598  0.248762  1
  N  N21  1  0.501574  0.989402  0.748762  1
  N  N22  1  0.998426  0.489402  0.751238  1
  N  N23  1  0.498426  0.010598  0.251238  1
  F  F24  1  0.351667  0.764588  0.452878  1
  F  F25  1  0.851667  0.735412  0.952878  1
  F  F26  1  0.648333  0.235412  0.547122  1
  F  F27  1  0.148333  0.264588  0.047122  1
  F  F28  1  0.574696  0.454135  0.294037  1
  F  F29  1  0.074696  0.045865  0.794037  1
  F  F30  1  0.425304  0.545865  0.705963  1
  F  F31  1  0.925304  0.954135  0.205963  1
  F  F32  1  0.232377  0.345454  0.467232  1
  F  F33  1  0.732377  0.154546  0.967232  1
  F  F34  1  0.767623  0.654546  0.532768  1
  F  F35  1  0.267623  0.845454  0.032768  1
