# generated using pymatgen
data_K3SiN(OF2)3
_symmetry_space_group_name_H-M   'P 1'
_cell_length_a   5.72195457
_cell_length_b   5.72195456
_cell_length_c   14.89028558
_cell_angle_alpha   90.00000000
_cell_angle_beta   90.00000000
_cell_angle_gamma   119.99999999
_symmetry_Int_Tables_number   1
_chemical_formula_structural   K3SiN(OF2)3
_chemical_formula_sum   'K6 Si2 N2 O6 F12'
_cell_volume   422.20412192
_cell_formula_units_Z   2
loop_
 _symmetry_equiv_pos_site_id
 _symmetry_equiv_pos_as_xyz
  1  'x, y, z'
loop_
 _atom_site_type_symbol
 _atom_site_label
 _atom_site_symmetry_multiplicity
 _atom_site_fract_x
 _atom_site_fract_y
 _atom_site_fract_z
 _atom_site_occupancy
  N  N0  1  0.666667  0.333333  0.750000  1
  N  N1  1  0.333333  0.666667  0.250000  1
  O  O2  1  0.538522  0.077044  0.750000  1
  O  O3  1  0.538522  0.461478  0.750000  1
  O  O4  1  0.461478  0.538522  0.250000  1
  O  O5  1  0.077044  0.538522  0.250000  1
  O  O6  1  0.922956  0.461478  0.750000  1
  O  O7  1  0.461478  0.922956  0.250000  1
  F  F8  1  0.716714  0.858357  0.066613  1
  F  F9  1  0.283286  0.141643  0.566613  1
  F  F10  1  0.141643  0.858357  0.433387  1
  F  F11  1  0.141643  0.283286  0.066613  1
  F  F12  1  0.858357  0.716714  0.566613  1
  F  F13  1  0.858357  0.141643  0.566613  1
  F  F14  1  0.141643  0.858357  0.066613  1
  F  F15  1  0.858357  0.716714  0.933387  1
  F  F16  1  0.141643  0.283286  0.433387  1
  F  F17  1  0.858357  0.141643  0.933387  1
  F  F18  1  0.283286  0.141643  0.933387  1
  F  F19  1  0.716714  0.858357  0.433387  1
  Si  Si20  1  0.000000  0.000000  0.000000  1
  Si  Si21  1  0.000000  0.000000  0.500000  1
  K  K22  1  0.666667  0.333333  0.087975  1
  K  K23  1  0.333333  0.666667  0.587975  1
  K  K24  1  0.333333  0.666667  0.912025  1
  K  K25  1  0.666667  0.333333  0.412025  1
  K  K26  1  0.000000  0.000000  0.750000  1
  K  K27  1  0.000000  0.000000  0.250000  1
