# generated using pymatgen
data_LaFe9Si4
_symmetry_space_group_name_H-M   'P 1'
_cell_length_a   7.89225805
_cell_length_b   7.89225819
_cell_length_c   8.04541706
_cell_angle_alpha   119.37223769
_cell_angle_beta   119.37223820
_cell_angle_gamma   90.00000358
_symmetry_Int_Tables_number   1
_chemical_formula_structural   LaFe9Si4
_chemical_formula_sum   'La2 Fe18 Si8'
_cell_volume   360.97273419
_cell_formula_units_Z   2
loop_
 _symmetry_equiv_pos_site_id
 _symmetry_equiv_pos_as_xyz
  1  'x, y, z'
loop_
 _atom_site_type_symbol
 _atom_site_label
 _atom_site_symmetry_multiplicity
 _atom_site_fract_x
 _atom_site_fract_y
 _atom_site_fract_z
 _atom_site_occupancy
  La  La0  1  0.250000  0.250000  0.500000  1
  La  La1  1  0.750000  0.750000  0.500000  1
  Fe  Fe2  1  0.564196  0.701776  1.000000  1
  Fe  Fe3  1  0.939379  0.439379  0.640220  1
  Fe  Fe4  1  0.000000  0.500000  0.000000  1
  Fe  Fe5  1  0.439379  0.700842  0.640220  1
  Fe  Fe6  1  0.799158  0.060621  0.359780  1
  Fe  Fe7  1  0.935804  0.201776  1.000000  1
  Fe  Fe8  1  0.060621  0.560621  0.359780  1
  Fe  Fe9  1  0.435804  0.298224  0.000000  1
  Fe  Fe10  1  0.299158  0.799158  0.359780  1
  Fe  Fe11  1  0.798224  0.935804  1.000000  1
  Fe  Fe12  1  0.200842  0.939379  0.640220  1
  Fe  Fe13  1  0.201776  0.064196  0.000000  1
  Fe  Fe14  1  0.064196  0.798224  0.000000  1
  Fe  Fe15  1  0.298224  0.564196  0.000000  1
  Fe  Fe16  1  0.500000  0.000000  0.000000  1
  Fe  Fe17  1  0.700842  0.200842  0.640220  1
  Fe  Fe18  1  0.560621  0.299158  0.359780  1
  Fe  Fe19  1  0.701776  0.435804  1.000000  1
  Si  Si20  1  0.296202  0.444629  0.240831  1
  Si  Si21  1  0.055371  0.203798  0.759169  1
  Si  Si22  1  0.555371  0.055371  0.759169  1
  Si  Si23  1  0.203798  0.703798  0.759169  1
  Si  Si24  1  0.944629  0.796202  0.240831  1
  Si  Si25  1  0.796202  0.296202  0.240831  1
  Si  Si26  1  0.703798  0.555371  0.759169  1
  Si  Si27  1  0.444629  0.944629  0.240831  1
