# generated using pymatgen
data_La2GeS5
_symmetry_space_group_name_H-M   'P 1'
_cell_length_a   7.71542164
_cell_length_b   7.96877680
_cell_length_c   12.81514905
_cell_angle_alpha   90.00000000
_cell_angle_beta   90.00000000
_cell_angle_gamma   101.30782358
_symmetry_Int_Tables_number   1
_chemical_formula_structural   La2GeS5
_chemical_formula_sum   'La8 Ge4 S20'
_cell_volume   772.61211909
_cell_formula_units_Z   4
loop_
 _symmetry_equiv_pos_site_id
 _symmetry_equiv_pos_as_xyz
  1  'x, y, z'
loop_
 _atom_site_type_symbol
 _atom_site_label
 _atom_site_symmetry_multiplicity
 _atom_site_fract_x
 _atom_site_fract_y
 _atom_site_fract_z
 _atom_site_occupancy
  La  La0  1  0.840117  0.365155  0.166499  1
  La  La1  1  0.238392  0.041913  0.093462  1
  La  La2  1  0.761608  0.458087  0.593462  1
  La  La3  1  0.238392  0.541913  0.406538  1
  La  La4  1  0.159883  0.634845  0.833501  1
  La  La5  1  0.761608  0.958087  0.906538  1
  La  La6  1  0.159883  0.134845  0.666499  1
  La  La7  1  0.840117  0.865155  0.333501  1
  Ge  Ge8  1  0.662106  0.908956  0.616684  1
  Ge  Ge9  1  0.337894  0.591044  0.116684  1
  Ge  Ge10  1  0.337894  0.091044  0.383316  1
  Ge  Ge11  1  0.662106  0.408956  0.883316  1
  S  S12  1  0.872212  0.802868  0.705643  1
  S  S13  1  0.169659  0.380879  0.025828  1
  S  S14  1  0.536475  0.547054  0.233538  1
  S  S15  1  0.830341  0.119121  0.525828  1
  S  S16  1  0.872212  0.302868  0.794357  1
  S  S17  1  0.127788  0.197132  0.294357  1
  S  S18  1  0.127788  0.697132  0.205643  1
  S  S19  1  0.137859  0.999059  0.878982  1
  S  S20  1  0.830341  0.619121  0.974172  1
  S  S21  1  0.137859  0.499059  0.621018  1
  S  S22  1  0.579090  0.715573  0.492851  1
  S  S23  1  0.463525  0.452946  0.766462  1
  S  S24  1  0.169659  0.880879  0.474172  1
  S  S25  1  0.420910  0.784427  0.992851  1
  S  S26  1  0.862141  0.500941  0.378982  1
  S  S27  1  0.420910  0.284427  0.507149  1
  S  S28  1  0.579090  0.215573  0.007149  1
  S  S29  1  0.862141  0.000941  0.121018  1
  S  S30  1  0.463525  0.952946  0.733538  1
  S  S31  1  0.536475  0.047054  0.266462  1
