# generated using pymatgen
data_Na2Si4O9
_symmetry_space_group_name_H-M   'P 1'
_cell_length_a   9.43720320
_cell_length_b   10.99478322
_cell_length_c   19.42047323
_cell_angle_alpha   90.23727307
_cell_angle_beta   90.00000000
_cell_angle_gamma   90.00000000
_symmetry_Int_Tables_number   1
_chemical_formula_structural   Na2Si4O9
_chemical_formula_sum   'Na24 Si48 O108'
_cell_volume   2015.05108927
_cell_formula_units_Z   12
loop_
 _symmetry_equiv_pos_site_id
 _symmetry_equiv_pos_as_xyz
  1  'x, y, z'
loop_
 _atom_site_type_symbol
 _atom_site_label
 _atom_site_symmetry_multiplicity
 _atom_site_fract_x
 _atom_site_fract_y
 _atom_site_fract_z
 _atom_site_occupancy
  Na  Na0  1  0.463442  0.483625  0.384061  1
  Na  Na1  1  0.448647  0.438239  0.795593  1
  Na  Na2  1  0.541874  0.669698  0.927458  1
  Na  Na3  1  0.536558  0.516375  0.615939  1
  Na  Na4  1  0.958126  0.169698  0.427458  1
  Na  Na5  1  0.955325  0.563615  0.613918  1
  Na  Na6  1  0.023376  0.427414  0.772234  1
  Na  Na7  1  0.458126  0.330302  0.072542  1
  Na  Na8  1  0.526193  0.105078  0.422717  1
  Na  Na9  1  0.051353  0.938239  0.295593  1
  Na  Na10  1  0.036558  0.983625  0.884061  1
  Na  Na11  1  0.973807  0.605078  0.922717  1
  Na  Na12  1  0.044675  0.436385  0.386082  1
  Na  Na13  1  0.976624  0.572586  0.227766  1
  Na  Na14  1  0.963442  0.016375  0.115939  1
  Na  Na15  1  0.551353  0.561761  0.204407  1
  Na  Na16  1  0.544675  0.063615  0.113918  1
  Na  Na17  1  0.473807  0.894922  0.577283  1
  Na  Na18  1  0.455325  0.936385  0.886082  1
  Na  Na19  1  0.476624  0.927414  0.272234  1
  Na  Na20  1  0.948647  0.061761  0.704407  1
  Na  Na21  1  0.026193  0.394922  0.077283  1
  Na  Na22  1  0.041874  0.830302  0.572542  1
  Na  Na23  1  0.523376  0.072586  0.727766  1
  Si  Si24  1  0.002656  0.272226  0.241569  1
  Si  Si25  1  0.764600  0.781017  0.196721  1
  Si  Si26  1  0.243324  0.876011  0.160550  1
  Si  Si27  1  0.000622  0.282238  0.920971  1
  Si  Si28  1  0.505229  0.781129  0.087018  1
  Si  Si29  1  0.259242  0.663240  0.846788  1
  Si  Si30  1  0.272192  0.440346  0.956547  1
  Si  Si31  1  0.227808  0.940346  0.456547  1
  Si  Si32  1  0.738710  0.693377  0.517361  1
  Si  Si33  1  0.275450  0.441383  0.245553  1
  Si  Si34  1  0.735400  0.281017  0.696721  1
  Si  Si35  1  0.260780  0.596436  0.490291  1
  Si  Si36  1  0.256676  0.376011  0.660550  1
  Si  Si37  1  0.775450  0.058617  0.254447  1
  Si  Si38  1  0.500622  0.217762  0.579029  1
  Si  Si39  1  0.240758  0.163240  0.346788  1
  Si  Si40  1  0.739220  0.403564  0.509709  1
  Si  Si41  1  0.758126  0.849249  0.844600  1
  Si  Si42  1  0.760780  0.903564  0.009709  1
  Si  Si43  1  0.225210  0.067376  0.606690  1
  Si  Si44  1  0.235400  0.218983  0.803279  1
  Si  Si45  1  0.502656  0.227774  0.258431  1
  Si  Si46  1  0.759242  0.836760  0.653212  1
  Si  Si47  1  0.241874  0.150751  0.155400  1
  Si  Si48  1  0.274790  0.567376  0.106690  1
  Si  Si49  1  0.264600  0.718983  0.303279  1
  Si  Si50  1  0.258126  0.650751  0.655400  1
  Si  Si51  1  0.261290  0.306623  0.482639  1
  Si  Si52  1  0.743324  0.623989  0.339450  1
  Si  Si53  1  0.725210  0.432624  0.893310  1
  Si  Si54  1  0.761290  0.193377  0.017361  1
  Si  Si55  1  0.741874  0.349249  0.344600  1
  Si  Si56  1  0.994771  0.281129  0.587018  1
  Si  Si57  1  0.756676  0.123989  0.839450  1
  Si  Si58  1  0.772192  0.059654  0.543453  1
  Si  Si59  1  0.239220  0.096436  0.990291  1
  Si  Si60  1  0.727808  0.559654  0.043453  1
  Si  Si61  1  0.740758  0.336760  0.153212  1
  Si  Si62  1  0.005229  0.718871  0.412982  1
  Si  Si63  1  0.497344  0.772226  0.741569  1
  Si  Si64  1  0.997344  0.727774  0.758431  1
  Si  Si65  1  0.999378  0.717762  0.079029  1
  Si  Si66  1  0.499378  0.782238  0.420971  1
  Si  Si67  1  0.238710  0.806623  0.982639  1
  Si  Si68  1  0.724550  0.558617  0.754447  1
  Si  Si69  1  0.494771  0.218871  0.912982  1
  Si  Si70  1  0.774790  0.932624  0.393310  1
  Si  Si71  1  0.224550  0.941383  0.745553  1
  O  O72  1  0.109821  0.170293  0.624275  1
  O  O73  1  0.393386  0.354582  0.279581  1
  O  O74  1  0.610407  0.256614  0.333021  1
  O  O75  1  0.191002  0.000667  0.532752  1
  O  O76  1  0.889996  0.824233  0.705888  1
  O  O77  1  0.393661  0.224244  0.833918  1
  O  O78  1  0.894513  0.835056  0.042517  1
  O  O79  1  0.108134  0.597878  0.118699  1
  O  O80  1  0.102648  0.690633  0.683171  1
  O  O81  1  0.602604  0.102703  0.874009  1
  O  O82  1  0.312643  0.456563  0.162759  1
  O  O83  1  0.897396  0.602703  0.374009  1
  O  O84  1  0.809508  0.922562  0.218534  1
  O  O85  1  0.191145  0.015917  0.183792  1
  O  O86  1  0.889593  0.756614  0.833021  1
  O  O87  1  0.102604  0.397297  0.625991  1
  O  O88  1  0.606209  0.097859  0.541375  1
  O  O89  1  0.608134  0.902122  0.381301  1
  O  O90  1  0.812643  0.043437  0.337241  1
  O  O91  1  0.893812  0.370100  0.186933  1
  O  O92  1  0.308998  0.500667  0.032752  1
  O  O93  1  0.892456  0.718472  0.154504  1
  O  O94  1  0.393791  0.902141  0.458625  1
  O  O95  1  0.806210  0.956519  0.604339  1
  O  O96  1  0.310251  0.450845  0.487569  1
  O  O97  1  0.386109  0.332467  0.951343  1
  O  O98  1  0.606614  0.645418  0.720419  1
  O  O99  1  0.397352  0.190633  0.183171  1
  O  O100  1  0.387729  0.330839  0.614844  1
  O  O101  1  0.897352  0.309367  0.316829  1
  O  O102  1  0.393812  0.129900  0.313067  1
  O  O103  1  0.193790  0.043481  0.395661  1
  O  O104  1  0.101162  0.283356  0.509748  1
  O  O105  1  0.110004  0.175767  0.294112  1
  O  O106  1  0.231937  0.641643  0.570642  1
  O  O107  1  0.189749  0.950845  0.987569  1
  O  O108  1  0.893386  0.145418  0.220419  1
  O  O109  1  0.610004  0.324233  0.205888  1
  O  O110  1  0.768063  0.358357  0.429358  1
  O  O111  1  0.731937  0.858357  0.929358  1
  O  O112  1  0.888709  0.592831  0.737977  1
  O  O113  1  0.253696  0.806973  0.234814  1
  O  O114  1  0.389996  0.675767  0.794112  1
  O  O115  1  0.888139  0.285736  0.995828  1
  O  O116  1  0.614729  0.898246  0.053124  1
  O  O117  1  0.890179  0.829707  0.375725  1
  O  O118  1  0.607544  0.218472  0.654504  1
  O  O119  1  0.389593  0.743386  0.666979  1
  O  O120  1  0.808998  0.999333  0.467248  1
  O  O121  1  0.309508  0.577438  0.281466  1
  O  O122  1  0.391866  0.097878  0.618699  1
  O  O123  1  0.605487  0.335056  0.542517  1
  O  O124  1  0.611291  0.092831  0.237977  1
  O  O125  1  0.741644  0.215945  0.102163  1
  O  O126  1  0.106614  0.854582  0.779581  1
  O  O127  1  0.687357  0.543437  0.837241  1
  O  O128  1  0.106209  0.402141  0.958625  1
  O  O129  1  0.885271  0.398246  0.553124  1
  O  O130  1  0.609821  0.329707  0.875725  1
  O  O131  1  0.111291  0.407169  0.262023  1
  O  O132  1  0.612271  0.669161  0.385156  1
  O  O133  1  0.187357  0.956563  0.662759  1
  O  O134  1  0.241644  0.284055  0.397837  1
  O  O135  1  0.601162  0.216644  0.990252  1
  O  O136  1  0.308855  0.515917  0.683792  1
  O  O137  1  0.114729  0.601754  0.446876  1
  O  O138  1  0.388139  0.214264  0.504172  1
  O  O139  1  0.689749  0.549155  0.512431  1
  O  O140  1  0.112271  0.830839  0.114844  1
  O  O141  1  0.394513  0.664944  0.457483  1
  O  O142  1  0.398838  0.783356  0.009748  1
  O  O143  1  0.392456  0.781528  0.345496  1
  O  O144  1  0.106339  0.724244  0.333918  1
  O  O145  1  0.385271  0.101754  0.946876  1
  O  O146  1  0.246304  0.306973  0.734814  1
  O  O147  1  0.690492  0.422562  0.718534  1
  O  O148  1  0.110407  0.243386  0.166979  1
  O  O149  1  0.306210  0.543481  0.895661  1
  O  O150  1  0.606339  0.775756  0.166082  1
  O  O151  1  0.887729  0.169161  0.885156  1
  O  O152  1  0.693790  0.456519  0.104339  1
  O  O153  1  0.891866  0.402122  0.881301  1
  O  O154  1  0.606188  0.870100  0.686933  1
  O  O155  1  0.808855  0.984083  0.816208  1
  O  O156  1  0.268063  0.141643  0.070642  1
  O  O157  1  0.602648  0.809367  0.816829  1
  O  O158  1  0.746304  0.193027  0.765186  1
  O  O159  1  0.893661  0.275756  0.666082  1
  O  O160  1  0.611861  0.785736  0.495828  1
  O  O161  1  0.613891  0.667533  0.048657  1
  O  O162  1  0.111861  0.714264  0.004172  1
  O  O163  1  0.397396  0.897297  0.125991  1
  O  O164  1  0.893791  0.597859  0.041375  1
  O  O165  1  0.390179  0.670293  0.124275  1
  O  O166  1  0.113891  0.832467  0.451343  1
  O  O167  1  0.105487  0.164944  0.957483  1
  O  O168  1  0.190492  0.077438  0.781466  1
  O  O169  1  0.691145  0.484083  0.316208  1
  O  O170  1  0.886109  0.167533  0.548657  1
  O  O171  1  0.388709  0.907169  0.762023  1
  O  O172  1  0.810251  0.049155  0.012431  1
  O  O173  1  0.691002  0.499333  0.967248  1
  O  O174  1  0.898838  0.716644  0.490252  1
  O  O175  1  0.107544  0.281528  0.845496  1
  O  O176  1  0.258356  0.784055  0.897837  1
  O  O177  1  0.753696  0.693027  0.265186  1
  O  O178  1  0.758356  0.715945  0.602163  1
  O  O179  1  0.106188  0.629900  0.813067  1
