# generated using pymatgen
data_Re(Se2Cl3)2
_symmetry_space_group_name_H-M   'P 1'
_cell_length_a   10.84081994
_cell_length_b   10.81721650
_cell_length_c   11.25220652
_cell_angle_alpha   89.99560242
_cell_angle_beta   89.99630846
_cell_angle_gamma   89.99871210
_symmetry_Int_Tables_number   1
_chemical_formula_structural   Re(Se2Cl3)2
_chemical_formula_sum   'Re4 Se16 Cl24'
_cell_volume   1319.51807968
_cell_formula_units_Z   4
loop_
 _symmetry_equiv_pos_site_id
 _symmetry_equiv_pos_as_xyz
  1  'x, y, z'
loop_
 _atom_site_type_symbol
 _atom_site_label
 _atom_site_symmetry_multiplicity
 _atom_site_fract_x
 _atom_site_fract_y
 _atom_site_fract_z
 _atom_site_occupancy
  Re  Re0  1  0.499913  0.500067  -0.000021  1
  Re  Re1  1  0.500038  0.999971  0.500021  1
  Re  Re2  1  0.000005  0.000062  0.999906  1
  Re  Re3  1  0.000044  0.499966  0.499987  1
  Se  Se4  1  0.977871  0.891908  0.397954  1
  Se  Se5  1  0.022095  0.108084  0.602082  1
  Se  Se6  1  0.072552  0.411612  0.099567  1
  Se  Se7  1  0.522115  0.108103  0.897935  1
  Se  Se8  1  0.477874  0.608088  0.397947  1
  Se  Se9  1  0.427425  0.588364  0.599576  1
  Se  Se10  1  0.477877  0.891907  0.102087  1
  Se  Se11  1  0.927447  0.588394  0.900465  1
  Se  Se12  1  0.072544  0.088376  0.400454  1
  Se  Se13  1  0.022115  0.391913  0.897951  1
  Se  Se14  1  0.572557  0.411619  0.400466  1
  Se  Se15  1  0.977886  0.608094  0.102075  1
  Se  Se16  1  0.927426  0.911606  0.599583  1
  Se  Se17  1  0.572570  0.088376  0.099561  1
  Se  Se18  1  0.427425  0.911633  0.900466  1
  Se  Se19  1  0.522102  0.391897  0.602090  1
  Cl  Cl20  1  0.653393  0.154783  0.526390  1
  Cl  Cl21  1  0.116639  0.585848  0.342086  1
  Cl  Cl22  1  0.346531  0.654864  0.026415  1
  Cl  Cl23  1  0.616659  0.914115  0.342087  1
  Cl  Cl24  1  0.397211  0.127000  0.364431  1
  Cl  Cl25  1  0.883394  0.085860  0.842082  1
  Cl  Cl26  1  0.602789  0.627000  0.864442  1
  Cl  Cl27  1  0.846659  0.654760  0.473608  1
  Cl  Cl28  1  0.897198  0.373009  0.364456  1
  Cl  Cl29  1  0.116637  0.914126  0.157865  1
  Cl  Cl30  1  0.102820  0.873005  0.864456  1
  Cl  Cl31  1  0.397190  0.373059  0.135556  1
  Cl  Cl32  1  0.602775  0.873041  0.635533  1
  Cl  Cl33  1  0.102773  0.626907  0.635526  1
  Cl  Cl34  1  0.883397  0.414119  0.657874  1
  Cl  Cl35  1  0.346625  0.845189  0.473605  1
  Cl  Cl36  1  0.383408  0.085855  0.657859  1
  Cl  Cl37  1  0.153434  0.154819  0.973574  1
  Cl  Cl38  1  0.383353  0.414163  0.842128  1
  Cl  Cl39  1  0.653337  0.345263  0.973612  1
  Cl  Cl40  1  0.616603  0.585877  0.157891  1
  Cl  Cl41  1  0.846673  0.845209  0.026403  1
  Cl  Cl42  1  0.897228  0.126948  0.135552  1
  Cl  Cl43  1  0.153396  0.345141  0.526416  1
