# generated using pymatgen
data_ZrSe
_symmetry_space_group_name_H-M   'P 1'
_cell_length_a   5.39668273
_cell_length_b   5.28716607
_cell_length_c   27.84838520
_cell_angle_alpha   90.08425396
_cell_angle_beta   88.07507898
_cell_angle_gamma   89.99021208
_symmetry_Int_Tables_number   1
_chemical_formula_structural   ZrSe
_chemical_formula_sum   'Zr16 Se16'
_cell_volume   794.15309836
_cell_formula_units_Z   16
loop_
 _symmetry_equiv_pos_site_id
 _symmetry_equiv_pos_as_xyz
  1  'x, y, z'
loop_
 _atom_site_type_symbol
 _atom_site_label
 _atom_site_symmetry_multiplicity
 _atom_site_fract_x
 _atom_site_fract_y
 _atom_site_fract_z
 _atom_site_occupancy
  Zr  Zr0  1  0.102727  0.497124  0.293295  1
  Zr  Zr1  1  0.971611  0.501221  0.506669  1
  Zr  Zr2  1  0.983496  0.504329  0.720128  1
  Zr  Zr3  1  0.533671  0.502516  0.000415  1
  Zr  Zr4  1  0.439314  0.495578  0.197525  1
  Zr  Zr5  1  0.498044  0.000588  0.101364  1
  Zr  Zr6  1  0.454683  0.499751  0.377795  1
  Zr  Zr7  1  0.468239  0.005058  0.297824  1
  Zr  Zr8  1  0.479872  0.001957  0.505511  1
  Zr  Zr9  1  0.524539  0.498138  0.578584  1
  Zr  Zr10  1  0.550414  0.516379  0.793237  1
  Zr  Zr11  1  0.517839  0.996111  0.718775  1
  Zr  Zr12  1  0.533780  0.978785  0.909939  1
  Zr  Zr13  1  0.029841  0.998985  0.579255  1
  Zr  Zr14  1  0.924361  0.509421  0.916911  1
  Zr  Zr15  1  0.936180  0.991592  0.825418  1
  Se  Se16  1  0.016073  0.499074  0.605843  1
  Se  Se17  1  0.463380  0.001680  0.007195  1
  Se  Se18  1  0.503534  0.500490  0.099984  1
  Se  Se19  1  0.530744  0.996634  0.196301  1
  Se  Se20  1  0.603130  0.503970  0.286475  1
  Se  Se21  1  0.507721  0.000411  0.394623  1
  Se  Se22  1  0.482608  0.501412  0.477880  1
  Se  Se23  1  0.520581  0.998747  0.607544  1
  Se  Se24  1  0.497776  0.498313  0.692735  1
  Se  Se25  1  0.445569  0.014210  0.813472  1
  Se  Se26  1  0.430620  0.483633  0.903955  1
  Se  Se27  1  0.989281  0.997749  0.284410  1
  Se  Se28  1  0.988540  0.001181  0.478130  1
  Se  Se29  1  0.014148  0.002696  0.689256  1
  Se  Se30  1  0.038568  0.494710  0.815955  1
  Se  Se31  1  0.019115  0.007557  0.923597  1
