# generated using pymatgen
data_H5BrO2
_symmetry_space_group_name_H-M   'P 1'
_cell_length_a   4.15756927
_cell_length_b   12.58211988
_cell_length_c   7.03511415
_cell_angle_alpha   89.69328565
_cell_angle_beta   103.33754189
_cell_angle_gamma   89.47285772
_symmetry_Int_Tables_number   1
_chemical_formula_structural   H5BrO2
_chemical_formula_sum   'H20 Br4 O8'
_cell_volume   358.06227538
_cell_formula_units_Z   4
loop_
 _symmetry_equiv_pos_site_id
 _symmetry_equiv_pos_as_xyz
  1  'x, y, z'
loop_
 _atom_site_type_symbol
 _atom_site_label
 _atom_site_symmetry_multiplicity
 _atom_site_fract_x
 _atom_site_fract_y
 _atom_site_fract_z
 _atom_site_occupancy
  H  H0  1  0.749287  0.322186  0.574367  1
  H  H1  1  0.463317  0.406056  0.657019  1
  H  H2  1  0.418364  0.360960  0.416025  1
  H  H3  1  0.240478  0.824864  0.923474  1
  H  H4  1  0.568182  0.863103  0.084661  1
  H  H5  1  0.526902  0.904499  0.842009  1
  H  H6  1  0.245244  0.678650  0.424552  1
  H  H7  1  0.577113  0.637442  0.584659  1
  H  H8  1  0.525079  0.595072  0.345356  1
  H  H9  1  0.415188  0.130221  0.928458  1
  H  H10  1  0.710722  0.186182  0.087014  1
  H  H11  1  0.302259  0.393804  0.903915  1
  H  H12  1  0.223835  0.508453  0.800073  1
  H  H13  1  0.693189  0.892359  0.591094  1
  H  H14  1  0.776349  0.003723  0.698031  1
  H  H15  1  0.711325  0.607188  0.097558  1
  H  H16  1  0.772436  0.491346  0.196394  1
  H  H17  1  0.294897  0.104345  0.421594  1
  H  H18  1  0.169004  0.002362  0.291637  1
  H  H19  1  0.457978  0.094385  0.176746  1
  Br  Br20  1  0.044049  0.161163  0.662200  1
  Br  Br21  1  0.963369  0.662653  0.841590  1
  Br  Br22  1  0.933327  0.830606  0.338940  1
  Br  Br23  1  0.024532  0.332999  0.156949  1
  O  O24  1  0.590312  0.382639  0.535918  1
  O  O25  1  0.396612  0.885114  0.961477  1
  O  O26  1  0.401876  0.617039  0.464150  1
  O  O27  1  0.585293  0.118190  0.055393  1
  O  O28  1  0.295032  0.434194  0.782165  1
  O  O29  1  0.698831  0.931156  0.714656  1
  O  O30  1  0.679146  0.563161  0.208362  1
  O  O31  1  0.342414  0.057215  0.318129  1
