# generated using pymatgen
data_U(CoP)2
_symmetry_space_group_name_H-M   'P 1'
_cell_length_a   3.93386906
_cell_length_b   3.93373365
_cell_length_c   8.85389981
_cell_angle_alpha   89.99971175
_cell_angle_beta   89.99995808
_cell_angle_gamma   90.00045778
_symmetry_Int_Tables_number   1
_chemical_formula_structural   U(CoP)2
_chemical_formula_sum   'U2 Co4 P4'
_cell_volume   137.01226765
_cell_formula_units_Z   2
loop_
 _symmetry_equiv_pos_site_id
 _symmetry_equiv_pos_as_xyz
  1  'x, y, z'
loop_
 _atom_site_type_symbol
 _atom_site_label
 _atom_site_symmetry_multiplicity
 _atom_site_fract_x
 _atom_site_fract_y
 _atom_site_fract_z
 _atom_site_occupancy
  U  U0  1  0.749999  0.749999  0.247474  1
  U  U1  1  0.249998  0.250002  0.751857  1
  Co  Co2  1  0.250001  0.250000  0.111896  1
  Co  Co3  1  0.749999  0.749999  0.885716  1
  Co  Co4  1  0.250001  0.750000  0.502477  1
  Co  Co5  1  0.750001  0.250000  0.502484  1
  P  P6  1  0.250000  0.249999  0.364726  1
  P  P7  1  0.750000  0.249999  0.999038  1
  P  P8  1  0.750000  0.750000  0.635298  1
  P  P9  1  0.250000  0.750001  0.999035  1
