# generated using pymatgen
data_Na7Bi3P12(Pb5O24)2
_symmetry_space_group_name_H-M   'P 1'
_cell_length_a   9.81284057
_cell_length_b   9.70901929
_cell_length_c   14.35825476
_cell_angle_alpha   89.99796121
_cell_angle_beta   90.02094921
_cell_angle_gamma   119.95029662
_symmetry_Int_Tables_number   1
_chemical_formula_structural   Na7Bi3P12(Pb5O24)2
_chemical_formula_sum   'Na7 Bi3 P12 Pb10 O48'
_cell_volume   1185.27644618
_cell_formula_units_Z   1
loop_
 _symmetry_equiv_pos_site_id
 _symmetry_equiv_pos_as_xyz
  1  'x, y, z'
loop_
 _atom_site_type_symbol
 _atom_site_label
 _atom_site_symmetry_multiplicity
 _atom_site_fract_x
 _atom_site_fract_y
 _atom_site_fract_z
 _atom_site_occupancy
  Na  Na0  1  0.273638  0.000474  0.875945  1
  Na  Na1  1  0.336534  0.669388  0.491101  1
  Na  Na2  1  0.332062  0.668711  0.003954  1
  Na  Na3  1  0.333165  0.666018  0.257548  1
  Na  Na4  1  0.667670  0.335059  0.249125  1
  Na  Na5  1  0.662830  0.326501  0.750040  1
  Na  Na6  1  0.727448  0.001096  0.624450  1
  Bi  Bi7  1  0.343865  0.683550  0.752279  1
  Bi  Bi8  1  0.654637  0.324469  0.000852  1
  Bi  Bi9  1  0.667281  0.323912  0.504454  1
  P  P10  1  0.017775  0.399570  0.121386  1
  P  P11  1  0.021183  0.400573  0.624157  1
  P  P12  1  0.377127  0.976662  0.119992  1
  P  P13  1  0.374313  0.970429  0.626648  1
  P  P14  1  0.400812  0.375786  0.377372  1
  P  P15  1  0.401331  0.377808  0.872734  1
  P  P16  1  0.597573  0.618101  0.121473  1
  P  P17  1  0.598691  0.622618  0.624622  1
  P  P18  1  0.628161  0.030411  0.871864  1
  P  P19  1  0.625808  0.026094  0.378443  1
  P  P20  1  0.975890  0.600497  0.377092  1
  P  P21  1  0.980988  0.600730  0.872401  1
  Pb  Pb22  1  0.254000  0.992763  0.372206  1
  Pb  Pb23  1  0.005061  0.258510  0.373736  1
  Pb  Pb24  1  0.996853  0.248412  0.873419  1
  Pb  Pb25  1  0.252037  0.258129  0.125581  1
  Pb  Pb26  1  0.256459  0.255903  0.627681  1
  Pb  Pb27  1  0.747847  0.745459  0.873147  1
  Pb  Pb28  1  0.737341  0.746804  0.376735  1
  Pb  Pb29  1  0.002389  0.750742  0.624931  1
  Pb  Pb30  1  0.008608  0.750591  0.125387  1
  Pb  Pb31  1  0.739465  0.993059  0.128620  1
  O  O32  1  0.269741  0.921157  0.715983  1
  O  O33  1  0.264787  0.921452  0.035685  1
  O  O34  1  0.272408  0.930953  0.209106  1
  O  O35  1  0.262652  0.919099  0.540769  1
  O  O36  1  0.108022  0.584672  0.124819  1
  O  O37  1  0.111853  0.587887  0.626651  1
  O  O38  1  0.154311  0.672211  0.378309  1
  O  O39  1  0.160929  0.669430  0.869502  1
  O  O40  1  0.064186  0.336759  0.208813  1
  O  O41  1  0.077791  0.345893  0.036275  1
  O  O42  1  0.075559  0.348576  0.712834  1
  O  O43  1  0.077479  0.342699  0.540000  1
  O  O44  1  0.473454  0.888866  0.123605  1
  O  O45  1  0.462195  0.874088  0.629533  1
  O  O46  1  0.327489  0.482392  0.378665  1
  O  O47  1  0.338869  0.496820  0.871113  1
  O  O48  1  0.520769  0.845503  0.378776  1
  O  O49  1  0.509139  0.846641  0.869799  1
  O  O50  1  0.414430  0.525217  0.125407  1
  O  O51  1  0.412060  0.529369  0.623248  1
  O  O52  1  0.339170  0.263032  0.789405  1
  O  O53  1  0.343245  0.261084  0.292104  1
  O  O54  1  0.363300  0.267954  0.466385  1
  O  O55  1  0.358620  0.277835  0.964182  1
  O  O56  1  0.651880  0.730869  0.035701  1
  O  O57  1  0.663642  0.739392  0.541825  1
  O  O58  1  0.660730  0.727904  0.208617  1
  O  O59  1  0.641246  0.722480  0.715898  1
  O  O60  1  0.586990  0.473509  0.375197  1
  O  O61  1  0.588721  0.470890  0.872339  1
  O  O62  1  0.492748  0.161570  0.117685  1
  O  O63  1  0.492338  0.153524  0.622445  1
  O  O64  1  0.664321  0.502304  0.117661  1
  O  O65  1  0.661804  0.503646  0.623190  1
  O  O66  1  0.540078  0.126485  0.875440  1
  O  O67  1  0.526294  0.114406  0.376208  1
  O  O68  1  0.908077  0.638894  0.466559  1
  O  O69  1  0.919381  0.658065  0.292178  1
  O  O70  1  0.925394  0.652742  0.960709  1
  O  O71  1  0.922082  0.656649  0.787743  1
  O  O72  1  0.836324  0.330926  0.117308  1
  O  O73  1  0.840819  0.334076  0.621849  1
  O  O74  1  0.885694  0.411787  0.376085  1
  O  O75  1  0.889887  0.413390  0.874376  1
  O  O76  1  0.737960  0.083962  0.292451  1
  O  O77  1  0.730715  0.097340  0.467619  1
  O  O78  1  0.740666  0.079005  0.787812  1
  O  O79  1  0.730909  0.077764  0.962759  1
