# generated using pymatgen
data_Ba3PrF9
_symmetry_space_group_name_H-M   'P 1'
_cell_length_a   4.23467237
_cell_length_b   4.37619371
_cell_length_c   17.71135070
_cell_angle_alpha   60.17805369
_cell_angle_beta   60.67591591
_cell_angle_gamma   61.29724308
_symmetry_Int_Tables_number   1
_chemical_formula_structural   Ba3PrF9
_chemical_formula_sum   'Ba3 Pr1 F9'
_cell_volume   235.79970289
_cell_formula_units_Z   1
loop_
 _symmetry_equiv_pos_site_id
 _symmetry_equiv_pos_as_xyz
  1  'x, y, z'
loop_
 _atom_site_type_symbol
 _atom_site_label
 _atom_site_symmetry_multiplicity
 _atom_site_fract_x
 _atom_site_fract_y
 _atom_site_fract_z
 _atom_site_occupancy
  Ba  Ba0  1  0.956146  0.069986  0.001847  1
  Ba  Ba1  1  0.919233  0.054618  0.260381  1
  Ba  Ba2  1  0.930561  0.015214  0.519559  1
  Pr  Pr3  1  0.944342  0.952791  0.772282  1
  F  F4  1  0.175422  0.310208  0.077496  1
  F  F5  1  0.676071  0.804617  0.195162  1
  F  F6  1  0.156942  0.241088  0.601250  1
  F  F7  1  0.155908  0.295316  0.331214  1
  F  F8  1  0.682496  0.758992  0.457730  1
  F  F9  1  0.274246  0.317130  0.779437  1
  F  F10  1  0.696952  0.778507  0.698101  1
  F  F11  1  0.508361  0.578991  0.869844  1
  F  F12  1  0.727321  0.822543  0.935698  1
