# generated using pymatgen
data_Os2Pt(CO)9
_symmetry_space_group_name_H-M   'P 1'
_cell_length_a   10.48763221
_cell_length_b   15.72458735
_cell_length_c   17.96373050
_cell_angle_alpha   90.00000000
_cell_angle_beta   90.00000000
_cell_angle_gamma   90.00000000
_symmetry_Int_Tables_number   1
_chemical_formula_structural   Os2Pt(CO)9
_chemical_formula_sum   'Os16 Pt8 C72 O72'
_cell_volume   2962.46506102
_cell_formula_units_Z   8
loop_
 _symmetry_equiv_pos_site_id
 _symmetry_equiv_pos_as_xyz
  1  'x, y, z'
loop_
 _atom_site_type_symbol
 _atom_site_label
 _atom_site_symmetry_multiplicity
 _atom_site_fract_x
 _atom_site_fract_y
 _atom_site_fract_z
 _atom_site_occupancy
  Os  Os0  1  0.237261  0.316936  0.282878  1
  Os  Os1  1  0.179778  0.818110  0.272273  1
  Os  Os2  1  0.768954  0.969197  0.122105  1
  Os  Os3  1  0.179778  0.681890  0.772273  1
  Os  Os4  1  0.633942  0.381570  0.075019  1
  Os  Os5  1  0.737261  0.816936  0.217122  1
  Os  Os6  1  0.633942  0.118430  0.575019  1
  Os  Os7  1  0.679778  0.318110  0.227727  1
  Os  Os8  1  0.133942  0.618430  0.924981  1
  Os  Os9  1  0.268954  0.469197  0.377895  1
  Os  Os10  1  0.679778  0.181890  0.727727  1
  Os  Os11  1  0.268954  0.030803  0.877895  1
  Os  Os12  1  0.237261  0.183064  0.782878  1
  Os  Os13  1  0.768954  0.530803  0.622105  1
  Os  Os14  1  0.133942  0.881570  0.424981  1
  Os  Os15  1  0.737261  0.683064  0.717122  1
  Pt  Pt16  1  0.978002  0.598093  0.686560  1
  Pt  Pt17  1  0.978002  0.901907  0.186560  1
  Pt  Pt18  1  0.433578  0.362260  0.169295  1
  Pt  Pt19  1  0.433578  0.137740  0.669295  1
  Pt  Pt20  1  0.478002  0.098093  0.813440  1
  Pt  Pt21  1  0.933578  0.637740  0.830705  1
  Pt  Pt22  1  0.478002  0.401907  0.313440  1
  Pt  Pt23  1  0.933578  0.862260  0.330705  1
  C  C24  1  0.135544  0.105074  0.721770  1
  C  C25  1  0.726426  0.774643  0.788026  1
  C  C26  1  0.092528  0.006026  0.895569  1
  C  C27  1  0.759054  0.070650  0.745618  1
  C  C28  1  0.305943  0.881119  0.461428  1
  C  C29  1  0.132499  0.500356  0.888636  1
  C  C30  1  0.832765  0.269427  0.188051  1
  C  C31  1  0.259054  0.570650  0.754382  1
  C  C32  1  0.071558  0.718548  0.289908  1
  C  C33  1  0.274207  0.383609  0.457617  1
  C  C34  1  0.632499  0.000356  0.611364  1
  C  C35  1  0.055179  0.579120  0.014283  1
  C  C36  1  0.286427  0.965862  0.785559  1
  C  C37  1  0.135544  0.394926  0.221770  1
  C  C38  1  0.336980  0.560596  0.435841  1
  C  C39  1  0.195499  0.713785  0.669661  1
  C  C40  1  0.571558  0.218548  0.210092  1
  C  C41  1  0.805943  0.118881  0.538572  1
  C  C42  1  0.856812  0.746258  0.653598  1
  C  C43  1  0.336980  0.939404  0.935841  1
  C  C44  1  0.305943  0.618881  0.961428  1
  C  C45  1  0.571558  0.281452  0.710092  1
  C  C46  1  0.695499  0.213785  0.830339  1
  C  C47  1  0.635544  0.894926  0.278230  1
  C  C48  1  0.104804  0.738552  0.947848  1
  C  C49  1  0.259054  0.929350  0.254382  1
  C  C50  1  0.076051  0.534811  0.621403  1
  C  C51  1  0.604804  0.261448  0.052152  1
  C  C52  1  0.093620  0.213060  0.843564  1
  C  C53  1  0.093620  0.286940  0.343564  1
  C  C54  1  0.332765  0.730573  0.811949  1
  C  C55  1  0.576051  0.034811  0.878597  1
  C  C56  1  0.286427  0.534138  0.285559  1
  C  C57  1  0.076051  0.965189  0.121403  1
  C  C58  1  0.071558  0.781452  0.789908  1
  C  C59  1  0.332765  0.769427  0.311949  1
  C  C60  1  0.321265  0.383616  0.092238  1
  C  C61  1  0.321265  0.116384  0.592238  1
  C  C62  1  0.836980  0.439404  0.564159  1
  C  C63  1  0.593620  0.713060  0.656436  1
  C  C64  1  0.774207  0.616391  0.542383  1
  C  C65  1  0.632499  0.499644  0.111364  1
  C  C66  1  0.593620  0.786940  0.156436  1
  C  C67  1  0.555179  0.420880  0.985717  1
  C  C68  1  0.635544  0.605074  0.778230  1
  C  C69  1  0.832765  0.230573  0.688051  1
  C  C70  1  0.726426  0.725357  0.288026  1
  C  C71  1  0.104804  0.761448  0.447848  1
  C  C72  1  0.786427  0.034138  0.214441  1
  C  C73  1  0.555179  0.079120  0.485717  1
  C  C74  1  0.132499  0.999644  0.388636  1
  C  C75  1  0.805943  0.381119  0.038572  1
  C  C76  1  0.092528  0.493974  0.395569  1
  C  C77  1  0.592528  0.993974  0.104431  1
  C  C78  1  0.226426  0.274643  0.711974  1
  C  C79  1  0.055179  0.920880  0.514283  1
  C  C80  1  0.759054  0.429350  0.245618  1
  C  C81  1  0.786427  0.465862  0.714441  1
  C  C82  1  0.356812  0.246258  0.846402  1
  C  C83  1  0.356812  0.253742  0.346402  1
  C  C84  1  0.604804  0.238552  0.552152  1
  C  C85  1  0.226426  0.225357  0.211974  1
  C  C86  1  0.836980  0.060596  0.064159  1
  C  C87  1  0.195499  0.786215  0.169661  1
  C  C88  1  0.821265  0.883616  0.407762  1
  C  C89  1  0.774207  0.883609  0.042383  1
  C  C90  1  0.592528  0.506026  0.604431  1
  C  C91  1  0.274207  0.116391  0.957617  1
  C  C92  1  0.821265  0.616384  0.907762  1
  C  C93  1  0.695499  0.286215  0.330339  1
  C  C94  1  0.576051  0.465189  0.378597  1
  C  C95  1  0.856812  0.753742  0.153598  1
  O  O96  1  0.126280  0.429028  0.872912  1
  O  O97  1  0.213227  0.330981  0.670961  1
  O  O98  1  0.484859  0.493619  0.593790  1
  O  O99  1  0.910580  0.121948  0.517739  1
  O  O100  1  0.711132  0.236819  0.891190  1
  O  O101  1  0.567692  0.938049  0.312594  1
  O  O102  1  0.754467  0.603227  0.958295  1
  O  O103  1  0.637200  0.505727  0.419483  1
  O  O104  1  0.637200  0.994273  0.919483  1
  O  O105  1  0.794348  0.424574  0.767957  1
  O  O106  1  0.254467  0.396773  0.041705  1
  O  O107  1  0.984859  0.993619  0.906210  1
  O  O108  1  0.294348  0.924574  0.732043  1
  O  O109  1  0.067692  0.438049  0.187406  1
  O  O110  1  0.067692  0.061951  0.687406  1
  O  O111  1  0.415333  0.290130  0.885739  1
  O  O112  1  0.910580  0.378052  0.017739  1
  O  O113  1  0.376284  0.882132  0.969628  1
  O  O114  1  0.425745  0.738792  0.335130  1
  O  O115  1  0.713227  0.669019  0.329039  1
  O  O116  1  0.213227  0.169019  0.170961  1
  O  O117  1  0.810851  0.007537  0.759913  1
  O  O118  1  0.567692  0.561951  0.812594  1
  O  O119  1  0.876284  0.117868  0.030372  1
  O  O120  1  0.425745  0.761208  0.835130  1
  O  O121  1  0.126280  0.070972  0.372912  1
  O  O122  1  0.515550  0.345061  0.705179  1
  O  O123  1  0.410580  0.878052  0.482261  1
  O  O124  1  0.274594  0.167912  0.003693  1
  O  O125  1  0.254467  0.103227  0.541705  1
  O  O126  1  0.810851  0.492463  0.259913  1
  O  O127  1  0.015550  0.845061  0.794821  1
  O  O128  1  0.376284  0.617868  0.469628  1
  O  O129  1  0.084923  0.690970  0.462750  1
  O  O130  1  0.984859  0.506381  0.406210  1
  O  O131  1  0.415333  0.209870  0.385739  1
  O  O132  1  0.711132  0.263181  0.391190  1
  O  O133  1  0.507574  0.767496  0.119354  1
  O  O134  1  0.211132  0.763181  0.108810  1
  O  O135  1  0.915333  0.709870  0.114261  1
  O  O136  1  0.925745  0.238792  0.164870  1
  O  O137  1  0.584923  0.309030  0.537250  1
  O  O138  1  0.507574  0.732504  0.619354  1
  O  O139  1  0.007574  0.267496  0.380646  1
  O  O140  1  0.484859  0.006381  0.093790  1
  O  O141  1  0.774594  0.667912  0.496307  1
  O  O142  1  0.137200  0.005727  0.080517  1
  O  O143  1  0.915333  0.790130  0.614261  1
  O  O144  1  0.713227  0.830981  0.829039  1
  O  O145  1  0.774594  0.832088  0.996307  1
  O  O146  1  0.506383  0.052596  0.432663  1
  O  O147  1  0.515550  0.154939  0.205179  1
  O  O148  1  0.506383  0.447404  0.932663  1
  O  O149  1  0.015550  0.654939  0.294821  1
  O  O150  1  0.007574  0.232504  0.880646  1
  O  O151  1  0.925745  0.261208  0.664870  1
  O  O152  1  0.294348  0.575426  0.232043  1
  O  O153  1  0.626280  0.570972  0.127088  1
  O  O154  1  0.310851  0.507537  0.740087  1
  O  O155  1  0.876284  0.382132  0.530372  1
  O  O156  1  0.310851  0.992463  0.240087  1
  O  O157  1  0.211132  0.736819  0.608810  1
  O  O158  1  0.006383  0.947404  0.567337  1
  O  O159  1  0.754467  0.896773  0.458295  1
  O  O160  1  0.794348  0.075426  0.267957  1
  O  O161  1  0.626280  0.929028  0.627088  1
  O  O162  1  0.084923  0.809030  0.962750  1
  O  O163  1  0.137200  0.494273  0.580517  1
  O  O164  1  0.006383  0.552596  0.067337  1
  O  O165  1  0.274594  0.332088  0.503693  1
  O  O166  1  0.410580  0.621948  0.982261  1
  O  O167  1  0.584923  0.190970  0.037250  1
