# generated using pymatgen
data_K2ZnH12(SO7)2
_symmetry_space_group_name_H-M   'P 1'
_cell_length_a   7.28940077
_cell_length_b   9.82606452
_cell_length_c   11.94155232
_cell_angle_alpha   90.00000000
_cell_angle_beta   90.00000000
_cell_angle_gamma   108.30128681
_symmetry_Int_Tables_number   1
_chemical_formula_structural   K2ZnH12(SO7)2
_chemical_formula_sum   'K4 Zn2 H24 S4 O28'
_cell_volume   812.06329575
_cell_formula_units_Z   2
loop_
 _symmetry_equiv_pos_site_id
 _symmetry_equiv_pos_as_xyz
  1  'x, y, z'
loop_
 _atom_site_type_symbol
 _atom_site_label
 _atom_site_symmetry_multiplicity
 _atom_site_fract_x
 _atom_site_fract_y
 _atom_site_fract_z
 _atom_site_occupancy
  K  K0  1  0.646296  0.820417  0.685836  1
  K  K1  1  0.353704  0.679583  0.185836  1
  K  K2  1  0.353704  0.179583  0.314164  1
  K  K3  1  0.646296  0.320417  0.814164  1
  Zn  Zn4  1  0.000000  0.500000  0.500000  1
  Zn  Zn5  1  0.000000  0.000000  0.000000  1
  H  H6  1  0.887746  0.716356  0.129374  1
  H  H7  1  0.699378  0.969645  0.203428  1
  H  H8  1  0.112254  0.783644  0.629374  1
  H  H9  1  0.056444  0.672271  0.870371  1
  H  H10  1  0.371680  0.837849  0.948479  1
  H  H11  1  0.943556  0.827729  0.370371  1
  H  H12  1  0.416198  0.164890  0.042914  1
  H  H13  1  0.371680  0.337849  0.551521  1
  H  H14  1  0.416198  0.664890  0.457086  1
  H  H15  1  0.628320  0.162151  0.051521  1
  H  H16  1  0.923446  0.603840  0.770397  1
  H  H17  1  0.923446  0.103840  0.729603  1
  H  H18  1  0.300622  0.530355  0.703428  1
  H  H19  1  0.583802  0.335110  0.542914  1
  H  H20  1  0.887746  0.216356  0.370626  1
  H  H21  1  0.583802  0.835110  0.957086  1
  H  H22  1  0.943556  0.327729  0.129629  1
  H  H23  1  0.056444  0.172271  0.629629  1
  H  H24  1  0.076554  0.396160  0.229603  1
  H  H25  1  0.628320  0.662151  0.448479  1
  H  H26  1  0.699378  0.469645  0.296572  1
  H  H27  1  0.112254  0.283644  0.870626  1
  H  H28  1  0.300622  0.030356  0.796572  1
  H  H29  1  0.076554  0.896160  0.270397  1
  S  S30  1  0.670285  0.502720  0.113620  1
  S  S31  1  0.670285  0.002720  0.386380  1
  S  S32  1  0.329715  0.497280  0.886380  1
  S  S33  1  0.329715  -0.002720  0.613620  1
  O  O34  1  0.451341  0.771238  0.948261  1
  O  O35  1  0.075444  0.346479  0.156381  1
  O  O36  1  0.548659  0.228762  0.051739  1
  O  O37  1  0.238525  0.444812  0.517967  1
  O  O38  1  0.273786  0.441795  0.397213  1
  O  O39  1  0.251422  0.317347  0.883774  1
  O  O40  1  0.748578  0.682653  0.116226  1
  O  O41  1  0.251422  0.817347  0.616226  1
  O  O42  1  0.924556  0.153521  0.656381  1
  O  O43  1  0.880812  0.010815  0.848191  1
  O  O44  1  0.924556  0.653521  0.843619  1
  O  O45  1  0.119188  0.489185  0.348191  1
  O  O46  1  0.726214  0.558205  0.602787  1
  O  O47  1  0.548659  0.728762  0.448261  1
  O  O48  1  0.075444  0.846479  0.343619  1
  O  O49  1  0.761475  0.055188  0.017967  1
  O  O50  1  0.592147  0.962489  0.255466  1
  O  O51  1  0.238525  0.944812  0.982033  1
  O  O52  1  0.407853  0.537511  0.755466  1
  O  O53  1  0.748578  0.182653  0.383774  1
  O  O54  1  0.592147  0.462489  0.244534  1
  O  O55  1  0.451341  0.271238  0.551739  1
  O  O56  1  0.119188  0.989185  0.151809  1
  O  O57  1  0.407853  0.037511  0.744534  1
  O  O58  1  0.273786  0.941795  0.102787  1
  O  O59  1  0.880812  0.510815  0.651809  1
  O  O60  1  0.761475  0.555188  0.482033  1
  O  O61  1  0.726214  0.058205  0.897213  1
