# generated using pymatgen
data_SbTe(SeF3)2
_symmetry_space_group_name_H-M   'P 1'
_cell_length_a   9.58666166
_cell_length_b   12.65086848
_cell_length_c   15.09209289
_cell_angle_alpha   90.00000000
_cell_angle_beta   90.00000000
_cell_angle_gamma   90.00000000
_symmetry_Int_Tables_number   1
_chemical_formula_structural   SbTe(SeF3)2
_chemical_formula_sum   'Sb8 Te8 Se16 F48'
_cell_volume   1830.36292582
_cell_formula_units_Z   8
loop_
 _symmetry_equiv_pos_site_id
 _symmetry_equiv_pos_as_xyz
  1  'x, y, z'
loop_
 _atom_site_type_symbol
 _atom_site_label
 _atom_site_symmetry_multiplicity
 _atom_site_fract_x
 _atom_site_fract_y
 _atom_site_fract_z
 _atom_site_occupancy
  Sb  Sb0  1  0.010946  0.700798  0.366161  1
  Sb  Sb1  1  0.989054  0.799202  0.866161  1
  Sb  Sb2  1  0.149604  0.509542  0.110445  1
  Sb  Sb3  1  0.649604  0.490458  0.389555  1
  Sb  Sb4  1  0.850396  0.990458  0.610445  1
  Sb  Sb5  1  0.510946  0.299202  0.133839  1
  Sb  Sb6  1  0.489054  0.200798  0.633839  1
  Sb  Sb7  1  0.350396  0.009542  0.889555  1
  Te  Te8  1  0.856817  0.343807  0.296936  1
  Te  Te9  1  0.643183  0.843807  0.703064  1
  Te  Te10  1  0.069126  0.249631  0.443146  1
  Te  Te11  1  0.569126  0.750369  0.056854  1
  Te  Te12  1  0.143183  0.156193  0.796936  1
  Te  Te13  1  0.430874  0.749631  0.556854  1
  Te  Te14  1  0.930874  0.250369  0.943146  1
  Te  Te15  1  0.356817  0.656193  0.203064  1
  Se  Se16  1  0.579873  0.578344  0.576076  1
  Se  Se17  1  0.403595  0.355615  0.411501  1
  Se  Se18  1  0.720720  0.146716  0.345679  1
  Se  Se19  1  0.685389  0.646617  0.798730  1
  Se  Se20  1  0.314611  0.853383  0.298730  1
  Se  Se21  1  0.920127  0.078344  0.423924  1
  Se  Se22  1  0.096405  0.855615  0.588499  1
  Se  Se23  1  0.420127  0.921656  0.076076  1
  Se  Se24  1  0.903595  0.644385  0.088499  1
  Se  Se25  1  0.779280  0.646716  0.654321  1
  Se  Se26  1  0.814611  0.146617  0.201270  1
  Se  Se27  1  0.185389  0.353383  0.701270  1
  Se  Se28  1  0.279280  0.353284  0.845679  1
  Se  Se29  1  0.079873  0.421656  0.923924  1
  Se  Se30  1  0.596405  0.144385  0.911501  1
  Se  Se31  1  0.220720  0.853284  0.154321  1
  F  F32  1  0.699793  0.848284  0.000294  1
  F  F33  1  0.001169  0.042393  0.763814  1
  F  F34  1  -0.020706  0.734885  0.500986  1
  F  F35  1  0.705091  0.506583  0.826419  1
  F  F36  1  0.800207  0.348284  0.999706  1
  F  F37  1  0.154083  0.905449  0.481917  1
  F  F38  1  0.012241  0.815629  0.723293  1
  F  F39  1  0.248337  0.583759  0.015428  1
  F  F40  1  0.151462  0.205835  0.328365  1
  F  F41  1  0.251663  0.083759  0.984572  1
  F  F42  1  0.700603  0.045066  0.857590  1
  F  F43  1  0.020706  0.765115  0.000986  1
  F  F44  1  0.512241  0.184371  0.776707  1
  F  F45  1  0.294909  0.993417  0.326419  1
  F  F46  1  0.498831  0.542393  0.236186  1
  F  F47  1  0.299397  0.454934  0.357590  1
  F  F48  1  0.345917  0.405449  0.518083  1
  F  F49  1  0.010777  0.238725  0.065292  1
  F  F50  1  0.663675  0.110079  0.620669  1
  F  F51  1  0.200603  0.954934  0.642410  1
  F  F52  1  0.489223  0.738725  0.934708  1
  F  F53  1  0.487759  0.315629  0.276707  1
  F  F54  1  0.510777  0.761275  0.434708  1
  F  F55  1  0.300207  0.651716  0.500294  1
  F  F56  1  0.520706  0.234885  0.499014  1
  F  F57  1  0.989223  0.261275  0.565292  1
  F  F58  1  0.845917  0.594551  0.981917  1
  F  F59  1  0.479294  0.265115  -0.000986  1
  F  F60  1  0.836325  0.610079  0.379331  1
  F  F61  1  0.799397  0.545066  0.142410  1
  F  F62  1  0.654083  0.094551  0.018083  1
  F  F63  1  0.199793  0.151716  0.499706  1
  F  F64  1  0.163675  0.889921  0.879331  1
  F  F65  1  0.909034  0.828901  0.345271  1
  F  F66  1  0.651462  0.794165  0.171635  1
  F  F67  1  0.409034  0.171099  0.154729  1
  F  F68  1  0.848538  0.294165  0.828365  1
  F  F69  1  0.501169  0.957607  0.736186  1
  F  F70  1  0.998831  0.457607  0.263814  1
  F  F71  1  0.987759  0.684371  0.223293  1
  F  F72  1  0.336325  0.389921  0.120669  1
  F  F73  1  0.348538  0.705835  0.671635  1
  F  F74  1  0.205091  0.493417  0.673581  1
  F  F75  1  0.794909  0.006583  0.173581  1
  F  F76  1  0.090966  0.671099  0.845271  1
  F  F77  1  0.751663  0.916241  0.515428  1
  F  F78  1  0.748337  0.416241  0.484572  1
  F  F79  1  0.590966  0.328901  0.654729  1
