# generated using pymatgen
data_Ga2I3
_symmetry_space_group_name_H-M   'P 1'
_cell_length_a   7.75510732
_cell_length_b   8.81433123
_cell_length_c   11.48856311
_cell_angle_alpha   90.00000000
_cell_angle_beta   91.37528168
_cell_angle_gamma   90.00000000
_symmetry_Int_Tables_number   1
_chemical_formula_structural   Ga2I3
_chemical_formula_sum   'Ga8 I12'
_cell_volume   785.08697262
_cell_formula_units_Z   4
loop_
 _symmetry_equiv_pos_site_id
 _symmetry_equiv_pos_as_xyz
  1  'x, y, z'
loop_
 _atom_site_type_symbol
 _atom_site_label
 _atom_site_symmetry_multiplicity
 _atom_site_fract_x
 _atom_site_fract_y
 _atom_site_fract_z
 _atom_site_occupancy
  Ga  Ga0  1  0.569157  0.597151  0.442322  1
  Ga  Ga1  1  0.546475  0.871813  0.768533  1
  Ga  Ga2  1  0.953525  0.371813  0.731467  1
  Ga  Ga3  1  0.069157  0.902849  0.942322  1
  Ga  Ga4  1  0.930843  0.097151  0.057678  1
  Ga  Ga5  1  0.453525  0.128187  0.231467  1
  Ga  Ga6  1  0.046475  0.628187  0.268533  1
  Ga  Ga7  1  0.430843  0.402849  0.557678  1
  I  I8  1  0.146454  0.008606  0.734867  1
  I  I9  1  0.353546  0.508606  0.765133  1
  I  I10  1  0.145431  0.300598  0.456005  1
  I  I11  1  0.645431  0.199402  0.956005  1
  I  I12  1  0.646454  0.491394  0.234867  1
  I  I13  1  0.854777  0.669979  0.919111  1
  I  I14  1  0.853546  0.991394  0.265133  1
  I  I15  1  0.645223  0.169979  0.580889  1
  I  I16  1  0.354777  0.830021  0.419111  1
  I  I17  1  0.854569  0.699402  0.543995  1
  I  I18  1  0.354569  0.800598  0.043995  1
  I  I19  1  0.145223  0.330021  0.080889  1
