# generated using pymatgen
data_Ti7S12
_symmetry_space_group_name_H-M   'P 1'
_cell_length_a   11.83663513
_cell_length_b   35.51325650
_cell_length_c   35.18094935
_cell_angle_alpha   11.12830083
_cell_angle_beta   14.61591788
_cell_angle_gamma   16.53777288
_symmetry_Int_Tables_number   1
_chemical_formula_structural   Ti7S12
_chemical_formula_sum   'Ti14 S24'
_cell_volume   707.31625601
_cell_formula_units_Z   2
loop_
 _symmetry_equiv_pos_site_id
 _symmetry_equiv_pos_as_xyz
  1  'x, y, z'
loop_
 _atom_site_type_symbol
 _atom_site_label
 _atom_site_symmetry_multiplicity
 _atom_site_fract_x
 _atom_site_fract_y
 _atom_site_fract_z
 _atom_site_occupancy
  Ti  Ti0  1  0.986818  0.000228  0.003097  1
  Ti  Ti1  1  0.100706  0.012350  0.042294  1
  Ti  Ti2  1  0.490270  0.080804  0.255059  1
  Ti  Ti3  1  -0.000018  0.333348  0.000001  1
  Ti  Ti4  1  0.498269  0.412254  0.254402  1
  Ti  Ti5  1  0.037689  0.162888  0.491550  1
  Ti  Ti6  1  0.013286  0.666418  0.996911  1
  Ti  Ti7  1  0.508301  0.753070  0.243705  1
  Ti  Ti8  1  0.501849  0.254418  0.745523  1
  Ti  Ti9  1  0.962412  0.503777  0.508437  1
  Ti  Ti10  1  0.509723  0.585883  0.744906  1
  Ti  Ti11  1  -0.000015  0.833326  0.500022  1
  Ti  Ti12  1  0.491657  0.913558  0.756326  1
  Ti  Ti13  1  0.899249  0.654318  0.957709  1
  S  S14  1  0.208372  0.034362  0.101866  1
  S  S15  1  0.381243  0.061850  0.186654  1
  S  S16  1  0.218581  0.364402  0.104904  1
  S  S17  1  0.630250  0.103838  0.312121  1
  S  S18  1  0.376554  0.394894  0.187069  1
  S  S19  1  0.791345  0.133517  0.395532  1
  S  S20  1  0.206663  0.202712  0.602458  1
  S  S21  1  0.188807  0.702159  0.111279  1
  S  S22  1  0.625119  0.441680  0.308897  1
  S  S23  1  0.374782  0.224964  0.691159  1
  S  S24  1  0.370906  0.731621  0.187084  1
  S  S25  1  0.793190  0.463965  0.397596  1
  S  S26  1  0.208861  0.533103  0.604460  1
  S  S27  1  0.625931  0.770842  0.312993  1
  S  S28  1  0.623490  0.271741  0.812940  1
  S  S29  1  0.369763  0.562837  0.687860  1
  S  S30  1  0.780371  0.794682  0.402660  1
  S  S31  1  0.781544  0.302259  0.895058  1
  S  S32  1  0.219533  0.872003  0.597346  1
  S  S33  1  0.618820  0.604819  0.813325  1
  S  S34  1  0.374098  0.895840  0.686978  1
  S  S35  1  0.791608  0.632322  0.898140  1
  S  S36  1  0.628991  0.935090  0.812913  1
  S  S37  1  0.810979  0.964526  0.888768  1
