# generated using pymatgen
data_K3Nb2S11
_symmetry_space_group_name_H-M   'P 1'
_cell_length_a   8.08301655
_cell_length_b   12.58254468
_cell_length_c   18.55856918
_cell_angle_alpha   100.31769906
_cell_angle_beta   102.49694683
_cell_angle_gamma   90.11179820
_symmetry_Int_Tables_number   1
_chemical_formula_structural   K3Nb2S11
_chemical_formula_sum   'K12 Nb8 S44'
_cell_volume   1811.35119507
_cell_formula_units_Z   4
loop_
 _symmetry_equiv_pos_site_id
 _symmetry_equiv_pos_as_xyz
  1  'x, y, z'
loop_
 _atom_site_type_symbol
 _atom_site_label
 _atom_site_symmetry_multiplicity
 _atom_site_fract_x
 _atom_site_fract_y
 _atom_site_fract_z
 _atom_site_occupancy
  K  K0  1  0.391211  0.327911  0.236033  1
  K  K1  1  0.606710  0.670242  0.766090  1
  K  K2  1  0.161264  0.171390  0.766443  1
  K  K3  1  0.860896  0.255871  0.418391  1
  K  K4  1  0.446174  0.242248  0.583295  1
  K  K5  1  0.149509  0.906574  0.935330  1
  K  K6  1  0.138606  0.743648  0.581219  1
  K  K7  1  0.847450  0.094345  0.064978  1
  K  K8  1  0.555922  0.756379  0.419309  1
  K  K9  1  0.780681  0.410163  0.933817  1
  K  K10  1  0.214848  0.591140  0.065080  1
  K  K11  1  0.838706  0.829927  0.233606  1
  Nb  Nb12  1  0.717297  0.073005  0.835992  1
  Nb  Nb13  1  0.606157  0.917451  0.644702  1
  Nb  Nb14  1  0.881219  0.426061  0.164556  1
  Nb  Nb15  1  0.118798  0.573876  0.835876  1
  Nb  Nb16  1  0.039118  0.417441  0.644825  1
  Nb  Nb17  1  0.392383  0.082254  0.355723  1
  Nb  Nb18  1  0.281637  0.926650  0.164504  1
  Nb  Nb19  1  0.960730  0.581659  0.355563  1
  S  S20  1  0.076125  0.052309  0.328077  1
  S  S21  1  0.642333  0.927462  0.899485  1
  S  S22  1  0.685625  0.551751  0.265330  1
  S  S23  1  0.943908  0.645665  0.909807  1
  S  S24  1  0.922554  0.947131  0.672662  1
  S  S25  1  0.374627  0.004979  0.469134  1
  S  S26  1  0.577996  0.051380  0.265105  1
  S  S27  1  0.669753  0.000400  0.367189  1
  S  S28  1  0.476316  0.928146  0.078370  1
  S  S29  1  0.165662  0.092437  0.238943  1
  S  S30  1  0.750150  0.447043  0.672266  1
  S  S31  1  0.278178  0.856330  0.278893  1
  S  S32  1  0.427470  0.773250  0.210693  1
  S  S33  1  0.963216  0.758614  0.404914  1
  S  S34  1  0.521346  0.071796  0.921723  1
  S  S35  1  0.996992  0.356013  0.279149  1
  S  S36  1  0.071181  0.592212  0.239062  1
  S  S37  1  0.253490  0.426967  0.898114  1
  S  S38  1  0.571832  0.226488  0.789327  1
  S  S39  1  0.220552  0.727853  0.790402  1
  S  S40  1  0.314580  0.448322  0.735470  1
  S  S41  1  0.249259  0.552570  0.328155  1
  S  S42  1  0.928688  0.407829  0.761597  1
  S  S43  1  0.623452  0.995973  0.531519  1
  S  S44  1  0.003518  0.644574  0.721504  1
  S  S45  1  0.032723  0.854471  0.090100  1
  S  S46  1  0.355552  0.072369  0.100989  1
  S  S47  1  0.779997  0.272564  0.210498  1
  S  S48  1  0.601259  0.426531  0.077779  1
  S  S49  1  0.743387  0.571667  0.101129  1
  S  S50  1  0.965381  0.144756  0.909978  1
  S  S51  1  0.092280  0.504689  0.468791  1
  S  S52  1  0.420525  0.947271  0.735216  1
  S  S53  1  0.328415  0.998458  0.633400  1
  S  S54  1  0.721257  0.142578  0.721383  1
  S  S55  1  0.694044  0.500358  0.366990  1
  S  S56  1  0.056080  0.354720  0.090455  1
  S  S57  1  0.037393  0.242041  0.596000  1
  S  S58  1  0.907497  0.494960  0.531945  1
  S  S59  1  0.399075  0.570869  0.922317  1
  S  S60  1  0.832362  0.906805  0.761516  1
  S  S61  1  0.306000  0.499151  0.633429  1
  S  S62  1  0.440462  0.257587  0.405542  1
  S  S63  1  0.559479  0.741955  0.594715  1
