# generated using pymatgen
data_SbSe5F6
_symmetry_space_group_name_H-M   'P 1'
_cell_length_a   14.19200734
_cell_length_b   16.53684351
_cell_length_c   20.29883017
_cell_angle_alpha   90.00000000
_cell_angle_beta   109.47987118
_cell_angle_gamma   90.00000000
_symmetry_Int_Tables_number   1
_chemical_formula_structural   SbSe5F6
_chemical_formula_sum   'Sb16 Se80 F96'
_cell_volume   4491.25800629
_cell_formula_units_Z   16
loop_
 _symmetry_equiv_pos_site_id
 _symmetry_equiv_pos_as_xyz
  1  'x, y, z'
loop_
 _atom_site_type_symbol
 _atom_site_label
 _atom_site_symmetry_multiplicity
 _atom_site_fract_x
 _atom_site_fract_y
 _atom_site_fract_z
 _atom_site_occupancy
  Sb  Sb0  1  0.489199  0.314568  0.038714  1
  Sb  Sb1  1  0.607999  0.068905  0.371503  1
  Sb  Sb2  1  0.510801  0.685432  0.961286  1
  Sb  Sb3  1  0.107999  0.431095  0.371503  1
  Sb  Sb4  1  0.892001  0.568905  0.628497  1
  Sb  Sb5  1  0.392001  0.931095  0.628497  1
  Sb  Sb6  1  0.663339  0.405780  0.365594  1
  Sb  Sb7  1  0.989199  0.185432  0.038714  1
  Sb  Sb8  1  0.535784  0.594144  0.149800  1
  Sb  Sb9  1  0.035784  0.905856  0.149800  1
  Sb  Sb10  1  0.964216  0.094144  0.850200  1
  Sb  Sb11  1  0.336661  0.594220  0.634406  1
  Sb  Sb12  1  0.010801  0.814568  0.961286  1
  Sb  Sb13  1  0.464216  0.405856  0.850200  1
  Sb  Sb14  1  0.836661  0.905780  0.634406  1
  Sb  Sb15  1  0.163339  0.094220  0.365594  1
  Se  Se16  1  0.464715  0.233232  0.155943  1
  Se  Se17  1  0.736454  0.814558  0.265894  1
  Se  Se18  1  0.722604  0.387667  0.095180  1
  Se  Se19  1  0.857250  0.616810  0.398389  1
  Se  Se20  1  0.372912  0.835079  0.292794  1
  Se  Se21  1  0.857099  0.735165  0.459486  1
  Se  Se22  1  0.462586  0.256043  0.481854  1
  Se  Se23  1  0.102684  0.672381  0.977679  1
  Se  Se24  1  0.822467  0.739586  0.934755  1
  Se  Se25  1  0.535285  0.766768  0.844057  1
  Se  Se26  1  0.868641  0.902256  0.291247  1
  Se  Se27  1  0.260991  0.295671  0.238506  1
  Se  Se28  1  0.872912  0.664921  0.292794  1
  Se  Se29  1  0.767394  0.721114  0.049337  1
  Se  Se30  1  0.964715  0.266769  0.155943  1
  Se  Se31  1  0.131359  0.097744  0.708753  1
  Se  Se32  1  0.962586  0.243957  0.481854  1
  Se  Se33  1  0.222604  0.112333  0.095180  1
  Se  Se34  1  0.851556  0.351858  0.194418  1
  Se  Se35  1  0.189125  0.430807  0.074528  1
  Se  Se36  1  0.939633  0.111530  0.537739  1
  Se  Se37  1  0.239009  0.795671  0.761494  1
  Se  Se38  1  0.560367  0.611530  0.462261  1
  Se  Se39  1  0.267394  0.778886  0.049337  1
  Se  Se40  1  0.148444  0.648142  0.805582  1
  Se  Se41  1  0.851988  0.117794  0.201959  1
  Se  Se42  1  0.642750  0.116810  0.601611  1
  Se  Se43  1  0.598073  0.436242  0.586004  1
  Se  Se44  1  0.459654  0.225287  0.658692  1
  Se  Se45  1  0.142901  0.264835  0.540514  1
  Se  Se46  1  0.236454  0.685442  0.265894  1
  Se  Se47  1  0.602684  0.827619  0.977679  1
  Se  Se48  1  0.306955  0.403558  0.990293  1
  Se  Se49  1  0.901927  0.936242  0.413996  1
  Se  Se50  1  0.037414  0.756043  0.518146  1
  Se  Se51  1  0.148012  0.882206  0.798041  1
  Se  Se52  1  0.060367  0.888470  0.462261  1
  Se  Se53  1  0.351556  0.148142  0.194418  1
  Se  Se54  1  0.897316  0.327619  0.022321  1
  Se  Se55  1  0.098073  0.063758  0.586004  1
  Se  Se56  1  0.232606  0.278886  0.950663  1
  Se  Se57  1  0.397316  0.172381  0.022321  1
  Se  Se58  1  0.689125  0.069193  0.074528  1
  Se  Se59  1  0.760991  0.204329  0.238506  1
  Se  Se60  1  0.397370  0.164663  0.550541  1
  Se  Se61  1  0.677533  0.239586  0.065245  1
  Se  Se62  1  0.439633  0.388470  0.537739  1
  Se  Se63  1  0.127088  0.335079  0.707206  1
  Se  Se64  1  0.732606  0.221114  0.950663  1
  Se  Se65  1  0.897370  0.335337  0.550541  1
  Se  Se66  1  0.401927  0.563758  0.413996  1
  Se  Se67  1  0.763546  0.314558  0.734106  1
  Se  Se68  1  0.368641  0.597744  0.291247  1
  Se  Se69  1  0.142750  0.383190  0.601611  1
  Se  Se70  1  0.357250  0.883190  0.398389  1
  Se  Se71  1  0.739009  0.704329  0.761494  1
  Se  Se72  1  0.263546  0.185442  0.734106  1
  Se  Se73  1  0.035285  0.733232  0.844057  1
  Se  Se74  1  0.627088  0.164921  0.707206  1
  Se  Se75  1  0.040346  0.725287  0.341308  1
  Se  Se76  1  0.193045  0.903558  0.009707  1
  Se  Se77  1  0.648012  0.617794  0.798041  1
  Se  Se78  1  0.810875  0.569193  0.925472  1
  Se  Se79  1  0.693045  0.596442  0.009707  1
  Se  Se80  1  0.777396  0.887667  0.904820  1
  Se  Se81  1  0.642901  0.235165  0.540514  1
  Se  Se82  1  0.177533  0.260414  0.065245  1
  Se  Se83  1  0.602630  0.835337  0.449459  1
  Se  Se84  1  0.806955  0.096442  0.990293  1
  Se  Se85  1  0.537414  0.743957  0.518146  1
  Se  Se86  1  0.540346  0.774713  0.341308  1
  Se  Se87  1  0.648444  0.851858  0.805582  1
  Se  Se88  1  0.959654  0.274713  0.658692  1
  Se  Se89  1  0.631359  0.402256  0.708753  1
  Se  Se90  1  0.322467  0.760414  0.934755  1
  Se  Se91  1  0.357099  0.764835  0.459486  1
  Se  Se92  1  0.277396  0.612333  0.904820  1
  Se  Se93  1  0.102630  0.664663  0.449459  1
  Se  Se94  1  0.310875  0.930807  0.925472  1
  Se  Se95  1  0.351988  0.382206  0.201959  1
  F  F96  1  0.910223  0.846903  0.584840  1
  F  F97  1  0.094433  0.137799  0.860876  1
  F  F98  1  0.225270  0.666266  0.595685  1
  F  F99  1  0.262257  0.535565  0.682615  1
  F  F100  1  0.934938  0.190694  0.895558  1
  F  F101  1  0.350905  0.134981  0.929573  1
  F  F102  1  0.000502  0.994136  0.817883  1
  F  F103  1  0.887264  0.836190  0.714223  1
  F  F104  1  0.655391  0.725770  0.674932  1
  F  F105  1  0.500502  0.505864  0.817883  1
  F  F106  1  0.448432  0.521912  0.668672  1
  F  F107  1  0.970085  0.666396  0.643472  1
  F  F108  1  0.499498  0.494136  0.182117  1
  F  F109  1  0.184474  0.530350  0.385126  1
  F  F110  1  0.638919  0.090384  0.287836  1
  F  F111  1  0.727554  0.126596  0.424268  1
  F  F112  1  0.578816  0.048440  0.456066  1
  F  F113  1  0.399728  0.938220  0.878792  1
  F  F114  1  0.509379  0.990848  0.680411  1
  F  F115  1  0.861081  0.590384  0.712164  1
  F  F116  1  0.132469  0.618218  0.222420  1
  F  F117  1  0.361081  0.909616  0.712164  1
  F  F118  1  0.216995  0.025475  0.445940  1
  F  F119  1  0.389165  0.820166  0.103081  1
  F  F120  1  0.410223  0.653097  0.584840  1
  F  F121  1  0.600272  0.061780  0.121208  1
  F  F122  1  0.834225  0.053571  0.840922  1
  F  F123  1  0.100272  0.438220  0.121208  1
  F  F124  1  0.088692  0.855890  0.239511  1
  F  F125  1  0.051568  0.021912  0.331328  1
  F  F126  1  0.078816  0.451560  0.456066  1
  F  F127  1  0.405567  0.637799  0.139124  1
  F  F128  1  0.065062  0.809306  0.104442  1
  F  F129  1  0.095240  0.465677  0.995432  1
  F  F130  1  0.649095  0.865019  0.070427  1
  F  F131  1  0.434938  0.309306  0.895558  1
  F  F132  1  0.889165  0.679834  0.103081  1
  F  F133  1  0.737743  0.464435  0.317385  1
  F  F134  1  0.815526  0.469650  0.614874  1
  F  F135  1  0.595240  0.034323  0.995432  1
  F  F136  1  0.844609  0.225770  0.325068  1
  F  F137  1  0.867531  0.381782  0.777580  1
  F  F138  1  0.716995  0.474525  0.445940  1
  F  F139  1  0.850905  0.365019  0.929573  1
  F  F140  1  0.905567  0.862201  0.139124  1
  F  F141  1  0.517878  0.450050  0.944704  1
  F  F142  1  0.411308  0.355890  0.760489  1
  F  F143  1  0.089777  0.153097  0.415160  1
  F  F144  1  0.632469  0.881782  0.222420  1
  F  F145  1  0.982122  0.950050  0.055296  1
  F  F146  1  0.772446  0.626596  0.575732  1
  F  F147  1  0.551568  0.478088  0.331328  1
  F  F148  1  0.990621  0.490848  0.319589  1
  F  F149  1  0.565062  0.690694  0.104442  1
  F  F150  1  0.725270  0.833734  0.595685  1
  F  F151  1  0.344609  0.274230  0.325068  1
  F  F152  1  0.367531  0.118218  0.777580  1
  F  F153  1  0.421184  0.951560  0.543934  1
  F  F154  1  0.529915  0.166396  0.356528  1
  F  F155  1  0.594433  0.362201  0.860876  1
  F  F156  1  0.774730  0.333734  0.404315  1
  F  F157  1  0.283005  0.525475  0.554060  1
  F  F158  1  0.138919  0.409616  0.287836  1
  F  F159  1  0.029915  0.333604  0.356528  1
  F  F160  1  0.612736  0.336190  0.285777  1
  F  F161  1  0.227554  0.373404  0.424268  1
  F  F162  1  0.665775  0.553571  0.159078  1
  F  F163  1  0.334225  0.446429  0.840922  1
  F  F164  1  0.237743  0.035565  0.317385  1
  F  F165  1  0.017878  0.049950  0.944704  1
  F  F166  1  0.911308  0.144110  0.760489  1
  F  F167  1  0.315526  0.030350  0.614874  1
  F  F168  1  0.155391  0.774230  0.674932  1
  F  F169  1  0.588692  0.644110  0.239511  1
  F  F170  1  0.948432  0.978088  0.668672  1
  F  F171  1  0.470085  0.833604  0.643472  1
  F  F172  1  0.272446  0.873404  0.575732  1
  F  F173  1  0.112736  0.163810  0.285777  1
  F  F174  1  0.387264  0.663810  0.714223  1
  F  F175  1  0.899728  0.561780  0.878792  1
  F  F176  1  0.762257  0.964435  0.682615  1
  F  F177  1  0.274730  0.166266  0.404315  1
  F  F178  1  0.904760  0.534323  0.004568  1
  F  F179  1  0.684474  0.969650  0.385126  1
  F  F180  1  0.149095  0.634981  0.070427  1
  F  F181  1  0.009379  0.509152  0.680411  1
  F  F182  1  0.921184  0.548440  0.543934  1
  F  F183  1  0.165775  0.946429  0.159078  1
  F  F184  1  0.482122  0.549950  0.055296  1
  F  F185  1  0.110835  0.320166  0.896919  1
  F  F186  1  0.610835  0.179834  0.896919  1
  F  F187  1  0.589777  0.346903  0.415160  1
  F  F188  1  0.404760  0.965677  0.004568  1
  F  F189  1  0.999498  0.005864  0.182117  1
  F  F190  1  0.783005  0.974525  0.554060  1
  F  F191  1  0.490621  0.009152  0.319589  1
