# generated using pymatgen
data_U2Zn17
_symmetry_space_group_name_H-M   'P 1'
_cell_length_a   8.99198932
_cell_length_b   8.99198899
_cell_length_c   26.34572359
_cell_angle_alpha   90.00000000
_cell_angle_beta   90.00000000
_cell_angle_gamma   120.00000122
_symmetry_Int_Tables_number   1
_chemical_formula_structural   U2Zn17
_chemical_formula_sum   'U12 Zn102'
_cell_volume   1844.81281277
_cell_formula_units_Z   6
loop_
 _symmetry_equiv_pos_site_id
 _symmetry_equiv_pos_as_xyz
  1  'x, y, z'
loop_
 _atom_site_type_symbol
 _atom_site_label
 _atom_site_symmetry_multiplicity
 _atom_site_fract_x
 _atom_site_fract_y
 _atom_site_fract_z
 _atom_site_occupancy
  U  U0  1  0.333333  0.666667  0.000000  1
  U  U1  1  0.333333  0.666667  0.664795  1
  U  U2  1  0.666667  0.333333  0.500000  1
  U  U3  1  0.333333  0.666667  0.500000  1
  U  U4  1  0.000000  0.000000  0.168626  1
  U  U5  1  0.000000  0.000000  0.668745  1
  U  U6  1  0.000000  0.000000  0.331255  1
  U  U7  1  0.666667  0.333333  0.164784  1
  U  U8  1  0.666667  0.333333  0.000000  1
  U  U9  1  0.666667  0.333333  0.835216  1
  U  U10  1  0.333333  0.666667  0.335205  1
  U  U11  1  0.000000  0.000000  0.831374  1
  Zn  Zn12  1  0.829074  0.658149  0.909334  1
  Zn  Zn13  1  0.162313  0.324626  0.742665  1
  Zn  Zn14  1  0.631488  0.964982  0.833487  1
  Zn  Zn15  1  0.666160  0.631616  0.666749  1
  Zn  Zn16  1  0.324849  0.162424  0.242514  1
  Zn  Zn17  1  0.333333  0.666667  0.116904  1
  Zn  Zn18  1  0.171146  0.828854  0.590705  1
  Zn  Zn19  1  0.504750  0.009500  0.924177  1
  Zn  Zn20  1  0.324849  0.162424  0.757486  1
  Zn  Zn21  1  0.495131  0.990262  0.424085  1
  Zn  Zn22  1  0.833378  0.666755  0.583200  1
  Zn  Zn23  1  0.368384  0.333840  0.666749  1
  Zn  Zn24  1  0.000000  0.000000  0.949451  1
  Zn  Zn25  1  0.333494  0.368512  0.166514  1
  Zn  Zn26  1  0.500124  0.499876  0.250080  1
  Zn  Zn27  1  0.657709  0.828854  0.409295  1
  Zn  Zn28  1  0.333494  0.964982  0.833487  1
  Zn  Zn29  1  0.965456  0.631616  0.333251  1
  Zn  Zn30  1  0.829074  0.658149  0.090666  1
  Zn  Zn31  1  0.631488  0.666506  0.166514  1
  Zn  Zn32  1  0.965456  0.333840  0.666749  1
  Zn  Zn33  1  0.666160  0.631616  0.333251  1
  Zn  Zn34  1  0.657709  0.828854  0.590705  1
  Zn  Zn35  1  0.990500  0.495250  0.924177  1
  Zn  Zn36  1  0.162313  0.324626  0.257335  1
  Zn  Zn37  1  0.837576  0.675151  0.242514  1
  Zn  Zn38  1  0.300171  0.004126  0.000000  1
  Zn  Zn39  1  0.995874  0.699829  0.000000  1
  Zn  Zn40  1  0.162313  0.837687  0.742665  1
  Zn  Zn41  1  0.833378  0.666755  0.416800  1
  Zn  Zn42  1  0.333245  0.166622  0.583200  1
  Zn  Zn43  1  0.000000  0.000000  0.050549  1
  Zn  Zn44  1  0.837576  0.162424  0.757486  1
  Zn  Zn45  1  0.495131  0.504869  0.424085  1
  Zn  Zn46  1  0.035018  0.368512  0.833487  1
  Zn  Zn47  1  0.837576  0.162424  0.242514  1
  Zn  Zn48  1  0.504750  0.009500  0.075823  1
  Zn  Zn49  1  0.333333  0.666667  0.217580  1
  Zn  Zn50  1  0.035018  0.368512  0.166514  1
  Zn  Zn51  1  0.333494  0.964982  0.166514  1
  Zn  Zn52  1  0.631488  0.964982  0.166514  1
  Zn  Zn53  1  0.368384  0.034544  0.666749  1
  Zn  Zn54  1  0.166728  0.333456  0.916902  1
  Zn  Zn55  1  0.837576  0.675151  0.757486  1
  Zn  Zn56  1  0.333333  0.666667  0.782420  1
  Zn  Zn57  1  0.666544  0.833272  0.083098  1
  Zn  Zn58  1  0.000000  0.000000  0.550652  1
  Zn  Zn59  1  0.333494  0.368512  0.833487  1
  Zn  Zn60  1  0.296138  0.996000  0.500000  1
  Zn  Zn61  1  0.341851  0.170926  0.909334  1
  Zn  Zn62  1  0.666667  0.333333  0.717568  1
  Zn  Zn63  1  0.666667  0.333333  0.617182  1
  Zn  Zn64  1  0.004000  0.300138  0.500000  1
  Zn  Zn65  1  0.631488  0.666506  0.833487  1
  Zn  Zn66  1  0.666160  0.034544  0.666749  1
  Zn  Zn67  1  0.675374  0.837687  0.257335  1
  Zn  Zn68  1  0.296138  0.300138  0.500000  1
  Zn  Zn69  1  0.500124  0.000247  0.749920  1
  Zn  Zn70  1  0.995874  0.296046  0.000000  1
  Zn  Zn71  1  0.162313  0.837687  0.257335  1
  Zn  Zn72  1  0.829074  0.170926  0.909334  1
  Zn  Zn73  1  0.171146  0.828854  0.409295  1
  Zn  Zn74  1  0.999753  0.499876  0.250080  1
  Zn  Zn75  1  0.166728  0.833272  0.083098  1
  Zn  Zn76  1  0.699862  0.703862  0.500000  1
  Zn  Zn77  1  0.504750  0.495250  0.075823  1
  Zn  Zn78  1  0.965456  0.333840  0.333251  1
  Zn  Zn79  1  0.829074  0.170926  0.090666  1
  Zn  Zn80  1  0.703954  0.699829  0.000000  1
  Zn  Zn81  1  0.166728  0.333456  0.083098  1
  Zn  Zn82  1  0.000000  0.000000  0.449348  1
  Zn  Zn83  1  0.009738  0.504869  0.424085  1
  Zn  Zn84  1  0.675374  0.837687  0.742665  1
  Zn  Zn85  1  0.666160  0.034544  0.333251  1
  Zn  Zn86  1  0.035018  0.666506  0.833487  1
  Zn  Zn87  1  0.999753  0.499876  0.749920  1
  Zn  Zn88  1  0.500124  0.000247  0.250080  1
  Zn  Zn89  1  0.009738  0.504869  0.575915  1
  Zn  Zn90  1  0.990500  0.495250  0.075823  1
  Zn  Zn91  1  0.965456  0.631616  0.666749  1
  Zn  Zn92  1  0.035018  0.666506  0.166514  1
  Zn  Zn93  1  0.495131  0.990262  0.575915  1
  Zn  Zn94  1  0.495131  0.504869  0.575915  1
  Zn  Zn95  1  0.171146  0.342291  0.409295  1
  Zn  Zn96  1  0.368384  0.333840  0.333251  1
  Zn  Zn97  1  0.300171  0.296046  0.000000  1
  Zn  Zn98  1  0.833378  0.166622  0.583200  1
  Zn  Zn99  1  0.333245  0.166622  0.416800  1
  Zn  Zn100  1  0.333333  0.666667  0.883096  1
  Zn  Zn101  1  0.341851  0.170926  0.090666  1
  Zn  Zn102  1  0.004000  0.703862  0.500000  1
  Zn  Zn103  1  0.171146  0.342291  0.590705  1
  Zn  Zn104  1  0.166728  0.833272  0.916902  1
  Zn  Zn105  1  0.703954  0.004126  0.000000  1
  Zn  Zn106  1  0.833378  0.166622  0.416800  1
  Zn  Zn107  1  0.500124  0.499876  0.749920  1
  Zn  Zn108  1  0.666544  0.833272  0.916902  1
  Zn  Zn109  1  0.368384  0.034544  0.333251  1
  Zn  Zn110  1  0.504750  0.495250  0.924177  1
  Zn  Zn111  1  0.699862  0.996000  0.500000  1
  Zn  Zn112  1  0.666667  0.333333  0.382818  1
  Zn  Zn113  1  0.666667  0.333333  0.282432  1
