# generated using pymatgen
data_Ba(Mo3O5)2
_symmetry_space_group_name_H-M   'P 1'
_cell_length_a   9.14128157
_cell_length_b   9.61443049
_cell_length_c   10.51228345
_cell_angle_alpha   89.87122306
_cell_angle_beta   89.70747961
_cell_angle_gamma   89.11723035
_symmetry_Int_Tables_number   1
_chemical_formula_structural   Ba(Mo3O5)2
_chemical_formula_sum   'Ba4 Mo24 O40'
_cell_volume   923.78197002
_cell_formula_units_Z   4
loop_
 _symmetry_equiv_pos_site_id
 _symmetry_equiv_pos_as_xyz
  1  'x, y, z'
loop_
 _atom_site_type_symbol
 _atom_site_label
 _atom_site_symmetry_multiplicity
 _atom_site_fract_x
 _atom_site_fract_y
 _atom_site_fract_z
 _atom_site_occupancy
  O  O0  1  0.584779  0.010668  0.859709  1
  O  O1  1  0.096635  0.993057  0.131136  1
  O  O2  1  0.395842  0.510081  0.632421  1
  O  O3  1  0.916819  0.489043  0.355414  1
  O  O4  1  0.411247  0.987970  0.141411  1
  O  O5  1  0.898620  0.010565  0.865064  1
  O  O6  1  0.602192  0.489518  0.366612  1
  O  O7  1  0.084473  0.510803  0.641314  1
  O  O8  1  0.246870  0.745298  0.540957  1
  O  O9  1  0.751815  0.266803  0.460691  1
  O  O10  1  0.748457  0.234138  0.959748  1
  O  O11  1  0.245311  0.754060  0.041687  1
  O  O12  1  0.573855  0.000810  0.382184  1
  O  O13  1  0.076359  0.997408  0.623542  1
  O  O14  1  0.422547  0.502455  0.125253  1
  O  O15  1  0.930035  0.501445  0.882785  1
  O  O16  1  0.589050  0.236171  0.208957  1
  O  O17  1  0.430588  0.996730  0.619346  1
  O  O18  1  0.579586  0.497913  0.875604  1
  O  O19  1  0.071563  0.504446  0.115150  1
  O  O20  1  0.241516  0.242072  0.712381  1
  O  O21  1  0.756864  0.758195  0.291072  1
  O  O22  1  0.742891  0.742725  0.791918  1
  O  O23  1  0.250860  0.253886  0.212930  1
  O  O24  1  0.402941  0.765531  0.794085  1
  O  O25  1  0.906581  0.239916  0.206869  1
  O  O26  1  0.592416  0.259765  0.707361  1
  O  O27  1  0.095032  0.740529  0.291573  1
  O  O28  1  0.081556  0.265804  0.954862  1
  O  O29  1  0.585649  0.743006  0.042099  1
  O  O30  1  0.919950  0.761412  0.537938  1
  O  O31  1  0.415905  0.232283  0.453044  1
  O  O32  1  0.919899  0.734224  0.045491  1
  O  O33  1  0.412950  0.255002  0.958447  1
  O  O34  1  0.085414  0.238688  0.450097  1
  O  O35  1  0.587372  0.763957  0.548732  1
  O  O36  1  0.906995  0.263733  0.706734  1
  O  O37  1  0.414277  0.740529  0.297256  1
  O  O38  1  0.082231  0.754504  0.797257  1
  O  O39  1  0.923509  0.003867  0.371757  1
  Mo  Mo40  1  0.590919  0.876206  0.720903  1
  Mo  Mo41  1  0.092854  0.117552  0.282951  1
  Mo  Mo42  1  0.412450  0.373988  0.788017  1
  Mo  Mo43  1  0.908991  0.626906  0.218485  1
  Mo  Mo44  1  0.409523  0.122690  0.281394  1
  Mo  Mo45  1  0.909748  0.873937  0.711399  1
  Mo  Mo46  1  0.589816  0.624804  0.212630  1
  Mo  Mo47  1  0.089418  0.376633  0.780783  1
  Mo  Mo48  1  0.248455  0.871513  0.216038  1
  Mo  Mo49  1  0.754084  0.129036  0.786900  1
  Mo  Mo50  1  0.746699  0.370209  0.286819  1
  Mo  Mo51  1  0.254420  0.630492  0.713871  1
  Mo  Mo52  1  0.597004  0.136485  0.545286  1
  Mo  Mo53  1  0.095475  0.873307  0.450498  1
  Mo  Mo54  1  0.409486  0.633415  0.954039  1
  Mo  Mo55  1  0.903308  0.362726  0.045362  1
  Mo  Mo56  1  0.404395  0.863826  0.455764  1
  Mo  Mo57  1  0.908234  0.136052  0.544660  1
  Mo  Mo58  1  0.590549  0.363855  0.045798  1
  Mo  Mo59  1  0.102077  0.632843  0.951798  1
  Mo  Mo60  1  0.247888  0.119227  0.541429  1
  Mo  Mo61  1  0.752809  0.880491  0.460040  1
  Mo  Mo62  1  0.748832  0.620295  0.961555  1
  Mo  Mo63  1  0.252323  0.380698  0.040265  1
  Ba  Ba64  1  0.253596  0.016007  0.900940  1
  Ba  Ba65  1  0.751799  0.987751  0.099909  1
  Ba  Ba66  1  0.753003  0.514000  0.599513  1
  Ba  Ba67  1  0.240390  0.486050  0.402063  1
