# generated using pymatgen
data_Os6C19O20
_symmetry_space_group_name_H-M   'P 1'
_cell_length_a   10.62043634
_cell_length_b   16.68095448
_cell_length_c   17.23661620
_cell_angle_alpha   90.00000000
_cell_angle_beta   90.00000000
_cell_angle_gamma   90.00000000
_symmetry_Int_Tables_number   1
_chemical_formula_structural   Os6C19O20
_chemical_formula_sum   'Os24 C76 O80'
_cell_volume   3053.62195043
_cell_formula_units_Z   4
loop_
 _symmetry_equiv_pos_site_id
 _symmetry_equiv_pos_as_xyz
  1  'x, y, z'
loop_
 _atom_site_type_symbol
 _atom_site_label
 _atom_site_symmetry_multiplicity
 _atom_site_fract_x
 _atom_site_fract_y
 _atom_site_fract_z
 _atom_site_occupancy
  Os  Os0  1  0.273914  0.390436  0.908836  1
  Os  Os1  1  0.435700  0.820822  0.831082  1
  Os  Os2  1  0.226086  0.890436  0.908836  1
  Os  Os3  1  0.935700  0.679178  0.168918  1
  Os  Os4  1  0.773914  0.109564  0.408836  1
  Os  Os5  1  0.715458  0.652031  0.250000  1
  Os  Os6  1  0.284542  0.347969  0.750000  1
  Os  Os7  1  0.564300  0.179178  0.168918  1
  Os  Os8  1  0.935700  0.679178  0.331082  1
  Os  Os9  1  0.226086  0.890436  0.591164  1
  Os  Os10  1  0.435700  0.820822  0.668918  1
  Os  Os11  1  0.273914  0.390436  0.591164  1
  Os  Os12  1  0.564300  0.179178  0.331082  1
  Os  Os13  1  0.669515  0.816048  0.750000  1
  Os  Os14  1  0.830485  0.316048  0.750000  1
  Os  Os15  1  0.064300  0.320822  0.831082  1
  Os  Os16  1  0.726086  0.609564  0.408836  1
  Os  Os17  1  0.215458  0.847969  0.750000  1
  Os  Os18  1  0.169515  0.683952  0.250000  1
  Os  Os19  1  0.726086  0.609564  0.091164  1
  Os  Os20  1  0.330485  0.183952  0.250000  1
  Os  Os21  1  0.773914  0.109564  0.091164  1
  Os  Os22  1  0.784542  0.152031  0.250000  1
  Os  Os23  1  0.064300  0.320822  0.668918  1
  C  C24  1  0.636438  0.700969  0.750000  1
  C  C25  1  0.527231  0.882873  0.904694  1
  C  C26  1  0.454971  0.728268  0.892388  1
  C  C27  1  0.776484  0.599597  0.984995  1
  C  C28  1  0.545029  0.271732  0.107612  1
  C  C29  1  0.669558  0.719358  0.424775  1
  C  C30  1  0.830442  0.219358  0.424775  1
  C  C31  1  0.086186  0.770880  0.750000  1
  C  C32  1  0.833576  0.761333  0.250000  1
  C  C33  1  0.214600  0.193181  0.334287  1
  C  C34  1  0.913814  0.229120  0.250000  1
  C  C35  1  0.169558  0.780642  0.575225  1
  C  C36  1  0.169558  0.780642  0.924775  1
  C  C37  1  0.785400  0.806819  0.665713  1
  C  C38  1  0.863562  0.200969  0.750000  1
  C  C39  1  0.303239  0.992414  0.873867  1
  C  C40  1  0.333576  0.738667  0.750000  1
  C  C41  1  0.839054  0.434233  0.750000  1
  C  C42  1  0.196761  0.492414  0.626133  1
  C  C43  1  0.166424  0.238667  0.750000  1
  C  C44  1  0.938521  0.065188  0.077262  1
  C  C45  1  0.592153  0.568656  0.250000  1
  C  C46  1  0.136438  0.799031  0.250000  1
  C  C47  1  0.223516  0.400403  0.484995  1
  C  C48  1  0.907847  0.068656  0.250000  1
  C  C49  1  0.339054  0.065767  0.250000  1
  C  C50  1  0.196761  0.492414  0.873867  1
  C  C51  1  0.276484  0.900403  0.015005  1
  C  C52  1  0.303239  0.992414  0.626133  1
  C  C53  1  0.785400  0.806819  0.834287  1
  C  C54  1  0.413814  0.270880  0.750000  1
  C  C55  1  0.472769  0.117127  0.095306  1
  C  C56  1  0.561479  0.565188  0.422738  1
  C  C57  1  0.276484  0.900403  0.484995  1
  C  C58  1  0.214600  0.193181  0.165713  1
  C  C59  1  0.160946  0.565767  0.250000  1
  C  C60  1  0.407847  0.431344  0.750000  1
  C  C61  1  0.696761  0.007586  0.126133  1
  C  C62  1  0.061479  0.934812  0.577262  1
  C  C63  1  0.527231  0.882873  0.595306  1
  C  C64  1  0.669558  0.719358  0.075225  1
  C  C65  1  0.454971  0.728268  0.607612  1
  C  C66  1  0.586186  0.729120  0.250000  1
  C  C67  1  0.723516  0.099597  0.515005  1
  C  C68  1  0.938521  0.065188  0.422738  1
  C  C69  1  0.438521  0.434812  0.577262  1
  C  C70  1  0.061479  0.934812  0.922738  1
  C  C71  1  0.830442  0.219358  0.075225  1
  C  C72  1  0.092153  0.931344  0.750000  1
  C  C73  1  0.561479  0.565188  0.077262  1
  C  C74  1  0.285400  0.693181  0.165713  1
  C  C75  1  0.972769  0.382873  0.904694  1
  C  C76  1  0.776484  0.599597  0.515005  1
  C  C77  1  0.954971  0.771732  0.392388  1
  C  C78  1  0.714600  0.306819  0.665713  1
  C  C79  1  0.363562  0.299031  0.250000  1
  C  C80  1  0.223516  0.400403  0.015005  1
  C  C81  1  0.660946  0.934233  0.750000  1
  C  C82  1  0.330442  0.280642  0.924775  1
  C  C83  1  0.045029  0.228268  0.892388  1
  C  C84  1  0.954971  0.771732  0.107612  1
  C  C85  1  0.666424  0.261333  0.250000  1
  C  C86  1  0.545029  0.271732  0.392388  1
  C  C87  1  0.045029  0.228268  0.607612  1
  C  C88  1  0.330442  0.280642  0.575225  1
  C  C89  1  0.027231  0.617127  0.095306  1
  C  C90  1  0.714600  0.306819  0.834287  1
  C  C91  1  0.803239  0.507586  0.373867  1
  C  C92  1  0.803239  0.507586  0.126133  1
  C  C93  1  0.972769  0.382873  0.595306  1
  C  C94  1  0.285400  0.693181  0.334287  1
  C  C95  1  0.027231  0.617127  0.404694  1
  C  C96  1  0.472769  0.117127  0.404694  1
  C  C97  1  0.696761  0.007586  0.373867  1
  C  C98  1  0.438521  0.434812  0.922738  1
  C  C99  1  0.723516  0.099597  0.984995  1
  O  O100  1  0.611175  0.091742  0.250000  1
  O  O101  1  0.154517  0.496680  0.250000  1
  O  O102  1  0.460690  0.539029  0.426713  1
  O  O103  1  0.039310  0.039029  0.426713  1
  O  O104  1  0.916852  0.421367  0.550519  1
  O  O105  1  0.536403  0.331142  0.071617  1
  O  O106  1  0.346547  0.052724  0.644905  1
  O  O107  1  0.987731  0.281203  0.250000  1
  O  O108  1  0.388825  0.908258  0.750000  1
  O  O109  1  0.649097  0.298414  0.612319  1
  O  O110  1  0.083148  0.578633  0.449481  1
  O  O111  1  0.365615  0.216250  0.937264  1
  O  O112  1  0.846547  0.447276  0.355095  1
  O  O113  1  0.083148  0.578633  0.050519  1
  O  O114  1  0.185591  0.168229  0.750000  1
  O  O115  1  0.695223  0.097274  0.919999  1
  O  O116  1  0.036403  0.168858  0.571617  1
  O  O117  1  0.846547  0.447276  0.144905  1
  O  O118  1  0.013503  0.980258  0.750000  1
  O  O119  1  0.134385  0.716250  0.937264  1
  O  O120  1  0.036403  0.168858  0.928383  1
  O  O121  1  0.845483  0.503320  0.750000  1
  O  O122  1  0.463597  0.668858  0.571617  1
  O  O123  1  0.888825  0.591742  0.250000  1
  O  O124  1  0.986497  0.019742  0.250000  1
  O  O125  1  0.365615  0.216250  0.562736  1
  O  O126  1  0.653453  0.947276  0.144905  1
  O  O127  1  0.865615  0.283750  0.437264  1
  O  O128  1  0.649097  0.298414  0.887681  1
  O  O129  1  0.653453  0.947276  0.355095  1
  O  O130  1  0.416852  0.078633  0.449481  1
  O  O131  1  0.304777  0.902726  0.419999  1
  O  O132  1  0.346547  0.052724  0.855095  1
  O  O133  1  0.536403  0.331142  0.428383  1
  O  O134  1  0.916852  0.421367  0.949481  1
  O  O135  1  0.039310  0.039029  0.073287  1
  O  O136  1  0.119332  0.867346  0.250000  1
  O  O137  1  0.350903  0.701586  0.387681  1
  O  O138  1  0.134385  0.716250  0.562736  1
  O  O139  1  0.012269  0.718797  0.750000  1
  O  O140  1  0.380668  0.367346  0.250000  1
  O  O141  1  0.619332  0.632654  0.750000  1
  O  O142  1  0.850903  0.798414  0.612319  1
  O  O143  1  0.345483  0.996680  0.250000  1
  O  O144  1  0.960690  0.960971  0.573287  1
  O  O145  1  0.539310  0.460971  0.926713  1
  O  O146  1  0.153453  0.552724  0.855095  1
  O  O147  1  0.111175  0.408258  0.750000  1
  O  O148  1  0.583148  0.921367  0.949481  1
  O  O149  1  0.804777  0.597274  0.580001  1
  O  O150  1  0.487731  0.218797  0.750000  1
  O  O151  1  0.865615  0.283750  0.062736  1
  O  O152  1  0.634385  0.783750  0.437264  1
  O  O153  1  0.880668  0.132654  0.750000  1
  O  O154  1  0.195223  0.402726  0.419999  1
  O  O155  1  0.685591  0.331771  0.250000  1
  O  O156  1  0.149097  0.201586  0.112319  1
  O  O157  1  0.149097  0.201586  0.387681  1
  O  O158  1  0.304777  0.902726  0.080001  1
  O  O159  1  0.634385  0.783750  0.062736  1
  O  O160  1  0.695223  0.097274  0.580001  1
  O  O161  1  0.512269  0.781203  0.250000  1
  O  O162  1  0.350903  0.701586  0.112319  1
  O  O163  1  0.654517  0.003320  0.750000  1
  O  O164  1  0.814409  0.831771  0.250000  1
  O  O165  1  0.963597  0.831142  0.428383  1
  O  O166  1  0.195223  0.402726  0.080001  1
  O  O167  1  0.463597  0.668858  0.928383  1
  O  O168  1  0.314409  0.668229  0.750000  1
  O  O169  1  0.486497  0.480258  0.750000  1
  O  O170  1  0.513503  0.519742  0.250000  1
  O  O171  1  0.804777  0.597274  0.919999  1
  O  O172  1  0.583148  0.921367  0.550519  1
  O  O173  1  0.153453  0.552724  0.644905  1
  O  O174  1  0.416852  0.078633  0.050519  1
  O  O175  1  0.539310  0.460971  0.573287  1
  O  O176  1  0.960690  0.960971  0.926713  1
  O  O177  1  0.850903  0.798414  0.887681  1
  O  O178  1  0.963597  0.831142  0.071617  1
  O  O179  1  0.460690  0.539029  0.073287  1
