# generated using pymatgen
data_Cu2S
_symmetry_space_group_name_H-M   'P 1'
_cell_length_a   4.02543534
_cell_length_b   4.62329766
_cell_length_c   18.58143753
_cell_angle_alpha   103.61601469
_cell_angle_beta   94.63917883
_cell_angle_gamma   114.22852750
_symmetry_Int_Tables_number   1
_chemical_formula_structural   Cu2S
_chemical_formula_sum   'Cu12 S6'
_cell_volume   300.28263781
_cell_formula_units_Z   6
loop_
 _symmetry_equiv_pos_site_id
 _symmetry_equiv_pos_as_xyz
  1  'x, y, z'
loop_
 _atom_site_type_symbol
 _atom_site_label
 _atom_site_symmetry_multiplicity
 _atom_site_fract_x
 _atom_site_fract_y
 _atom_site_fract_z
 _atom_site_occupancy
  Cu  Cu0  1  0.955233  0.048621  0.565271  1
  Cu  Cu1  1  0.072796  0.978942  0.987858  1
  Cu  Cu2  1  0.266610  0.668856  0.551074  1
  Cu  Cu3  1  0.276442  0.604141  0.689761  1
  Cu  Cu4  1  0.288512  0.304070  0.237857  1
  Cu  Cu5  1  0.790750  0.936176  0.327353  1
  Cu  Cu6  1  0.964860  0.978969  0.690657  1
  Cu  Cu7  1  0.640720  0.197976  0.812990  1
  Cu  Cu8  1  0.510098  0.207425  0.505790  1
  Cu  Cu9  1  0.924460  0.524692  0.158569  1
  Cu  Cu10  1  0.555618  0.196278  0.647241  1
  Cu  Cu11  1  0.425131  0.680378  0.050942  1
  S  S12  1  0.460794  0.769047  0.941001  1
  S  S13  1  0.235260  0.858163  0.276036  1
  S  S14  1  0.191326  0.258144  0.878319  1
  S  S15  1  0.985494  0.198949  0.453657  1
  S  S16  1  0.803648  0.612205  0.755699  1
  S  S17  1  0.318913  0.310300  0.110591  1
