# generated using pymatgen
data_Ge7H18O23
_symmetry_space_group_name_H-M   'P 1'
_cell_length_a   7.76130130
_cell_length_b   7.83854604
_cell_length_c   7.99176360
_cell_angle_alpha   90.83059229
_cell_angle_beta   89.81528160
_cell_angle_gamma   90.56469208
_symmetry_Int_Tables_number   1
_chemical_formula_structural   Ge7H18O23
_chemical_formula_sum   'Ge7 H18 O23'
_cell_volume   486.12045472
_cell_formula_units_Z   1
loop_
 _symmetry_equiv_pos_site_id
 _symmetry_equiv_pos_as_xyz
  1  'x, y, z'
loop_
 _atom_site_type_symbol
 _atom_site_label
 _atom_site_symmetry_multiplicity
 _atom_site_fract_x
 _atom_site_fract_y
 _atom_site_fract_z
 _atom_site_occupancy
  Ge  Ge0  1  0.848600  0.874059  0.141502  1
  Ge  Ge1  1  0.858525  0.140418  0.871945  1
  Ge  Ge2  1  0.136227  0.863193  0.874030  1
  Ge  Ge3  1  0.132421  0.139894  0.147113  1
  Ge  Ge4  1  -0.008339  -0.006548  0.486105  1
  Ge  Ge5  1  0.004380  0.492002  0.996865  1
  Ge  Ge6  1  0.492431  0.003742  0.000486  1
  H  H7  1  0.789590  0.793780  0.806883  1
  H  H8  1  0.727847  0.575858  0.107653  1
  H  H9  1  0.713827  0.074119  0.589235  1
  H  H10  1  0.081878  0.721941  0.583634  1
  H  H11  1  0.531909  0.291186  0.293164  1
  H  H12  1  0.516725  0.968022  0.428458  1
  H  H13  1  0.491676  0.936766  0.619043  1
  H  H14  1  0.057767  0.486149  0.440176  1
  H  H15  1  0.977583  0.458360  0.619065  1
  H  H16  1  0.424951  0.561335  0.957323  1
  H  H17  1  0.529986  0.396728  0.913207  1
  H  H18  1  0.292760  0.715134  0.260745  1
  H  H19  1  0.393449  0.583978  0.366602  1
  H  H20  1  0.733173  0.639297  0.615193  1
  H  H21  1  0.621676  0.615732  0.785712  1
  H  H22  1  0.725535  0.263611  0.251745  1
  H  H23  1  0.270672  0.329670  0.699260  1
  H  H24  1  0.418414  0.242656  0.602315  1
  O  O25  1  0.100765  0.883507  0.116053  1
  O  O26  1  0.871541  0.875751  0.888012  1
  O  O27  1  0.877931  0.120867  0.115677  1
  O  O28  1  0.101754  0.104919  0.871942  1
  O  O29  1  0.852190  0.866390  0.367718  1
  O  O30  1  0.848485  0.619612  0.120526  1
  O  O31  1  0.614687  0.870080  0.129035  1
  O  O32  1  0.842836  0.105517  0.625895  1
  O  O33  1  0.880996  0.371714  0.851862  1
  O  O34  1  0.624180  0.137783  0.876192  1
  O  O35  1  0.104029  0.848169  0.624294  1
  O  O36  1  0.135683  0.628274  0.880201  1
  O  O37  1  0.368892  0.875589  0.860326  1
  O  O38  1  0.124349  0.133534  0.380655  1
  O  O39  1  0.125887  0.376387  0.137334  1
  O  O40  1  0.365667  0.134768  0.133600  1
  O  O41  1  0.531508  0.022864  0.538918  1
  O  O42  1  0.000813  0.544071  0.533866  1
  O  O43  1  0.541715  0.515389  0.951484  1
  O  O44  1  0.328713  0.689085  0.374061  1
  O  O45  1  0.680976  0.699574  0.710178  1
  O  O46  1  0.647525  0.340515  0.313643  1
  O  O47  1  0.377842  0.353965  0.641926  1
