# generated using pymatgen
data_KPb2Cl5
_symmetry_space_group_name_H-M   'P 1'
_cell_length_a   8.38120947
_cell_length_b   9.00202382
_cell_length_c   12.38338146
_cell_angle_alpha   90.00020614
_cell_angle_beta   90.00001037
_cell_angle_gamma   90.00050472
_symmetry_Int_Tables_number   1
_chemical_formula_structural   KPb2Cl5
_chemical_formula_sum   'K4 Pb8 Cl20'
_cell_volume   934.29947330
_cell_formula_units_Z   4
loop_
 _symmetry_equiv_pos_site_id
 _symmetry_equiv_pos_as_xyz
  1  'x, y, z'
loop_
 _atom_site_type_symbol
 _atom_site_label
 _atom_site_symmetry_multiplicity
 _atom_site_fract_x
 _atom_site_fract_y
 _atom_site_fract_z
 _atom_site_occupancy
  K  K0  1  0.028637  0.505187  0.675782  1
  K  K1  1  0.471405  0.505178  0.175799  1
  K  K2  1  0.528647  0.005193  0.824200  1
  K  K3  1  0.971350  0.005169  0.324209  1
  Pb  Pb4  1  0.990349  0.015436  0.678373  1
  Pb  Pb5  1  0.083729  0.248815  0.995779  1
  Pb  Pb6  1  0.416270  0.248784  0.495770  1
  Pb  Pb7  1  0.509641  0.015423  0.178360  1
  Pb  Pb8  1  0.490364  0.515431  0.821631  1
  Pb  Pb9  1  0.583684  0.748798  0.504232  1
  Pb  Pb10  1  0.916284  0.748817  0.004227  1
  Pb  Pb11  1  0.009649  0.515443  0.321633  1
  Cl  Cl12  1  0.049619  0.243320  0.503517  1
  Cl  Cl13  1  0.139743  0.730734  0.191941  1
  Cl  Cl14  1  0.182044  0.538031  0.917702  1
  Cl  Cl15  1  0.151799  0.952956  0.904396  1
  Cl  Cl16  1  0.185167  0.265559  0.224404  1
  Cl  Cl17  1  0.314842  0.265554  0.724394  1
  Cl  Cl18  1  0.348190  0.952931  0.404385  1
  Cl  Cl19  1  0.317967  0.538016  0.417710  1
  Cl  Cl20  1  0.360259  0.730728  0.691950  1
  Cl  Cl21  1  0.450386  0.243330  0.003513  1
  Cl  Cl22  1  0.549623  0.743325  0.996483  1
  Cl  Cl23  1  0.639729  0.230723  0.308057  1
  Cl  Cl24  1  0.651784  0.452940  0.595605  1
  Cl  Cl25  1  0.682026  0.038018  0.582289  1
  Cl  Cl26  1  0.685157  0.765564  0.275609  1
  Cl  Cl27  1  0.814839  0.765559  0.775602  1
  Cl  Cl28  1  0.817964  0.038024  0.082294  1
  Cl  Cl29  1  0.848209  0.452950  0.095608  1
  Cl  Cl30  1  0.860267  0.230740  0.808062  1
  Cl  Cl31  1  0.950378  0.743324  0.496485  1
