# generated using pymatgen
data_Gd2Cl3
_symmetry_space_group_name_H-M   'P 1'
_cell_length_a   3.91849836
_cell_length_b   7.88964677
_cell_length_c   9.73059210
_cell_angle_alpha   69.62326710
_cell_angle_beta   78.32851903
_cell_angle_gamma   75.49489596
_symmetry_Int_Tables_number   1
_chemical_formula_structural   Gd2Cl3
_chemical_formula_sum   'Gd4 Cl6'
_cell_volume   270.80917305
_cell_formula_units_Z   2
loop_
 _symmetry_equiv_pos_site_id
 _symmetry_equiv_pos_as_xyz
  1  'x, y, z'
loop_
 _atom_site_type_symbol
 _atom_site_label
 _atom_site_symmetry_multiplicity
 _atom_site_fract_x
 _atom_site_fract_y
 _atom_site_fract_z
 _atom_site_occupancy
  Gd  Gd0  1  0.450766  0.746013  0.347185  1
  Gd  Gd1  1  0.731116  0.789918  0.757419  1
  Gd  Gd2  1  0.996101  0.999485  0.996997  1
  Gd  Gd3  1  0.183269  0.531843  0.105267  1
  Cl  Cl4  1  0.536755  0.132164  0.783046  1
  Cl  Cl5  1  0.634163  0.404982  0.319185  1
  Cl  Cl6  1  0.935203  0.575072  0.563910  1
  Cl  Cl7  1  0.238480  0.966557  0.537519  1
  Cl  Cl8  1  0.363668  0.105085  0.166705  1
  Cl  Cl9  1  0.825105  0.421112  0.935433  1
