# generated using pymatgen
data_Al(HO)3
_symmetry_space_group_name_H-M   'P 1'
_cell_length_a   8.88914255
_cell_length_b   5.17021529
_cell_length_c   9.87627885
_cell_angle_alpha   90.00000000
_cell_angle_beta   95.30541726
_cell_angle_gamma   90.00000000
_symmetry_Int_Tables_number   1
_chemical_formula_structural   Al(HO)3
_chemical_formula_sum   'Al8 H24 O24'
_cell_volume   451.95720087
_cell_formula_units_Z   8
loop_
 _symmetry_equiv_pos_site_id
 _symmetry_equiv_pos_as_xyz
  1  'x, y, z'
loop_
 _atom_site_type_symbol
 _atom_site_label
 _atom_site_symmetry_multiplicity
 _atom_site_fract_x
 _atom_site_fract_y
 _atom_site_fract_z
 _atom_site_occupancy
  Al  Al0  1  0.337239  0.014854  0.499842  1
  Al  Al1  1  0.824951  0.486355  0.005177  1
  Al  Al2  1  0.675049  0.986355  0.494823  1
  Al  Al3  1  0.162761  0.514854  0.000158  1
  Al  Al4  1  0.172316  0.507022  0.495507  1
  Al  Al5  1  0.662499  0.995686  0.002266  1
  Al  Al6  1  0.837501  0.495686  0.497734  1
  Al  Al7  1  0.327684  0.007022  0.004493  1
  H  H8  1  0.427415  0.619882  0.619075  1
  H  H9  1  0.917233  0.869107  0.122377  1
  H  H10  1  0.582767  0.369107  0.377623  1
  H  H11  1  0.072585  0.119882  0.880925  1
  H  H12  1  0.930221  0.100441  0.609452  1
  H  H13  1  0.419015  0.417796  0.109417  1
  H  H14  1  0.080985  0.917796  0.390583  1
  H  H15  1  0.569779  0.600441  0.890548  1
  H  H16  1  0.048146  0.726199  0.678118  1
  H  H17  1  0.515594  0.898497  0.201817  1
  H  H18  1  0.984406  0.398497  0.298183  1
  H  H19  1  0.451854  0.226199  0.821882  1
  H  H20  1  0.553273  0.210810  0.678342  1
  H  H21  1  0.039770  0.190567  0.121021  1
  H  H22  1  0.460230  0.690567  0.378979  1
  H  H23  1  0.946727  0.710810  0.821658  1
  H  H24  1  0.207689  0.202364  0.703117  1
  H  H25  1  0.707427  0.294403  0.208426  1
  H  H26  1  0.792573  0.794403  0.291574  1
  H  H27  1  0.292311  0.702364  0.796883  1
  H  H28  1  0.701995  0.681799  0.701191  1
  H  H29  1  0.202878  0.817532  0.207017  1
  H  H30  1  0.297122  0.317532  0.292983  1
  H  H31  1  0.798005  0.181799  0.798809  1
  O  O32  1  0.327796  0.699841  0.605502  1
  O  O33  1  0.816222  0.794389  0.112262  1
  O  O34  1  0.683778  0.294389  0.387738  1
  O  O35  1  0.172204  0.199841  0.894498  1
  O  O36  1  0.831269  0.183769  0.605203  1
  O  O37  1  0.322362  0.326615  0.107089  1
  O  O38  1  0.177638  0.826615  0.392911  1
  O  O39  1  0.668731  0.683769  0.894797  1
  O  O40  1  0.018132  0.628626  0.597721  1
  O  O41  1  0.504696  0.873713  0.102546  1
  O  O42  1  0.995304  0.373713  0.397454  1
  O  O43  1  0.481868  0.128626  0.902279  1
  O  O44  1  0.523051  0.125231  0.593551  1
  O  O45  1  0.014269  0.373717  0.109234  1
  O  O46  1  0.485731  0.873717  0.390766  1
  O  O47  1  0.976949  0.625231  0.906449  1
  O  O48  1  0.210642  0.203975  0.604030  1
  O  O49  1  0.701166  0.295648  0.108324  1
  O  O50  1  0.798834  0.795648  0.391676  1
  O  O51  1  0.289358  0.703975  0.895970  1
  O  O52  1  0.703496  0.681502  0.602000  1
  O  O53  1  0.187605  0.827902  0.106770  1
  O  O54  1  0.312395  0.327902  0.393230  1
  O  O55  1  0.796504  0.181502  0.898000  1
