# generated using pymatgen
data_Nb11S12
_symmetry_space_group_name_H-M   'P 1'
_cell_length_a   7.08369557
_cell_length_b   4.08977353
_cell_length_c   31.43287802
_cell_angle_alpha   86.26995522
_cell_angle_beta   85.69189885
_cell_angle_gamma   29.99999999
_symmetry_Int_Tables_number   1
_chemical_formula_structural   Nb11S12
_chemical_formula_sum   'Nb22 S24'
_cell_volume   454.02992054
_cell_formula_units_Z   2
loop_
 _symmetry_equiv_pos_site_id
 _symmetry_equiv_pos_as_xyz
  1  'x, y, z'
loop_
 _atom_site_type_symbol
 _atom_site_label
 _atom_site_symmetry_multiplicity
 _atom_site_fract_x
 _atom_site_fract_y
 _atom_site_fract_z
 _atom_site_occupancy
  Nb  Nb0  1  0.923334  0.000000  0.229997  1
  Nb  Nb1  1  0.025519  0.331636  0.924809  1
  Nb  Nb2  1  0.243660  0.000000  0.269021  1
  Nb  Nb3  1  0.000220  0.666070  0.000588  1
  Nb  Nb4  1  0.857155  0.668364  0.424809  1
  Nb  Nb5  1  0.474158  0.666134  0.575813  1
  Nb  Nb6  1  0.166291  0.333930  0.500588  1
  Nb  Nb7  1  0.309736  0.330556  0.075813  1
  Nb  Nb8  1  0.743660  0.000000  0.769021  1
  Nb  Nb9  1  0.423334  0.000000  0.729997  1
  Nb  Nb10  1  0.332903  0.667317  0.000588  1
  Nb  Nb11  1  0.692517  0.333002  0.924809  1
  Nb  Nb12  1  0.140292  0.669444  0.575813  1
  Nb  Nb13  1  0.500220  0.332683  0.500588  1
  Nb  Nb14  1  0.525519  0.666998  0.424809  1
  Nb  Nb15  1  0.666291  0.666612  0.000588  1
  Nb  Nb16  1  0.357155  0.335362  0.924809  1
  Nb  Nb17  1  0.974158  0.335578  0.075813  1
  Nb  Nb18  1  0.832903  0.333388  0.500588  1
  Nb  Nb19  1  0.192517  0.664638  0.424809  1
  Nb  Nb20  1  0.809736  0.664422  0.575813  1
  Nb  Nb21  1  0.640292  0.333866  0.075813  1
  S  S22  1  -0.046255  0.677227  0.139311  1
  S  S23  1  0.430760  0.516053  0.700929  1
  S  S24  1  0.221934  0.020884  0.798158  1
  S  S25  1  0.211734  0.327043  0.360720  1
  S  S26  1  0.388771  0.650006  0.860720  1
  S  S27  1  0.237089  0.505731  0.298158  1
  S  S28  1  0.421498  0.025314  0.200929  1
  S  S29  1  0.038776  0.672957  0.860720  1
  S  S30  1  0.275973  0.677772  0.139311  1
  S  S31  1  0.242819  0.494269  0.798158  1
  S  S32  1  -0.053188  -0.025314  0.700929  1
  S  S33  1  0.630972  0.645001  0.139311  1
  S  S34  1  0.453745  0.322228  0.639311  1
  S  S35  1  0.888771  0.322963  0.360720  1
  S  S36  1  0.721934  0.515154  0.298158  1
  S  S37  1  0.775973  0.354999  0.639311  1
  S  S38  1  0.930760  0.490739  0.200929  1
  S  S39  1  0.737089  0.484846  0.798158  1
  S  S40  1  0.711734  0.677037  0.860720  1
  S  S41  1  0.446812  0.483947  0.200929  1
  S  S42  1  0.921498  0.509261  0.700929  1
  S  S43  1  0.742819  -0.020884  0.298158  1
  S  S44  1  0.538776  0.349994  0.360720  1
  S  S45  1  0.130972  0.322773  0.639311  1
