# generated using pymatgen
data_Tb4In20Ni11
_symmetry_space_group_name_H-M   'P 1'
_cell_length_a   4.32190034
_cell_length_b   11.47368791
_cell_length_c   13.96327106
_cell_angle_alpha   80.75108420
_cell_angle_beta   81.08270745
_cell_angle_gamma   79.11507286
_symmetry_Int_Tables_number   1
_chemical_formula_structural   Tb4In20Ni11
_chemical_formula_sum   'Tb4 In20 Ni11'
_cell_volume   665.54138945
_cell_formula_units_Z   1
loop_
 _symmetry_equiv_pos_site_id
 _symmetry_equiv_pos_as_xyz
  1  'x, y, z'
loop_
 _atom_site_type_symbol
 _atom_site_label
 _atom_site_symmetry_multiplicity
 _atom_site_fract_x
 _atom_site_fract_y
 _atom_site_fract_z
 _atom_site_occupancy
  Tb  Tb0  1  0.117657  0.092527  0.667281  1
  Tb  Tb1  1  0.767109  0.632645  0.825120  1
  Tb  Tb2  1  0.874175  0.907164  0.331073  1
  Tb  Tb3  1  0.227495  0.369175  0.174310  1
  In  In4  1  0.117619  0.318454  0.449974  1
  In  In5  1  0.750703  0.202315  0.290272  1
  In  In6  1  0.613202  0.466399  0.310067  1
  In  In7  1  0.934678  0.336498  0.790797  1
  In  In8  1  0.060914  0.663379  0.211238  1
  In  In9  1  0.990106  0.924634  0.094884  1
  In  In10  1  0.602196  0.789908  0.008127  1
  In  In11  1  0.539059  0.295762  0.622993  1
  In  In12  1  0.013377  0.075364  0.903693  1
  In  In13  1  0.455044  0.703412  0.377233  1
  In  In14  1  0.886874  0.678342  0.551618  1
  In  In15  1  0.243289  0.796902  0.708566  1
  In  In16  1  0.199712  0.600843  0.996873  1
  In  In17  1  0.699843  0.096139  0.497817  1
  In  In18  1  0.627836  0.941061  0.803326  1
  In  In19  1  0.399197  0.212236  0.991472  1
  In  In20  1  0.369004  0.059457  0.195350  1
  In  In21  1  0.384707  0.531305  0.692030  1
  In  In22  1  0.796485  0.401648  0.003612  1
  In  In23  1  0.292920  0.902658  0.501073  1
  Ni  Ni24  1  0.137862  0.831651  0.896743  1
  Ni  Ni25  1  0.974926  0.443945  0.601052  1
  Ni  Ni26  1  0.251209  0.108616  0.382710  1
  Ni  Ni27  1  0.343784  0.427728  0.880187  1
  Ni  Ni28  1  0.509408  0.182315  0.805394  1
  Ni  Ni29  1  0.741058  0.890590  0.616650  1
  Ni  Ni30  1  0.492330  0.818137  0.195177  1
  Ni  Ni31  1  0.651372  0.575361  0.121452  1
  Ni  Ni32  1  0.863250  0.168740  0.103250  1
  Ni  Ni33  1  0.497634  0.501885  0.501299  1
  Ni  Ni34  1  0.022427  0.552422  0.400509  1
