# generated using pymatgen
data_K10Hf3Mo12PbO48
_symmetry_space_group_name_H-M   'P 1'
_cell_length_a   15.81019031
_cell_length_b   15.81019046
_cell_length_c   15.81019022
_cell_angle_alpha   37.85591504
_cell_angle_beta   37.85591457
_cell_angle_gamma   37.85591555
_symmetry_Int_Tables_number   1
_chemical_formula_structural   K10Hf3Mo12PbO48
_chemical_formula_sum   'K10 Hf3 Mo12 Pb1 O48'
_cell_volume   1335.61718303
_cell_formula_units_Z   1
loop_
 _symmetry_equiv_pos_site_id
 _symmetry_equiv_pos_as_xyz
  1  'x, y, z'
loop_
 _atom_site_type_symbol
 _atom_site_label
 _atom_site_symmetry_multiplicity
 _atom_site_fract_x
 _atom_site_fract_y
 _atom_site_fract_z
 _atom_site_occupancy
  K  K0  1  0.623165  0.210437  0.891808  1
  K  K1  1  0.891808  0.623165  0.210437  1
  K  K2  1  0.108192  0.376835  0.789563  1
  K  K3  1  0.376089  0.376089  0.376089  1
  K  K4  1  0.210437  0.891808  0.623165  1
  K  K5  1  0.376835  0.789563  0.108192  1
  K  K6  1  0.834855  0.834855  0.834855  1
  K  K7  1  0.165145  0.165145  0.165145  1
  K  K8  1  0.789563  0.108192  0.376835  1
  K  K9  1  0.623911  0.623911  0.623911  1
  Hf  Hf10  1  0.743857  0.743857  0.743857  1
  Hf  Hf11  1  0.000000  0.000000  0.000000  1
  Hf  Hf12  1  0.256143  0.256143  0.256143  1
  Mo  Mo13  1  0.768195  0.499775  0.109953  1
  Mo  Mo14  1  0.243408  0.625472  0.049624  1
  Mo  Mo15  1  0.109953  0.768195  0.499775  1
  Mo  Mo16  1  0.890047  0.231805  0.500225  1
  Mo  Mo17  1  0.500225  0.890047  0.231805  1
  Mo  Mo18  1  0.049624  0.243408  0.625472  1
  Mo  Mo19  1  0.374528  0.950376  0.756592  1
  Mo  Mo20  1  0.625472  0.049624  0.243408  1
  Mo  Mo21  1  0.231805  0.500225  0.890047  1
  Mo  Mo22  1  0.950376  0.756592  0.374528  1
  Mo  Mo23  1  0.756592  0.374528  0.950376  1
  Mo  Mo24  1  0.499775  0.109953  0.768195  1
  Pb  Pb25  1  0.500000  0.500000  0.500000  1
  O  O26  1  0.962053  0.696298  0.672756  1
  O  O27  1  0.949633  0.031444  0.621554  1
  O  O28  1  0.378446  0.050367  0.968556  1
  O  O29  1  0.896130  0.192885  0.730880  1
  O  O30  1  0.621554  0.949633  0.031444  1
  O  O31  1  0.808834  0.826907  0.525270  1
  O  O32  1  0.807115  0.269120  0.103870  1
  O  O33  1  0.594955  0.877595  0.343298  1
  O  O34  1  0.415449  0.308862  0.650255  1
  O  O35  1  0.173093  0.474730  0.191166  1
  O  O36  1  0.691138  0.349745  0.584551  1
  O  O37  1  0.880410  0.708683  0.357335  1
  O  O38  1  0.642665  0.119590  0.291317  1
  O  O39  1  0.525270  0.808834  0.826907  1
  O  O40  1  0.291317  0.642665  0.119590  1
  O  O41  1  0.746076  0.838482  0.398456  1
  O  O42  1  0.119590  0.291317  0.642665  1
  O  O43  1  0.656702  0.405045  0.122405  1
  O  O44  1  0.103870  0.807115  0.269120  1
  O  O45  1  0.968556  0.378446  0.050367  1
  O  O46  1  0.405045  0.122405  0.656702  1
  O  O47  1  0.474730  0.191166  0.173093  1
  O  O48  1  0.650255  0.415449  0.308862  1
  O  O49  1  0.253924  0.161518  0.601544  1
  O  O50  1  0.826907  0.525270  0.808834  1
  O  O51  1  0.349745  0.584551  0.691138  1
  O  O52  1  0.269120  0.103870  0.807115  1
  O  O53  1  0.696298  0.672756  0.962053  1
  O  O54  1  0.601544  0.253924  0.161518  1
  O  O55  1  0.308862  0.650255  0.415449  1
  O  O56  1  0.303702  0.327244  0.037947  1
  O  O57  1  0.050367  0.968556  0.378446  1
  O  O58  1  0.037947  0.303702  0.327244  1
  O  O59  1  0.357335  0.880410  0.708683  1
  O  O60  1  0.191166  0.173093  0.474730  1
  O  O61  1  0.584551  0.691138  0.349745  1
  O  O62  1  0.161518  0.601544  0.253924  1
  O  O63  1  0.122405  0.656702  0.405045  1
  O  O64  1  0.838482  0.398456  0.746076  1
  O  O65  1  0.708683  0.357335  0.880410  1
  O  O66  1  0.031444  0.621554  0.949633  1
  O  O67  1  0.327244  0.037947  0.303702  1
  O  O68  1  0.343298  0.594955  0.877595  1
  O  O69  1  0.672756  0.962053  0.696298  1
  O  O70  1  0.730880  0.896130  0.192885  1
  O  O71  1  0.192885  0.730880  0.896130  1
  O  O72  1  0.877595  0.343298  0.594955  1
  O  O73  1  0.398456  0.746076  0.838482  1
