# generated using pymatgen
data_Sr2Co2O5
_symmetry_space_group_name_H-M   'P 1'
_cell_length_a   5.42790844
_cell_length_b   5.53875314
_cell_length_c   16.28215016
_cell_angle_alpha   90.00023443
_cell_angle_beta   90.02441460
_cell_angle_gamma   90.14195478
_symmetry_Int_Tables_number   1
_chemical_formula_structural   Sr2Co2O5
_chemical_formula_sum   'Sr8 Co8 O20'
_cell_volume   489.50249116
_cell_formula_units_Z   4
loop_
 _symmetry_equiv_pos_site_id
 _symmetry_equiv_pos_as_xyz
  1  'x, y, z'
loop_
 _atom_site_type_symbol
 _atom_site_label
 _atom_site_symmetry_multiplicity
 _atom_site_fract_x
 _atom_site_fract_y
 _atom_site_fract_z
 _atom_site_occupancy
  Sr  Sr0  1  0.501101  0.008796  0.110251  1
  Sr  Sr1  1  0.001050  0.491026  0.389289  1
  Sr  Sr2  1  0.998813  0.508807  0.889693  1
  Sr  Sr3  1  0.500985  0.008969  0.389275  1
  Sr  Sr4  1  0.998915  0.509020  0.610779  1
  Sr  Sr5  1  0.001152  0.491247  0.110240  1
  Sr  Sr6  1  0.498997  0.990986  0.610781  1
  Sr  Sr7  1  0.498877  0.991149  0.889696  1
  Co  Co8  1  0.528732  0.439291  0.750069  1
  Co  Co9  1  0.971391  0.939158  0.249953  1
  Co  Co10  1  0.471265  0.560779  0.249931  1
  Co  Co11  1  0.028633  0.060752  0.750046  1
  Co  Co12  1  0.000007  -0.000002  0.499993  1
  Co  Co13  1  0.499998  0.500013  0.000018  1
  Co  Co14  1  0.000007  0.000000  0.000009  1
  Co  Co15  1  0.499997  0.500015  0.499985  1
  O  O16  1  0.120795  0.624300  0.249860  1
  O  O17  1  0.248800  0.251168  0.504443  1
  O  O18  1  0.483563  0.537230  0.644972  1
  O  O19  1  0.379390  0.123944  0.750139  1
  O  O20  1  0.516316  0.463010  0.355002  1
  O  O21  1  0.879447  0.375894  0.750140  1
  O  O22  1  0.983555  0.962695  0.855138  1
  O  O23  1  0.516380  0.462911  0.144877  1
  O  O24  1  0.620757  0.875830  0.249862  1
  O  O25  1  0.016404  0.037052  0.144893  1
  O  O26  1  0.983605  0.962757  0.644975  1
  O  O27  1  0.016354  0.036991  0.354990  1
  O  O28  1  0.251223  0.751235  0.004728  1
  O  O29  1  0.748780  0.248783  0.995310  1
  O  O30  1  0.751102  0.748691  0.004633  1
  O  O31  1  0.483494  0.537328  0.855146  1
  O  O32  1  0.751207  0.748838  0.495526  1
  O  O33  1  0.248904  0.251315  0.995398  1
  O  O34  1  0.250957  0.751486  0.495423  1
  O  O35  1  0.749048  0.248533  0.504539  1
