# generated using pymatgen
data_B3C10N3
_symmetry_space_group_name_H-M   'P 1'
_cell_length_a   5.01278214
_cell_length_b   7.11313899
_cell_length_c   8.66358498
_cell_angle_alpha   90.00000000
_cell_angle_beta   90.00000000
_cell_angle_gamma   90.00000000
_symmetry_Int_Tables_number   1
_chemical_formula_structural   B3C10N3
_chemical_formula_sum   'B6 C20 N6'
_cell_volume   308.91412358
_cell_formula_units_Z   2
loop_
 _symmetry_equiv_pos_site_id
 _symmetry_equiv_pos_as_xyz
  1  'x, y, z'
loop_
 _atom_site_type_symbol
 _atom_site_label
 _atom_site_symmetry_multiplicity
 _atom_site_fract_x
 _atom_site_fract_y
 _atom_site_fract_z
 _atom_site_occupancy
  B  B0  1  0.500000  0.250000  0.343434  1
  B  B1  1  0.500000  0.750000  0.656566  1
  B  B2  1  0.500000  0.750000  0.995828  1
  B  B3  1  0.000000  0.250000  0.507023  1
  B  B4  1  0.500000  0.250000  0.004172  1
  B  B5  1  0.000000  0.750000  0.492977  1
  C  C6  1  0.745186  0.750000  0.404805  1
  C  C7  1  0.000000  0.250000  0.003310  1
  C  C8  1  0.758934  0.750000  0.911129  1
  C  C9  1  0.758846  0.750000  0.747559  1
  C  C10  1  0.000000  0.750000  0.996690  1
  C  C11  1  0.241154  0.250000  0.252441  1
  C  C12  1  0.000000  0.250000  0.333562  1
  C  C13  1  0.000000  0.250000  0.836744  1
  C  C14  1  0.241066  0.750000  0.911129  1
  C  C15  1  0.745186  0.250000  0.595195  1
  C  C16  1  0.254814  0.250000  0.595195  1
  C  C17  1  0.254814  0.750000  0.404805  1
  C  C18  1  0.500000  0.750000  0.163802  1
  C  C19  1  0.241066  0.250000  0.088871  1
  C  C20  1  0.000000  0.750000  0.666438  1
  C  C21  1  0.241154  0.750000  0.747559  1
  C  C22  1  0.500000  0.250000  0.836198  1
  C  C23  1  0.758846  0.250000  0.252441  1
  C  C24  1  0.000000  0.750000  0.163256  1
  C  C25  1  0.758934  0.250000  0.088871  1
  N  N26  1  0.748455  0.750000  0.246136  1
  N  N27  1  0.500000  0.750000  0.481489  1
  N  N28  1  0.500000  0.250000  0.518511  1
  N  N29  1  0.251545  0.250000  0.753864  1
  N  N30  1  0.251545  0.750000  0.246136  1
  N  N31  1  0.748455  0.250000  0.753864  1
