# generated using pymatgen
data_DyMoO4F
_symmetry_space_group_name_H-M   'P 1'
_cell_length_a   5.27003054
_cell_length_b   6.73406174
_cell_length_c   12.44382928
_cell_angle_alpha   90.00000000
_cell_angle_beta   90.00000000
_cell_angle_gamma   113.15477356
_symmetry_Int_Tables_number   1
_chemical_formula_structural   DyMoO4F
_chemical_formula_sum   'Dy4 Mo4 O16 F4'
_cell_volume   406.04157424
_cell_formula_units_Z   4
loop_
 _symmetry_equiv_pos_site_id
 _symmetry_equiv_pos_as_xyz
  1  'x, y, z'
loop_
 _atom_site_type_symbol
 _atom_site_label
 _atom_site_symmetry_multiplicity
 _atom_site_fract_x
 _atom_site_fract_y
 _atom_site_fract_z
 _atom_site_occupancy
  Dy  Dy0  1  0.361091  0.699881  0.551298  1
  Dy  Dy1  1  0.361091  0.199881  0.948702  1
  Dy  Dy2  1  0.638909  0.800119  0.051298  1
  Dy  Dy3  1  0.638909  0.300119  0.448702  1
  Mo  Mo4  1  0.921110  0.869636  0.356673  1
  Mo  Mo5  1  0.078890  0.630364  0.856673  1
  Mo  Mo6  1  0.078890  0.130364  0.643327  1
  Mo  Mo7  1  0.921110  0.369636  0.143327  1
  O  O8  1  0.003667  0.837611  0.931132  1
  O  O9  1  0.806919  0.294748  0.277384  1
  O  O10  1  0.308919  0.538273  0.934794  1
  O  O11  1  0.238259  0.092852  0.347086  1
  O  O12  1  0.003667  0.337611  0.568868  1
  O  O13  1  0.761741  0.407148  0.847086  1
  O  O14  1  0.193081  0.205252  0.777384  1
  O  O15  1  0.238259  0.592852  0.152914  1
  O  O16  1  0.996333  0.162389  0.068868  1
  O  O17  1  0.996333  0.662389  0.431132  1
  O  O18  1  0.806919  0.794748  0.222616  1
  O  O19  1  0.691081  0.961727  0.434794  1
  O  O20  1  0.691081  0.461727  0.065206  1
  O  O21  1  0.308919  0.038273  0.565206  1
  O  O22  1  0.193081  0.705252  0.722616  1
  O  O23  1  0.761741  0.907148  0.652914  1
  F  F24  1  0.454874  0.035995  0.097608  1
  F  F25  1  0.545126  0.464005  0.597608  1
  F  F26  1  0.454874  0.535995  0.402392  1
  F  F27  1  0.545126  0.964005  0.902392  1
