# generated using pymatgen
data_Ga3Ru
_symmetry_space_group_name_H-M   'P 1'
_cell_length_a   6.57951725
_cell_length_b   6.57762185
_cell_length_c   6.78135379
_cell_angle_alpha   89.97841839
_cell_angle_beta   89.92537348
_cell_angle_gamma   90.13269361
_symmetry_Int_Tables_number   1
_chemical_formula_structural   Ga3Ru
_chemical_formula_sum   'Ga12 Ru4'
_cell_volume   293.47949996
_cell_formula_units_Z   4
loop_
 _symmetry_equiv_pos_site_id
 _symmetry_equiv_pos_as_xyz
  1  'x, y, z'
loop_
 _atom_site_type_symbol
 _atom_site_label
 _atom_site_symmetry_multiplicity
 _atom_site_fract_x
 _atom_site_fract_y
 _atom_site_fract_z
 _atom_site_occupancy
  Ga  Ga0  1  0.844923  0.844740  0.736366  1
  Ga  Ga1  1  0.344664  0.655201  0.236135  1
  Ga  Ga2  1  0.155075  0.155406  0.263673  1
  Ga  Ga3  1  0.155421  0.155362  0.736143  1
  Ga  Ga4  1  0.844688  0.844687  0.263574  1
  Ga  Ga5  1  0.499979  -0.000135  0.000184  1
  Ga  Ga6  1  0.344376  0.655379  0.764013  1
  Ga  Ga7  1  0.999992  0.500011  0.500077  1
  Ga  Ga8  1  0.655269  0.344586  0.236286  1
  Ga  Ga9  1  0.655460  0.344791  0.763849  1
  Ga  Ga10  1  0.500004  0.000190  0.499970  1
  Ga  Ga11  1  -0.000006  0.500102  -0.000165  1
  Ru  Ru12  1  0.158296  0.841809  0.499715  1
  Ru  Ru13  1  0.658213  0.658302  -0.000028  1
  Ru  Ru14  1  0.341762  0.341555  -0.000133  1
  Ru  Ru15  1  0.841883  0.158012  0.500341  1
