# generated using pymatgen
data_Rb4CO6
_symmetry_space_group_name_H-M   'P 1'
_cell_length_a   8.08463165
_cell_length_b   5.94053226
_cell_length_c   7.05761459
_cell_angle_alpha   88.19215641
_cell_angle_beta   79.46483745
_cell_angle_gamma   119.96712091
_symmetry_Int_Tables_number   1
_chemical_formula_structural   Rb4CO6
_chemical_formula_sum   'Rb4 C1 O6'
_cell_volume   285.67170069
_cell_formula_units_Z   1
loop_
 _symmetry_equiv_pos_site_id
 _symmetry_equiv_pos_as_xyz
  1  'x, y, z'
loop_
 _atom_site_type_symbol
 _atom_site_label
 _atom_site_symmetry_multiplicity
 _atom_site_fract_x
 _atom_site_fract_y
 _atom_site_fract_z
 _atom_site_occupancy
  Rb  Rb0  1  0.016552  0.086024  0.567775  1
  Rb  Rb1  1  0.870549  0.805293  0.126723  1
  Rb  Rb2  1  0.273409  0.756738  0.212318  1
  Rb  Rb3  1  0.586596  0.280941  0.719413  1
  C  C4  1  0.439382  0.382177  0.116000  1
  O  O5  1  0.521088  0.594231  0.986795  1
  O  O6  1  0.915827  0.613675  0.457657  1
  O  O7  1  0.251222  0.265624  0.196097  1
  O  O8  1  0.172928  0.867172  0.795239  1
  O  O9  1  0.088361  0.659273  0.703381  1
  O  O10  1  0.544281  0.288157  0.161902  1
