# generated using pymatgen
data_K2EuGeSe5
_symmetry_space_group_name_H-M   'P 1'
_cell_length_a   9.01219111
_cell_length_b   10.06572960
_cell_length_c   11.91041006
_cell_angle_alpha   90.00000000
_cell_angle_beta   91.23197823
_cell_angle_gamma   90.00000000
_symmetry_Int_Tables_number   1
_chemical_formula_structural   K2EuGeSe5
_chemical_formula_sum   'K8 Eu4 Ge4 Se20'
_cell_volume   1080.19450227
_cell_formula_units_Z   4
loop_
 _symmetry_equiv_pos_site_id
 _symmetry_equiv_pos_as_xyz
  1  'x, y, z'
loop_
 _atom_site_type_symbol
 _atom_site_label
 _atom_site_symmetry_multiplicity
 _atom_site_fract_x
 _atom_site_fract_y
 _atom_site_fract_z
 _atom_site_occupancy
  Eu  Eu0  1  0.894023  0.272165  0.517282  1
  Eu  Eu1  1  0.105977  0.727835  0.482718  1
  Eu  Eu2  1  0.605977  0.772165  0.482718  1
  Eu  Eu3  1  0.394023  0.227835  0.517282  1
  K  K4  1  0.539303  0.800116  0.056788  1
  K  K5  1  0.874260  0.055792  0.199868  1
  K  K6  1  0.039303  0.699884  0.056788  1
  K  K7  1  0.625740  0.555792  0.800132  1
  K  K8  1  0.960697  0.300116  0.943212  1
  K  K9  1  0.460697  0.199884  0.943212  1
  K  K10  1  0.125740  0.944208  0.800132  1
  K  K11  1  0.374260  0.444208  0.199868  1
  Ge  Ge12  1  0.792286  0.521234  0.252923  1
  Ge  Ge13  1  0.207714  0.478766  0.747077  1
  Ge  Ge14  1  0.292286  0.978766  0.252923  1
  Ge  Ge15  1  0.707714  0.021234  0.747077  1
  Se  Se16  1  0.162735  0.433791  0.413910  1
  Se  Se17  1  0.358755  0.754256  0.291439  1
  Se  Se18  1  0.362534  0.535251  0.590926  1
  Se  Se19  1  0.858755  0.745744  0.291439  1
  Se  Se20  1  0.499248  0.867326  0.751591  1
  Se  Se21  1  0.637466  0.464749  0.409074  1
  Se  Se22  1  0.141245  0.254256  0.708561  1
  Se  Se23  1  0.806477  0.987032  0.930255  1
  Se  Se24  1  0.837265  0.566209  0.586090  1
  Se  Se25  1  0.306477  0.512968  0.930255  1
  Se  Se26  1  0.862534  0.964749  0.590926  1
  Se  Se27  1  0.137466  0.035251  0.409074  1
  Se  Se28  1  0.000752  0.367326  0.248409  1
  Se  Se29  1  0.693523  0.487032  0.069745  1
  Se  Se30  1  0.500752  0.132674  0.248409  1
  Se  Se31  1  0.641245  0.245744  0.708561  1
  Se  Se32  1  0.193523  0.012968  0.069745  1
  Se  Se33  1  0.662735  0.066209  0.413910  1
  Se  Se34  1  0.337265  0.933791  0.586090  1
  Se  Se35  1  -0.000752  0.632674  0.751591  1
