# generated using pymatgen
data_Ca10V5Fe15(BiO24)2
_symmetry_space_group_name_H-M   'P 1'
_cell_length_a   10.90036241
_cell_length_b   10.90077488
_cell_length_c   10.90518943
_cell_angle_alpha   109.59280461
_cell_angle_beta   109.24939352
_cell_angle_gamma   109.52195827
_symmetry_Int_Tables_number   1
_chemical_formula_structural   Ca10V5Fe15(BiO24)2
_chemical_formula_sum   'Ca10 V5 Fe15 Bi2 O48'
_cell_volume   998.09395730
_cell_formula_units_Z   1
loop_
 _symmetry_equiv_pos_site_id
 _symmetry_equiv_pos_as_xyz
  1  'x, y, z'
loop_
 _atom_site_type_symbol
 _atom_site_label
 _atom_site_symmetry_multiplicity
 _atom_site_fract_x
 _atom_site_fract_y
 _atom_site_fract_z
 _atom_site_occupancy
  Ca  Ca0  1  0.128320  0.374476  0.752225  1
  Ca  Ca1  1  0.254328  0.874945  0.626682  1
  Ca  Ca2  1  0.124922  0.250165  0.374841  1
  Ca  Ca3  1  0.620650  0.875644  0.748216  1
  Ca  Ca4  1  0.252503  0.376147  0.124367  1
  Ca  Ca5  1  0.747497  0.623853  0.875633  1
  Ca  Ca6  1  0.379350  0.124356  0.251784  1
  Ca  Ca7  1  0.875078  0.749835  0.625159  1
  Ca  Ca8  1  0.871680  0.625524  0.247775  1
  Ca  Ca9  1  0.745672  0.125055  0.373318  1
  V  V10  1  0.000000  0.000000  0.500000  1
  V  V11  1  0.000000  0.500000  0.500000  1
  V  V12  1  0.000000  0.500000  0.000000  1
  V  V13  1  0.000000  0.000000  0.000000  1
  V  V14  1  0.500000  0.500000  0.500000  1
  Fe  Fe15  1  0.122850  0.749163  0.873738  1
  Fe  Fe16  1  0.124875  0.875265  0.248593  1
  Fe  Fe17  1  0.374215  0.626353  0.748744  1
  Fe  Fe18  1  0.248602  0.125451  0.873215  1
  Fe  Fe19  1  0.250909  0.625686  0.376533  1
  Fe  Fe20  1  0.500000  0.000000  0.500000  1
  Fe  Fe21  1  0.372969  0.250338  0.622946  1
  Fe  Fe22  1  0.627031  0.749662  0.377054  1
  Fe  Fe23  1  0.500000  0.500000  0.000000  1
  Fe  Fe24  1  0.625785  0.373647  0.251256  1
  Fe  Fe25  1  0.749091  0.374314  0.623467  1
  Fe  Fe26  1  0.751398  0.874549  0.126785  1
  Fe  Fe27  1  0.500000  0.000000  0.000000  1
  Fe  Fe28  1  0.875125  0.124735  0.751407  1
  Fe  Fe29  1  0.877150  0.250837  0.126262  1
  Bi  Bi30  1  0.386097  0.756684  0.126630  1
  Bi  Bi31  1  0.613903  0.243316  0.873370  1
  O  O32  1  0.093191  0.981609  0.669893  1
  O  O33  1  0.016654  0.328532  0.904952  1
  O  O34  1  0.108681  0.592384  0.919820  1
  O  O35  1  0.075847  0.691059  0.671982  1
  O  O36  1  0.076547  0.887658  0.403568  1
  O  O37  1  0.092741  0.610034  0.421297  1
  O  O38  1  0.170130  0.481454  0.592775  1
  O  O39  1  0.419481  0.821916  0.798107  1
  O  O40  1  0.376967  0.581979  0.902345  1
  O  O41  1  0.294645  0.321317  0.918615  1
  O  O42  1  0.320024  0.918729  0.297308  1
  O  O43  1  0.020026  0.191667  0.114669  1
  O  O44  1  0.170454  0.191039  0.575274  1
  O  O45  1  0.187822  0.575260  0.171785  1
  O  O46  1  0.401477  0.819885  0.522154  1
  O  O47  1  0.309939  0.481854  0.386884  1
  O  O48  1  0.318394  0.901795  0.021235  1
  O  O49  1  0.110612  0.018023  0.189170  1
  O  O50  1  0.517293  0.610483  0.688132  1
  O  O51  1  0.404899  0.084834  0.877581  1
  O  O52  1  0.524433  0.403659  0.820129  1
  O  O53  1  0.384357  0.309776  0.480003  1
  O  O54  1  0.582456  0.902639  0.377914  1
  O  O55  1  0.187746  0.110439  0.016528  1
  O  O56  1  0.812254  0.889561  0.983472  1
  O  O57  1  0.417544  0.097361  0.622086  1
  O  O58  1  0.615643  0.690224  0.519997  1
  O  O59  1  0.475567  0.596341  0.179871  1
  O  O60  1  0.595101  0.915166  0.122419  1
  O  O61  1  0.482707  0.389517  0.311868  1
  O  O62  1  0.889388  0.981977  0.810830  1
  O  O63  1  0.681606  0.098205  0.978765  1
  O  O64  1  0.690061  0.518146  0.613116  1
  O  O65  1  0.598523  0.180115  0.477846  1
  O  O66  1  0.812178  0.424740  0.828215  1
  O  O67  1  0.829546  0.808961  0.424726  1
  O  O68  1  0.979974  0.808333  0.885331  1
  O  O69  1  0.679976  0.081271  0.702692  1
  O  O70  1  0.705355  0.678683  0.081385  1
  O  O71  1  0.623033  0.418021  0.097655  1
  O  O72  1  0.580519  0.178084  0.201893  1
  O  O73  1  0.829870  0.518546  0.407225  1
  O  O74  1  0.907259  0.389966  0.578703  1
  O  O75  1  0.923453  0.112342  0.596432  1
  O  O76  1  0.924153  0.308941  0.328018  1
  O  O77  1  0.891319  0.407616  0.080180  1
  O  O78  1  0.983345  0.671468  0.095048  1
  O  O79  1  0.906809  0.018391  0.330107  1
