# generated using pymatgen
data_Zn7(SbO6)2
_symmetry_space_group_name_H-M   'P 1'
_cell_length_a   6.17657662
_cell_length_b   18.77048195
_cell_length_c   16.51981823
_cell_angle_alpha   18.79696471
_cell_angle_beta   54.80509953
_cell_angle_gamma   59.51751014
_symmetry_Int_Tables_number   1
_chemical_formula_structural   Zn7(SbO6)2
_chemical_formula_sum   'Zn14 Sb4 O24'
_cell_volume   498.93825970
_cell_formula_units_Z   2
loop_
 _symmetry_equiv_pos_site_id
 _symmetry_equiv_pos_as_xyz
  1  'x, y, z'
loop_
 _atom_site_type_symbol
 _atom_site_label
 _atom_site_symmetry_multiplicity
 _atom_site_fract_x
 _atom_site_fract_y
 _atom_site_fract_z
 _atom_site_occupancy
  Zn  Zn0  1  0.987059  0.017400  0.975218  1
  Zn  Zn1  1  0.977622  0.354982  0.985358  1
  Zn  Zn2  1  0.627453  0.118372  0.138456  1
  Zn  Zn3  1  0.274418  0.229179  0.263806  1
  Zn  Zn4  1  0.985797  0.682121  0.984459  1
  Zn  Zn5  1  0.112159  0.134192  0.622399  1
  Zn  Zn6  1  0.621849  0.465510  0.111653  1
  Zn  Zn7  1  0.265304  0.567611  0.272657  1
  Zn  Zn8  1  0.139660  0.449159  0.628166  1
  Zn  Zn9  1  0.626026  0.294064  0.622063  1
  Zn  Zn10  1  0.624800  0.793262  0.123860  1
  Zn  Zn11  1  0.265997  0.902851  0.263647  1
  Zn  Zn12  1  0.125761  0.791640  0.625348  1
  Zn  Zn13  1  0.626888  0.791757  0.624589  1
  Sb  Sb14  1  0.624726  0.132191  0.619656  1
  Sb  Sb15  1  0.628271  0.452278  0.628861  1
  Sb  Sb16  1  0.630908  0.626644  0.625108  1
  Sb  Sb17  1  0.620729  0.957819  0.623490  1
  O  O18  1  0.387851  0.011376  0.399572  1
  O  O19  1  0.388295  0.193487  0.396246  1
  O  O20  1  0.858525  0.040350  0.388446  1
  O  O21  1  0.396975  0.355987  0.387774  1
  O  O22  1  0.844569  0.190997  0.401677  1
  O  O23  1  0.389802  0.048479  0.855903  1
  O  O24  1  0.399153  0.537545  0.385414  1
  O  O25  1  0.386847  0.224608  0.862718  1
  O  O26  1  0.866326  0.360013  0.385526  1
  O  O27  1  0.396848  0.679074  0.401818  1
  O  O28  1  0.862602  0.537374  0.391113  1
  O  O29  1  0.851172  0.049159  0.861446  1
  O  O30  1  0.407403  0.392939  0.847510  1
  O  O31  1  0.402564  0.857853  0.394768  1
  O  O32  1  0.393031  0.543520  0.860899  1
  O  O33  1  0.855901  0.228412  0.860956  1
  O  O34  1  0.849149  0.687763  0.404793  1
  O  O35  1  0.862646  0.390363  0.853376  1
  O  O36  1  0.864537  0.861609  0.383998  1
  O  O37  1  0.386779  0.722656  0.864995  1
  O  O38  1  0.402697  0.897039  0.843596  1
  O  O39  1  0.863696  0.571771  0.851142  1
  O  O40  1  0.848113  0.726256  0.854700  1
  O  O41  1  0.855269  0.904873  0.847734  1
