# generated using pymatgen
data_TlCr4BiO14
_symmetry_space_group_name_H-M   'P 1'
_cell_length_a   8.40394063
_cell_length_b   8.77749088
_cell_length_c   17.26948740
_cell_angle_alpha   90.00000000
_cell_angle_beta   90.00000000
_cell_angle_gamma   91.65395080
_symmetry_Int_Tables_number   1
_chemical_formula_structural   TlCr4BiO14
_chemical_formula_sum   'Tl4 Cr16 Bi4 O56'
_cell_volume   1273.36185572
_cell_formula_units_Z   4
loop_
 _symmetry_equiv_pos_site_id
 _symmetry_equiv_pos_as_xyz
  1  'x, y, z'
loop_
 _atom_site_type_symbol
 _atom_site_label
 _atom_site_symmetry_multiplicity
 _atom_site_fract_x
 _atom_site_fract_y
 _atom_site_fract_z
 _atom_site_occupancy
  Tl  Tl0  1  0.764444  0.499716  0.375561  1
  Tl  Tl1  1  0.264444  0.499716  0.124439  1
  Tl  Tl2  1  0.235556  0.500284  0.624439  1
  Tl  Tl3  1  0.735556  0.500284  0.875561  1
  Cr  Cr4  1  0.368561  0.274450  0.947782  1
  Cr  Cr5  1  0.582556  0.218191  0.683901  1
  Cr  Cr6  1  0.868561  0.274450  0.552218  1
  Cr  Cr7  1  0.587675  0.794070  0.559089  1
  Cr  Cr8  1  0.166308  0.237244  0.295632  1
  Cr  Cr9  1  0.912325  0.205930  0.059089  1
  Cr  Cr10  1  0.412325  0.205930  0.440911  1
  Cr  Cr11  1  0.666308  0.237244  0.204368  1
  Cr  Cr12  1  0.417444  0.781809  0.316099  1
  Cr  Cr13  1  0.833692  0.762756  0.704368  1
  Cr  Cr14  1  0.917444  0.781809  0.183901  1
  Cr  Cr15  1  0.333692  0.762756  0.795632  1
  Cr  Cr16  1  0.087675  0.794070  0.940911  1
  Cr  Cr17  1  0.631439  0.725550  0.052218  1
  Cr  Cr18  1  0.082556  0.218191  0.816099  1
  Cr  Cr19  1  0.131439  0.725550  0.447782  1
  Bi  Bi20  1  0.791559  0.992704  0.376764  1
  Bi  Bi21  1  0.708441  0.007296  0.876764  1
  Bi  Bi22  1  0.208441  0.007296  0.623236  1
  Bi  Bi23  1  0.291559  0.992704  0.123236  1
  O  O24  1  0.058504  0.385377  0.292442  1
  O  O25  1  0.468517  0.770775  0.100352  1
  O  O26  1  0.867960  0.205794  0.462739  1
  O  O27  1  0.888407  0.209909  0.840175  1
  O  O28  1  0.272665  0.802375  0.705222  1
  O  O29  1  0.993629  0.656297  0.984053  1
  O  O30  1  0.441496  0.614622  0.792442  1
  O  O31  1  0.875759  0.618530  0.221267  1
  O  O32  1  0.834357  0.282758  0.145876  1
  O  O33  1  0.268733  0.136325  0.496417  1
  O  O34  1  0.067373  0.093801  0.334433  1
  O  O35  1  0.201731  0.192950  0.899198  1
  O  O36  1  0.461537  0.928780  0.582182  1
  O  O37  1  0.558504  0.385377  0.207558  1
  O  O38  1  0.932627  0.906199  0.665567  1
  O  O39  1  0.624241  0.381470  0.721267  1
  O  O40  1  0.038463  0.071220  0.082182  1
  O  O41  1  0.727335  0.197625  0.294778  1
  O  O42  1  0.768733  0.136325  0.003583  1
  O  O43  1  0.388407  0.209909  0.659825  1
  O  O44  1  0.432627  0.906199  0.834433  1
  O  O45  1  0.961537  0.928780  0.917818  1
  O  O46  1  0.006371  0.343703  0.015947  1
  O  O47  1  0.632040  0.794206  0.962739  1
  O  O48  1  0.506371  0.343703  0.484053  1
  O  O49  1  0.538463  0.071220  0.417818  1
  O  O50  1  0.298269  0.807050  0.399198  1
  O  O51  1  0.611593  0.790091  0.340175  1
  O  O52  1  0.665643  0.717242  0.645876  1
  O  O53  1  0.968517  0.770775  0.399648  1
  O  O54  1  0.124241  0.381470  0.778733  1
  O  O55  1  0.798269  0.807050  0.100802  1
  O  O56  1  0.031483  0.229225  0.600352  1
  O  O57  1  0.111593  0.790091  0.159825  1
  O  O58  1  0.772665  0.802375  0.794778  1
  O  O59  1  0.567373  0.093801  0.165567  1
  O  O60  1  0.531483  0.229225  0.899648  1
  O  O61  1  0.375759  0.618530  0.278733  1
  O  O62  1  0.641032  0.542917  0.048387  1
  O  O63  1  0.367960  0.205794  0.037261  1
  O  O64  1  0.626488  0.083283  0.745272  1
  O  O65  1  0.126488  0.083283  0.754728  1
  O  O66  1  0.141032  0.542917  0.451613  1
  O  O67  1  0.873512  0.916717  0.245272  1
  O  O68  1  0.493629  0.656297  0.515947  1
  O  O69  1  0.358968  0.457083  0.951613  1
  O  O70  1  0.231267  0.863675  0.996417  1
  O  O71  1  0.373512  0.916717  0.254728  1
  O  O72  1  0.731267  0.863675  0.503583  1
  O  O73  1  0.941496  0.614622  0.707558  1
  O  O74  1  0.165643  0.717242  0.854124  1
  O  O75  1  0.334357  0.282758  0.354124  1
  O  O76  1  0.132040  0.794206  0.537261  1
  O  O77  1  0.858968  0.457083  0.548387  1
  O  O78  1  0.701731  0.192950  0.600802  1
  O  O79  1  0.227335  0.197625  0.205222  1
