# generated using pymatgen
data_Li9Nd6Sb3TeO24
_symmetry_space_group_name_H-M   'P 1'
_cell_length_a   11.17254221
_cell_length_b   11.10301094
_cell_length_c   11.10179727
_cell_angle_alpha   109.52975715
_cell_angle_beta   110.04289628
_cell_angle_gamma   108.78263092
_symmetry_Int_Tables_number   1
_chemical_formula_structural   Li9Nd6Sb3TeO24
_chemical_formula_sum   'Li18 Nd12 Sb6 Te2 O48'
_cell_volume   1060.80814730
_cell_formula_units_Z   2
loop_
 _symmetry_equiv_pos_site_id
 _symmetry_equiv_pos_as_xyz
  1  'x, y, z'
loop_
 _atom_site_type_symbol
 _atom_site_label
 _atom_site_symmetry_multiplicity
 _atom_site_fract_x
 _atom_site_fract_y
 _atom_site_fract_z
 _atom_site_occupancy
  Li  Li0  1  0.160322  0.871119  0.881974  1
  Li  Li1  1  0.129256  0.870834  0.248323  1
  Li  Li2  1  0.293125  0.643329  0.393089  1
  Li  Li3  1  0.274802  0.136270  0.880301  1
  Li  Li4  1  0.380777  0.632206  0.757814  1
  Li  Li5  1  0.374380  0.249574  0.626038  1
  Li  Li6  1  0.622043  0.749127  0.371984  1
  Li  Li7  1  0.605053  0.388216  0.255689  1
  Li  Li8  1  0.746390  0.851632  0.147274  1
  Li  Li9  1  0.736198  0.368868  0.611325  1
  Li  Li10  1  0.990434  0.605679  0.787334  1
  Li  Li11  1  0.835965  0.129395  0.702648  1
  Li  Li12  1  0.741900  0.309129  0.208569  1
  Li  Li13  1  0.041373  0.092878  0.797297  1
  Li  Li14  1  0.788606  0.029658  0.105205  1
  Li  Li15  1  0.878960  0.251494  0.127666  1
  Li  Li16  1  0.075584  0.460941  0.261108  1
  Li  Li17  1  0.892048  0.182593  0.929476  1
  Nd  Nd18  1  0.255060  0.881586  0.622005  1
  Nd  Nd19  1  0.139060  0.375513  0.751575  1
  Nd  Nd20  1  0.133372  0.242532  0.377113  1
  Nd  Nd21  1  0.383827  0.756023  0.124318  1
  Nd  Nd22  1  0.266011  0.376208  0.129314  1
  Nd  Nd23  1  0.614318  0.862773  0.735498  1
  Nd  Nd24  1  0.382142  0.124659  0.261187  1
  Nd  Nd25  1  0.609033  0.241980  0.867570  1
  Nd  Nd26  1  0.735282  0.618886  0.867675  1
  Nd  Nd27  1  0.852765  0.736753  0.607003  1
  Nd  Nd28  1  0.871336  0.634192  0.249871  1
  Nd  Nd29  1  0.746009  0.116765  0.384569  1
  Sb  Sb30  1  0.003926  0.999048  0.497971  1
  Sb  Sb31  1  0.995264  0.991175  0.997224  1
  Sb  Sb32  1  0.492311  0.494624  0.499616  1
  Sb  Sb33  1  0.496531  0.999803  0.500498  1
  Sb  Sb34  1  0.500349  0.495991  0.000246  1
  Sb  Sb35  1  0.502092  0.002256  0.004177  1
  Te  Te36  1  0.006296  0.503817  0.505433  1
  Te  Te37  1  0.001822  0.497113  0.997721  1
  O  O38  1  0.092811  0.974650  0.677850  1
  O  O39  1  0.012843  0.317657  0.894923  1
  O  O40  1  0.126213  0.588681  0.932397  1
  O  O41  1  0.065468  0.687225  0.672677  1
  O  O42  1  0.079326  0.877876  0.405690  1
  O  O43  1  0.099016  0.616027  0.427235  1
  O  O44  1  0.171084  0.478785  0.596818  1
  O  O45  1  0.432139  0.835956  0.807511  1
  O  O46  1  0.385158  0.579723  0.908594  1
  O  O47  1  0.299951  0.324227  0.917397  1
  O  O48  1  0.328673  0.913256  0.298156  1
  O  O49  1  0.007749  0.187222  0.113052  1
  O  O50  1  0.173321  0.197799  0.578766  1
  O  O51  1  0.178489  0.553623  0.173710  1
  O  O52  1  0.412718  0.832690  0.533097  1
  O  O53  1  0.335681  0.914945  0.032248  1
  O  O54  1  0.289179  0.465936  0.376593  1
  O  O55  1  0.124953  0.025149  0.194105  1
  O  O56  1  0.524162  0.616884  0.698789  1
  O  O57  1  0.411558  0.078698  0.879165  1
  O  O58  1  0.528896  0.404375  0.828380  1
  O  O59  1  0.379847  0.297879  0.475408  1
  O  O60  1  0.585672  0.911991  0.387831  1
  O  O61  1  0.176293  0.109099  0.996473  1
  O  O62  1  0.801076  0.877664  0.978331  1
  O  O63  1  0.412589  0.088714  0.616325  1
  O  O64  1  0.607486  0.691587  0.519007  1
  O  O65  1  0.471480  0.589544  0.171505  1
  O  O66  1  0.608245  0.929529  0.127005  1
  O  O67  1  0.460021  0.372889  0.298304  1
  O  O68  1  0.873658  0.986369  0.805569  1
  O  O69  1  0.695362  0.523835  0.612660  1
  O  O70  1  0.687965  0.112502  0.004731  1
  O  O71  1  0.591722  0.171083  0.476728  1
  O  O72  1  0.825015  0.439693  0.824695  1
  O  O73  1  0.828037  0.801444  0.417627  1
  O  O74  1  0.967939  0.795356  0.865891  1
  O  O75  1  0.668220  0.086645  0.709892  1
  O  O76  1  0.621162  0.414704  0.098071  1
  O  O77  1  0.700253  0.661488  0.078952  1
  O  O78  1  0.585071  0.179385  0.206710  1
  O  O79  1  0.829583  0.512776  0.394034  1
  O  O80  1  0.909012  0.387636  0.577251  1
  O  O81  1  0.932680  0.120673  0.602415  1
  O  O82  1  0.931481  0.319558  0.323997  1
  O  O83  1  0.884345  0.387967  0.064078  1
  O  O84  1  0.978892  0.661942  0.097562  1
  O  O85  1  0.906378  0.030420  0.325801  1
