# generated using pymatgen
data_MgZr4O9
_symmetry_space_group_name_H-M   'P 1'
_cell_length_a   3.46523056
_cell_length_b   6.99469602
_cell_length_c   19.25819560
_cell_angle_alpha   61.54657334
_cell_angle_beta   63.26668488
_cell_angle_gamma   60.30332597
_symmetry_Int_Tables_number   1
_chemical_formula_structural   MgZr4O9
_chemical_formula_sum   'Mg2 Zr8 O18'
_cell_volume   342.24314193
_cell_formula_units_Z   2
loop_
 _symmetry_equiv_pos_site_id
 _symmetry_equiv_pos_as_xyz
  1  'x, y, z'
loop_
 _atom_site_type_symbol
 _atom_site_label
 _atom_site_symmetry_multiplicity
 _atom_site_fract_x
 _atom_site_fract_y
 _atom_site_fract_z
 _atom_site_occupancy
  Mg  Mg0  1  0.000000  0.000000  0.200000  1
  Mg  Mg1  1  0.000000  0.500000  0.200000  1
  Zr  Zr2  1  0.927650  0.971765  0.040234  1
  Zr  Zr3  1  0.987937  0.512318  -0.000102  1
  Zr  Zr4  1  0.072350  0.028235  0.359766  1
  Zr  Zr5  1  0.993086  0.976765  0.612060  1
  Zr  Zr6  1  0.012063  0.487682  0.400102  1
  Zr  Zr7  1  0.006914  0.023235  0.787940  1
  Zr  Zr8  1  0.031523  0.527201  0.576510  1
  Zr  Zr9  1  0.968477  0.472799  0.823490  1
  O  O10  1  0.144116  0.162816  0.077227  1
  O  O11  1  0.245852  0.169556  0.233837  1
  O  O12  1  0.262842  0.563778  0.069352  1
  O  O13  1  0.349599  0.121804  0.411439  1
  O  O14  1  0.737158  0.436222  0.330648  1
  O  O15  1  0.192107  0.162876  0.658007  1
  O  O16  1  0.754148  0.830444  0.166163  1
  O  O17  1  0.226146  0.657964  0.446356  1
  O  O18  1  0.300259  0.093613  0.842451  1
  O  O19  1  0.855884  0.837184  0.322773  1
  O  O20  1  0.831493  0.340570  0.531175  1
  O  O21  1  0.325006  0.599388  0.630243  1
  O  O22  1  0.168507  0.659430  0.868825  1
  O  O23  1  0.674994  0.400612  0.769757  1
  O  O24  1  0.699741  0.906387  0.557549  1
  O  O25  1  0.773854  0.342036  0.953644  1
  O  O26  1  0.807893  0.837124  0.741993  1
  O  O27  1  0.650401  0.878196  0.988561  1
