# generated using pymatgen
data_BeF2
_symmetry_space_group_name_H-M   'P 1'
_cell_length_a   14.40842457
_cell_length_b   6.93018364
_cell_length_c   7.26715578
_cell_angle_alpha   119.42132923
_cell_angle_beta   103.73625917
_cell_angle_gamma   61.16198337
_symmetry_Int_Tables_number   1
_chemical_formula_structural   BeF2
_chemical_formula_sum   'Be16 F32'
_cell_volume   553.67740981
_cell_formula_units_Z   16
loop_
 _symmetry_equiv_pos_site_id
 _symmetry_equiv_pos_as_xyz
  1  'x, y, z'
loop_
 _atom_site_type_symbol
 _atom_site_label
 _atom_site_symmetry_multiplicity
 _atom_site_fract_x
 _atom_site_fract_y
 _atom_site_fract_z
 _atom_site_occupancy
  Be  Be0  1  0.107381  0.050759  0.108829  1
  Be  Be1  1  0.165390  0.173760  0.847073  1
  Be  Be2  1  0.107016  0.403153  0.566517  1
  Be  Be3  1  0.102197  0.796044  0.485608  1
  Be  Be4  1  0.397492  0.206058  0.517262  1
  Be  Be5  1  0.393686  0.594034  0.432829  1
  Be  Be6  1  0.333498  0.830272  0.156433  1
  Be  Be7  1  0.392089  0.951547  0.892120  1
  Be  Be8  1  0.601509  -0.002064  0.015147  1
  Be  Be9  1  0.607485  0.382943  0.935459  1
  Be  Be10  1  0.666809  0.493472  0.653823  1
  Be  Be11  1  0.606830  0.738007  0.394416  1
  Be  Be12  1  0.892718  0.261861  0.603959  1
  Be  Be13  1  0.832282  0.502840  0.339125  1
  Be  Be14  1  0.892841  0.618701  0.064762  1
  Be  Be15  1  0.899146  0.999258  0.983445  1
  F  F16  1  0.095480  0.227157  0.016326  1
  F  F17  1  0.099417  0.204258  0.359373  1
  F  F18  1  0.110808  0.378367  0.762646  1
  F  F19  1  0.109439  0.618018  0.579064  1
  F  F20  1  0.276741  0.155720  0.936978  1
  F  F21  1  0.139413  0.662875  0.268225  1
  F  F22  1  0.481222  0.034266  -0.027113  1
  F  F23  1  0.174682  0.929357  0.648714  1
  F  F24  1  0.324186  0.073137  0.357530  1
  F  F25  1  0.018216  0.968753  0.026988  1
  F  F26  1  0.359967  0.347247  0.734856  1
  F  F27  1  0.222914  0.847904  0.063281  1
  F  F28  1  0.393113  0.376710  0.417837  1
  F  F29  1  0.388334  0.623410  0.238378  1
  F  F30  1  0.400823  0.792944  0.642371  1
  F  F31  1  0.609211  0.164531  0.923869  1
  F  F32  1  0.403888  0.779229  -0.011051  1
  F  F33  1  0.637522  0.057849  0.233556  1
  F  F34  1  0.611556  0.398866  0.738330  1
  F  F35  1  0.596497  0.583364  0.486576  1
  F  F36  1  0.675938  0.719041  0.854145  1
  F  F37  1  0.598590  0.598691  0.143583  1
  F  F38  1  0.777170  0.289895  0.559627  1
  F  F39  1  0.982497  0.001754  0.524823  1
  F  F40  1  0.722655  0.707259  0.438499  1
  F  F41  1  0.902248  0.405495  0.855252  1
  F  F42  1  0.823231  0.277401  0.139063  1
  F  F43  1  0.902387  0.408617  0.503641  1
  F  F44  1  0.517042  -0.001950  0.479670  1
  F  F45  1  0.888425  0.598784  0.258776  1
  F  F46  1  0.864576  0.930216  0.764852  1
  F  F47  1  0.893445  0.840189  0.084530  1
