# generated using pymatgen
data_Ba8Zr3(SbO6)4
_symmetry_space_group_name_H-M   'P 1'
_cell_length_a   11.87104964
_cell_length_b   11.87104964
_cell_length_c   16.87023263
_cell_angle_alpha   90.00000000
_cell_angle_beta   90.00000000
_cell_angle_gamma   90.00000000
_symmetry_Int_Tables_number   1
_chemical_formula_structural   Ba8Zr3(SbO6)4
_chemical_formula_sum   'Ba32 Zr12 Sb16 O96'
_cell_volume   2377.38387854
_cell_formula_units_Z   4
loop_
 _symmetry_equiv_pos_site_id
 _symmetry_equiv_pos_as_xyz
  1  'x, y, z'
loop_
 _atom_site_type_symbol
 _atom_site_label
 _atom_site_symmetry_multiplicity
 _atom_site_fract_x
 _atom_site_fract_y
 _atom_site_fract_z
 _atom_site_occupancy
  Ba  Ba0  1  0.000000  0.233854  0.118259  1
  Ba  Ba1  1  0.767909  0.500000  0.617663  1
  Ba  Ba2  1  0.232091  0.500000  0.382337  1
  Ba  Ba3  1  0.500000  0.767909  0.382337  1
  Ba  Ba4  1  0.000000  0.265507  0.618616  1
  Ba  Ba5  1  0.766146  0.000000  0.881741  1
  Ba  Ba6  1  0.000000  0.766146  0.881741  1
  Ba  Ba7  1  0.766146  0.000000  0.118259  1
  Ba  Ba8  1  0.266726  0.500000  0.117936  1
  Ba  Ba9  1  0.000000  0.734493  0.618616  1
  Ba  Ba10  1  0.265507  0.000000  0.618616  1
  Ba  Ba11  1  0.500000  0.733274  0.117936  1
  Ba  Ba12  1  0.500000  0.733274  0.882064  1
  Ba  Ba13  1  0.734493  0.000000  0.618616  1
  Ba  Ba14  1  0.000000  0.734493  0.381384  1
  Ba  Ba15  1  0.767909  0.500000  0.382337  1
  Ba  Ba16  1  0.500000  0.767909  0.617663  1
  Ba  Ba17  1  0.500000  0.266726  0.117936  1
  Ba  Ba18  1  0.266726  0.500000  0.882064  1
  Ba  Ba19  1  0.000000  0.265507  0.381384  1
  Ba  Ba20  1  0.232091  0.500000  0.617663  1
  Ba  Ba21  1  0.500000  0.266726  0.882064  1
  Ba  Ba22  1  0.734493  0.000000  0.381384  1
  Ba  Ba23  1  0.500000  0.232091  0.617663  1
  Ba  Ba24  1  0.733274  0.500000  0.117936  1
  Ba  Ba25  1  0.233854  0.000000  0.118259  1
  Ba  Ba26  1  0.733274  0.500000  0.882064  1
  Ba  Ba27  1  0.265507  0.000000  0.381384  1
  Ba  Ba28  1  0.000000  0.233854  0.881741  1
  Ba  Ba29  1  0.500000  0.232091  0.382337  1
  Ba  Ba30  1  0.000000  0.766146  0.118259  1
  Ba  Ba31  1  0.233854  0.000000  0.881741  1
  Zr  Zr32  1  0.250395  0.250395  0.249960  1
  Zr  Zr33  1  0.749605  0.250395  0.750040  1
  Zr  Zr34  1  0.250395  0.749605  0.249960  1
  Zr  Zr35  1  0.250395  0.250395  0.750040  1
  Zr  Zr36  1  0.749605  0.749605  0.750040  1
  Zr  Zr37  1  0.000000  0.000000  0.500000  1
  Zr  Zr38  1  0.749605  0.749605  0.249960  1
  Zr  Zr39  1  0.250395  0.749605  0.750040  1
  Zr  Zr40  1  0.749605  0.250395  0.249960  1
  Zr  Zr41  1  0.500000  0.000000  0.000000  1
  Zr  Zr42  1  0.500000  0.500000  0.500000  1
  Zr  Zr43  1  0.000000  0.500000  0.000000  1
  Sb  Sb44  1  0.000000  0.000000  0.255840  1
  Sb  Sb45  1  0.000000  0.000000  0.744160  1
  Sb  Sb46  1  0.500000  0.500000  0.256162  1
  Sb  Sb47  1  0.249949  0.750051  0.500000  1
  Sb  Sb48  1  0.000000  0.500000  0.755976  1
  Sb  Sb49  1  0.000000  0.500000  0.244024  1
  Sb  Sb50  1  0.750051  0.249949  0.500000  1
  Sb  Sb51  1  0.500000  0.000000  0.755976  1
  Sb  Sb52  1  0.250002  0.250002  0.000000  1
  Sb  Sb53  1  0.500000  0.500000  0.743838  1
  Sb  Sb54  1  0.749998  0.749998  0.000000  1
  Sb  Sb55  1  0.500000  0.000000  0.244024  1
  Sb  Sb56  1  0.749998  0.250002  0.000000  1
  Sb  Sb57  1  0.250002  0.749998  0.000000  1
  Sb  Sb58  1  0.249949  0.249949  0.500000  1
  Sb  Sb59  1  0.750051  0.750051  0.500000  1
  O  O60  1  0.373942  0.126369  0.000000  1
  O  O61  1  0.364082  0.865320  0.500000  1
  O  O62  1  0.626428  0.626428  0.500000  1
  O  O63  1  0.373942  0.873631  0.000000  1
  O  O64  1  0.873631  0.373942  0.000000  1
  O  O65  1  0.749650  0.749650  0.376058  1
  O  O66  1  0.635424  0.364576  0.000000  1
  O  O67  1  0.635918  0.134680  0.500000  1
  O  O68  1  0.373572  0.373572  0.500000  1
  O  O69  1  0.123053  0.123053  0.254354  1
  O  O70  1  0.626058  0.873631  0.000000  1
  O  O71  1  0.000000  0.500000  0.640566  1
  O  O72  1  0.865320  0.635918  0.500000  1
  O  O73  1  0.135190  0.864810  0.000000  1
  O  O74  1  0.377068  0.622932  0.746105  1
  O  O75  1  0.622528  0.876750  0.245778  1
  O  O76  1  0.000000  0.500000  0.126065  1
  O  O77  1  0.125957  0.874043  0.500000  1
  O  O78  1  0.622932  0.377068  0.253895  1
  O  O79  1  0.500000  0.000000  0.359434  1
  O  O80  1  0.126369  0.373942  0.000000  1
  O  O81  1  0.123053  0.123053  0.745646  1
  O  O82  1  0.876947  0.123053  0.254354  1
  O  O83  1  0.622528  0.123250  0.754222  1
  O  O84  1  0.500000  0.000000  0.873935  1
  O  O85  1  0.864810  0.135190  0.000000  1
  O  O86  1  0.864810  0.864810  0.000000  1
  O  O87  1  0.876947  0.876947  0.254354  1
  O  O88  1  0.876947  0.123053  0.745646  1
  O  O89  1  0.622932  0.377068  0.746105  1
  O  O90  1  0.876750  0.377472  0.245778  1
  O  O91  1  0.000000  0.500000  0.359434  1
  O  O92  1  0.876750  0.377472  0.754222  1
  O  O93  1  0.377472  0.876750  0.754222  1
  O  O94  1  0.249680  0.249680  0.123892  1
  O  O95  1  0.873631  0.626058  0.000000  1
  O  O96  1  0.373572  0.626428  0.500000  1
  O  O97  1  0.622932  0.622932  0.746105  1
  O  O98  1  0.876750  0.622528  0.754222  1
  O  O99  1  0.123250  0.622528  0.245778  1
  O  O100  1  0.377472  0.123250  0.754222  1
  O  O101  1  0.750320  0.249680  0.123892  1
  O  O102  1  0.500000  0.500000  0.626065  1
  O  O103  1  0.500000  0.500000  0.859499  1
  O  O104  1  0.500000  0.000000  0.126065  1
  O  O105  1  0.622528  0.876750  0.754222  1
  O  O106  1  0.123053  0.876947  0.254354  1
  O  O107  1  0.865320  0.364082  0.500000  1
  O  O108  1  0.000000  0.500000  0.873935  1
  O  O109  1  0.876750  0.622528  0.245778  1
  O  O110  1  0.750320  0.750320  0.876108  1
  O  O111  1  0.874043  0.125957  0.500000  1
  O  O112  1  0.377068  0.377068  0.746105  1
  O  O113  1  0.000000  0.000000  0.626311  1
  O  O114  1  0.377472  0.123250  0.245778  1
  O  O115  1  0.126369  0.626058  0.000000  1
  O  O116  1  0.622932  0.622932  0.253895  1
  O  O117  1  0.635918  0.865320  0.500000  1
  O  O118  1  0.626058  0.126369  0.000000  1
  O  O119  1  0.249680  0.750320  0.876108  1
  O  O120  1  0.125957  0.125957  0.500000  1
  O  O121  1  0.622528  0.123250  0.245778  1
  O  O122  1  0.500000  0.500000  0.373935  1
  O  O123  1  0.500000  0.500000  0.140501  1
  O  O124  1  0.250350  0.250350  0.376058  1
  O  O125  1  0.364576  0.635424  0.000000  1
  O  O126  1  0.749650  0.250350  0.623942  1
  O  O127  1  0.123250  0.622528  0.754222  1
  O  O128  1  0.135190  0.135190  0.000000  1
  O  O129  1  0.635424  0.635424  0.000000  1
  O  O130  1  0.000000  0.000000  0.373689  1
  O  O131  1  0.134680  0.364082  0.500000  1
  O  O132  1  0.000000  0.000000  0.859657  1
  O  O133  1  0.134680  0.635918  0.500000  1
  O  O134  1  0.123053  0.876947  0.745646  1
  O  O135  1  0.249680  0.750320  0.123892  1
  O  O136  1  0.749650  0.749650  0.623942  1
  O  O137  1  0.250350  0.250350  0.623942  1
  O  O138  1  0.874043  0.874043  0.500000  1
  O  O139  1  0.123250  0.377472  0.754222  1
  O  O140  1  0.749650  0.250350  0.376058  1
  O  O141  1  0.377068  0.622932  0.253895  1
  O  O142  1  0.377068  0.377068  0.253895  1
  O  O143  1  0.249680  0.249680  0.876108  1
  O  O144  1  0.250350  0.749650  0.376058  1
  O  O145  1  0.876947  0.876947  0.745646  1
  O  O146  1  0.750320  0.249680  0.876108  1
  O  O147  1  0.123250  0.377472  0.245778  1
  O  O148  1  0.000000  0.000000  0.140343  1
  O  O149  1  0.750320  0.750320  0.123892  1
  O  O150  1  0.364082  0.134680  0.500000  1
  O  O151  1  0.377472  0.876750  0.245778  1
  O  O152  1  0.626428  0.373572  0.500000  1
  O  O153  1  0.500000  0.000000  0.640566  1
  O  O154  1  0.250350  0.749650  0.623942  1
  O  O155  1  0.364576  0.364576  0.000000  1
