# generated using pymatgen
data_Cs(Bi2Te3)2
_symmetry_space_group_name_H-M   'P 1'
_cell_length_a   4.45979152
_cell_length_b   14.63098183
_cell_length_c   26.39758570
_cell_angle_alpha   101.11008945
_cell_angle_beta   94.80569798
_cell_angle_gamma   90.07050290
_symmetry_Int_Tables_number   1
_chemical_formula_structural   Cs(Bi2Te3)2
_chemical_formula_sum   'Cs4 Bi16 Te24'
_cell_volume   1683.98327690
_cell_formula_units_Z   4
loop_
 _symmetry_equiv_pos_site_id
 _symmetry_equiv_pos_as_xyz
  1  'x, y, z'
loop_
 _atom_site_type_symbol
 _atom_site_label
 _atom_site_symmetry_multiplicity
 _atom_site_fract_x
 _atom_site_fract_y
 _atom_site_fract_z
 _atom_site_occupancy
  Cs  Cs0  1  0.688738  0.515930  0.374954  1
  Cs  Cs1  1  0.062956  0.510241  0.109616  1
  Cs  Cs2  1  0.946357  0.491808  0.892812  1
  Cs  Cs3  1  0.320203  0.482943  0.625664  1
  Bi  Bi4  1  0.158876  0.091822  0.326877  1
  Bi  Bi5  1  0.706431  0.911733  0.425823  1
  Bi  Bi6  1  0.409930  0.061593  0.822447  1
  Bi  Bi7  1  0.961601  0.861973  0.920024  1
  Bi  Bi8  1  0.866898  0.250099  0.727452  1
  Bi  Bi9  1  0.595699  0.936565  0.178080  1
  Bi  Bi10  1  0.017643  0.788871  0.029853  1
  Bi  Bi11  1  0.836714  0.907620  0.674587  1
  Bi  Bi12  1  0.131709  0.749566  0.272588  1
  Bi  Bi13  1  0.264620  0.739989  0.529321  1
  Bi  Bi14  1  0.045941  0.136760  0.080167  1
  Bi  Bi15  1  0.991871  0.209620  0.970481  1
  Bi  Bi16  1  0.736460  0.259677  0.471072  1
  Bi  Bi17  1  0.619210  0.276647  0.229744  1
  Bi  Bi18  1  0.384473  0.721227  0.770090  1
  Bi  Bi19  1  0.286591  0.088611  0.575496  1
  Te  Te20  1  0.323622  0.758516  0.648820  1
  Te  Te21  1  0.535521  0.961060  0.065924  1
  Te  Te22  1  0.241204  0.400784  0.479044  1
  Te  Te23  1  0.893063  0.899233  0.790937  1
  Te  Te24  1  0.084709  0.786270  0.161691  1
  Te  Te25  1  0.875453  0.579287  0.752706  1
  Te  Te26  1  0.198547  0.759490  0.405846  1
  Te  Te27  1  0.673197  0.241049  0.351685  1
  Te  Te28  1  0.760108  0.598858  0.521485  1
  Te  Te29  1  0.108081  0.098696  0.210398  1
  Te  Te30  1  0.562737  0.278695  0.115384  1
  Te  Te31  1  0.348545  0.071065  0.692783  1
  Te  Te32  1  0.918434  0.212172  0.838226  1
  Te  Te33  1  0.441368  0.719965  0.884562  1
  Te  Te34  1  0.380086  0.389779  0.754062  1
  Te  Te35  1  0.773996  0.924506  0.550894  1
  Te  Te36  1  0.650056  0.928404  0.308414  1
  Te  Te37  1  0.619330  0.609515  0.246758  1
  Te  Te38  1  0.466861  0.036555  0.934700  1
  Te  Te39  1  0.508805  0.643417  0.015345  1
  Te  Te40  1  0.127704  0.418679  0.247889  1
  Te  Te41  1  0.225987  0.076155  0.450750  1
  Te  Te42  1  0.798691  0.241166  0.594923  1
  Te  Te43  1  0.497702  0.354819  0.986284  1
