# generated using pymatgen
data_CsGdSiS4
_symmetry_space_group_name_H-M   'P 1'
_cell_length_a   6.42047361
_cell_length_b   6.76743074
_cell_length_c   17.88563592
_cell_angle_alpha   90.00000000
_cell_angle_beta   90.00000000
_cell_angle_gamma   90.00000000
_symmetry_Int_Tables_number   1
_chemical_formula_structural   CsGdSiS4
_chemical_formula_sum   'Cs4 Gd4 Si4 S16'
_cell_volume   777.13285662
_cell_formula_units_Z   4
loop_
 _symmetry_equiv_pos_site_id
 _symmetry_equiv_pos_as_xyz
  1  'x, y, z'
loop_
 _atom_site_type_symbol
 _atom_site_label
 _atom_site_symmetry_multiplicity
 _atom_site_fract_x
 _atom_site_fract_y
 _atom_site_fract_z
 _atom_site_occupancy
  Cs  Cs0  1  0.501069  0.492296  0.967566  1
  Cs  Cs1  1  0.998931  0.507704  0.467566  1
  Cs  Cs2  1  0.001069  0.007704  0.032434  1
  Cs  Cs3  1  0.498931  0.992296  0.532434  1
  Gd  Gd4  1  0.791544  0.019689  0.772065  1
  Gd  Gd5  1  0.208456  0.519689  0.727935  1
  Gd  Gd6  1  0.291544  0.480311  0.227935  1
  Gd  Gd7  1  0.708456  0.980311  0.272065  1
  Si  Si8  1  0.711043  0.483213  0.666417  1
  Si  Si9  1  0.211043  0.016787  0.333583  1
  Si  Si10  1  0.288957  0.983213  0.833583  1
  Si  Si11  1  0.788957  0.516787  0.166417  1
  S  S12  1  0.394931  0.754834  0.345395  1
  S  S13  1  0.570227  0.748243  0.146238  1
  S  S14  1  0.387959  0.931692  0.721402  1
  S  S15  1  0.052072  0.512395  0.095941  1
  S  S16  1  0.612041  0.431692  0.778598  1
  S  S17  1  0.112041  0.068308  0.221402  1
  S  S18  1  0.105069  0.245166  0.845395  1
  S  S19  1  0.894931  0.745166  0.654605  1
  S  S20  1  0.070227  0.751757  0.853762  1
  S  S21  1  0.947928  0.012395  0.404059  1
  S  S22  1  0.429773  0.248243  0.353762  1
  S  S23  1  0.929773  0.251757  0.646238  1
  S  S24  1  0.887959  0.568308  0.278598  1
  S  S25  1  0.552072  0.987605  0.904059  1
  S  S26  1  0.605069  0.254834  0.154605  1
  S  S27  1  0.447928  0.487605  0.595941  1
