# generated using pymatgen
data_Zr3S4
_symmetry_space_group_name_H-M   'P 1'
_cell_length_a   32.56609318
_cell_length_b   31.77452886
_cell_length_c   31.06363530
_cell_angle_alpha   11.56410369
_cell_angle_beta   12.89843686
_cell_angle_gamma   6.20026156
_symmetry_Int_Tables_number   1
_chemical_formula_structural   Zr3S4
_chemical_formula_sum   'Zr15 S20'
_cell_volume   695.47056224
_cell_formula_units_Z   5
loop_
 _symmetry_equiv_pos_site_id
 _symmetry_equiv_pos_as_xyz
  1  'x, y, z'
loop_
 _atom_site_type_symbol
 _atom_site_label
 _atom_site_symmetry_multiplicity
 _atom_site_fract_x
 _atom_site_fract_y
 _atom_site_fract_z
 _atom_site_occupancy
  Zr  Zr0  1  0.999894  0.015158  0.985019  1
  Zr  Zr1  1  0.201515  0.030379  0.967096  1
  Zr  Zr2  1  0.401345  0.009467  0.988292  1
  Zr  Zr3  1  0.101038  0.002225  0.496045  1
  Zr  Zr4  1  0.599862  0.996857  0.003373  1
  Zr  Zr5  1  0.300138  0.003143  0.496627  1
  Zr  Zr6  1  0.798962  0.997775  0.003955  1
  Zr  Zr7  1  0.152017  0.500960  0.245678  1
  Zr  Zr8  1  0.498655  0.990533  0.511708  1
  Zr  Zr9  1  0.698485  0.969621  0.532904  1
  Zr  Zr10  1  0.049919  0.491698  0.758436  1
  Zr  Zr11  1  0.900106  0.984842  0.514981  1
  Zr  Zr12  1  0.747983  0.499040  0.254322  1
  Zr  Zr13  1  0.450000  0.500000  0.750000  1
  Zr  Zr14  1  0.850081  0.508302  0.741564  1
  S  S15  1  0.179505  0.265771  0.101722  1
  S  S16  1  0.376557  0.246894  0.125511  1
  S  S17  1  0.077863  0.249558  0.620670  1
  S  S18  1  0.577673  0.261453  0.109093  1
  S  S19  1  0.283764  0.275268  0.585124  1
  S  S20  1  0.770644  0.263870  0.118391  1
  S  S21  1  0.129356  0.736130  0.381609  1
  S  S22  1  0.481871  0.262613  0.600935  1
  S  S23  1  0.973957  0.244964  0.131775  1
  S  S24  1  0.322327  0.738547  0.390907  1
  S  S25  1  0.676215  0.242871  0.630104  1
  S  S26  1  0.021487  0.738053  0.892801  1
  S  S27  1  0.523443  0.753106  0.374489  1
  S  S28  1  0.878513  0.261947  0.607199  1
  S  S29  1  0.223785  0.757129  0.869896  1
  S  S30  1  0.720495  0.734229  0.398278  1
  S  S31  1  0.418129  0.737387  0.899065  1
  S  S32  1  0.926043  0.755036  0.368225  1
  S  S33  1  0.616236  0.724732  0.914876  1
  S  S34  1  0.822137  0.750442  0.879330  1
