# generated using pymatgen
data_ZnAu2(CN)4
_symmetry_space_group_name_H-M   'P 1'
_cell_length_a   8.51607146
_cell_length_b   8.51607186
_cell_length_c   20.90041146
_cell_angle_alpha   90.00000000
_cell_angle_beta   90.00000000
_cell_angle_gamma   119.99999844
_symmetry_Int_Tables_number   1
_chemical_formula_structural   ZnAu2(CN)4
_chemical_formula_sum   'Zn6 Au12 C24 N24'
_cell_volume   1312.69578023
_cell_formula_units_Z   6
loop_
 _symmetry_equiv_pos_site_id
 _symmetry_equiv_pos_as_xyz
  1  'x, y, z'
loop_
 _atom_site_type_symbol
 _atom_site_label
 _atom_site_symmetry_multiplicity
 _atom_site_fract_x
 _atom_site_fract_y
 _atom_site_fract_z
 _atom_site_occupancy
  Zn  Zn0  1  0.500000  0.500000  0.708607  1
  Zn  Zn1  1  0.500000  0.500000  0.958060  1
  Zn  Zn2  1  0.500000  0.000000  0.624727  1
  Zn  Zn3  1  0.500000  0.000000  0.375273  1
  Zn  Zn4  1  0.000000  0.500000  0.041940  1
  Zn  Zn5  1  0.000000  0.500000  0.291393  1
  Au  Au6  1  0.005818  0.319345  0.539222  1
  Au  Au7  1  0.686473  0.680655  0.460778  1
  Au  Au8  1  0.994182  0.313527  0.794112  1
  Au  Au9  1  0.680655  0.994182  0.127445  1
  Au  Au10  1  0.994182  0.680655  0.539222  1
  Au  Au11  1  0.313527  0.319345  0.460778  1
  Au  Au12  1  0.680655  0.686473  0.205888  1
  Au  Au13  1  0.319345  0.005818  0.127445  1
  Au  Au14  1  0.319345  0.313527  0.205888  1
  Au  Au15  1  0.005818  0.686473  0.794112  1
  Au  Au16  1  0.313527  0.994182  0.872555  1
  Au  Au17  1  0.686473  0.005818  0.872555  1
  C  C18  1  0.393518  0.209501  0.277352  1
  C  C19  1  0.209501  0.815983  0.944019  1
  C  C20  1  0.790499  0.184017  0.944019  1
  C  C21  1  0.776745  0.597201  0.136718  1
  C  C22  1  0.820456  0.597201  0.863282  1
  C  C23  1  0.209501  0.393518  0.389314  1
  C  C24  1  0.393518  0.184017  0.055981  1
  C  C25  1  0.402799  0.179544  0.803385  1
  C  C26  1  0.597201  0.776745  0.529949  1
  C  C27  1  0.184017  0.393518  0.610686  1
  C  C28  1  0.402799  0.223255  0.529949  1
  C  C29  1  0.184017  0.790499  0.722648  1
  C  C30  1  0.606482  0.815983  0.055981  1
  C  C31  1  0.815983  0.209501  0.722648  1
  C  C32  1  0.179544  0.402799  0.863282  1
  C  C33  1  0.223255  0.402799  0.136718  1
  C  C34  1  0.815983  0.606482  0.610686  1
  C  C35  1  0.820456  0.223255  0.470051  1
  C  C36  1  0.776745  0.179544  0.196615  1
  C  C37  1  0.223255  0.820456  0.196615  1
  C  C38  1  0.179544  0.776745  0.470051  1
  C  C39  1  0.597201  0.820456  0.803385  1
  C  C40  1  0.606482  0.790499  0.277352  1
  C  C41  1  0.790499  0.606482  0.389314  1
  N  N42  1  0.553012  0.710771  0.763383  1
  N  N43  1  0.710771  0.553012  0.903284  1
  N  N44  1  0.434147  0.291323  0.015377  1
  N  N45  1  0.291323  0.434147  0.651290  1
  N  N46  1  0.446988  0.289229  0.763383  1
  N  N47  1  0.565853  0.708677  0.015377  1
  N  N48  1  0.157759  0.446988  0.096716  1
  N  N49  1  0.289229  0.446988  0.903284  1
  N  N50  1  0.291323  0.857177  0.682044  1
  N  N51  1  0.434147  0.142823  0.317956  1
  N  N52  1  0.142823  0.434147  0.348710  1
  N  N53  1  0.710771  0.157759  0.430049  1
  N  N54  1  0.157759  0.710771  0.236617  1
  N  N55  1  0.289229  0.842241  0.430049  1
  N  N56  1  0.708677  0.565853  0.651290  1
  N  N57  1  0.842241  0.553012  0.096716  1
  N  N58  1  0.842241  0.289229  0.236617  1
  N  N59  1  0.553012  0.842241  0.569951  1
  N  N60  1  0.446988  0.157759  0.569951  1
  N  N61  1  0.708677  0.142823  0.682044  1
  N  N62  1  0.857177  0.565853  0.348710  1
  N  N63  1  0.857177  0.291323  0.984623  1
  N  N64  1  0.565853  0.857177  0.317956  1
  N  N65  1  0.142823  0.708677  0.984623  1
