# generated using pymatgen
data_V2Bi8O17
_symmetry_space_group_name_H-M   'P 1'
_cell_length_a   4.18629081
_cell_length_b   4.18629057
_cell_length_c   40.76099413
_cell_angle_alpha   56.41709513
_cell_angle_beta   56.41709705
_cell_angle_gamma   52.71044063
_symmetry_Int_Tables_number   1
_chemical_formula_structural   V2Bi8O17
_chemical_formula_sum   'V2 Bi8 O17'
_cell_volume   447.10676890
_cell_formula_units_Z   1
loop_
 _symmetry_equiv_pos_site_id
 _symmetry_equiv_pos_as_xyz
  1  'x, y, z'
loop_
 _atom_site_type_symbol
 _atom_site_label
 _atom_site_symmetry_multiplicity
 _atom_site_fract_x
 _atom_site_fract_y
 _atom_site_fract_z
 _atom_site_occupancy
  V  V0  1  0.876402  0.876402  0.609510  1
  V  V1  1  0.950515  0.950515  0.786337  1
  Bi  Bi2  1  0.080968  0.080968  0.974703  1
  Bi  Bi3  1  0.090816  0.090816  0.091059  1
  Bi  Bi4  1  0.011975  0.011975  0.193647  1
  Bi  Bi5  1  0.021105  0.021105  0.308772  1
  Bi  Bi6  1  0.964775  0.964775  0.409682  1
  Bi  Bi7  1  0.969700  0.969700  0.522714  1
  Bi  Bi8  1  0.048224  0.048224  0.698470  1
  Bi  Bi9  1  0.131266  0.131266  0.874711  1
  O  O10  1  0.233109  0.233109  0.124614  1
  O  O11  1  0.791408  0.791408  0.056149  1
  O  O12  1  0.690327  0.690327  0.192625  1
  O  O13  1  0.170992  0.170992  0.341381  1
  O  O14  1  0.722618  0.722618  0.274214  1
  O  O15  1  0.647815  0.647815  0.407601  1
  O  O16  1  0.132203  0.132203  0.555731  1
  O  O17  1  0.683191  0.683191  0.490623  1
  O  O18  1  0.314366  0.314366  0.622691  1
  O  O19  1  0.702906  0.702906  0.596463  1
  O  O20  1  0.209428  0.209428  0.731711  1
  O  O21  1  0.765371  0.765371  0.668014  1
  O  O22  1  0.386471  0.386471  0.800120  1
  O  O23  1  0.774765  0.774765  0.774139  1
  O  O24  1  0.296821  0.296821  0.906013  1
  O  O25  1  0.843647  0.843647  0.843727  1
  O  O26  1  0.764815  0.764815  0.972184  1
