# generated using pymatgen
data_Gd4P6H16O23
_symmetry_space_group_name_H-M   'P 1'
_cell_length_a   6.98627284
_cell_length_b   13.29987608
_cell_length_c   13.79639960
_cell_angle_alpha   109.91765114
_cell_angle_beta   90.09883385
_cell_angle_gamma   104.57296339
_symmetry_Int_Tables_number   1
_chemical_formula_structural   Gd4P6H16O23
_chemical_formula_sum   'Gd8 P12 H32 O46'
_cell_volume   1161.06093266
_cell_formula_units_Z   2
loop_
 _symmetry_equiv_pos_site_id
 _symmetry_equiv_pos_as_xyz
  1  'x, y, z'
loop_
 _atom_site_type_symbol
 _atom_site_label
 _atom_site_symmetry_multiplicity
 _atom_site_fract_x
 _atom_site_fract_y
 _atom_site_fract_z
 _atom_site_occupancy
  Gd  Gd0  1  0.332525  0.618268  0.898716  1
  Gd  Gd1  1  0.667475  0.381732  0.101284  1
  Gd  Gd2  1  0.842331  0.119192  0.902186  1
  Gd  Gd3  1  0.157669  0.880808  0.097814  1
  Gd  Gd4  1  0.494081  0.636738  0.619251  1
  Gd  Gd5  1  0.974616  0.866967  0.370211  1
  Gd  Gd6  1  0.025384  0.133033  0.629789  1
  Gd  Gd7  1  0.505919  0.363262  0.380749  1
  P  P8  1  0.345214  0.399257  0.642932  1
  P  P9  1  0.495010  0.852935  0.881383  1
  P  P10  1  0.504990  0.147065  0.118617  1
  P  P11  1  0.012464  0.413090  0.310765  1
  P  P12  1  0.987536  0.586910  0.689235  1
  P  P13  1  0.654786  0.600743  0.357068  1
  P  P14  1  0.989586  0.649180  0.117914  1
  P  P15  1  0.872635  0.896118  0.645832  1
  P  P16  1  0.127365  0.103882  0.354168  1
  P  P17  1  0.010414  0.350820  0.882086  1
  P  P18  1  0.517714  0.092799  0.687356  1
  P  P19  1  0.482286  0.907201  0.312644  1
  H  H20  1  0.398859  0.351662  0.902162  1
  H  H21  1  0.747264  0.580289  0.937658  1
  H  H22  1  0.285254  0.116033  0.874498  1
  H  H23  1  0.015325  0.852039  0.677025  1
  H  H24  1  0.886797  0.836830  0.900942  1
  H  H25  1  0.368587  0.892228  0.832752  1
  H  H26  1  0.977002  0.248159  0.127280  1
  H  H27  1  0.886733  0.383245  0.824586  1
  H  H28  1  0.714746  0.883967  0.125502  1
  H  H29  1  0.501798  0.362120  0.670705  1
  H  H30  1  0.267185  0.409514  0.172787  1
  H  H31  1  0.945070  0.470118  0.652517  1
  H  H32  1  0.478398  0.741388  0.126311  1
  H  H33  1  0.190924  0.688502  0.516329  1
  H  H34  1  0.543774  0.024492  0.345351  1
  H  H35  1  0.521602  0.258612  0.873689  1
  H  H36  1  0.252736  0.419711  0.062342  1
  H  H37  1  0.498202  0.637880  0.329295  1
  H  H38  1  0.984675  0.147961  0.322975  1
  H  H39  1  0.620326  0.217721  0.485580  1
  H  H40  1  0.456226  0.975508  0.654649  1
  H  H41  1  0.054930  0.529882  0.347483  1
  H  H42  1  0.631413  0.107772  0.167248  1
  H  H43  1  0.022998  0.751841  0.872720  1
  H  H44  1  0.777844  0.937605  0.041732  1
  H  H45  1  0.113267  0.616755  0.175414  1
  H  H46  1  0.809076  0.311498  0.483671  1
  H  H47  1  0.601141  0.648338  0.097838  1
  H  H48  1  0.379674  0.782279  0.514420  1
  H  H49  1  0.732815  0.590486  0.827213  1
  H  H50  1  0.113203  0.163170  0.099058  1
  H  H51  1  0.222156  0.062395  0.958268  1
  O  O52  1  0.577093  0.134537  0.806735  1
  O  O53  1  0.515214  0.741230  0.805500  1
  O  O54  1  0.334846  0.129782  0.668752  1
  O  O55  1  0.152576  0.307521  0.626583  1
  O  O56  1  0.942669  0.371702  0.192422  1
  O  O57  1  0.673428  0.811414  0.625770  1
  O  O58  1  0.309573  0.874088  0.373433  1
  O  O59  1  0.168793  0.080359  0.901918  1
  O  O60  1  0.037943  0.237056  0.813048  1
  O  O61  1  0.831207  0.919641  0.098082  1
  O  O62  1  0.945000  0.925641  0.549712  1
  O  O63  1  0.484786  0.258770  0.194500  1
  O  O64  1  0.651507  0.489612  0.270811  1
  O  O65  1  0.394434  0.430953  0.545833  1
  O  O66  1  0.095694  0.671539  0.026077  1
  O  O67  1  0.120202  0.990454  0.269254  1
  O  O68  1  0.305930  0.055732  0.083240  1
  O  O69  1  0.879798  0.009546  0.730746  1
  O  O70  1  0.670697  0.297163  0.500802  1
  O  O71  1  0.690427  0.125912  0.626567  1
  O  O72  1  0.153810  0.629131  0.629451  1
  O  O73  1  0.329303  0.702837  0.499198  1
  O  O74  1  0.326572  0.188586  0.374230  1
  O  O75  1  0.793590  0.557045  0.083173  1
  O  O76  1  0.055000  0.074359  0.450288  1
  O  O77  1  0.604322  0.173380  0.026665  1
  O  O78  1  0.012066  0.826178  0.921172  1
  O  O79  1  0.605566  0.569047  0.454167  1
  O  O80  1  0.792909  0.616188  0.676271  1
  O  O81  1  0.694070  0.944268  0.916760  1
  O  O82  1  0.348493  0.510388  0.729189  1
  O  O83  1  0.207091  0.383812  0.323729  1
  O  O84  1  0.846190  0.370869  0.370549  1
  O  O85  1  0.987934  0.173822  0.078828  1
  O  O86  1  0.422907  0.865463  0.193265  1
  O  O87  1  0.654743  0.577803  0.883234  1
  O  O88  1  0.345257  0.422197  0.116766  1
  O  O89  1  0.057331  0.628298  0.807578  1
  O  O90  1  0.847424  0.692479  0.373417  1
  O  O91  1  0.962057  0.762944  0.186952  1
  O  O92  1  0.395678  0.826620  0.973335  1
  O  O93  1  0.501096  0.675472  0.071133  1
  O  O94  1  0.498904  0.324528  0.928867  1
  O  O95  1  0.206410  0.442955  0.916827  1
  O  O96  1  0.665154  0.870218  0.331248  1
  O  O97  1  0.904306  0.328461  0.973923  1
