# generated using pymatgen
data_In5Br7
_symmetry_space_group_name_H-M   'P 1'
_cell_length_a   13.43163622
_cell_length_b   13.43163622
_cell_length_c   38.23315571
_cell_angle_alpha   90.00000000
_cell_angle_beta   90.00000000
_cell_angle_gamma   90.00000000
_symmetry_Int_Tables_number   1
_chemical_formula_structural   In5Br7
_chemical_formula_sum   'In80 Br112'
_cell_volume   6897.59971264
_cell_formula_units_Z   16
loop_
 _symmetry_equiv_pos_site_id
 _symmetry_equiv_pos_as_xyz
  1  'x, y, z'
loop_
 _atom_site_type_symbol
 _atom_site_label
 _atom_site_symmetry_multiplicity
 _atom_site_fract_x
 _atom_site_fract_y
 _atom_site_fract_z
 _atom_site_occupancy
  In  In0  1  0.995308  0.038926  0.669086  1
  In  In1  1  0.832127  0.283665  0.442680  1
  In  In2  1  0.256482  0.256482  0.000000  1
  In  In3  1  0.970052  0.578668  0.193517  1
  In  In4  1  0.495308  0.461074  0.080914  1
  In  In5  1  0.532682  0.827479  0.690864  1
  In  In6  1  0.739902  0.993784  0.248302  1
  In  In7  1  0.827479  0.532682  0.309136  1
  In  In8  1  0.290337  0.995161  0.917543  1
  In  In9  1  0.917770  0.718431  0.306882  1
  In  In10  1  0.032683  0.672521  0.059136  1
  In  In11  1  0.260098  0.006216  0.748302  1
  In  In12  1  0.454607  0.236830  0.825248  1
  In  In13  1  0.672521  0.032683  0.940864  1
  In  In14  1  0.236830  0.454607  0.174752  1
  In  In15  1  0.736830  0.045393  0.575248  1
  In  In16  1  0.332127  0.216335  0.307320  1
  In  In17  1  0.045393  0.736830  0.424752  1
  In  In18  1  0.764662  0.799351  0.075051  1
  In  In19  1  0.029948  0.421332  0.693517  1
  In  In20  1  0.709663  0.004839  0.417543  1
  In  In21  1  0.506216  0.239902  0.498302  1
  In  In22  1  0.760098  0.493784  0.001698  1
  In  In23  1  0.995161  0.290337  0.082457  1
  In  In24  1  0.082230  0.281569  0.806882  1
  In  In25  1  0.783665  0.667873  0.192680  1
  In  In26  1  0.967318  0.327479  0.559136  1
  In  In27  1  0.578668  0.970052  0.806483  1
  In  In28  1  0.667873  0.783665  0.807320  1
  In  In29  1  0.421332  0.029948  0.306483  1
  In  In30  1  0.961074  0.004692  0.830914  1
  In  In31  1  0.493784  0.760098  0.998302  1
  In  In32  1  0.235338  0.200649  0.575051  1
  In  In33  1  0.283665  0.832127  0.557320  1
  In  In34  1  0.172521  0.467317  0.809136  1
  In  In35  1  0.954607  0.263170  0.924752  1
  In  In36  1  0.993784  0.739902  0.751698  1
  In  In37  1  0.461074  0.495308  0.919086  1
  In  In38  1  0.529948  0.078668  0.056483  1
  In  In39  1  0.504839  0.790337  0.167543  1
  In  In40  1  0.243518  0.756482  0.250000  1
  In  In41  1  0.467317  0.172521  0.190864  1
  In  In42  1  0.990850  0.990850  0.000000  1
  In  In43  1  0.239902  0.506216  0.501698  1
  In  In44  1  0.538926  0.504692  0.419086  1
  In  In45  1  0.078668  0.529948  0.943517  1
  In  In46  1  0.763170  0.545393  0.674752  1
  In  In47  1  0.756482  0.243518  0.750000  1
  In  In48  1  0.495161  0.209663  0.667543  1
  In  In49  1  0.004839  0.709663  0.582457  1
  In  In50  1  0.509150  0.490850  0.250000  1
  In  In51  1  0.216335  0.332127  0.692680  1
  In  In52  1  0.004692  0.961074  0.169086  1
  In  In53  1  0.009150  0.009150  0.500000  1
  In  In54  1  0.200649  0.235338  0.424949  1
  In  In55  1  0.790337  0.504839  0.832457  1
  In  In56  1  0.490850  0.509150  0.750000  1
  In  In57  1  0.264662  0.700649  0.674949  1
  In  In58  1  0.263170  0.954607  0.075248  1
  In  In59  1  0.209663  0.495161  0.332457  1
  In  In60  1  0.582230  0.218431  0.943118  1
  In  In61  1  0.718431  0.917770  0.693118  1
  In  In62  1  0.299351  0.735338  0.825051  1
  In  In63  1  0.921332  0.470052  0.443517  1
  In  In64  1  0.781569  0.417770  0.556882  1
  In  In65  1  0.799351  0.764662  0.924949  1
  In  In66  1  0.167873  0.716335  0.942680  1
  In  In67  1  0.218431  0.582230  0.056882  1
  In  In68  1  0.545393  0.763170  0.325248  1
  In  In69  1  0.700649  0.264662  0.325051  1
  In  In70  1  0.281569  0.082230  0.193118  1
  In  In71  1  0.735338  0.299351  0.174949  1
  In  In72  1  0.743518  0.743518  0.500000  1
  In  In73  1  0.006216  0.260098  0.251698  1
  In  In74  1  0.470052  0.921332  0.556483  1
  In  In75  1  0.038926  0.995308  0.330914  1
  In  In76  1  0.327479  0.967318  0.440864  1
  In  In77  1  0.504692  0.538926  0.580914  1
  In  In78  1  0.417770  0.781569  0.443118  1
  In  In79  1  0.716335  0.167873  0.057320  1
  Br  Br80  1  0.352873  0.423554  0.656108  1
  Br  Br81  1  0.453672  0.926005  0.248551  1
  Br  Br82  1  0.094625  0.724972  0.337187  1
  Br  Br83  1  0.426005  0.046328  0.998551  1
  Br  Br84  1  0.873185  0.878374  0.450209  1
  Br  Br85  1  0.622552  0.627988  0.049796  1
  Br  Br86  1  0.427082  0.793025  0.748364  1
  Br  Br87  1  0.610760  0.086785  0.156660  1
  Br  Br88  1  0.024088  0.604498  0.668999  1
  Br  Br89  1  0.855240  0.827457  0.656191  1
  Br  Br90  1  0.856438  0.027927  0.916749  1
  Br  Br91  1  0.222947  0.154612  0.662830  1
  Br  Br92  1  0.889240  0.586785  0.093340  1
  Br  Br93  1  0.544122  0.326273  0.998982  1
  Br  Br94  1  0.046328  0.426005  0.001449  1
  Br  Br95  1  0.672543  0.355240  0.906191  1
  Br  Br96  1  0.208066  0.825913  0.997936  1
  Br  Br97  1  0.621626  0.373185  0.700209  1
  Br  Br98  1  0.173727  0.044122  0.248982  1
  Br  Br99  1  0.355240  0.672543  0.093809  1
  Br  Br100  1  0.413215  0.110760  0.406660  1
  Br  Br101  1  0.546328  0.073995  0.748551  1
  Br  Br102  1  0.673727  0.455878  0.501018  1
  Br  Br103  1  0.643562  0.527927  0.333251  1
  Br  Br104  1  0.604498  0.024088  0.331001  1
  Br  Br105  1  0.654612  0.277053  0.412830  1
  Br  Br106  1  0.576446  0.647127  0.843892  1
  Br  Br107  1  0.972073  0.143562  0.583251  1
  Br  Br108  1  0.076446  0.852873  0.906108  1
  Br  Br109  1  0.887856  0.334090  0.658950  1
  Br  Br110  1  0.895502  0.524088  0.918999  1
  Br  Br111  1  0.826273  0.955878  0.748982  1
  Br  Br112  1  0.373185  0.621626  0.299791  1
  Br  Br113  1  0.275028  0.905375  0.162813  1
  Br  Br114  1  0.927082  0.706975  0.001636  1
  Br  Br115  1  0.594625  0.775028  0.412813  1
  Br  Br116  1  0.387856  0.165910  0.091050  1
  Br  Br117  1  0.206975  0.572918  0.751636  1
  Br  Br118  1  0.722947  0.345388  0.087169  1
  Br  Br119  1  0.378374  0.626815  0.200209  1
  Br  Br120  1  0.144760  0.172543  0.156191  1
  Br  Br121  1  0.293025  0.072918  0.498364  1
  Br  Br122  1  0.112144  0.665910  0.158950  1
  Br  Br123  1  0.527927  0.643562  0.666749  1
  Br  Br124  1  0.389240  0.913215  0.656660  1
  Br  Br125  1  0.345388  0.722947  0.912830  1
  Br  Br126  1  0.327457  0.644760  0.406191  1
  Br  Br127  1  0.724972  0.094625  0.662813  1
  Br  Br128  1  0.104498  0.475912  0.418999  1
  Br  Br129  1  0.027927  0.856438  0.083251  1
  Br  Br130  1  0.325913  0.291934  0.747936  1
  Br  Br131  1  0.524088  0.895502  0.081001  1
  Br  Br132  1  0.791934  0.174087  0.497936  1
  Br  Br133  1  0.372012  0.377448  0.450204  1
  Br  Br134  1  0.852873  0.076446  0.093892  1
  Br  Br135  1  0.154612  0.222947  0.337170  1
  Br  Br136  1  0.644760  0.327457  0.593809  1
  Br  Br137  1  0.674087  0.708066  0.247936  1
  Br  Br138  1  0.127988  0.877448  0.799796  1
  Br  Br139  1  0.834090  0.612144  0.408950  1
  Br  Br140  1  0.647127  0.576446  0.156108  1
  Br  Br141  1  0.044122  0.173727  0.751018  1
  Br  Br142  1  0.224972  0.405375  0.087187  1
  Br  Br143  1  0.953672  0.573995  0.501449  1
  Br  Br144  1  0.073995  0.546328  0.251449  1
  Br  Br145  1  0.872012  0.122552  0.299796  1
  Br  Br146  1  0.174087  0.791934  0.502064  1
  Br  Br147  1  0.126815  0.121626  0.950209  1
  Br  Br148  1  0.825913  0.208066  0.002064  1
  Br  Br149  1  0.455878  0.673727  0.498982  1
  Br  Br150  1  0.926005  0.453672  0.751449  1
  Br  Br151  1  0.627988  0.622552  0.950204  1
  Br  Br152  1  0.827457  0.855240  0.343809  1
  Br  Br153  1  0.665910  0.112144  0.841050  1
  Br  Br154  1  0.706975  0.927082  0.998364  1
  Br  Br155  1  0.975912  0.395502  0.168999  1
  Br  Br156  1  0.845388  0.777053  0.837170  1
  Br  Br157  1  0.122552  0.872012  0.700204  1
  Br  Br158  1  0.913215  0.389240  0.343340  1
  Br  Br159  1  0.472073  0.356438  0.166749  1
  Br  Br160  1  0.356438  0.472073  0.833251  1
  Br  Br161  1  0.291934  0.325913  0.252064  1
  Br  Br162  1  0.377448  0.372012  0.549796  1
  Br  Br163  1  0.877448  0.127988  0.200204  1
  Br  Br164  1  0.147127  0.923554  0.593892  1
  Br  Br165  1  0.143562  0.972073  0.416749  1
  Br  Br166  1  0.072918  0.293025  0.501636  1
  Br  Br167  1  0.626815  0.378374  0.799791  1
  Br  Br168  1  0.572918  0.206975  0.248364  1
  Br  Br169  1  0.405375  0.224972  0.912813  1
  Br  Br170  1  0.955878  0.826273  0.251018  1
  Br  Br171  1  0.905375  0.275028  0.837187  1
  Br  Br172  1  0.775028  0.594625  0.587187  1
  Br  Br173  1  0.586785  0.889240  0.906660  1
  Br  Br174  1  0.334090  0.887856  0.341050  1
  Br  Br175  1  0.923554  0.147127  0.406108  1
  Br  Br176  1  0.573995  0.953672  0.498551  1
  Br  Br177  1  0.277053  0.654612  0.587170  1
  Br  Br178  1  0.121626  0.126815  0.049791  1
  Br  Br179  1  0.172543  0.144760  0.843809  1
  Br  Br180  1  0.708066  0.674087  0.752064  1
  Br  Br181  1  0.878374  0.873185  0.549791  1
  Br  Br182  1  0.086785  0.610760  0.843340  1
  Br  Br183  1  0.475912  0.104498  0.581001  1
  Br  Br184  1  0.612144  0.834090  0.591050  1
  Br  Br185  1  0.395502  0.975912  0.831001  1
  Br  Br186  1  0.110760  0.413215  0.593340  1
  Br  Br187  1  0.793025  0.427082  0.251636  1
  Br  Br188  1  0.777053  0.845388  0.162830  1
  Br  Br189  1  0.165910  0.387856  0.908950  1
  Br  Br190  1  0.423554  0.352873  0.343892  1
  Br  Br191  1  0.326273  0.544122  0.001018  1
