# generated using pymatgen
data_Pr9Be4O20
_symmetry_space_group_name_H-M   'P 1'
_cell_length_a   6.52935057
_cell_length_b   7.33068872
_cell_length_c   9.46225205
_cell_angle_alpha   89.83256666
_cell_angle_beta   89.56834075
_cell_angle_gamma   90.61144485
_symmetry_Int_Tables_number   1
_chemical_formula_structural   Pr9Be4O20
_chemical_formula_sum   'Pr9 Be4 O20'
_cell_volume   452.86657143
_cell_formula_units_Z   1
loop_
 _symmetry_equiv_pos_site_id
 _symmetry_equiv_pos_as_xyz
  1  'x, y, z'
loop_
 _atom_site_type_symbol
 _atom_site_label
 _atom_site_symmetry_multiplicity
 _atom_site_fract_x
 _atom_site_fract_y
 _atom_site_fract_z
 _atom_site_occupancy
  Pr  Pr0  1  0.069799  0.806553  0.178237  1
  Pr  Pr1  1  0.102575  0.508877  0.468795  1
  Pr  Pr2  1  0.398027  0.501335  0.968225  1
  Pr  Pr3  1  0.425660  0.813216  0.658227  1
  Pr  Pr4  1  0.578505  0.314854  0.332654  1
  Pr  Pr5  1  0.589407  0.004972  0.043494  1
  Pr  Pr6  1  0.901087  0.010629  0.520005  1
  Pr  Pr7  1  0.913755  0.736686  0.826937  1
  Pr  Pr8  1  0.920315  0.275663  0.834162  1
  Be  Be9  1  0.191316  0.004819  0.894756  1
  Be  Be10  1  0.327482  0.003968  0.389746  1
  Be  Be11  1  0.685721  0.502777  0.612329  1
  Be  Be12  1  0.820510  0.505069  0.103752  1
  O  O13  1  0.022977  0.513092  0.002571  1
  O  O14  1  0.124597  -0.008067  0.726444  1
  O  O15  1  0.171281  0.540778  0.726235  1
  O  O16  1  0.218730  0.199796  0.422640  1
  O  O17  1  0.182297  0.832658  0.432201  1
  O  O18  1  0.306343  0.821031  0.941154  1
  O  O19  1  0.291813  0.194553  0.924594  1
  O  O20  1  0.308713  0.535928  0.227943  1
  O  O21  1  0.346594  0.040027  0.224306  1
  O  O22  1  0.474830  0.525680  0.523704  1
  O  O23  1  0.542567  0.017974  0.470621  1
  O  O24  1  0.653539  0.510523  0.783278  1
  O  O25  1  0.679673  0.995222  0.782101  1
  O  O26  1  0.713924  0.703198  0.055909  1
  O  O27  1  0.671983  0.329106  0.071799  1
  O  O28  1  0.822992  0.327326  0.563490  1
  O  O29  1  0.807764  0.701702  0.581365  1
  O  O30  1  0.800877  0.031873  0.273220  1
  O  O31  1  0.876465  0.528065  0.270788  1
  O  O32  1  0.972680  0.010916  0.987319  1
