# generated using pymatgen
data_Al(Ag3S2)3
_symmetry_space_group_name_H-M   'P 1'
_cell_length_a   8.10259746
_cell_length_b   7.88157395
_cell_length_c   7.67634574
_cell_angle_alpha   60.09138280
_cell_angle_beta   60.28664763
_cell_angle_gamma   62.06029093
_symmetry_Int_Tables_number   1
_chemical_formula_structural   Al(Ag3S2)3
_chemical_formula_sum   'Al1 Ag9 S6'
_cell_volume   352.74259352
_cell_formula_units_Z   1
loop_
 _symmetry_equiv_pos_site_id
 _symmetry_equiv_pos_as_xyz
  1  'x, y, z'
loop_
 _atom_site_type_symbol
 _atom_site_label
 _atom_site_symmetry_multiplicity
 _atom_site_fract_x
 _atom_site_fract_y
 _atom_site_fract_z
 _atom_site_occupancy
  Al  Al0  1  0.501637  0.471791  0.503618  1
  Ag  Ag1  1  0.486932  0.022728  0.033782  1
  Ag  Ag2  1  0.041306  0.461187  0.485638  1
  Ag  Ag3  1  0.410513  0.059157  0.504816  1
  Ag  Ag4  1  0.497648  0.409402  0.039824  1
  Ag  Ag5  1  0.252827  0.775734  0.142436  1
  Ag  Ag6  1  0.149819  0.778789  0.817725  1
  Ag  Ag7  1  0.840867  0.149702  0.721567  1
  Ag  Ag8  1  0.784872  0.833853  0.272477  1
  Ag  Ag9  1  0.949172  0.412106  0.943946  1
  S  S10  1  0.224763  0.242218  0.255297  1
  S  S11  1  0.165989  0.618480  0.603315  1
  S  S12  1  0.601994  0.129467  0.624578  1
  S  S13  1  0.608574  0.611331  0.139348  1
  S  S14  1  0.628294  0.592391  0.614798  1
  S  S15  1  0.997092  0.043566  0.986134  1
