# generated using pymatgen
data_Fe2WC10(SeO5)2
_symmetry_space_group_name_H-M   'P 1'
_cell_length_a   7.16829365
_cell_length_b   9.62934893
_cell_length_c   14.18161609
_cell_angle_alpha   82.61209269
_cell_angle_beta   82.52416181
_cell_angle_gamma   86.23639912
_symmetry_Int_Tables_number   1
_chemical_formula_structural   Fe2WC10(SeO5)2
_chemical_formula_sum   'Fe4 W2 Se4 C20 O20'
_cell_volume   961.33046268
_cell_formula_units_Z   2
loop_
 _symmetry_equiv_pos_site_id
 _symmetry_equiv_pos_as_xyz
  1  'x, y, z'
loop_
 _atom_site_type_symbol
 _atom_site_label
 _atom_site_symmetry_multiplicity
 _atom_site_fract_x
 _atom_site_fract_y
 _atom_site_fract_z
 _atom_site_occupancy
  Fe  Fe0  1  0.285546  0.006082  0.273423  1
  Fe  Fe1  1  0.357045  0.326021  0.363693  1
  Fe  Fe2  1  0.714433  0.993905  0.726579  1
  Fe  Fe3  1  0.642963  0.673981  0.636332  1
  W  W4  1  0.605398  0.728818  0.831864  1
  W  W5  1  0.394625  0.271157  0.168112  1
  Se  Se6  1  0.109793  0.220664  0.302052  1
  C  C7  1  0.630210  0.387584  0.137446  1
  C  C8  1  0.430772  0.589454  0.626206  1
  C  C9  1  0.566603  0.155875  0.075327  1
  C  C10  1  0.433414  0.844113  0.924639  1
  Se  Se11  1  0.455622  0.873228  0.688364  1
  C  C12  1  0.907941  0.044797  0.783095  1
  C  C13  1  0.214247  0.487177  0.365328  1
  C  C14  1  0.718512  0.527632  0.860916  1
  C  C15  1  0.569254  0.410551  0.373814  1
  C  C16  1  0.281495  0.472353  0.139075  1
  Se  Se17  1  0.544371  0.126773  0.311632  1
  C  C18  1  0.780057  0.754380  0.932434  1
  C  C19  1  0.369826  0.612395  0.862540  1
  C  C20  1  0.554164  0.127824  0.774260  1
  C  C21  1  0.785746  0.512832  0.634692  1
  C  C22  1  0.304618  0.252403  0.484471  1
  C  C23  1  0.771336  0.079340  0.609417  1
  C  C24  1  0.695374  0.747590  0.515562  1
  C  C25  1  0.445821  0.872176  0.225742  1
  C  C26  1  0.092034  0.955226  0.216901  1
  Se  Se27  1  0.890221  0.779351  0.697949  1
  C  C28  1  0.219925  0.245617  0.067554  1
  C  C29  1  0.228634  0.920659  0.390591  1
  O  O30  1  0.221300  0.586043  0.120525  1
  O  O31  1  0.663778  0.094934  0.020952  1
  O  O32  1  0.294973  0.536109  0.617388  1
  O  O33  1  0.877409  0.409362  0.633276  1
  O  O34  1  0.237198  0.546258  0.879881  1
  O  O35  1  0.122570  0.590642  0.366747  1
  O  O36  1  0.034011  0.076043  0.817541  1
  O  O37  1  0.545417  0.783076  0.197567  1
  O  O38  1  0.965945  0.924002  0.182441  1
  O  O39  1  0.727653  0.797020  0.436605  1
  O  O40  1  0.336269  0.905064  0.978998  1
  O  O41  1  0.878986  0.768945  0.988475  1
  O  O42  1  0.272328  0.202977  0.563422  1
  O  O43  1  0.193900  0.866904  0.468348  1
  O  O44  1  0.454596  0.216924  0.802429  1
  O  O45  1  0.806075  0.133105  0.531674  1
  O  O46  1  0.120987  0.231070  0.011514  1
  O  O47  1  0.762852  0.453732  0.120106  1
  O  O48  1  0.705043  0.463905  0.382623  1
  O  O49  1  0.778708  0.413928  0.879477  1
