# generated using pymatgen
data_SmAlF5
_symmetry_space_group_name_H-M   'P 1'
_cell_length_a   9.41983417
_cell_length_b   9.59564429
_cell_length_c   9.18966891
_cell_angle_alpha   84.61779160
_cell_angle_beta   73.09513978
_cell_angle_gamma   70.72271588
_symmetry_Int_Tables_number   1
_chemical_formula_structural   SmAlF5
_chemical_formula_sum   'Sm8 Al8 F40'
_cell_volume   750.19261111
_cell_formula_units_Z   8
loop_
 _symmetry_equiv_pos_site_id
 _symmetry_equiv_pos_as_xyz
  1  'x, y, z'
loop_
 _atom_site_type_symbol
 _atom_site_label
 _atom_site_symmetry_multiplicity
 _atom_site_fract_x
 _atom_site_fract_y
 _atom_site_fract_z
 _atom_site_occupancy
  Sm  Sm0  1  -0.030052  0.686967  0.176879  1
  Sm  Sm1  1  0.404891  0.328302  0.238001  1
  Sm  Sm2  1  0.029772  0.894001  0.824026  1
  Sm  Sm3  1  0.424109  0.863091  0.293942  1
  Sm  Sm4  1  0.627615  0.144424  0.761120  1
  Sm  Sm5  1  0.880720  0.087417  0.227195  1
  Sm  Sm6  1  0.507400  0.763275  0.869462  1
  Sm  Sm7  1  0.935478  0.357153  0.858191  1
  Al  Al8  1  0.318637  0.069467  0.674752  1
  Al  Al9  1  0.035763  0.478968  0.485666  1
  Al  Al10  1  0.079921  0.150358  0.531500  1
  Al  Al11  1  0.288270  0.472361  0.903407  1
  Al  Al12  1  0.715497  0.900037  0.000904  1
  Al  Al13  1  0.524787  0.504483  0.543462  1
  Al  Al14  1  0.703279  0.520655  0.176515  1
  Al  Al15  1  0.846555  0.852779  0.510463  1
  F  F16  1  0.002952  0.171643  0.366425  1
  F  F17  1  0.368589  0.107168  0.227586  1
  F  F18  1  0.931127  0.347352  0.591655  1
  F  F19  1  -0.015897  0.463311  0.319720  1
  F  F20  1  0.216090  0.482066  0.112282  1
  F  F21  1  0.019078  0.846258  0.350988  1
  F  F22  1  0.430195  0.194262  0.633317  1
  F  F23  1  0.334539  0.834768  0.103275  1
  F  F24  1  0.192985  0.286774  0.437063  1
  F  F25  1  0.125808  0.648411  0.914230  1
  F  F26  1  0.193942  0.540990  0.383250  1
  F  F27  1  0.171276  0.365519  0.887850  1
  F  F28  1  0.432711  0.299886  0.947847  1
  F  F29  1  0.503421  0.564076  0.188849  1
  F  F30  1  0.630702  0.139527  0.230644  1
  F  F31  1  0.756023  0.331699  0.135495  1
  F  F32  1  0.447490  0.961073  0.509676  1
  F  F33  1  0.354397  0.494735  0.702052  1
  F  F34  1  0.413640  0.672399  0.469864  1
  F  F35  1  0.471027  0.389096  0.430111  1
  F  F36  1  0.696844  0.472634  0.372695  1
  F  F37  1  0.779671  0.053923  0.505100  1
  F  F38  1  0.412180  0.570629  0.927371  1
  F  F39  1  0.641590  0.343477  0.617203  1
  F  F40  1  0.686544  0.696916  0.241522  1
  F  F41  1  0.294577  0.867709  0.763690  1
  F  F42  1  0.584494  0.617018  0.648489  1
  F  F43  1  0.014078  0.147655  -0.011306  1
  F  F44  1  0.675684  0.870736  0.668251  1
  F  F45  1  0.732911  0.276322  0.875429  1
  F  F46  1  0.768473  0.879528  0.339072  1
  F  F47  1  0.905530  0.502435  0.078659  1
  F  F48  1  0.928514  0.093197  0.673042  1
  F  F49  1  0.711900  0.564294  0.941318  1
  F  F50  1  0.039080  0.507923  0.671909  1
  F  F51  1  0.878755  0.658884  0.494277  1
  F  F52  1  0.051187  0.888447  0.074734  1
  F  F53  1  0.407303  0.027825  0.837520  1
  F  F54  1  0.966623  0.812697  0.637355  1
  F  F55  1  0.184527  0.963900  0.465309  1
