# generated using pymatgen
data_Ca(H8O5)2
_symmetry_space_group_name_H-M   'P 1'
_cell_length_a   6.31750042
_cell_length_b   6.15805644
_cell_length_c   10.98226486
_cell_angle_alpha   91.20559583
_cell_angle_beta   90.38989761
_cell_angle_gamma   89.67280916
_symmetry_Int_Tables_number   1
_chemical_formula_structural   Ca(H8O5)2
_chemical_formula_sum   'Ca2 H32 O20'
_cell_volume   427.13771442
_cell_formula_units_Z   2
loop_
 _symmetry_equiv_pos_site_id
 _symmetry_equiv_pos_as_xyz
  1  'x, y, z'
loop_
 _atom_site_type_symbol
 _atom_site_label
 _atom_site_symmetry_multiplicity
 _atom_site_fract_x
 _atom_site_fract_y
 _atom_site_fract_z
 _atom_site_occupancy
  Ca  Ca0  1  0.004417  0.027192  0.257846  1
  Ca  Ca1  1  0.004033  0.990189  0.753865  1
  H  H2  1  0.287295  0.390273  0.357513  1
  H  H3  1  0.149424  0.307143  0.470024  1
  H  H4  1  0.741225  0.639139  0.347316  1
  H  H5  1  0.980158  0.574914  0.372744  1
  H  H6  1  0.615675  0.279535  0.353512  1
  H  H7  1  0.701021  0.137056  0.465413  1
  H  H8  1  0.384710  0.722792  0.346634  1
  H  H9  1  0.453732  0.967049  0.373823  1
  H  H10  1  0.968767  0.430414  0.871670  1
  H  H11  1  0.728554  0.364643  0.858252  1
  H  H12  1  0.267534  0.609654  0.854602  1
  H  H13  1  0.129192  0.692934  0.967139  1
  H  H14  1  0.291144  0.146184  0.960137  1
  H  H15  1  0.387978  0.270684  0.848003  1
  H  H16  1  0.613787  0.716830  0.861884  1
  H  H17  1  0.554919  0.967127  0.874514  1
  H  H18  1  0.725213  0.609156  0.654728  1
  H  H19  1  0.858407  0.699503  0.542291  1
  H  H20  1  0.277014  0.378124  0.648741  1
  H  H21  1  0.032994  0.435148  0.630581  1
  H  H22  1  0.306805  0.856347  0.540817  1
  H  H23  1  0.389941  0.723372  0.655413  1
  H  H24  1  0.622528  0.274165  0.650843  1
  H  H25  1  0.559846  0.027735  0.632930  1
  H  H26  1  0.030500  0.577743  0.135667  1
  H  H27  1  0.278165  0.610935  0.143450  1
  H  H28  1  0.719676  0.399217  0.149444  1
  H  H29  1  0.879830  0.309038  0.049446  1
  H  H30  1  0.589507  0.912922  0.165767  1
  H  H31  1  0.705702  0.874925  0.038873  1
  H  H32  1  0.378224  0.277488  0.153641  1
  H  H33  1  0.335695  -0.000092  0.109139  1
  O  O34  1  0.502103  0.492908  0.312699  1
  O  O35  1  0.502175  0.491840  0.822161  1
  O  O36  1  0.504220  0.496639  0.686311  1
  O  O37  1  0.479715  0.456173  0.178506  1
  O  O38  1  0.141227  0.333319  0.380279  1
  O  O39  1  0.877802  0.698966  0.380402  1
  O  O40  1  0.680204  0.131301  0.375186  1
  O  O41  1  0.326309  0.871071  0.372468  1
  O  O42  1  0.873132  0.302900  0.878865  1
  O  O43  1  0.123047  0.670358  0.876270  1
  O  O44  1  0.322795  0.125660  0.871223  1
  O  O45  1  0.676887  0.864690  0.884781  1
  O  O46  1  0.868753  0.671274  0.631160  1
  O  O47  1  0.135176  0.311046  0.625697  1
  O  O48  1  0.324052  0.867725  0.630692  1
  O  O49  1  0.684670  0.125684  0.627122  1
  O  O50  1  0.141623  0.692220  0.124212  1
  O  O51  1  0.873648  0.353122  0.136851  1
  O  O52  1  0.727080  0.888613  0.129575  1
  O  O53  1  0.268016  0.140939  0.113964  1
