# generated using pymatgen
data_NaHO
_symmetry_space_group_name_H-M   'P 1'
_cell_length_a   3.19396511
_cell_length_b   5.93288574
_cell_length_c   6.28123547
_cell_angle_alpha   89.96197765
_cell_angle_beta   90.10325009
_cell_angle_gamma   90.00439189
_symmetry_Int_Tables_number   1
_chemical_formula_structural   NaHO
_chemical_formula_sum   'Na4 H4 O4'
_cell_volume   119.02561246
_cell_formula_units_Z   4
loop_
 _symmetry_equiv_pos_site_id
 _symmetry_equiv_pos_as_xyz
  1  'x, y, z'
loop_
 _atom_site_type_symbol
 _atom_site_label
 _atom_site_symmetry_multiplicity
 _atom_site_fract_x
 _atom_site_fract_y
 _atom_site_fract_z
 _atom_site_occupancy
  Na  Na0  1  0.361540  0.250772  0.498805  1
  Na  Na1  1  0.637224  0.750562  0.999127  1
  Na  Na2  1  0.639338  0.749462  0.499152  1
  Na  Na3  1  0.361951  0.249272  0.998830  1
  H  H4  1  0.051426  0.535893  0.752750  1
  H  H5  1  0.948568  0.464060  0.246164  1
  H  H6  1  0.051529  0.964046  0.247203  1
  H  H7  1  0.948444  0.035927  0.746844  1
  O  O8  1  0.794009  0.444997  0.750759  1
  O  O9  1  0.205928  0.555014  0.248015  1
  O  O10  1  0.793926  0.055042  0.248907  1
  O  O11  1  0.206118  0.944953  0.748678  1
