# generated using pymatgen
data_Ti10O11
_symmetry_space_group_name_H-M   'P 1'
_cell_length_a   32.78106553
_cell_length_b   22.46350389
_cell_length_c   10.42604457
_cell_angle_alpha   29.14859579
_cell_angle_beta   30.50524418
_cell_angle_gamma   6.56425015
_symmetry_Int_Tables_number   1
_chemical_formula_structural   Ti10O11
_chemical_formula_sum   'Ti20 O22'
_cell_volume   424.96117705
_cell_formula_units_Z   2
loop_
 _symmetry_equiv_pos_site_id
 _symmetry_equiv_pos_as_xyz
  1  'x, y, z'
loop_
 _atom_site_type_symbol
 _atom_site_label
 _atom_site_symmetry_multiplicity
 _atom_site_fract_x
 _atom_site_fract_y
 _atom_site_fract_z
 _atom_site_occupancy
  Ti  Ti0  1  0.090877  0.000030  0.000033  1
  Ti  Ti1  1  0.090876  0.000086  0.499992  1
  Ti  Ti2  1  0.281477  0.992665  0.997912  1
  Ti  Ti3  1  0.165736  0.015237  0.505229  1
  Ti  Ti4  1  0.335731  0.035005  0.992570  1
  Ti  Ti5  1  0.269647  0.013226  0.504315  1
  Ti  Ti6  1  0.470676  0.981801  0.008186  1
  Ti  Ti7  1  0.331332  0.042801  0.496532  1
  Ti  Ti8  1  0.512214  0.047969  0.985835  1
  Ti  Ti9  1  0.492734  0.939172  0.526959  1
  Ti  Ti10  1  0.669614  0.952042  0.014104  1
  Ti  Ti11  1  0.523974  0.035758  0.493075  1
  Ti  Ti12  1  0.711240  0.018053  0.991805  1
  Ti  Ti13  1  0.657820  0.964283  0.506902  1
  Ti  Ti14  1  0.846021  0.965063  0.007508  1
  Ti  Ti15  1  0.689228  0.060631  0.472965  1
  Ti  Ti16  1  0.900367  0.007273  0.002152  1
  Ti  Ti17  1  0.850527  0.957135  0.503485  1
  Ti  Ti18  1  0.912250  0.986662  0.495698  1
  Ti  Ti19  1  0.015833  0.985117  0.494746  1
  O  O20  1  0.007775  0.568161  0.210720  1
  O  O21  1  0.167424  0.445900  0.283533  1
  O  O22  1  0.014510  0.553938  0.716450  1
  O  O23  1  0.238869  0.481051  0.245942  1
  O  O24  1  0.174087  0.431782  0.789241  1
  O  O25  1  0.313452  0.512018  0.241960  1
  O  O26  1  0.195536  0.558306  0.712942  1
  O  O27  1  0.404483  0.508418  0.234597  1
  O  O28  1  0.337816  0.467547  0.768597  1
  O  O29  1  0.518297  0.473770  0.261240  1
  O  O30  1  0.404074  0.504704  0.747215  1
  O  O31  1  0.593326  0.496259  0.246484  1
  O  O32  1  0.507285  0.490463  0.750437  1
  O  O33  1  0.674480  0.509591  0.249590  1
  O  O34  1  0.588428  0.503794  0.753630  1
  O  O35  1  0.777797  0.495233  0.252791  1
  O  O36  1  0.663553  0.526159  0.738823  1
  O  O37  1  0.843919  0.532645  0.231232  1
  O  O38  1  0.777249  0.491692  0.765415  1
  O  O39  1  0.986262  0.441718  0.287095  1
  O  O40  1  0.868418  0.487917  0.758007  1
  O  O41  1  0.942966  0.518927  0.754057  1
