# generated using pymatgen
data_V2CoH4C4(NO3)2
_symmetry_space_group_name_H-M   'P 1'
_cell_length_a   7.63864384
_cell_length_b   10.50623321
_cell_length_c   11.69994004
_cell_angle_alpha   90.00000000
_cell_angle_beta   90.00000000
_cell_angle_gamma   90.00000000
_symmetry_Int_Tables_number   1
_chemical_formula_structural   V2CoH4C4(NO3)2
_chemical_formula_sum   'V8 Co4 H16 C16 N8 O24'
_cell_volume   938.95965902
_cell_formula_units_Z   4
loop_
 _symmetry_equiv_pos_site_id
 _symmetry_equiv_pos_as_xyz
  1  'x, y, z'
loop_
 _atom_site_type_symbol
 _atom_site_label
 _atom_site_symmetry_multiplicity
 _atom_site_fract_x
 _atom_site_fract_y
 _atom_site_fract_z
 _atom_site_occupancy
  V  V0  1  0.404232  0.772071  0.352159  1
  V  V1  1  0.095768  0.727929  0.852159  1
  V  V2  1  0.095768  0.772071  0.147841  1
  V  V3  1  0.904232  0.227929  0.852159  1
  V  V4  1  0.404232  0.727929  0.647841  1
  V  V5  1  0.904232  0.272071  0.147841  1
  V  V6  1  0.595768  0.227929  0.647841  1
  V  V7  1  0.595768  0.272071  0.352159  1
  Co  Co8  1  0.750000  0.567117  0.250000  1
  Co  Co9  1  0.750000  0.932883  0.750000  1
  Co  Co10  1  0.250000  0.067117  0.250000  1
  Co  Co11  1  0.250000  0.432883  0.750000  1
  H  H12  1  0.281612  0.106766  0.509287  1
  H  H13  1  0.373804  0.466263  0.187844  1
  H  H14  1  0.781612  0.606766  0.990713  1
  H  H15  1  0.126196  0.466263  0.312156  1
  H  H16  1  0.626196  0.533736  0.812156  1
  H  H17  1  0.373804  0.033737  0.812156  1
  H  H18  1  0.873804  0.966264  0.312156  1
  H  H19  1  0.281612  0.393234  0.490713  1
  H  H20  1  0.626196  0.966264  0.187844  1
  H  H21  1  0.218388  0.106766  0.990713  1
  H  H22  1  0.873804  0.533736  0.687844  1
  H  H23  1  0.718388  0.893234  0.490713  1
  H  H24  1  0.218388  0.393234  0.009287  1
  H  H25  1  0.126196  0.033737  0.687844  1
  H  H26  1  0.781612  0.893234  0.009287  1
  H  H27  1  0.718388  0.606766  0.509287  1
  C  C28  1  0.655273  0.940851  0.005124  1
  C  C29  1  0.429824  0.482028  0.103678  1
  C  C30  1  0.344727  0.059149  0.994876  1
  C  C31  1  0.570176  0.517972  0.896322  1
  C  C32  1  0.429824  0.017972  0.896322  1
  C  C33  1  0.344727  0.440851  0.005124  1
  C  C34  1  0.155273  0.440851  0.494876  1
  C  C35  1  0.655273  0.559149  0.994876  1
  C  C36  1  0.070176  0.482028  0.396322  1
  C  C37  1  0.929824  0.517972  0.603678  1
  C  C38  1  0.570176  0.982028  0.103678  1
  C  C39  1  0.929824  0.982028  0.396322  1
  C  C40  1  0.070176  0.017972  0.603678  1
  C  C41  1  0.844727  0.559149  0.505124  1
  C  C42  1  0.155273  0.059149  0.505124  1
  C  C43  1  0.844727  0.940851  0.494876  1
  N  N44  1  0.414278  0.458786  0.901029  1
  N  N45  1  0.085722  0.041214  0.401029  1
  N  N46  1  0.914278  0.541214  0.401029  1
  N  N47  1  0.585722  0.958786  0.901029  1
  N  N48  1  0.585722  0.541214  0.098971  1
  N  N49  1  0.414278  0.041214  0.098971  1
  N  N50  1  0.914278  0.958786  0.598971  1
  N  N51  1  0.085722  0.458786  0.598971  1
  O  O52  1  0.910901  0.429729  0.174163  1
  O  O53  1  0.250000  0.704999  0.250000  1
  O  O54  1  0.750000  0.295001  0.750000  1
  O  O55  1  0.603111  0.792645  0.670692  1
  O  O56  1  0.664260  0.250000  0.500000  1
  O  O57  1  0.164260  0.750000  0.000000  1
  O  O58  1  0.410901  0.929729  0.325837  1
  O  O59  1  0.835740  0.250000  0.000000  1
  O  O60  1  0.603111  0.707355  0.329308  1
  O  O61  1  0.250000  0.795001  0.750000  1
  O  O62  1  0.396889  0.292645  0.670692  1
  O  O63  1  0.589099  0.429729  0.325837  1
  O  O64  1  0.410901  0.570271  0.674163  1
  O  O65  1  0.896889  0.707355  0.170692  1
  O  O66  1  0.089099  0.929729  0.174163  1
  O  O67  1  0.396889  0.207355  0.329308  1
  O  O68  1  0.910901  0.070271  0.825837  1
  O  O69  1  0.103111  0.292645  0.829308  1
  O  O70  1  0.750000  0.204999  0.250000  1
  O  O71  1  0.896889  0.792645  0.829308  1
  O  O72  1  0.089099  0.570271  0.825837  1
  O  O73  1  0.589099  0.070271  0.674163  1
  O  O74  1  0.103111  0.207355  0.170692  1
  O  O75  1  0.335740  0.750000  0.500000  1
