# generated using pymatgen
data_LiNd(PO3)4
_symmetry_space_group_name_H-M   'P 1'
_cell_length_a   7.17597993
_cell_length_b   9.20632984
_cell_length_c   9.21748931
_cell_angle_alpha   67.32582674
_cell_angle_beta   67.09160468
_cell_angle_gamma   67.06225221
_symmetry_Int_Tables_number   1
_chemical_formula_structural   LiNd(PO3)4
_chemical_formula_sum   'Li2 Nd2 P8 O24'
_cell_volume   496.56257167
_cell_formula_units_Z   2
loop_
 _symmetry_equiv_pos_site_id
 _symmetry_equiv_pos_as_xyz
  1  'x, y, z'
loop_
 _atom_site_type_symbol
 _atom_site_label
 _atom_site_symmetry_multiplicity
 _atom_site_fract_x
 _atom_site_fract_y
 _atom_site_fract_z
 _atom_site_occupancy
  Li  Li0  1  0.000000  0.000000  0.000000  1
  Li  Li1  1  0.000000  0.500000  0.500000  1
  O  O2  1  0.000499  0.797977  0.965038  1
  O  O3  1  0.763514  0.702023  0.534962  1
  O  O4  1  0.999501  0.202023  0.034962  1
  O  O5  1  0.236486  0.297977  0.465038  1
  O  O6  1  0.002013  0.075271  0.765108  1
  O  O7  1  0.842392  0.424729  0.734892  1
  O  O8  1  0.997987  0.924729  0.234892  1
  O  O9  1  0.157608  0.575271  0.265108  1
  O  O10  1  0.778126  0.915658  0.764434  1
  O  O11  1  0.458218  0.584342  0.735566  1
  O  O12  1  0.438272  0.705354  0.436164  1
  O  O13  1  0.579790  0.794646  0.063836  1
  O  O14  1  0.561728  0.294646  0.563836  1
  O  O15  1  0.420210  0.205354  0.936164  1
  O  O16  1  0.348979  0.331848  0.151925  1
  O  O17  1  0.832752  0.168152  0.348075  1
  O  O18  1  0.651021  0.668152  0.848075  1
  O  O19  1  0.167248  0.831848  0.651925  1
  O  O20  1  0.608695  0.045350  0.165325  1
  O  O21  1  0.819370  0.454650  0.334675  1
  O  O22  1  0.391305  0.954650  0.834675  1
  O  O23  1  0.180630  0.545350  0.665325  1
  O  O24  1  0.541782  0.415658  0.264434  1
  O  O25  1  0.221874  0.084342  0.235566  1
  P  P26  1  0.989243  0.906623  0.794030  1
  P  P27  1  0.689896  0.593377  0.705970  1
  P  P28  1  0.010757  0.093377  0.205970  1
  P  P29  1  0.310104  0.406623  0.294030  1
  P  P30  1  0.312768  0.659955  0.611156  1
  P  P31  1  0.583879  0.840045  0.888844  1
  P  P32  1  0.687232  0.340045  0.388844  1
  P  P33  1  0.416121  0.159955  0.111156  1
  Nd  Nd34  1  0.228033  0.250000  0.750000  1
  Nd  Nd35  1  0.771967  0.750000  0.250000  1
