# generated using pymatgen
data_VHO3
_symmetry_space_group_name_H-M   'P 1'
_cell_length_a   6.09373427
_cell_length_b   6.13618391
_cell_length_c   13.14990055
_cell_angle_alpha   94.40898153
_cell_angle_beta   89.48062770
_cell_angle_gamma   144.61480309
_symmetry_Int_Tables_number   1
_chemical_formula_structural   VHO3
_chemical_formula_sum   'V4 H4 O12'
_cell_volume   282.66261852
_cell_formula_units_Z   4
loop_
 _symmetry_equiv_pos_site_id
 _symmetry_equiv_pos_as_xyz
  1  'x, y, z'
loop_
 _atom_site_type_symbol
 _atom_site_label
 _atom_site_symmetry_multiplicity
 _atom_site_fract_x
 _atom_site_fract_y
 _atom_site_fract_z
 _atom_site_occupancy
  V  V0  1  0.107278  0.969236  0.858943  1
  V  V1  1  0.886654  0.055954  0.154854  1
  V  V2  1  0.825324  0.263453  0.840003  1
  V  V3  1  0.166427  0.746575  0.153506  1
  H  H4  1  0.399667  0.859738  0.969295  1
  H  H5  1  0.969911  0.220508  0.349676  1
  H  H6  1  0.435106  0.384416  0.477424  1
  H  H7  1  0.608590  0.413300  0.575212  1
  O  O8  1  0.663132  0.437354  0.881884  1
  O  O9  1  0.338185  0.572809  0.121771  1
  O  O10  1  0.980502  0.125993  0.905825  1
  O  O11  1  0.022577  0.882135  0.104146  1
  O  O12  1  0.316468  0.812462  0.896647  1
  O  O13  1  0.696179  0.193078  0.116506  1
  O  O14  1  0.056624  0.921816  0.735317  1
  O  O15  1  0.936887  0.090536  0.287730  1
  O  O16  1  0.811888  0.211249  0.717520  1
  O  O17  1  0.195900  0.805094  0.276687  1
  O  O18  1  0.372820  0.607590  0.495268  1
  O  O19  1  0.628729  0.434324  0.501388  1
