# generated using pymatgen
data_Cu13I15
_symmetry_space_group_name_H-M   'P 1'
_cell_length_a   4.23802753
_cell_length_b   4.23802751
_cell_length_c   64.05958052
_cell_angle_alpha   60.53900852
_cell_angle_beta   60.53900867
_cell_angle_gamma   60.23671116
_symmetry_Int_Tables_number   1
_chemical_formula_structural   Cu13I15
_chemical_formula_sum   'Cu13 I15'
_cell_volume   821.61925727
_cell_formula_units_Z   1
loop_
 _symmetry_equiv_pos_site_id
 _symmetry_equiv_pos_as_xyz
  1  'x, y, z'
loop_
 _atom_site_type_symbol
 _atom_site_label
 _atom_site_symmetry_multiplicity
 _atom_site_fract_x
 _atom_site_fract_y
 _atom_site_fract_z
 _atom_site_occupancy
  Cu  Cu0  1  0.260344  0.260344  0.081394  1
  Cu  Cu1  1  0.263063  0.263063  0.152176  1
  Cu  Cu2  1  0.273409  0.273409  0.283249  1
  Cu  Cu3  1  0.267678  0.267678  0.351334  1
  Cu  Cu4  1  0.267827  0.267827  0.418136  1
  Cu  Cu5  1  0.268235  0.268235  0.484806  1
  Cu  Cu6  1  0.267722  0.267722  0.551505  1
  Cu  Cu7  1  0.267905  0.267905  0.618205  1
  Cu  Cu8  1  0.267653  0.267653  0.684859  1
  Cu  Cu9  1  0.267957  0.267957  0.751483  1
  Cu  Cu10  1  0.268677  0.268677  0.818057  1
  Cu  Cu11  1  0.267260  0.267260  0.884918  1
  Cu  Cu12  1  0.260299  0.260299  0.953216  1
  I  I13  1  0.007479  0.007479  0.999805  1
  I  I14  1  0.009308  0.009308  0.064729  1
  I  I15  1  0.024169  0.024169  0.131856  1
  I  I16  1  0.016225  0.016225  0.267627  1
  I  I17  1  0.013349  0.013349  0.198974  1
  I  I18  1  0.016271  0.016271  0.334532  1
  I  I19  1  0.017555  0.017555  0.534305  1
  I  I20  1  0.017869  0.017869  0.600941  1
  I  I21  1  0.016621  0.016621  0.401201  1
  I  I22  1  0.017536  0.017536  0.467721  1
  I  I23  1  0.017675  0.017675  0.667582  1
  I  I24  1  0.018116  0.018116  0.734173  1
  I  I25  1  0.019282  0.019282  0.867156  1
  I  I26  1  0.018867  0.018867  0.800705  1
  I  I27  1  0.019651  0.019651  0.933621  1
