# generated using pymatgen
data_KNOF2
_symmetry_space_group_name_H-M   'P 1'
_cell_length_a   5.92537020
_cell_length_b   6.63946598
_cell_length_c   8.58924433
_cell_angle_alpha   90.00000000
_cell_angle_beta   90.00000000
_cell_angle_gamma   90.00000000
_symmetry_Int_Tables_number   1
_chemical_formula_structural   KNOF2
_chemical_formula_sum   'K4 N4 O4 F8'
_cell_volume   337.91198524
_cell_formula_units_Z   4
loop_
 _symmetry_equiv_pos_site_id
 _symmetry_equiv_pos_as_xyz
  1  'x, y, z'
loop_
 _atom_site_type_symbol
 _atom_site_label
 _atom_site_symmetry_multiplicity
 _atom_site_fract_x
 _atom_site_fract_y
 _atom_site_fract_z
 _atom_site_occupancy
  K  K0  1  0.750000  0.809250  0.596353  1
  K  K1  1  0.750000  0.309250  0.903647  1
  K  K2  1  0.250000  0.690750  0.096353  1
  K  K3  1  0.250000  0.190750  0.403647  1
  N  N4  1  0.250000  0.025493  0.784155  1
  N  N5  1  0.750000  0.974507  0.215845  1
  N  N6  1  0.250000  0.525493  0.715845  1
  N  N7  1  0.750000  0.474507  0.284155  1
  O  O8  1  0.250000  0.611790  0.599159  1
  O  O9  1  0.750000  0.388210  0.400841  1
  O  O10  1  0.750000  0.888210  0.099159  1
  O  O11  1  0.250000  0.111790  0.900841  1
  F  F12  1  0.491150  0.628457  0.830998  1
  F  F13  1  0.991150  0.371543  0.169002  1
  F  F14  1  0.008850  0.628457  0.830998  1
  F  F15  1  0.991150  0.871543  0.330998  1
  F  F16  1  0.491150  0.128457  0.669002  1
  F  F17  1  0.508850  0.871543  0.330998  1
  F  F18  1  0.008850  0.128457  0.669002  1
  F  F19  1  0.508850  0.371543  0.169002  1
