# generated using pymatgen
data_H6C2NO
_symmetry_space_group_name_H-M   'P 1'
_cell_length_a   5.55398929
_cell_length_b   7.33280282
_cell_length_c   8.47014121
_cell_angle_alpha   90.00001341
_cell_angle_beta   89.99994704
_cell_angle_gamma   90.00000000
_symmetry_Int_Tables_number   1
_chemical_formula_structural   H6C2NO
_chemical_formula_sum   'H24 C8 N4 O4'
_cell_volume   344.95758250
_cell_formula_units_Z   4
loop_
 _symmetry_equiv_pos_site_id
 _symmetry_equiv_pos_as_xyz
  1  'x, y, z'
loop_
 _atom_site_type_symbol
 _atom_site_label
 _atom_site_symmetry_multiplicity
 _atom_site_fract_x
 _atom_site_fract_y
 _atom_site_fract_z
 _atom_site_occupancy
  H  H0  1  0.042221  0.250000  0.997979  1
  H  H1  1  0.273287  0.372255  0.893270  1
  H  H2  1  0.270561  0.911829  0.144465  1
  H  H3  1  0.957690  0.538120  0.750000  1
  H  H4  1  0.957689  0.961880  0.750000  1
  H  H5  1  0.726713  0.872255  0.393270  1
  H  H6  1  0.270561  0.911829  0.355535  1
  H  H7  1  0.726713  0.627745  0.393270  1
  H  H8  1  0.957779  0.750000  0.002021  1
  H  H9  1  0.726713  0.872255  0.106730  1
  H  H10  1  0.729439  0.088171  0.644465  1
  H  H11  1  0.729439  0.088171  0.855535  1
  H  H12  1  0.270561  0.588171  0.144465  1
  H  H13  1  0.273287  0.127745  0.893270  1
  H  H14  1  0.729439  0.411829  0.855535  1
  H  H15  1  0.726713  0.627745  0.106730  1
  H  H16  1  0.270561  0.588171  0.355535  1
  H  H17  1  0.042311  0.461880  0.250000  1
  H  H18  1  0.273287  0.372255  0.606730  1
  H  H19  1  0.042222  0.250000  0.502021  1
  H  H20  1  0.273287  0.127745  0.606730  1
  H  H21  1  0.729439  0.411829  0.644465  1
  H  H22  1  0.957779  0.750000  0.497979  1
  H  H23  1  0.042311  0.038120  0.250000  1
  C  C24  1  0.843274  0.416252  0.750000  1
  C  C25  1  0.840379  0.750000  0.105584  1
  C  C26  1  0.159621  0.250000  0.605584  1
  C  C27  1  0.840379  0.750000  0.394417  1
  C  C28  1  0.156726  0.916252  0.250000  1
  C  C29  1  0.156726  0.583748  0.250000  1
  C  C30  1  0.159621  0.250000  0.894417  1
  C  C31  1  0.843274  0.083748  0.750000  1
  N  N32  1  0.460648  0.750000  0.749999  1
  N  N33  1  0.997411  0.750000  0.250000  1
  N  N34  1  0.002589  0.250000  0.750000  1
  N  N35  1  0.539351  0.250000  0.249999  1
  O  O36  1  0.339605  0.750000  0.622747  1
  O  O37  1  0.660394  0.250000  0.122747  1
  O  O38  1  0.660393  0.250000  0.377253  1
  O  O39  1  0.339607  0.750000  0.877252  1
