# generated using pymatgen
data_K5Eu2Si4O13F
_symmetry_space_group_name_H-M   'P 1'
_cell_length_a   5.92493710
_cell_length_b   7.31588659
_cell_length_c   18.49841423
_cell_angle_alpha   92.20642312
_cell_angle_beta   90.00000000
_cell_angle_gamma   90.00000000
_symmetry_Int_Tables_number   1
_chemical_formula_structural   K5Eu2Si4O13F
_chemical_formula_sum   'K10 Eu4 Si8 O26 F2'
_cell_volume   801.24089283
_cell_formula_units_Z   2
loop_
 _symmetry_equiv_pos_site_id
 _symmetry_equiv_pos_as_xyz
  1  'x, y, z'
loop_
 _atom_site_type_symbol
 _atom_site_label
 _atom_site_symmetry_multiplicity
 _atom_site_fract_x
 _atom_site_fract_y
 _atom_site_fract_z
 _atom_site_occupancy
  Eu  Eu0  1  0.750000  0.401349  0.630035  1
  Eu  Eu1  1  0.250000  0.333743  0.110678  1
  Eu  Eu2  1  0.750000  0.666257  0.889322  1
  Eu  Eu3  1  0.250000  0.598651  0.369965  1
  K  K4  1  0.250000  0.523108  0.750135  1
  K  K5  1  0.750000  0.476892  0.249865  1
  K  K6  1  0.750000  0.205789  0.813426  1
  K  K7  1  0.250000  0.794211  0.186574  1
  K  K8  1  0.250000  0.808807  0.996951  1
  K  K9  1  0.250000  0.255132  0.509171  1
  K  K10  1  0.750000  0.744868  0.490829  1
  K  K11  1  0.750000  0.865815  0.694810  1
  K  K12  1  0.750000  0.191193  0.003049  1
  K  K13  1  0.250000  0.134185  0.305190  1
  Si  Si14  1  0.750000  0.670972  0.084304  1
  Si  Si15  1  0.250000  0.716165  0.576912  1
  Si  Si16  1  0.250000  0.079715  0.669627  1
  Si  Si17  1  0.750000  0.920285  0.330373  1
  Si  Si18  1  0.750000  0.039680  0.173993  1
  Si  Si19  1  0.250000  0.960320  0.826007  1
  Si  Si20  1  0.750000  0.283835  0.423088  1
  Si  Si21  1  0.250000  0.329028  0.915696  1
  O  O22  1  0.979294  0.370172  0.388608  1
  O  O23  1  0.250000  0.945186  0.594555  1
  O  O24  1  0.479294  0.629828  0.611392  1
  O  O25  1  0.750000  0.306962  0.511664  1
  O  O26  1  0.018149  0.874782  0.855724  1
  O  O27  1  0.979525  0.799273  0.326692  1
  O  O28  1  0.250000  0.215748  0.990454  1
  O  O29  1  0.481851  0.874782  0.855724  1
  O  O30  1  0.750000  0.069632  0.264198  1
  O  O31  1  0.981851  0.125218  0.144276  1
  O  O32  1  0.250000  0.693038  0.488336  1
  O  O33  1  0.250000  0.930368  0.735802  1
  O  O34  1  0.518149  0.125218  0.144276  1
  O  O35  1  0.020475  0.200727  0.673308  1
  O  O36  1  0.520475  0.799273  0.326692  1
  O  O37  1  0.480887  0.447263  0.906281  1
  O  O38  1  0.479525  0.200727  0.673308  1
  O  O39  1  0.520706  0.370172  0.388608  1
  O  O40  1  0.750000  0.784252  0.009546  1
  O  O41  1  0.250000  0.184705  0.841908  1
  O  O42  1  0.019113  0.447263  0.906281  1
  O  O43  1  0.020706  0.629828  0.611392  1
  O  O44  1  0.750000  0.815295  0.158092  1
  O  O45  1  0.519113  0.552737  0.093719  1
  O  O46  1  0.980887  0.552737  0.093719  1
  O  O47  1  0.750000  0.054814  0.405445  1
  F  F48  1  0.750000  0.540157  0.758018  1
  F  F49  1  0.250000  0.459843  0.241982  1
