# generated using pymatgen
data_KRb5Zn4Sn5S17
_symmetry_space_group_name_H-M   'P 1'
_cell_length_a   10.07400823
_cell_length_b   11.18445627
_cell_length_c   11.19081523
_cell_angle_alpha   78.24625340
_cell_angle_beta   62.97289594
_cell_angle_gamma   63.12329709
_symmetry_Int_Tables_number   1
_chemical_formula_structural   KRb5Zn4Sn5S17
_chemical_formula_sum   'K1 Rb5 Zn4 Sn5 S17'
_cell_volume   1001.86645463
_cell_formula_units_Z   1
loop_
 _symmetry_equiv_pos_site_id
 _symmetry_equiv_pos_as_xyz
  1  'x, y, z'
loop_
 _atom_site_type_symbol
 _atom_site_label
 _atom_site_symmetry_multiplicity
 _atom_site_fract_x
 _atom_site_fract_y
 _atom_site_fract_z
 _atom_site_occupancy
  K  K0  1  0.749470  0.500963  0.500461  1
  Rb  Rb1  1  0.007309  0.509454  0.983743  1
  Rb  Rb2  1  0.007053  0.983768  0.502122  1
  Rb  Rb3  1  0.493652  0.012975  0.500150  1
  Rb  Rb4  1  0.488090  0.504684  0.014198  1
  Rb  Rb5  1  0.944078  0.135585  0.040855  1
  Zn  Zn6  1  0.117574  0.638314  0.361406  1
  Zn  Zn7  1  0.117397  0.362192  0.636542  1
  Zn  Zn8  1  0.243890  0.639152  0.638720  1
  Zn  Zn9  1  0.518362  0.363459  0.364266  1
  Sn  Sn10  1  0.503311  0.996746  0.998186  1
  Sn  Sn11  1  0.250649  0.278782  0.277990  1
  Sn  Sn12  1  0.469400  0.278627  0.723592  1
  Sn  Sn13  1  0.469202  0.722481  0.277912  1
  Sn  Sn14  1  0.810624  0.720703  0.721667  1
  S  S15  1  0.222167  0.143116  0.144439  1
  S  S16  1  0.109914  0.224674  0.506516  1
  S  S17  1  0.109215  0.506890  0.225211  1
  S  S18  1  0.244031  0.220852  0.778129  1
  S  S19  1  0.245225  0.778506  0.220168  1
  S  S20  1  0.248594  0.501146  0.500722  1
  S  S21  1  0.534264  0.221562  0.221855  1
  S  S22  1  0.383905  0.507501  0.774199  1
  S  S23  1  0.385698  0.772917  0.506722  1
  S  S24  1  0.664359  0.225672  0.493506  1
  S  S25  1  0.666599  0.491462  0.225281  1
  S  S26  1  0.634105  0.855180  0.145419  1
  S  S27  1  0.634157  0.145000  0.855793  1
  S  S28  1  0.511970  0.853842  0.853954  1
  S  S29  1  0.841689  0.772406  0.493488  1
  S  S30  1  0.841975  0.491510  0.774979  1
  S  S31  1  0.975373  0.779879  0.779810  1
