# generated using pymatgen
data_Ta5AuS
_symmetry_space_group_name_H-M   'P 1'
_cell_length_a   8.92393488
_cell_length_b   8.92393578
_cell_length_c   8.92391735
_cell_angle_alpha   59.99966442
_cell_angle_beta   59.99990483
_cell_angle_gamma   59.99975903
_symmetry_Int_Tables_number   1
_chemical_formula_structural   Ta5AuS
_chemical_formula_sum   'Ta20 Au4 S4'
_cell_volume   502.51747098
_cell_formula_units_Z   4
loop_
 _symmetry_equiv_pos_site_id
 _symmetry_equiv_pos_as_xyz
  1  'x, y, z'
loop_
 _atom_site_type_symbol
 _atom_site_label
 _atom_site_symmetry_multiplicity
 _atom_site_fract_x
 _atom_site_fract_y
 _atom_site_fract_z
 _atom_site_occupancy
  Ta  Ta0  1  0.552192  0.552198  0.947806  1
  Ta  Ta1  1  0.777230  0.777226  0.222769  1
  Ta  Ta2  1  0.581957  0.581956  0.254132  1
  Ta  Ta3  1  0.552190  0.947805  0.947805  1
  Ta  Ta4  1  0.368025  0.368022  0.895933  1
  Ta  Ta5  1  0.777230  0.222769  0.777229  1
  Ta  Ta6  1  0.947807  0.552191  0.947807  1
  Ta  Ta7  1  0.581956  0.581956  0.581958  1
  Ta  Ta8  1  0.777232  0.222773  0.222768  1
  Ta  Ta9  1  0.895934  0.368021  0.368025  1
  Ta  Ta10  1  0.254133  0.581957  0.581956  1
  Ta  Ta11  1  0.368025  0.368020  0.368024  1
  Ta  Ta12  1  0.581958  0.254130  0.581956  1
  Ta  Ta13  1  0.947806  0.947805  0.552191  1
  Ta  Ta14  1  0.222769  0.222771  0.777232  1
  Ta  Ta15  1  0.222770  0.777229  0.222773  1
  Ta  Ta16  1  0.947805  0.552196  0.552193  1
  Ta  Ta17  1  0.552195  0.947805  0.552198  1
  Ta  Ta18  1  0.368026  0.895933  0.368022  1
  Ta  Ta19  1  0.222769  0.777228  0.777231  1
  Au  Au20  1  0.149717  0.550856  0.149716  1
  Au  Au21  1  0.550859  0.149713  0.149716  1
  Au  Au22  1  0.149717  0.149712  0.550860  1
  Au  Au23  1  0.149716  0.149714  0.149713  1
  S  S24  1  0.880924  0.880929  0.357217  1
  S  S25  1  0.880921  0.880926  0.880921  1
  S  S26  1  0.880924  0.357228  0.880921  1
  S  S27  1  0.357214  0.880929  0.880926  1
