# generated using pymatgen
data_AgAsS6N4(OF3)2
_symmetry_space_group_name_H-M   'P 1'
_cell_length_a   9.30317443
_cell_length_b   10.44350397
_cell_length_c   15.13609151
_cell_angle_alpha   90.00000000
_cell_angle_beta   90.00000000
_cell_angle_gamma   90.00000000
_symmetry_Int_Tables_number   1
_chemical_formula_structural   AgAsS6N4(OF3)2
_chemical_formula_sum   'Ag4 As4 S24 N16 O8 F24'
_cell_volume   1470.58842982
_cell_formula_units_Z   4
loop_
 _symmetry_equiv_pos_site_id
 _symmetry_equiv_pos_as_xyz
  1  'x, y, z'
loop_
 _atom_site_type_symbol
 _atom_site_label
 _atom_site_symmetry_multiplicity
 _atom_site_fract_x
 _atom_site_fract_y
 _atom_site_fract_z
 _atom_site_occupancy
  Ag  Ag0  1  0.250000  0.000000  0.587980  1
  Ag  Ag1  1  0.250000  0.000000  0.087980  1
  Ag  Ag2  1  0.750000  0.000000  0.412020  1
  Ag  Ag3  1  0.750000  0.000000  0.912020  1
  As  As4  1  0.500000  0.775168  0.250000  1
  As  As5  1  0.500000  0.224832  0.750000  1
  As  As6  1  0.000000  0.775168  0.750000  1
  As  As7  1  0.000000  0.224832  0.250000  1
  S  S8  1  0.929637  0.841338  0.124897  1
  S  S9  1  0.070363  0.158662  0.875103  1
  S  S10  1  0.664409  0.685950  0.931014  1
  S  S11  1  0.402217  0.378263  0.358380  1
  S  S12  1  0.664409  0.314050  0.431014  1
  S  S13  1  0.597783  0.378263  0.141620  1
  S  S14  1  0.929637  0.158662  0.624897  1
  S  S15  1  0.429637  0.158662  0.375103  1
  S  S16  1  0.164409  0.314050  0.568986  1
  S  S17  1  0.402217  0.621737  0.858380  1
  S  S18  1  0.597783  0.621737  0.641620  1
  S  S19  1  0.335591  0.314050  0.068986  1
  S  S20  1  0.835591  0.314050  0.931014  1
  S  S21  1  0.902217  0.378263  0.641620  1
  S  S22  1  0.097783  0.378263  0.858380  1
  S  S23  1  0.097783  0.621737  0.358380  1
  S  S24  1  0.335591  0.685950  0.568986  1
  S  S25  1  0.902217  0.621737  0.141620  1
  S  S26  1  0.429637  0.841338  0.875103  1
  S  S27  1  0.570363  0.841338  0.624897  1
  S  S28  1  0.070363  0.841338  0.375103  1
  S  S29  1  0.835591  0.685950  0.431014  1
  S  S30  1  0.164409  0.685950  0.068986  1
  S  S31  1  0.570363  0.158662  0.124897  1
  N  N32  1  0.048337  0.417516  0.591309  1
  N  N33  1  0.895523  0.821510  0.394888  1
  N  N34  1  0.451663  0.582484  0.591309  1
  N  N35  1  0.951663  0.417516  0.908691  1
  N  N36  1  0.548337  0.417516  0.408691  1
  N  N37  1  0.951663  0.582484  0.408691  1
  N  N38  1  0.104477  0.178490  0.605112  1
  N  N39  1  0.395523  0.821510  0.605112  1
  N  N40  1  0.895523  0.178490  0.894888  1
  N  N41  1  0.548337  0.582484  0.908691  1
  N  N42  1  0.104477  0.821510  0.105112  1
  N  N43  1  0.395523  0.178490  0.105112  1
  N  N44  1  0.604477  0.821510  0.894888  1
  N  N45  1  0.451663  0.417516  0.091309  1
  N  N46  1  0.048337  0.582484  0.091309  1
  N  N47  1  0.604477  0.178490  0.394888  1
  O  O48  1  0.148187  0.871657  0.457433  1
  O  O49  1  0.351813  0.128343  0.457433  1
  O  O50  1  0.648187  0.128343  0.042567  1
  O  O51  1  0.851813  0.871657  0.042567  1
  O  O52  1  0.648187  0.871657  0.542567  1
  O  O53  1  0.351813  0.871657  0.957433  1
  O  O54  1  0.851813  0.128343  0.542567  1
  O  O55  1  0.148187  0.128343  0.957433  1
  F  F56  1  0.495152  0.225411  0.867266  1
  F  F57  1  0.504848  0.225411  0.632734  1
  F  F58  1  0.863678  0.344488  0.252265  1
  F  F59  1  0.134661  0.896200  0.747855  1
  F  F60  1  0.004848  0.225411  0.367266  1
  F  F61  1  0.363678  0.655512  0.247735  1
  F  F62  1  0.636322  0.655512  0.252265  1
  F  F63  1  0.495152  0.774589  0.367266  1
  F  F64  1  0.363678  0.344488  0.747735  1
  F  F65  1  0.995152  0.225411  0.132734  1
  F  F66  1  0.636322  0.344488  0.752265  1
  F  F67  1  0.863678  0.655512  0.752265  1
  F  F68  1  0.865339  0.896200  0.752145  1
  F  F69  1  0.134661  0.103800  0.247855  1
  F  F70  1  0.136322  0.344488  0.247735  1
  F  F71  1  0.136322  0.655512  0.747735  1
  F  F72  1  0.634661  0.896200  0.252145  1
  F  F73  1  0.004848  0.774589  0.867266  1
  F  F74  1  0.365339  0.896200  0.247855  1
  F  F75  1  0.504848  0.774589  0.132734  1
  F  F76  1  0.365339  0.103800  0.747855  1
  F  F77  1  0.634661  0.103800  0.752145  1
  F  F78  1  0.995152  0.774589  0.632734  1
  F  F79  1  0.865339  0.103800  0.252145  1
