# generated using pymatgen
data_NaAl11O17
_symmetry_space_group_name_H-M   'P 1'
_cell_length_a   23.61792581
_cell_length_b   22.93213222
_cell_length_c   22.93877631
_cell_angle_alpha   14.14864774
_cell_angle_beta   13.83909116
_cell_angle_gamma   13.84108917
_symmetry_Int_Tables_number   1
_chemical_formula_structural   NaAl11O17
_chemical_formula_sum   'Na2 Al22 O34'
_cell_volume   627.55918929
_cell_formula_units_Z   2
loop_
 _symmetry_equiv_pos_site_id
 _symmetry_equiv_pos_as_xyz
  1  'x, y, z'
loop_
 _atom_site_type_symbol
 _atom_site_label
 _atom_site_symmetry_multiplicity
 _atom_site_fract_x
 _atom_site_fract_y
 _atom_site_fract_z
 _atom_site_occupancy
  Na  Na0  1  0.086208  0.827620  0.827584  1
  Na  Na1  1  0.639941  0.882212  0.720118  1
  Al  Al2  1  0.000469  0.000228  0.999063  1
  Al  Al3  1  0.200033  0.096246  0.095608  1
  Al  Al4  1  0.499814  0.999597  0.000372  1
  Al  Al5  1  0.204106  0.096484  0.591788  1
  Al  Al6  1  0.203991  0.591994  0.096424  1
  Al  Al7  1  0.699585  0.096400  0.096424  1
  Al  Al8  1  0.325073  0.349763  0.349854  1
  Al  Al9  1  0.276160  0.451670  0.447680  1
  Al  Al10  1  0.225643  0.550511  0.548714  1
  Al  Al11  1  0.703969  0.097276  0.592062  1
  Al  Al12  1  0.704359  0.591920  0.095608  1
  Al  Al13  1  0.175394  0.649517  0.649212  1
  Al  Al14  1  0.825097  0.349715  0.349805  1
  Al  Al15  1  0.296998  0.405995  0.903879  1
  Al  Al16  1  0.296931  0.903821  0.406139  1
  Al  Al17  1  0.774804  0.450561  0.450392  1
  Al  Al18  1  0.724949  0.549902  0.550103  1
  Al  Al19  1  0.675437  0.649469  0.649126  1
  Al  Al20  1  0.299279  0.904815  0.903369  1
  Al  Al21  1  0.797352  0.406741  0.903369  1
  Al  Al22  1  0.797707  0.903221  0.404585  1
  Al  Al23  1  0.799122  0.903871  0.903879  1
  O  O24  1  0.168337  0.190850  0.191063  1
  O  O25  1  0.452851  0.094524  0.094297  1
  O  O26  1  0.050917  0.401959  0.402235  1
  O  O27  1  0.351771  0.296418  0.296458  1
  O  O28  1  0.140678  0.191327  0.718644  1
  O  O29  1  0.140096  0.718878  0.191082  1
  O  O30  1  0.668823  0.190151  0.191082  1
  O  O31  1  0.457557  0.090051  0.599494  1
  O  O32  1  0.454969  0.601067  0.090063  1
  O  O33  1  0.952188  0.093998  0.095625  1
  O  O34  1  0.245455  0.495704  0.509091  1
  O  O35  1  0.047655  0.402955  0.904689  1
  O  O36  1  0.045599  0.906793  0.402442  1
  O  O37  1  0.551960  0.400432  0.402442  1
  O  O38  1  0.360915  0.278831  0.810197  1
  O  O39  1  0.360661  0.810190  0.278677  1
  O  O40  1  0.851774  0.296336  0.296452  1
  O  O41  1  0.148262  0.703517  0.703477  1
  O  O42  1  0.640709  0.191022  0.718581  1
  O  O43  1  0.640599  0.718588  0.191063  1
  O  O44  1  0.442621  0.602340  0.602076  1
  O  O45  1  0.955197  0.602214  0.089606  1
  O  O46  1  0.955303  0.089658  0.602076  1
  O  O47  1  0.749880  0.500262  0.500240  1
  O  O48  1  0.048148  0.903548  0.903704  1
  O  O49  1  0.546959  0.402109  0.906081  1
  O  O50  1  0.546848  0.906028  0.402235  1
  O  O51  1  0.328857  0.810669  0.810289  1
  O  O52  1  0.860855  0.278671  0.810289  1
  O  O53  1  0.860783  0.810495  0.278434  1
  O  O54  1  0.648646  0.703801  0.702708  1
  O  O55  1  0.942949  0.604659  0.599494  1
  O  O56  1  0.549156  0.904698  0.901689  1
  O  O57  1  0.828888  0.810858  0.810197  1
