# generated using pymatgen
data_SiBHC3NCl2
_symmetry_space_group_name_H-M   'P 1'
_cell_length_a   8.84694863
_cell_length_b   9.86834940
_cell_length_c   8.32603913
_cell_angle_alpha   90.00000000
_cell_angle_beta   82.21334210
_cell_angle_gamma   90.00000000
_symmetry_Int_Tables_number   1
_chemical_formula_structural   SiBHC3NCl2
_chemical_formula_sum   'Si4 B4 H4 C12 N4 Cl8'
_cell_volume   720.20054655
_cell_formula_units_Z   4
loop_
 _symmetry_equiv_pos_site_id
 _symmetry_equiv_pos_as_xyz
  1  'x, y, z'
loop_
 _atom_site_type_symbol
 _atom_site_label
 _atom_site_symmetry_multiplicity
 _atom_site_fract_x
 _atom_site_fract_y
 _atom_site_fract_z
 _atom_site_occupancy
  Si  Si0  1  0.245488  -0.055874  0.657046  1
  Si  Si1  1  0.754512  0.444126  0.842954  1
  Si  Si2  1  0.754512  0.055874  0.342954  1
  Si  Si3  1  0.245488  0.555874  0.157046  1
  B  B4  1  0.941017  0.928267  0.587688  1
  B  B5  1  0.058983  0.428267  0.912312  1
  B  B6  1  0.058983  0.071733  0.412312  1
  B  B7  1  0.941017  0.571733  0.087688  1
  H  H8  1  0.050331  0.109401  0.676722  1
  H  H9  1  0.949669  0.609401  0.823278  1
  H  H10  1  0.949669  0.890599  0.323278  1
  H  H11  1  0.050331  0.390599  0.176722  1
  C  C12  1  0.443285  0.003218  0.561340  1
  C  C13  1  0.556715  0.503218  0.938660  1
  C  C14  1  0.556715  -0.003218  0.438660  1
  C  C15  1  0.443285  0.496782  0.061340  1
  C  C16  1  0.411686  0.057496  0.719885  1
  C  C17  1  0.588314  0.557496  0.780115  1
  C  C18  1  0.588314  0.942504  0.280115  1
  C  C19  1  0.411686  0.442504  0.219885  1
  C  C20  1  0.303783  0.036864  0.838821  1
  C  C21  1  0.696217  0.536864  0.661179  1
  C  C22  1  0.696217  -0.036864  0.161179  1
  C  C23  1  0.303783  0.463136  0.338821  1
  N  N24  1  0.079235  0.031842  0.594222  1
  N  N25  1  0.920765  0.531842  0.905778  1
  N  N26  1  0.920765  0.968158  0.405778  1
  N  N27  1  0.079235  0.468158  0.094222  1
  Cl  Cl28  1  0.780578  0.954894  0.741243  1
  Cl  Cl29  1  0.219422  0.454894  0.758757  1
  Cl  Cl30  1  0.219422  0.045106  0.258757  1
  Cl  Cl31  1  0.780578  0.545106  0.241243  1
  Cl  Cl32  1  0.024875  0.752975  0.587346  1
  Cl  Cl33  1  0.975125  0.252975  0.912654  1
  Cl  Cl34  1  0.975125  0.247025  0.412654  1
  Cl  Cl35  1  0.024875  0.747025  0.087346  1
