# generated using pymatgen
data_MnH12C2(NCl2)2
_symmetry_space_group_name_H-M   'P 1'
_cell_length_a   7.17686311
_cell_length_b   9.94482954
_cell_length_c   9.94482954
_cell_angle_alpha   43.42297395
_cell_angle_beta   90.00000000
_cell_angle_gamma   90.00000000
_symmetry_Int_Tables_number   1
_chemical_formula_structural   MnH12C2(NCl2)2
_chemical_formula_sum   'Mn2 H24 C4 N4 Cl8'
_cell_volume   487.89400033
_cell_formula_units_Z   2
loop_
 _symmetry_equiv_pos_site_id
 _symmetry_equiv_pos_as_xyz
  1  'x, y, z'
loop_
 _atom_site_type_symbol
 _atom_site_label
 _atom_site_symmetry_multiplicity
 _atom_site_fract_x
 _atom_site_fract_y
 _atom_site_fract_z
 _atom_site_occupancy
  Mn  Mn0  1  0.500000  0.500000  0.500000  1
  Mn  Mn1  1  0.000000  0.000000  0.000000  1
  H  H2  1  0.327734  0.113218  0.113218  1
  H  H3  1  0.672266  0.886782  0.886782  1
  H  H4  1  0.827734  0.386782  0.386782  1
  H  H5  1  0.172266  0.613218  0.613218  1
  H  H6  1  0.522203  0.974594  0.197906  1
  H  H7  1  0.477797  0.802094  0.025406  1
  H  H8  1  0.022203  0.302094  0.525406  1
  H  H9  1  0.977797  0.474594  0.697906  1
  H  H10  1  0.477797  0.025406  0.802094  1
  H  H11  1  0.522203  0.197906  0.974594  1
  H  H12  1  0.977797  0.697906  0.474594  1
  H  H13  1  0.022203  0.525406  0.302094  1
  H  H14  1  0.694031  0.190572  0.190572  1
  H  H15  1  0.305969  0.809428  0.809428  1
  H  H16  1  0.194031  0.309428  0.309428  1
  H  H17  1  0.805969  0.690572  0.690572  1
  H  H18  1  0.490389  0.097450  0.339400  1
  H  H19  1  0.509611  0.660600  0.902550  1
  H  H20  1  0.990389  0.160600  0.402550  1
  H  H21  1  0.009611  0.597450  0.839400  1
  H  H22  1  0.509611  0.902550  0.660600  1
  H  H23  1  0.490389  0.339400  0.097450  1
  H  H24  1  0.009611  0.839400  0.597450  1
  H  H25  1  0.990389  0.402550  0.160600  1
  C  C26  1  0.541397  0.190743  0.190743  1
  C  C27  1  0.458603  0.809257  0.809257  1
  C  C28  1  0.041397  0.309257  0.309257  1
  C  C29  1  0.958603  0.690743  0.690743  1
  N  N30  1  0.474128  0.114608  0.114608  1
  N  N31  1  0.525872  0.885392  0.885392  1
  N  N32  1  0.974128  0.385392  0.385392  1
  N  N33  1  0.025872  0.614608  0.614608  1
  Cl  Cl34  1  0.750000  0.263209  0.763209  1
  Cl  Cl35  1  0.250000  0.236791  0.736791  1
  Cl  Cl36  1  0.250000  0.736791  0.236791  1
  Cl  Cl37  1  0.750000  0.763209  0.263209  1
  Cl  Cl38  1  0.537417  0.374074  0.374074  1
  Cl  Cl39  1  0.462583  0.625926  0.625926  1
  Cl  Cl40  1  0.037417  0.125926  0.125926  1
  Cl  Cl41  1  0.962583  0.874074  0.874074  1
