# generated using pymatgen
data_Cu6BiS6
_symmetry_space_group_name_H-M   'P 1'
_cell_length_a   3.99726818
_cell_length_b   3.79989034
_cell_length_c   23.08978333
_cell_angle_alpha   60.22170654
_cell_angle_beta   61.38886043
_cell_angle_gamma   60.01108049
_symmetry_Int_Tables_number   1
_chemical_formula_structural   Cu6BiS6
_chemical_formula_sum   'Cu6 Bi1 S6'
_cell_volume   250.93811147
_cell_formula_units_Z   1
loop_
 _symmetry_equiv_pos_site_id
 _symmetry_equiv_pos_as_xyz
  1  'x, y, z'
loop_
 _atom_site_type_symbol
 _atom_site_label
 _atom_site_symmetry_multiplicity
 _atom_site_fract_x
 _atom_site_fract_y
 _atom_site_fract_z
 _atom_site_occupancy
  Cu  Cu0  1  0.328116  0.337704  0.052677  1
  Cu  Cu1  1  0.324858  0.218092  0.707324  1
  Cu  Cu2  1  0.844832  0.708164  0.458238  1
  Cu  Cu3  1  0.056010  0.670624  0.600302  1
  Cu  Cu4  1  0.786747  0.710793  0.798316  1
  Cu  Cu5  1  0.018601  0.653625  0.942099  1
  Bi  Bi6  1  0.502603  0.502461  0.250237  1
  S  S7  1  0.968307  0.008967  0.999313  1
  S  S8  1  0.019368  0.002277  0.162018  1
  S  S9  1  0.012438  0.009145  0.336108  1
  S  S10  1  0.134451  0.967643  0.488407  1
  S  S11  1  0.017680  0.989217  0.667463  1
  S  S12  1  0.068887  0.971388  0.829180  1
