# generated using pymatgen
data_Co5Te4(BrO6)2
_symmetry_space_group_name_H-M   'P 1'
_cell_length_a   5.33379421
_cell_length_b   10.74075872
_cell_length_c   13.95263768
_cell_angle_alpha   83.12643495
_cell_angle_beta   78.98257566
_cell_angle_gamma   75.62081521
_symmetry_Int_Tables_number   1
_chemical_formula_structural   Co5Te4(BrO6)2
_chemical_formula_sum   'Co10 Te8 Br4 O24'
_cell_volume   757.82586615
_cell_formula_units_Z   2
loop_
 _symmetry_equiv_pos_site_id
 _symmetry_equiv_pos_as_xyz
  1  'x, y, z'
loop_
 _atom_site_type_symbol
 _atom_site_label
 _atom_site_symmetry_multiplicity
 _atom_site_fract_x
 _atom_site_fract_y
 _atom_site_fract_z
 _atom_site_occupancy
  Co  Co0  1  0.236168  0.750088  0.250022  1
  Co  Co1  1  0.869421  0.300779  0.526808  1
  Co  Co2  1  0.790427  0.601828  0.381107  1
  Co  Co3  1  0.130579  0.699221  0.473192  1
  Co  Co4  1  0.226635  0.101703  0.881125  1
  Co  Co5  1  0.697017  0.199171  0.973198  1
  Co  Co6  1  0.302983  0.800829  0.026802  1
  Co  Co7  1  0.763832  0.249912  0.749978  1
  Co  Co8  1  0.209573  0.398172  0.618893  1
  Co  Co9  1  0.773365  0.898297  0.118875  1
  Te  Te10  1  0.431388  0.094107  0.623293  1
  Te  Te11  1  0.805991  0.894474  0.862219  1
  Te  Te12  1  0.562800  0.605420  0.637746  1
  Te  Te13  1  0.148804  0.405632  0.876705  1
  Te  Te14  1  0.194009  0.105526  0.137781  1
  Te  Te15  1  0.437200  0.394580  0.362254  1
  Te  Te16  1  0.568612  0.905893  0.376707  1
  Te  Te17  1  0.851196  0.594368  0.123295  1
  Br  Br18  1  0.093662  0.872810  0.598475  1
  Br  Br19  1  0.906338  0.127190  0.401525  1
  Br  Br20  1  0.435152  0.372818  0.098561  1
  Br  Br21  1  0.564848  0.627182  0.901439  1
  O  O22  1  0.445365  0.255905  0.867121  1
  O  O23  1  0.050418  0.166361  0.020035  1
  O  O24  1  0.546235  0.067964  0.068539  1
  O  O25  1  0.877052  0.063141  0.857609  1
  O  O26  1  0.202183  0.563282  0.357655  1
  O  O27  1  0.431333  0.756164  0.367151  1
  O  O28  1  0.769948  0.526952  0.251969  1
  O  O29  1  0.084604  0.203993  0.644708  1
  O  O30  1  0.122948  0.936859  0.142391  1
  O  O31  1  0.453765  0.932036  0.931461  1
  O  O32  1  0.451190  0.026708  0.751986  1
  O  O33  1  0.915396  0.796007  0.355292  1
  O  O34  1  0.933076  0.295904  0.855290  1
  O  O35  1  0.949582  0.833639  0.979965  1
  O  O36  1  0.236777  0.333692  0.479976  1
  O  O37  1  0.230052  0.473048  0.748031  1
  O  O38  1  0.317186  0.567932  0.568563  1
  O  O39  1  0.066924  0.704096  0.144710  1
  O  O40  1  0.763223  0.666308  0.520024  1
  O  O41  1  0.797817  0.436718  0.642345  1
  O  O42  1  0.682814  0.432068  0.431437  1
  O  O43  1  0.554635  0.744095  0.132879  1
  O  O44  1  0.568667  0.243836  0.632849  1
  O  O45  1  0.548810  0.973292  0.248014  1
