# generated using pymatgen
data_K5YCo2(NO2)12
_symmetry_space_group_name_H-M   'P 1'
_cell_length_a   10.35634882
_cell_length_b   10.35634882
_cell_length_c   10.35634882
_cell_angle_alpha   90.00000000
_cell_angle_beta   90.00000000
_cell_angle_gamma   90.00000000
_symmetry_Int_Tables_number   1
_chemical_formula_structural   K5YCo2(NO2)12
_chemical_formula_sum   'K10 Y2 Co4 N24 O48'
_cell_volume   1110.75943122
_cell_formula_units_Z   2
loop_
 _symmetry_equiv_pos_site_id
 _symmetry_equiv_pos_as_xyz
  1  'x, y, z'
loop_
 _atom_site_type_symbol
 _atom_site_label
 _atom_site_symmetry_multiplicity
 _atom_site_fract_x
 _atom_site_fract_y
 _atom_site_fract_z
 _atom_site_occupancy
  K  K0  1  0.500000  0.500000  0.000000  1
  K  K1  1  0.500000  0.000000  0.500000  1
  K  K2  1  0.250000  0.750000  0.750000  1
  K  K3  1  0.750000  0.250000  0.250000  1
  K  K4  1  0.750000  0.250000  0.750000  1
  K  K5  1  0.000000  0.000000  0.000000  1
  K  K6  1  0.750000  0.750000  0.250000  1
  K  K7  1  0.250000  0.750000  0.250000  1
  K  K8  1  0.000000  0.500000  0.500000  1
  K  K9  1  0.250000  0.250000  0.750000  1
  Y  Y10  1  0.250000  0.250000  0.250000  1
  Y  Y11  1  0.750000  0.750000  0.750000  1
  Co  Co12  1  0.000000  0.000000  0.500000  1
  Co  Co13  1  0.500000  0.000000  0.000000  1
  Co  Co14  1  0.000000  0.500000  0.000000  1
  Co  Co15  1  0.500000  0.500000  0.500000  1
  N  N16  1  0.503381  0.504390  0.686917  1
  N  N17  1  0.813083  0.996619  0.504390  1
  N  N18  1  0.686917  0.996619  0.995610  1
  N  N19  1  0.504390  0.813083  0.996619  1
  N  N20  1  0.996619  0.995610  0.686917  1
  N  N21  1  0.004390  0.313083  0.003381  1
  N  N22  1  0.313083  0.003381  0.004390  1
  N  N23  1  0.813083  0.503381  0.995610  1
  N  N24  1  0.504390  0.686917  0.503381  1
  N  N25  1  0.003381  0.495610  0.186917  1
  N  N26  1  0.995610  0.813083  0.503381  1
  N  N27  1  0.496619  0.495610  0.313083  1
  N  N28  1  0.503381  0.995610  0.813083  1
  N  N29  1  0.004390  0.186917  0.496619  1
  N  N30  1  0.686917  0.503381  0.504390  1
  N  N31  1  0.495610  0.186917  0.003381  1
  N  N32  1  0.495610  0.313083  0.496619  1
  N  N33  1  0.186917  0.003381  0.495610  1
  N  N34  1  0.995610  0.686917  0.996619  1
  N  N35  1  0.996619  0.504390  0.813083  1
  N  N36  1  0.496619  0.004390  0.186917  1
  N  N37  1  0.003381  0.004390  0.313083  1
  N  N38  1  0.186917  0.496619  0.004390  1
  N  N39  1  0.313083  0.496619  0.495610  1
  O  O40  1  0.504106  0.249545  0.900225  1
  O  O41  1  0.004106  0.749545  0.099775  1
  O  O42  1  0.400225  0.004106  0.750455  1
  O  O43  1  0.250455  0.599775  0.504106  1
  O  O44  1  0.900225  0.504106  0.249545  1
  O  O45  1  0.248320  0.108990  0.477809  1
  O  O46  1  0.391010  0.477809  0.251680  1
  O  O47  1  0.977809  0.751680  0.608990  1
  O  O48  1  0.599775  0.995894  0.249545  1
  O  O49  1  0.022191  0.248320  0.391010  1
  O  O50  1  0.099775  0.004106  0.749545  1
  O  O51  1  0.391010  0.022191  0.248320  1
  O  O52  1  0.750455  0.400225  0.004106  1
  O  O53  1  0.891010  0.977809  0.748320  1
  O  O54  1  0.022191  0.251680  0.108990  1
  O  O55  1  0.900225  0.995894  0.250455  1
  O  O56  1  0.891010  0.522191  0.751680  1
  O  O57  1  0.249545  0.900225  0.504106  1
  O  O58  1  0.099775  0.495894  0.750455  1
  O  O59  1  0.108990  0.022191  0.251680  1
  O  O60  1  0.522191  0.751680  0.891010  1
  O  O61  1  0.249545  0.599775  0.995894  1
  O  O62  1  0.248320  0.391010  0.022191  1
  O  O63  1  0.750455  0.099775  0.495894  1
  O  O64  1  0.004106  0.750455  0.400225  1
  O  O65  1  0.251680  0.391010  0.477809  1
  O  O66  1  0.400225  0.495894  0.749545  1
  O  O67  1  0.995894  0.249545  0.599775  1
  O  O68  1  0.599775  0.504106  0.250455  1
  O  O69  1  0.522191  0.748320  0.608990  1
  O  O70  1  0.751680  0.608990  0.977809  1
  O  O71  1  0.608990  0.977809  0.751680  1
  O  O72  1  0.250455  0.900225  0.995894  1
  O  O73  1  0.748320  0.891010  0.977809  1
  O  O74  1  0.749545  0.099775  0.004106  1
  O  O75  1  0.504106  0.250455  0.599775  1
  O  O76  1  0.751680  0.891010  0.522191  1
  O  O77  1  0.749545  0.400225  0.495894  1
  O  O78  1  0.995894  0.250455  0.900225  1
  O  O79  1  0.495894  0.750455  0.099775  1
  O  O80  1  0.108990  0.477809  0.248320  1
  O  O81  1  0.251680  0.108990  0.022191  1
  O  O82  1  0.477809  0.251680  0.391010  1
  O  O83  1  0.608990  0.522191  0.748320  1
  O  O84  1  0.495894  0.749545  0.400225  1
  O  O85  1  0.977809  0.748320  0.891010  1
  O  O86  1  0.748320  0.608990  0.522191  1
  O  O87  1  0.477809  0.248320  0.108990  1
