# generated using pymatgen
data_Cr2C13SN3(O2F)5
_symmetry_space_group_name_H-M   'P 1'
_cell_length_a   6.46808257
_cell_length_b   12.10003418
_cell_length_c   14.39444783
_cell_angle_alpha   92.45839512
_cell_angle_beta   96.39665295
_cell_angle_gamma   99.67161098
_symmetry_Int_Tables_number   1
_chemical_formula_structural   Cr2C13SN3(O2F)5
_chemical_formula_sum   'Cr4 C26 S2 N6 O20 F10'
_cell_volume   1101.45666325
_cell_formula_units_Z   2
loop_
 _symmetry_equiv_pos_site_id
 _symmetry_equiv_pos_as_xyz
  1  'x, y, z'
loop_
 _atom_site_type_symbol
 _atom_site_label
 _atom_site_symmetry_multiplicity
 _atom_site_fract_x
 _atom_site_fract_y
 _atom_site_fract_z
 _atom_site_occupancy
  Cr  Cr0  1  0.520888  0.835013  0.310762  1
  Cr  Cr1  1  0.887773  0.734953  0.909880  1
  Cr  Cr2  1  0.479112  0.164987  0.689238  1
  Cr  Cr3  1  0.112227  0.265047  0.090120  1
  C  C4  1  0.163645  0.814668  0.896277  1
  C  C5  1  0.724744  0.969996  0.311418  1
  C  C6  1  0.232000  0.184580  0.189273  1
  C  C7  1  0.682275  0.793030  0.420441  1
  C  C8  1  0.015605  0.659006  0.008850  1
  C  C9  1  0.330906  0.248819  0.765603  1
  C  C10  1  0.641867  0.089716  0.612083  1
  C  C11  1  0.690730  0.295583  0.691345  1
  C  C12  1  0.159970  0.152384  0.000967  1
  C  C13  1  0.968871  0.473136  0.696315  1
  C  C14  1  0.625574  0.121923  0.800519  1
  C  C15  1  0.381353  0.351590  0.075634  1
  C  C16  1  0.768000  0.815420  0.810727  1
  C  C17  1  0.984395  0.340994  0.991150  1
  C  C18  1  0.374426  0.878077  0.199481  1
  C  C19  1  0.669094  0.751181  0.234397  1
  C  C20  1  0.840030  0.847616  0.999033  1
  C  C21  1  0.317725  0.206970  0.579559  1
  C  C22  1  0.921804  0.623516  0.818125  1
  C  C23  1  0.309270  0.704417  0.308655  1
  C  C24  1  0.078196  0.376484  0.181875  1
  C  C25  1  0.275256  0.030004  0.688582  1
  C  C26  1  0.618647  0.648410  0.924366  1
  C  C27  1  0.031129  0.526864  0.303685  1
  C  C28  1  0.836355  0.185332  0.103723  1
  C  C29  1  0.358133  0.910284  0.387917  1
  S  S30  1  0.705438  0.413847  0.374348  1
  S  S31  1  0.294562  0.586153  0.625652  1
  N  N32  1  0.940807  0.555227  0.758328  1
  N  N33  1  0.110411  0.472967  0.638771  1
  N  N34  1  0.889589  0.527033  0.361229  1
  N  N35  1  0.826001  0.376679  0.695214  1
  N  N36  1  0.173999  0.623321  0.304786  1
  N  N37  1  0.059193  0.444773  0.241672  1
  O  O38  1  0.286508  0.902385  0.130748  1
  O  O39  1  0.247887  0.303216  0.813151  1
  O  O40  1  0.698630  0.863677  0.750544  1
  O  O41  1  0.256486  0.953468  0.434814  1
  O  O42  1  0.191599  0.084713  0.947333  1
  O  O43  1  0.713492  0.097615  0.869252  1
  O  O44  1  0.094659  0.614479  0.069400  1
  O  O45  1  0.456311  0.595218  0.933754  1
  O  O46  1  0.808401  0.915287  0.052667  1
  O  O47  1  0.543689  0.404782  0.066246  1
  O  O48  1  0.743514  0.046532  0.565186  1
  O  O49  1  0.752113  0.696784  0.186849  1
  O  O50  1  0.301370  0.136323  0.249456  1
  O  O51  1  0.333651  0.859636  0.888999  1
  O  O52  1  0.215369  0.229792  0.514620  1
  O  O53  1  0.784631  0.770208  0.485380  1
  O  O54  1  0.155028  0.947477  0.689225  1
  O  O55  1  0.844972  0.052523  0.310775  1
  O  O56  1  0.666349  0.140364  0.111001  1
  O  O57  1  0.905341  0.385521  0.930600  1
  F  F58  1  0.256104  0.558971  0.514050  1
  F  F59  1  0.350394  0.623155  0.737532  1
  F  F60  1  0.649606  0.376845  0.262468  1
  F  F61  1  0.525682  0.492987  0.364578  1
  F  F62  1  0.126610  0.672101  0.616589  1
  F  F63  1  0.743896  0.441029  0.485950  1
  F  F64  1  0.873390  0.327899  0.383411  1
  F  F65  1  0.521960  0.310514  0.392005  1
  F  F66  1  0.474318  0.507013  0.635422  1
  F  F67  1  0.478040  0.689486  0.607995  1
