# generated using pymatgen
data_KTa(CuSe2)2
_symmetry_space_group_name_H-M   'P 1'
_cell_length_a   5.72559256
_cell_length_b   7.81533255
_cell_length_c   10.05068427
_cell_angle_alpha   90.00000000
_cell_angle_beta   106.54904328
_cell_angle_gamma   90.00000000
_symmetry_Int_Tables_number   1
_chemical_formula_structural   KTa(CuSe2)2
_chemical_formula_sum   'K2 Ta2 Cu4 Se8'
_cell_volume   431.11209704
_cell_formula_units_Z   2
loop_
 _symmetry_equiv_pos_site_id
 _symmetry_equiv_pos_as_xyz
  1  'x, y, z'
loop_
 _atom_site_type_symbol
 _atom_site_label
 _atom_site_symmetry_multiplicity
 _atom_site_fract_x
 _atom_site_fract_y
 _atom_site_fract_z
 _atom_site_occupancy
  K  K0  1  0.447455  0.750000  0.368224  1
  K  K1  1  0.079231  0.250000  0.631776  1
  Cu  Cu2  1  0.106605  0.250000  0.213428  1
  Cu  Cu3  1  0.893177  0.750000  0.786572  1
  Cu  Cu4  1  0.515994  0.500000  0.000000  1
  Cu  Cu5  1  0.515994  0.000000  0.000000  1
  Se  Se6  1  0.256608  0.250000  0.006077  1
  Se  Se7  1  0.250530  0.750000  0.993923  1
  Se  Se8  1  0.462081  0.250000  0.420222  1
  Se  Se9  1  0.041859  0.750000  0.579778  1
  Se  Se10  1  0.640155  0.004680  0.785632  1
  Se  Se11  1  0.854524  0.995320  0.214368  1
  Se  Se12  1  0.640155  0.495320  0.785632  1
  Se  Se13  1  0.854524  0.504680  0.214368  1
  Ta  Ta14  1  0.608481  0.250000  0.216655  1
  Ta  Ta15  1  0.391826  0.750000  0.783345  1
