# generated using pymatgen
data_Os3C9Se2O9
_symmetry_space_group_name_H-M   'P 1'
_cell_length_a   6.90574091
_cell_length_b   9.75660199
_cell_length_c   13.70200630
_cell_angle_alpha   94.23801204
_cell_angle_beta   95.72287514
_cell_angle_gamma   110.42375829
_symmetry_Int_Tables_number   1
_chemical_formula_structural   Os3C9Se2O9
_chemical_formula_sum   'Os6 C18 Se4 O18'
_cell_volume   854.97882096
_cell_formula_units_Z   2
loop_
 _symmetry_equiv_pos_site_id
 _symmetry_equiv_pos_as_xyz
  1  'x, y, z'
loop_
 _atom_site_type_symbol
 _atom_site_label
 _atom_site_symmetry_multiplicity
 _atom_site_fract_x
 _atom_site_fract_y
 _atom_site_fract_z
 _atom_site_occupancy
  Os  Os0  1  0.282342  0.693519  0.343358  1
  Os  Os1  1  0.568089  0.233976  0.844370  1
  Os  Os2  1  0.107932  0.393303  0.241559  1
  Os  Os3  1  0.431911  0.766024  0.155630  1
  Os  Os4  1  0.717658  0.306481  0.656642  1
  Os  Os5  1  0.892068  0.606697  0.758441  1
  C  C6  1  0.276611  0.117016  0.816494  1
  C  C7  1  0.176493  0.691671  0.734349  1
  C  C8  1  0.188375  0.267072  0.325410  1
  C  C9  1  0.072439  0.274808  0.121563  1
  C  C10  1  0.714081  0.411953  0.544879  1
  C  C11  1  0.363227  0.932662  0.121191  1
  C  C12  1  0.558808  0.306433  0.974572  1
  C  C13  1  0.917959  0.229398  0.614048  1
  C  C14  1  0.441192  0.693567  0.025428  1
  C  C15  1  0.823507  0.308329  0.265651  1
  C  C16  1  0.285919  0.588047  0.455121  1
  C  C17  1  0.811625  0.732928  0.674590  1
  C  C18  1  0.510235  0.873843  0.388098  1
  C  C19  1  0.723389  0.882984  0.183506  1
  C  C20  1  0.927561  0.725192  0.878437  1
  C  C21  1  0.489765  0.126157  0.611902  1
  C  C22  1  0.636773  0.067338  0.878809  1
  C  C23  1  0.082041  0.770602  0.385952  1
  Se  Se24  1  0.510022  0.437217  0.751243  1
  Se  Se25  1  0.944658  0.384231  0.826816  1
  Se  Se26  1  0.055342  0.615769  0.173184  1
  Se  Se27  1  0.489978  0.562783  0.248757  1
  O  O28  1  0.958633  0.816207  0.411466  1
  O  O29  1  0.762299  0.807951  0.623574  1
  O  O30  1  0.237701  0.192049  0.376426  1
  O  O31  1  0.652106  0.252551  0.280237  1
  O  O32  1  0.647109  0.982717  0.418380  1
  O  O33  1  0.559849  0.355023  0.054942  1
  O  O34  1  0.440151  0.644977  0.945058  1
  O  O35  1  0.291549  0.526396  0.524472  1
  O  O36  1  0.900527  0.953488  0.200565  1
  O  O37  1  0.041367  0.183793  0.588534  1
  O  O38  1  0.708451  0.473604  0.475528  1
  O  O39  1  0.347894  0.747449  0.719763  1
  O  O40  1  0.099473  0.046512  0.799435  1
  O  O41  1  0.328787  0.035452  0.099659  1
  O  O42  1  0.047730  0.206524  0.045110  1
  O  O43  1  0.952270  0.793476  0.954890  1
  O  O44  1  0.352891  0.017283  0.581620  1
  O  O45  1  0.671213  0.964548  0.900341  1
