# generated using pymatgen
data_Cu3BiSe2BrO8
_symmetry_space_group_name_H-M   'P 1'
_cell_length_a   6.44740539
_cell_length_b   7.36530752
_cell_length_c   9.78638091
_cell_angle_alpha   90.00000000
_cell_angle_beta   90.00000000
_cell_angle_gamma   90.00000000
_symmetry_Int_Tables_number   1
_chemical_formula_structural   Cu3BiSe2BrO8
_chemical_formula_sum   'Cu6 Bi2 Se4 Br2 O16'
_cell_volume   464.72707795
_cell_formula_units_Z   2
loop_
 _symmetry_equiv_pos_site_id
 _symmetry_equiv_pos_as_xyz
  1  'x, y, z'
loop_
 _atom_site_type_symbol
 _atom_site_label
 _atom_site_symmetry_multiplicity
 _atom_site_fract_x
 _atom_site_fract_y
 _atom_site_fract_z
 _atom_site_occupancy
  Cu  Cu0  1  0.000000  0.000000  0.000000  1
  Cu  Cu1  1  0.000000  0.000000  0.500000  1
  Cu  Cu2  1  0.500000  0.000000  0.500000  1
  Cu  Cu3  1  0.750000  0.206796  0.750000  1
  Cu  Cu4  1  0.250000  0.793204  0.250000  1
  Cu  Cu5  1  0.500000  0.000000  0.000000  1
  Bi  Bi6  1  0.250000  0.244899  0.250000  1
  Bi  Bi7  1  0.750000  0.755101  0.750000  1
  Se  Se8  1  0.750000  0.388981  0.443080  1
  Se  Se9  1  0.250000  0.611019  0.943080  1
  Se  Se10  1  0.750000  0.388981  0.056920  1
  Se  Se11  1  0.250000  0.611019  0.556920  1
  Br  Br12  1  0.250000  0.158492  0.750000  1
  Br  Br13  1  0.750000  0.841508  0.250000  1
  O  O14  1  0.250000  0.989992  0.113970  1
  O  O15  1  0.750000  0.010008  0.613970  1
  O  O16  1  0.250000  0.588626  0.117315  1
  O  O17  1  0.538790  0.244168  0.415628  1
  O  O18  1  0.461210  0.755832  0.915628  1
  O  O19  1  0.750000  0.411374  0.617315  1
  O  O20  1  0.038790  0.755832  0.584372  1
  O  O21  1  0.038790  0.755832  0.915628  1
  O  O22  1  0.250000  0.588626  0.382685  1
  O  O23  1  0.750000  0.411374  0.882685  1
  O  O24  1  0.961210  0.244168  0.084372  1
  O  O25  1  0.461210  0.755832  0.584372  1
  O  O26  1  0.750000  0.010008  0.886030  1
  O  O27  1  0.250000  0.989992  0.386030  1
  O  O28  1  0.961210  0.244168  0.415628  1
  O  O29  1  0.538790  0.244168  0.084372  1
