# generated using pymatgen
data_Sr5Li25La7(BiO6)8
_symmetry_space_group_name_H-M   'P 1'
_cell_length_a   11.61383143
_cell_length_b   11.54710639
_cell_length_c   11.59260907
_cell_angle_alpha   109.71164068
_cell_angle_beta   108.82509662
_cell_angle_gamma   109.80694822
_symmetry_Int_Tables_number   1
_chemical_formula_structural   Sr5Li25La7(BiO6)8
_chemical_formula_sum   'Sr5 Li25 La7 Bi8 O48'
_cell_volume   1197.71489508
_cell_formula_units_Z   1
loop_
 _symmetry_equiv_pos_site_id
 _symmetry_equiv_pos_as_xyz
  1  'x, y, z'
loop_
 _atom_site_type_symbol
 _atom_site_label
 _atom_site_symmetry_multiplicity
 _atom_site_fract_x
 _atom_site_fract_y
 _atom_site_fract_z
 _atom_site_occupancy
  Sr  Sr0  1  0.126161  0.376311  0.742068  1
  Sr  Sr1  1  0.122893  0.237750  0.372163  1
  Sr  Sr2  1  0.606224  0.868711  0.767656  1
  Sr  Sr3  1  0.616309  0.248804  0.869854  1
  Sr  Sr4  1  0.748150  0.141377  0.354067  1
  Li  Li5  1  0.270939  0.652496  0.366009  1
  Li  Li6  1  0.254587  0.103179  0.863005  1
  Li  Li7  1  0.378504  0.615470  0.768428  1
  Li  Li8  1  0.357698  0.248533  0.632732  1
  Li  Li9  1  0.552603  0.723762  0.370935  1
  Li  Li10  1  0.539896  0.285016  0.588642  1
  Li  Li11  1  0.683642  0.798299  0.258429  1
  Li  Li12  1  0.741102  0.378271  0.579864  1
  Li  Li13  1  0.589331  0.538148  0.285948  1
  Li  Li14  1  0.752666  0.866299  0.119069  1
  Li  Li15  1  0.649608  0.378732  0.300776  1
  Li  Li16  1  0.970889  0.589771  0.780354  1
  Li  Li17  1  0.723289  0.882329  0.612251  1
  Li  Li18  1  0.218730  0.750957  0.844153  1
  Li  Li19  1  0.464113  0.255286  0.065967  1
  Li  Li20  1  0.117951  0.866638  0.242533  1
  Li  Li21  1  0.799630  0.249447  0.682016  1
  Li  Li22  1  0.878877  0.125246  0.767588  1
  Li  Li23  1  0.755008  0.986925  0.502089  1
  Li  Li24  1  0.292978  0.591267  0.540868  1
  Li  Li25  1  0.053211  0.092493  0.791971  1
  Li  Li26  1  0.763782  0.283357  0.156332  1
  Li  Li27  1  0.887326  0.228725  0.001361  1
  Li  Li28  1  0.038872  0.442399  0.251659  1
  Li  Li29  1  0.825807  0.072603  0.098936  1
  La  La30  1  0.246407  0.876649  0.616985  1
  La  La31  1  0.362931  0.741293  0.116711  1
  La  La32  1  0.236797  0.363048  0.119732  1
  La  La33  1  0.363924  0.108007  0.240897  1
  La  La34  1  0.736607  0.621059  0.868928  1
  La  La35  1  0.884423  0.747878  0.622555  1
  La  La36  1  0.869161  0.624064  0.238210  1
  Bi  Bi37  1  0.006111  0.502785  0.502101  1
  Bi  Bi38  1  0.995553  0.503011  0.996843  1
  Bi  Bi39  1  0.996086  0.980893  0.989195  1
  Bi  Bi40  1  0.488906  0.489211  0.494542  1
  Bi  Bi41  1  0.493677  0.991688  0.489904  1
  Bi  Bi42  1  0.493144  0.493144  0.996380  1
  Bi  Bi43  1  0.500646  0.992934  0.995874  1
  Bi  Bi44  1  0.002255  0.005561  0.499228  1
  O  O45  1  0.093621  0.969113  0.673777  1
  O  O46  1  0.001442  0.309674  0.912435  1
  O  O47  1  0.122934  0.598164  0.918989  1
  O  O48  1  0.080040  0.706882  0.673341  1
  O  O49  1  0.066192  0.861585  0.401794  1
  O  O50  1  0.120601  0.621246  0.425875  1
  O  O51  1  0.180968  0.480207  0.593399  1
  O  O52  1  0.389420  0.804897  0.793908  1
  O  O53  1  0.373108  0.576812  0.916009  1
  O  O54  1  0.312281  0.307928  0.943472  1
  O  O55  1  0.320514  0.911174  0.290747  1
  O  O56  1  0.010161  0.183020  0.109098  1
  O  O57  1  0.172152  0.201417  0.578720  1
  O  O58  1  0.189972  0.565923  0.169249  1
  O  O59  1  0.406028  0.828218  0.535202  1
  O  O60  1  0.295310  0.479659  0.371515  1
  O  O61  1  0.334485  0.906092  0.037907  1
  O  O62  1  0.127398  0.013610  0.187287  1
  O  O63  1  0.409897  0.079638  0.878373  1
  O  O64  1  0.502718  0.614319  0.686846  1
  O  O65  1  0.530650  0.408957  0.826315  1
  O  O66  1  0.377610  0.282682  0.465438  1
  O  O67  1  0.569231  0.887644  0.360595  1
  O  O68  1  0.185058  0.111694  0.998236  1
  O  O69  1  0.795436  0.878857  0.976553  1
  O  O70  1  0.437200  0.113399  0.618563  1
  O  O71  1  0.625809  0.681052  0.508877  1
  O  O72  1  0.476605  0.596297  0.183585  1
  O  O73  1  0.471772  0.370667  0.287607  1
  O  O74  1  0.607528  0.921976  0.116059  1
  O  O75  1  0.883132  0.967769  0.787011  1
  O  O76  1  0.688539  0.101486  0.981392  1
  O  O77  1  0.677409  0.501608  0.621661  1
  O  O78  1  0.603968  0.179124  0.477530  1
  O  O79  1  0.804488  0.418575  0.805435  1
  O  O80  1  0.802848  0.826943  0.441572  1
  O  O81  1  0.936556  0.763563  0.848610  1
  O  O82  1  0.689192  0.050440  0.659547  1
  O  O83  1  0.700524  0.679480  0.098133  1
  O  O84  1  0.620724  0.430172  0.121588  1
  O  O85  1  0.579757  0.187177  0.185311  1
  O  O86  1  0.833166  0.541344  0.406461  1
  O  O87  1  0.908336  0.397010  0.591679  1
  O  O88  1  0.937280  0.127910  0.628951  1
  O  O89  1  0.918984  0.310790  0.310113  1
  O  O90  1  0.877388  0.405812  0.088835  1
  O  O91  1  0.953458  0.668251  0.084053  1
  O  O92  1  0.883510  0.013816  0.320441  1
