# generated using pymatgen
data_Ag3SI
_symmetry_space_group_name_H-M   'P 1'
_cell_length_a   5.08925978
_cell_length_b   4.88235239
_cell_length_c   4.96243928
_cell_angle_alpha   91.04010847
_cell_angle_beta   89.84662625
_cell_angle_gamma   89.80273396
_symmetry_Int_Tables_number   1
_chemical_formula_structural   Ag3SI
_chemical_formula_sum   'Ag3 S1 I1'
_cell_volume   123.28299607
_cell_formula_units_Z   1
loop_
 _symmetry_equiv_pos_site_id
 _symmetry_equiv_pos_as_xyz
  1  'x, y, z'
loop_
 _atom_site_type_symbol
 _atom_site_label
 _atom_site_symmetry_multiplicity
 _atom_site_fract_x
 _atom_site_fract_y
 _atom_site_fract_z
 _atom_site_occupancy
  Ag  Ag0  1  0.063689  0.924030  0.050249  1
  Ag  Ag1  1  0.721008  0.419025  0.034107  1
  Ag  Ag2  1  0.492821  0.822309  0.456805  1
  S  S3  1  0.563175  0.916868  0.956725  1
  I  I4  1  0.091306  0.383769  0.502113  1
