# generated using pymatgen
data_Ca10La6Mg3Ti13O48
_symmetry_space_group_name_H-M   'P 1'
_cell_length_a   5.49509479
_cell_length_b   5.56208940
_cell_length_c   31.18936062
_cell_angle_alpha   90.13005245
_cell_angle_beta   90.03062086
_cell_angle_gamma   89.92993429
_symmetry_Int_Tables_number   1
_chemical_formula_structural   Ca10La6Mg3Ti13O48
_chemical_formula_sum   'Ca10 La6 Mg3 Ti13 O48'
_cell_volume   953.27481730
_cell_formula_units_Z   1
loop_
 _symmetry_equiv_pos_site_id
 _symmetry_equiv_pos_as_xyz
  1  'x, y, z'
loop_
 _atom_site_type_symbol
 _atom_site_label
 _atom_site_symmetry_multiplicity
 _atom_site_fract_x
 _atom_site_fract_y
 _atom_site_fract_z
 _atom_site_occupancy
  Ca  Ca0  1  0.009783  0.962297  0.937858  1
  Ca  Ca1  1  0.484969  0.456365  0.438434  1
  Ca  Ca2  1  0.484760  0.456784  0.187072  1
  Ca  Ca3  1  0.486161  0.458741  0.937955  1
  Ca  Ca4  1  0.512300  0.539290  0.060889  1
  Ca  Ca5  1  0.516939  0.544591  0.814150  1
  Ca  Ca6  1  0.989772  0.038690  0.309819  1
  Ca  Ca7  1  0.991199  0.038236  0.060207  1
  Ca  Ca8  1  0.984135  0.038263  0.814456  1
  Ca  Ca9  1  0.988894  0.037852  0.560101  1
  La  La10  1  0.009829  0.970250  0.188420  1
  La  La11  1  0.006962  0.973065  0.439461  1
  La  La12  1  0.005836  0.972129  0.691995  1
  La  La13  1  0.491424  0.468168  0.692088  1
  La  La14  1  0.512153  0.535087  0.308562  1
  La  La15  1  0.510166  0.533102  0.558373  1
  Mg  Mg16  1  0.501034  0.001033  0.249600  1
  Mg  Mg17  1  0.500865  0.000034  0.499587  1
  Mg  Mg18  1  0.498752  0.999384  0.753411  1
  Ti  Ti19  1  0.997828  0.499981  0.999404  1
  Ti  Ti20  1  -0.001176  0.499816  0.498182  1
  Ti  Ti21  1  0.000596  0.509399  0.877225  1
  Ti  Ti22  1  0.506656  0.992833  0.123337  1
  Ti  Ti23  1  0.500391  0.999081  0.998663  1
  Ti  Ti24  1  0.502933  0.001853  0.623602  1
  Ti  Ti25  1  0.506914  0.004243  0.374136  1
  Ti  Ti26  1  0.491956  0.010376  0.873960  1
  Ti  Ti27  1  0.000829  0.493209  0.121974  1
  Ti  Ti28  1  -0.001049  0.499311  0.247243  1
  Ti  Ti29  1  0.008187  0.501845  0.374120  1
  Ti  Ti30  1  0.003045  0.500316  0.624759  1
  Ti  Ti31  1  0.000897  0.500137  0.756583  1
  O  O32  1  0.084768  0.481769  0.062158  1
  O  O33  1  0.078237  0.480492  0.313800  1
  O  O34  1  0.077542  0.479430  0.563805  1
  O  O35  1  0.090007  0.473418  0.814873  1
  O  O36  1  0.218640  0.225933  0.134935  1
  O  O37  1  0.220417  0.225847  0.386392  1
  O  O38  1  0.213221  0.226012  0.489599  1
  O  O39  1  0.215690  0.229853  0.738829  1
  O  O40  1  0.225604  0.227511  0.636495  1
  O  O41  1  0.217070  0.215113  0.887855  1
  O  O42  1  0.213128  0.225810  0.239158  1
  O  O43  1  0.216598  0.218843  0.989165  1
  O  O44  1  0.279320  0.723053  0.135662  1
  O  O45  1  0.278385  0.707101  0.238316  1
  O  O46  1  0.275829  0.716309  0.386923  1
  O  O47  1  0.277695  0.706839  0.488906  1
  O  O48  1  0.270674  0.714815  0.739142  1
  O  O49  1  0.280132  0.717250  0.989067  1
  O  O50  1  0.274159  0.720818  0.636298  1
  O  O51  1  0.277198  0.711573  0.888044  1
  O  O52  1  0.417372  0.980017  0.061921  1
  O  O53  1  0.410890  0.979201  0.315359  1
  O  O54  1  0.408979  0.971245  0.817091  1
  O  O55  1  0.411513  0.980741  0.565353  1
  O  O56  1  0.579322  0.020883  0.434432  1
  O  O57  1  0.579189  0.023244  0.183207  1
  O  O58  1  0.575465  0.011555  0.685278  1
  O  O59  1  0.583022  0.018998  0.939344  1
  O  O60  1  0.720223  0.282533  0.011137  1
  O  O61  1  0.724735  0.284359  0.112294  1
  O  O62  1  0.729855  0.285973  0.260169  1
  O  O63  1  0.723251  0.278023  0.363246  1
  O  O64  1  0.726330  0.291379  0.760721  1
  O  O65  1  0.729449  0.285004  0.510573  1
  O  O66  1  0.723123  0.276720  0.613979  1
  O  O67  1  0.715898  0.277757  0.864571  1
  O  O68  1  0.782070  0.779488  0.011113  1
  O  O69  1  0.794319  0.776093  0.261202  1
  O  O70  1  0.784710  0.785548  0.112877  1
  O  O71  1  0.793711  0.776064  0.511705  1
  O  O72  1  0.795104  0.777762  0.761014  1
  O  O73  1  0.784861  0.775188  0.864732  1
  O  O74  1  0.781783  0.779488  0.363453  1
  O  O75  1  0.776411  0.775510  0.613614  1
  O  O76  1  0.913196  0.517197  0.186023  1
  O  O77  1  0.910591  0.515982  0.436751  1
  O  O78  1  0.922289  0.511811  0.685629  1
  O  O79  1  0.914090  0.518686  0.938166  1
