# generated using pymatgen
data_CdI2
_symmetry_space_group_name_H-M   'P 1'
_cell_length_a   4.34284316
_cell_length_b   4.34284343
_cell_length_c   88.55334574
_cell_angle_alpha   90.00000000
_cell_angle_beta   90.00000000
_cell_angle_gamma   119.99999796
_symmetry_Int_Tables_number   1
_chemical_formula_structural   CdI2
_chemical_formula_sum   'Cd12 I24'
_cell_volume   1446.38507700
_cell_formula_units_Z   12
loop_
 _symmetry_equiv_pos_site_id
 _symmetry_equiv_pos_as_xyz
  1  'x, y, z'
loop_
 _atom_site_type_symbol
 _atom_site_label
 _atom_site_symmetry_multiplicity
 _atom_site_fract_x
 _atom_site_fract_y
 _atom_site_fract_z
 _atom_site_occupancy
  Cd  Cd0  1  0.000000  0.000000  0.270819  1
  Cd  Cd1  1  0.666667  0.333333  0.520848  1
  Cd  Cd2  1  0.666667  0.333333  0.020836  1
  Cd  Cd3  1  0.000000  0.000000  0.437487  1
  Cd  Cd4  1  0.000000  0.000000  0.104153  1
  Cd  Cd5  1  0.666667  0.333333  0.354183  1
  Cd  Cd6  1  0.666667  0.333333  0.187505  1
  Cd  Cd7  1  0.666667  0.333333  0.937489  1
  Cd  Cd8  1  0.666667  0.333333  0.687510  1
  Cd  Cd9  1  0.666667  0.333333  0.770810  1
  Cd  Cd10  1  0.333333  0.666667  0.854177  1
  Cd  Cd11  1  0.666667  0.333333  0.604145  1
  I  I12  1  0.000000  0.000000  0.167982  1
  I  I13  1  0.333333  0.666667  0.790353  1
  I  I14  1  0.666667  0.333333  0.084611  1
  I  I15  1  0.333333  0.666667  0.457025  1
  I  I16  1  0.333333  0.666667  0.207045  1
  I  I17  1  0.333333  0.666667  0.957026  1
  I  I18  1  0.000000  0.000000  0.834656  1
  I  I19  1  0.000000  0.000000  0.667982  1
  I  I20  1  0.666667  0.333333  0.873715  1
  I  I21  1  0.000000  0.000000  0.917963  1
  I  I22  1  0.000000  0.000000  0.584622  1
  I  I23  1  0.333333  0.666667  0.540385  1
  I  I24  1  0.333333  0.666667  0.123691  1
  I  I25  1  0.333333  0.666667  0.040376  1
  I  I26  1  0.000000  0.000000  0.751287  1
  I  I27  1  0.333333  0.666667  0.290357  1
  I  I28  1  0.000000  0.000000  0.334657  1
  I  I29  1  0.333333  0.666667  0.373718  1
  I  I30  1  0.666667  0.333333  0.417946  1
  I  I31  1  0.333333  0.666667  0.707048  1
  I  I32  1  0.000000  0.000000  0.001306  1
  I  I33  1  0.666667  0.333333  0.251278  1
  I  I34  1  0.333333  0.666667  0.623689  1
  I  I35  1  0.000000  0.000000  0.501322  1
