# generated using pymatgen
data_FeHO2
_symmetry_space_group_name_H-M   'P 1'
_cell_length_a   14.23255981
_cell_length_b   2.98130342
_cell_length_c   5.20294995
_cell_angle_alpha   90.00000000
_cell_angle_beta   90.00000000
_cell_angle_gamma   90.00000000
_symmetry_Int_Tables_number   1
_chemical_formula_structural   FeHO2
_chemical_formula_sum   'Fe4 H4 O8'
_cell_volume   220.76938307
_cell_formula_units_Z   4
loop_
 _symmetry_equiv_pos_site_id
 _symmetry_equiv_pos_as_xyz
  1  'x, y, z'
loop_
 _atom_site_type_symbol
 _atom_site_label
 _atom_site_symmetry_multiplicity
 _atom_site_fract_x
 _atom_site_fract_y
 _atom_site_fract_z
 _atom_site_occupancy
  Fe  Fe0  1  0.684813  0.250000  0.497684  1
  Fe  Fe1  1  0.184813  0.250000  0.002316  1
  Fe  Fe2  1  0.315187  0.750000  0.502316  1
  Fe  Fe3  1  0.815187  0.750000  0.997684  1
  H  H4  1  0.460409  0.250000  0.441351  1
  H  H5  1  0.960409  0.250000  0.058649  1
  H  H6  1  0.539591  0.750000  0.558649  1
  H  H7  1  0.039591  0.750000  0.941351  1
  O  O8  1  0.260793  0.250000  0.302560  1
  O  O9  1  0.760793  0.250000  0.197440  1
  O  O10  1  0.739207  0.750000  0.697440  1
  O  O11  1  0.239207  0.750000  0.802560  1
  O  O12  1  0.412319  0.250000  0.575714  1
  O  O13  1  0.912319  0.250000  0.924286  1
  O  O14  1  0.587681  0.750000  0.424286  1
  O  O15  1  0.087681  0.750000  0.075714  1
