# generated using pymatgen
data_Bi6W4O21
_symmetry_space_group_name_H-M   'P 1'
_cell_length_a   5.05780458
_cell_length_b   5.10072775
_cell_length_c   20.57616405
_cell_angle_alpha   107.99729126
_cell_angle_beta   109.01616903
_cell_angle_gamma   85.12147255
_symmetry_Int_Tables_number   1
_chemical_formula_structural   Bi6W4O21
_chemical_formula_sum   'Bi6 W4 O21'
_cell_volume   477.23668393
_cell_formula_units_Z   1
loop_
 _symmetry_equiv_pos_site_id
 _symmetry_equiv_pos_as_xyz
  1  'x, y, z'
loop_
 _atom_site_type_symbol
 _atom_site_label
 _atom_site_symmetry_multiplicity
 _atom_site_fract_x
 _atom_site_fract_y
 _atom_site_fract_z
 _atom_site_occupancy
  Bi  Bi0  1  0.379627  0.466923  0.921262  1
  Bi  Bi1  1  0.240059  0.192588  0.691771  1
  Bi  Bi2  1  0.450047  0.400132  0.406043  1
  Bi  Bi3  1  0.674781  0.606702  0.598579  1
  Bi  Bi4  1  0.403945  0.537958  0.100626  1
  Bi  Bi5  1  0.768347  0.786180  0.323161  1
  W  W6  1  0.834783  0.821996  0.786826  1
  W  W7  1  0.946993  0.989514  0.024561  1
  W  W8  1  0.055940  0.998747  0.506206  1
  W  W9  1  0.077595  0.118109  0.201562  1
  O  O10  1  0.136478  0.737482  0.859222  1
  O  O11  1  0.647968  0.215791  0.029116  1
  O  O12  1  0.321521  0.692668  0.517230  1
  O  O13  1  0.923292  0.935372  0.583807  1
  O  O14  1  0.520021  0.874177  0.687122  1
  O  O15  1  0.163972  0.426177  0.281534  1
  O  O16  1  0.660221  0.093101  0.836932  1
  O  O17  1  0.156497  0.979857  0.424039  1
  O  O18  1  0.121781  0.235803  0.000848  1
  O  O19  1  0.723751  0.753698  0.426017  1
  O  O20  1  0.750699  0.709969  0.942893  1
  O  O21  1  0.311414  0.252315  0.582918  1
  O  O22  1  0.321735  0.751896  0.018318  1
  O  O23  1  0.059946  0.920854  0.741778  1
  O  O24  1  0.997156  0.791228  0.096330  1
  O  O25  1  0.673107  0.475387  0.745902  1
  O  O26  1  0.289557  0.854067  0.236236  1
  O  O27  1  0.715140  0.208788  0.342880  1
  O  O28  1  0.784077  0.294433  0.497653  1
  O  O29  1  0.140903  0.271511  0.132888  1
  O  O30  1  0.712410  0.070336  0.187619  1
