# generated using pymatgen
data_CdI2
_symmetry_space_group_name_H-M   'P 1'
_cell_length_a   4.34146342
_cell_length_b   4.34146369
_cell_length_c   103.15345153
_cell_angle_alpha   90.00000000
_cell_angle_beta   90.00000000
_cell_angle_gamma   119.99999796
_symmetry_Int_Tables_number   1
_chemical_formula_structural   CdI2
_chemical_formula_sum   'Cd14 I28'
_cell_volume   1683.78533896
_cell_formula_units_Z   14
loop_
 _symmetry_equiv_pos_site_id
 _symmetry_equiv_pos_as_xyz
  1  'x, y, z'
loop_
 _atom_site_type_symbol
 _atom_site_label
 _atom_site_symmetry_multiplicity
 _atom_site_fract_x
 _atom_site_fract_y
 _atom_site_fract_z
 _atom_site_occupancy
  Cd  Cd0  1  0.000000  0.000000  0.803574  1
  Cd  Cd1  1  0.000000  0.000000  0.517845  1
  Cd  Cd2  1  0.666667  0.333333  0.303578  1
  Cd  Cd3  1  0.666667  0.333333  0.160714  1
  Cd  Cd4  1  0.000000  0.000000  0.660711  1
  Cd  Cd5  1  0.000000  0.000000  0.232150  1
  Cd  Cd6  1  0.000000  0.000000  0.946430  1
  Cd  Cd7  1  0.666667  0.333333  0.732141  1
  Cd  Cd8  1  0.666667  0.333333  0.017853  1
  Cd  Cd9  1  0.666667  0.333333  0.589282  1
  Cd  Cd10  1  0.666667  0.333333  0.446441  1
  Cd  Cd11  1  0.000000  0.000000  0.089286  1
  Cd  Cd12  1  0.000000  0.000000  0.374996  1
  Cd  Cd13  1  0.000000  0.000000  0.875000  1
  I  I14  1  0.666667  0.333333  0.072536  1
  I  I15  1  0.333333  0.666667  0.534595  1
  I  I16  1  0.333333  0.666667  0.177465  1
  I  I17  1  0.333333  0.666667  0.106044  1
  I  I18  1  0.333333  0.666667  0.463176  1
  I  I19  1  0.666667  0.333333  0.786832  1
  I  I20  1  0.000000  0.000000  0.715381  1
  I  I21  1  0.000000  0.000000  0.286810  1
  I  I22  1  0.666667  0.333333  0.643953  1
  I  I23  1  0.333333  0.666667  0.320325  1
  I  I24  1  0.333333  0.666667  0.606042  1
  I  I25  1  0.000000  0.000000  0.143957  1
  I  I26  1  0.333333  0.666667  0.820328  1
  I  I27  1  0.333333  0.666667  0.963169  1
  I  I28  1  0.000000  0.000000  0.001126  1
  I  I29  1  0.666667  0.333333  0.858262  1
  I  I30  1  0.666667  0.333333  0.929677  1
  I  I31  1  0.333333  0.666667  0.677461  1
  I  I32  1  0.666667  0.333333  0.215401  1
  I  I33  1  0.333333  0.666667  0.034604  1
  I  I34  1  0.333333  0.666667  0.891738  1
  I  I35  1  0.333333  0.666667  0.248903  1
  I  I36  1  0.666667  0.333333  0.358259  1
  I  I37  1  0.333333  0.666667  0.391737  1
  I  I38  1  0.666667  0.333333  0.501094  1
  I  I39  1  0.000000  0.000000  0.572547  1
  I  I40  1  0.000000  0.000000  0.429683  1
  I  I41  1  0.333333  0.666667  0.748894  1
