# generated using pymatgen
data_KMg3AlSi3(O5F)2
_symmetry_space_group_name_H-M   'P 1'
_cell_length_a   13.75999311
_cell_length_b   5.94789822
_cell_length_c   7.09311292
_cell_angle_alpha   92.75622919
_cell_angle_beta   91.19103593
_cell_angle_gamma   64.38892240
_symmetry_Int_Tables_number   1
_chemical_formula_structural   KMg3AlSi3(O5F)2
_chemical_formula_sum   'K2 Mg6 Al2 Si6 O20 F4'
_cell_volume   522.87945210
_cell_formula_units_Z   2
loop_
 _symmetry_equiv_pos_site_id
 _symmetry_equiv_pos_as_xyz
  1  'x, y, z'
loop_
 _atom_site_type_symbol
 _atom_site_label
 _atom_site_symmetry_multiplicity
 _atom_site_fract_x
 _atom_site_fract_y
 _atom_site_fract_z
 _atom_site_occupancy
  K  K0  1  -0.000973  0.477740  0.056686  1
  K  K1  1  0.499027  0.524206  0.943314  1
  Mg  Mg2  1  0.039648  0.072004  0.538704  1
  Mg  Mg3  1  0.110688  0.536364  0.612929  1
  Mg  Mg4  1  0.331084  0.460885  0.603478  1
  Mg  Mg5  1  0.539648  0.848699  0.461296  1
  Mg  Mg6  1  0.610688  0.242260  0.387071  1
  Mg  Mg7  1  0.831084  0.876947  0.396522  1
  Al  Al8  1  0.266586  0.455002  0.208151  1
  Al  Al9  1  0.766586  0.011825  0.791849  1
  Si  Si10  1  0.268502  0.946904  0.234909  1
  Si  Si11  1  0.165871  0.820662  0.917848  1
  Si  Si12  1  0.301396  -0.017016  0.647761  1
  Si  Si13  1  0.665871  0.847597  0.082152  1
  Si  Si14  1  0.801396  0.414225  0.352239  1
  Si  Si15  1  0.768502  0.516093  0.765091  1
  O  O16  1  0.925595  0.339734  0.402228  1
  O  O17  1  0.329198  0.121296  0.196635  1
  O  O18  1  0.160630  0.029559  0.088651  1
  O  O19  1  0.339588  0.645862  0.197555  1
  O  O20  1  0.272907  0.257553  0.730954  1
  O  O21  1  0.209385  0.549534  0.428788  1
  O  O22  1  0.175028  0.578513  0.023946  1
  O  O23  1  0.275566  0.782611  0.785057  1
  O  O24  1  0.218909  0.010836  0.456227  1
  O  O25  1  0.573493  0.988074  0.237863  1
  O  O26  1  0.425595  0.809076  0.597772  1
  O  O27  1  0.772907  0.196633  0.269046  1
  O  O28  1  0.675028  0.071430  0.976054  1
  O  O29  1  0.775566  0.666256  0.214943  1
  O  O30  1  0.829198  0.220307  0.803365  1
  O  O31  1  0.718909  0.551345  0.543773  1
  O  O32  1  0.660630  0.649182  0.911349  1
  O  O33  1  0.839588  0.674963  0.802445  1
  O  O34  1  0.709385  0.031696  0.571212  1
  O  O35  1  0.073493  0.864941  0.762137  1
  F  F36  1  0.056013  0.324852  0.704984  1
  F  F37  1  0.980885  0.794993  0.445729  1
  F  F38  1  0.480885  0.243236  0.554271  1
  F  F39  1  0.556013  0.563121  0.295016  1
