# generated using pymatgen
data_Na2AlFeF7
_symmetry_space_group_name_H-M   'P 1'
_cell_length_a   7.28553495
_cell_length_b   7.28553493
_cell_length_c   24.52441580
_cell_angle_alpha   89.99358275
_cell_angle_beta   98.71357163
_cell_angle_gamma   119.36803953
_symmetry_Int_Tables_number   1
_chemical_formula_structural   Na2AlFeF7
_chemical_formula_sum   'Na16 Al8 Fe8 F56'
_cell_volume   1117.18362472
_cell_formula_units_Z   8
loop_
 _symmetry_equiv_pos_site_id
 _symmetry_equiv_pos_as_xyz
  1  'x, y, z'
loop_
 _atom_site_type_symbol
 _atom_site_label
 _atom_site_symmetry_multiplicity
 _atom_site_fract_x
 _atom_site_fract_y
 _atom_site_fract_z
 _atom_site_occupancy
  Na  Na0  1  0.742454  0.116932  0.878410  1
  Na  Na1  1  0.500000  0.500000  0.000000  1
  Na  Na2  1  0.261478  0.135956  0.378410  1
  Na  Na3  1  0.951629  0.699193  0.747447  1
  Na  Na4  1  0.257546  0.883068  0.121590  1
  Na  Na5  1  0.042823  0.792823  0.250000  1
  Na  Na6  1  0.548254  0.795818  0.247447  1
  Na  Na7  1  0.000000  0.000000  0.000000  1
  Na  Na8  1  0.048371  0.300807  0.252553  1
  Na  Na9  1  0.500000  0.000000  0.500000  1
  Na  Na10  1  0.451746  0.204182  0.752553  1
  Na  Na11  1  0.500000  0.500000  0.500000  1
  Na  Na12  1  0.000000  0.500000  0.500000  1
  Na  Na13  1  0.500000  0.000000  0.000000  1
  Na  Na14  1  0.738522  0.864044  0.621590  1
  Na  Na15  1  0.957177  0.207177  0.750000  1
  Al  Al16  1  0.499818  0.749818  0.750000  1
  Al  Al17  1  0.500182  0.250182  0.250000  1
  Al  Al18  1  0.734162  0.361157  0.625864  1
  Al  Al19  1  0.764707  0.891702  0.125864  1
  Al  Al20  1  0.265838  0.638843  0.374136  1
  Al  Al21  1  0.000000  0.500000  0.000000  1
  Al  Al22  1  0.000000  0.000000  0.500000  1
  Al  Al23  1  0.235293  0.108298  0.874136  1
  Fe  Fe24  1  0.763703  0.136548  0.374093  1
  Fe  Fe25  1  0.760829  0.388229  0.127705  1
  Fe  Fe26  1  0.262455  0.389610  0.125907  1
  Fe  Fe27  1  0.239475  0.366875  0.627705  1
  Fe  Fe28  1  0.239171  0.611771  0.872295  1
  Fe  Fe29  1  0.236297  0.863452  0.625907  1
  Fe  Fe30  1  0.737545  0.610390  0.874093  1
  Fe  Fe31  1  0.760525  0.633125  0.372295  1
  F  F32  1  0.640092  0.003635  0.790538  1
  F  F33  1  0.286903  0.150446  0.290538  1
  F  F34  1  0.647001  0.509993  0.289984  1
  F  F35  1  0.136462  0.292577  0.859800  1
  F  F36  1  0.650599  0.147710  0.292552  1
  F  F37  1  0.539771  0.450727  0.612111  1
  F  F38  1  0.153848  0.778553  0.030538  1
  F  F39  1  0.189863  0.571849  0.953409  1
  F  F40  1  0.355158  0.358047  0.207448  1
  F  F41  1  0.810137  0.428151  0.046591  1
  F  F42  1  0.462797  0.919326  0.389147  1
  F  F43  1  0.114554  0.869660  0.544719  1
  F  F44  1  0.067223  0.723338  0.359800  1
  F  F45  1  0.932777  0.276662  0.640200  1
  F  F46  1  0.305154  0.647992  0.591241  1
  F  F47  1  0.661384  0.072339  0.112111  1
  F  F48  1  0.694846  0.352008  0.408759  1
  F  F49  1  0.919690  0.509899  0.838707  1
  F  F50  1  0.151962  0.021373  0.799590  1
  F  F51  1  0.066186  0.357737  0.359429  1
  F  F52  1  0.933814  0.642263  0.640571  1
  F  F53  1  0.248015  0.123310  0.469462  1
  F  F54  1  0.713097  0.849554  0.709462  1
  F  F55  1  0.359908  0.996365  0.209462  1
  F  F56  1  0.720009  0.357017  0.210016  1
  F  F57  1  0.080310  0.490101  0.161293  1
  F  F58  1  0.885446  0.130340  0.455281  1
  F  F59  1  0.171192  0.080983  0.661293  1
  F  F60  1  0.338616  0.927661  0.887889  1
  F  F61  1  0.030178  0.073650  0.110853  1
  F  F62  1  0.848038  0.978627  0.200410  1
  F  F63  1  0.556751  0.713913  0.908759  1
  F  F64  1  0.352999  0.490007  0.710016  1
  F  F65  1  0.721784  0.352373  0.700410  1
  F  F66  1  0.316993  0.191526  0.948791  1
  F  F67  1  0.460229  0.549273  0.387889  1
  F  F68  1  0.828808  0.919017  0.338707  1
  F  F69  1  0.863538  0.707422  0.140200  1
  F  F70  1  0.881559  0.763546  0.453409  1
  F  F71  1  0.278216  0.647627  0.299590  1
  F  F72  1  0.501692  0.293243  0.859429  1
  F  F73  1  0.644842  0.641953  0.792552  1
  F  F74  1  0.751985  0.876690  0.530538  1
  F  F75  1  0.824941  0.569834  0.955281  1
  F  F76  1  0.846152  0.221447  0.969462  1
  F  F77  1  0.349401  0.852290  0.707448  1
  F  F78  1  0.498308  0.706757  0.140571  1
  F  F79  1  0.443249  0.286087  0.091241  1
  F  F80  1  0.175059  0.430166  0.044719  1
  F  F81  1  0.257265  0.631798  0.448791  1
  F  F82  1  0.279991  0.642983  0.789984  1
  F  F83  1  0.742735  0.368202  0.551209  1
  F  F84  1  0.537203  0.080674  0.610853  1
  F  F85  1  0.969822  0.926350  0.889147  1
  F  F86  1  0.683007  0.808474  0.051209  1
  F  F87  1  0.118441  0.236454  0.546591  1
