# generated using pymatgen
data_Ti2O7
_symmetry_space_group_name_H-M   'P 1'
_cell_length_a   5.98694675
_cell_length_b   6.12504179
_cell_length_c   10.88874878
_cell_angle_alpha   88.69206602
_cell_angle_beta   88.19724402
_cell_angle_gamma   119.84737421
_symmetry_Int_Tables_number   1
_chemical_formula_structural   Ti2O7
_chemical_formula_sum   'Ti4 O14'
_cell_volume   345.81643404
_cell_formula_units_Z   2
loop_
 _symmetry_equiv_pos_site_id
 _symmetry_equiv_pos_as_xyz
  1  'x, y, z'
loop_
 _atom_site_type_symbol
 _atom_site_label
 _atom_site_symmetry_multiplicity
 _atom_site_fract_x
 _atom_site_fract_y
 _atom_site_fract_z
 _atom_site_occupancy
  Ti  Ti0  1  0.347213  0.683404  0.327915  1
  Ti  Ti1  1  0.326023  0.658566  0.663358  1
  Ti  Ti2  1  0.674573  0.342422  0.335981  1
  Ti  Ti3  1  0.653521  0.317935  0.671227  1
  O  O4  1  0.987716  0.460155  0.716284  1
  O  O5  1  0.333876  0.676281  0.999328  1
  O  O6  1  0.185159  0.759122  0.034293  1
  O  O7  1  0.459033  0.979904  0.713667  1
  O  O8  1  0.334723  0.670571  0.495505  1
  O  O9  1  0.517222  0.517919  0.713117  1
  O  O10  1  0.517962  0.712520  0.069100  1
  O  O11  1  0.480219  0.285656  0.933201  1
  O  O12  1  0.482917  0.482593  0.286634  1
  O  O13  1  0.665924  0.330635  0.503720  1
  O  O14  1  0.541653  0.021428  0.285301  1
  O  O15  1  0.811768  0.235342  0.966603  1
  O  O16  1  0.667468  0.324334  0.001373  1
  O  O17  1  0.012868  0.541202  0.283312  1
