# generated using pymatgen
data_Yb6U3O17
_symmetry_space_group_name_H-M   'P 1'
_cell_length_a   11.36020004
_cell_length_b   13.54789181
_cell_length_c   12.52348120
_cell_angle_alpha   28.86954626
_cell_angle_beta   25.03455987
_cell_angle_gamma   46.16380308
_symmetry_Int_Tables_number   1
_chemical_formula_structural   Yb6U3O17
_chemical_formula_sum   'Yb6 U3 O17'
_cell_volume   342.48004079
_cell_formula_units_Z   1
loop_
 _symmetry_equiv_pos_site_id
 _symmetry_equiv_pos_as_xyz
  1  'x, y, z'
loop_
 _atom_site_type_symbol
 _atom_site_label
 _atom_site_symmetry_multiplicity
 _atom_site_fract_x
 _atom_site_fract_y
 _atom_site_fract_z
 _atom_site_occupancy
  Yb  Yb0  1  0.005841  0.994797  0.999861  1
  Yb  Yb1  1  0.289775  0.972136  0.067847  1
  Yb  Yb2  1  0.255582  0.344363  0.967091  1
  Yb  Yb3  1  0.121963  0.671054  0.984814  1
  Yb  Yb4  1  0.886300  0.320344  0.004552  1
  Yb  Yb5  1  0.765441  0.691268  0.991291  1
  U  U6  1  0.670036  0.003064  0.992151  1
  U  U7  1  0.563899  0.333265  0.992330  1
  U  U8  1  0.446983  0.663225  0.003390  1
  O  O9  1  0.267702  0.002018  0.242065  1
  O  O10  1  0.168894  0.332041  0.234156  1
  O  O11  1  0.594286  0.012208  0.220914  1
  O  O12  1  0.109332  0.021974  0.701935  1
  O  O13  1  0.025092  0.649333  0.273685  1
  O  O14  1  0.475715  0.337107  0.232276  1
  O  O15  1  0.874974  0.961338  0.321719  1
  O  O16  1  0.427821  0.978700  0.765511  1
  O  O17  1  0.351299  0.659593  0.254668  1
  O  O18  1  0.304867  0.330785  0.753421  1
  O  O19  1  0.750437  0.029979  0.731447  1
  O  O20  1  0.708905  0.705484  0.207134  1
  O  O21  1  0.212144  0.684856  0.706749  1
  O  O22  1  0.655113  0.323853  0.750315  1
  O  O23  1  0.528386  0.647576  0.771630  1
  O  O24  1  0.973979  0.338395  0.734373  1
  O  O25  1  0.808917  0.635809  0.822186  1
