# generated using pymatgen
data_Mg2Zr5O12
_symmetry_space_group_name_H-M   'P 1'
_cell_length_a   6.23634793
_cell_length_b   6.16720397
_cell_length_c   12.56214697
_cell_angle_alpha   99.51562822
_cell_angle_beta   99.34174771
_cell_angle_gamma   98.90794962
_symmetry_Int_Tables_number   1
_chemical_formula_structural   Mg2Zr5O12
_chemical_formula_sum   'Mg4 Zr10 O24'
_cell_volume   461.91658514
_cell_formula_units_Z   2
loop_
 _symmetry_equiv_pos_site_id
 _symmetry_equiv_pos_as_xyz
  1  'x, y, z'
loop_
 _atom_site_type_symbol
 _atom_site_label
 _atom_site_symmetry_multiplicity
 _atom_site_fract_x
 _atom_site_fract_y
 _atom_site_fract_z
 _atom_site_occupancy
  Mg  Mg0  1  0.136012  0.595223  0.659744  1
  Mg  Mg1  1  0.321234  0.138229  0.296280  1
  Mg  Mg2  1  0.678766  0.861771  0.203720  1
  Mg  Mg3  1  0.863988  0.404777  0.840256  1
  Zr  Zr4  1  0.007006  0.009019  0.498034  1
  Zr  Zr5  1  0.392259  0.678439  0.930296  1
  Zr  Zr6  1  0.145000  0.617451  0.161851  1
  Zr  Zr7  1  0.992994  0.990981  0.001966  1
  Zr  Zr8  1  0.300947  0.137178  0.800835  1
  Zr  Zr9  1  0.385452  0.695921  0.429396  1
  Zr  Zr10  1  0.699053  0.862822  0.699165  1
  Zr  Zr11  1  0.607741  0.321561  0.569704  1
  Zr  Zr12  1  0.614548  0.304079  0.070604  1
  Zr  Zr13  1  0.855000  0.382549  0.338149  1
  O  O14  1  0.066563  0.668792  0.960403  1
  O  O15  1  0.084786  0.935506  0.660208  1
  O  O16  1  0.053169  0.683854  0.441809  1
  O  O17  1  0.185126  0.426629  0.790750  1
  O  O18  1  0.107632  0.942910  0.159485  1
  O  O19  1  0.318426  0.085318  0.965789  1
  O  O20  1  0.180809  0.420424  0.292215  1
  O  O21  1  0.446349  0.826713  0.796086  1
  O  O22  1  0.417064  0.581341  0.590017  1
  O  O23  1  0.327164  0.086299  0.470637  1
  O  O24  1  0.419159  0.815698  0.289781  1
  O  O25  1  0.582936  0.418659  0.909983  1
  O  O26  1  0.416472  0.559855  0.087162  1
  O  O27  1  0.553651  0.173287  0.703914  1
  O  O28  1  0.681574  0.914682  0.534211  1
  O  O29  1  0.583528  0.440145  0.412838  1
  O  O30  1  0.580841  0.184302  0.210219  1
  O  O31  1  0.814874  0.573371  0.709250  1
  O  O32  1  0.672836  0.913701  0.029363  1
  O  O33  1  0.915214  0.064494  0.839792  1
  O  O34  1  0.819191  0.579576  0.207785  1
  O  O35  1  0.933437  0.331208  0.539597  1
  O  O36  1  0.892368  0.057090  0.340515  1
  O  O37  1  0.946831  0.316146  0.058191  1
