# generated using pymatgen
data_Tb4Ga6FeGe6
_symmetry_space_group_name_H-M   'P 1'
_cell_length_a   7.45080301
_cell_length_b   7.45071203
_cell_length_c   7.45067177
_cell_angle_alpha   109.47334290
_cell_angle_beta   109.47200099
_cell_angle_gamma   109.46784384
_symmetry_Int_Tables_number   1
_chemical_formula_structural   Tb4Ga6FeGe6
_chemical_formula_sum   'Tb4 Ga6 Fe1 Ge6'
_cell_volume   318.40284631
_cell_formula_units_Z   1
loop_
 _symmetry_equiv_pos_site_id
 _symmetry_equiv_pos_as_xyz
  1  'x, y, z'
loop_
 _atom_site_type_symbol
 _atom_site_label
 _atom_site_symmetry_multiplicity
 _atom_site_fract_x
 _atom_site_fract_y
 _atom_site_fract_z
 _atom_site_occupancy
  Tb  Tb0  1  0.500066  -0.000001  0.999993  1
  Tb  Tb1  1  0.499960  0.499963  0.499976  1
  Tb  Tb2  1  0.999995  0.999995  0.499986  1
  Tb  Tb3  1  0.999968  0.500001  0.999991  1
  Ga  Ga4  1  0.249992  0.750014  0.499994  1
  Ga  Ga5  1  0.249971  0.499980  0.750001  1
  Ga  Ga6  1  0.499983  0.750030  0.250040  1
  Ga  Ga7  1  0.499981  0.249988  0.749974  1
  Ga  Ga8  1  0.749995  0.249964  0.499989  1
  Ga  Ga9  1  0.750033  0.500022  0.250052  1
  Fe  Fe10  1  0.000023  0.000000  0.000016  1
  Ge  Ge11  1  0.000007  0.287897  0.287879  1
  Ge  Ge12  1  0.287890  0.000008  0.287853  1
  Ge  Ge13  1  0.712118  0.999984  0.712133  1
  Ge  Ge14  1  0.000012  0.712136  0.712143  1
  Ge  Ge15  1  0.287856  0.287887  0.999998  1
  Ge  Ge16  1  0.712151  0.712131  0.999986  1
