# generated using pymatgen
data_K4Ti3Ni(PO4)6
_symmetry_space_group_name_H-M   'P 1'
_cell_length_a   9.96286002
_cell_length_b   9.97207555
_cell_length_c   9.96818954
_cell_angle_alpha   90.00000000
_cell_angle_beta   90.00000000
_cell_angle_gamma   89.82985927
_symmetry_Int_Tables_number   1
_chemical_formula_structural   K4Ti3Ni(PO4)6
_chemical_formula_sum   'K8 Ti6 Ni2 P12 O48'
_cell_volume   990.33918034
_cell_formula_units_Z   2
loop_
 _symmetry_equiv_pos_site_id
 _symmetry_equiv_pos_as_xyz
  1  'x, y, z'
loop_
 _atom_site_type_symbol
 _atom_site_label
 _atom_site_symmetry_multiplicity
 _atom_site_fract_x
 _atom_site_fract_y
 _atom_site_fract_z
 _atom_site_occupancy
  K  K0  1  0.062293  0.436836  0.564599  1
  K  K1  1  0.202315  0.787929  0.293435  1
  K  K2  1  0.297685  0.212071  0.793435  1
  K  K3  1  0.437707  0.563164  0.064599  1
  K  K4  1  0.570293  0.069709  0.431431  1
  K  K5  1  0.710586  0.699469  0.706424  1
  K  K6  1  0.789414  0.300531  0.206424  1
  K  K7  1  0.929707  0.930291  0.931431  1
  Ti  Ti8  1  0.082743  0.586318  0.914775  1
  Ti  Ti9  1  0.139748  0.143792  0.140194  1
  Ti  Ti10  1  0.360252  0.856208  0.640194  1
  Ti  Ti11  1  0.417257  0.413682  0.414775  1
  Ti  Ti12  1  0.589793  0.912299  0.086508  1
  Ti  Ti13  1  0.910207  0.087701  0.586508  1
  Ni  Ni14  1  0.645561  0.355275  0.854513  1
  Ni  Ni15  1  0.854439  0.644725  0.354513  1
  P  P16  1  0.041817  0.773992  0.626796  1
  P  P17  1  0.127647  0.458477  0.227080  1
  P  P18  1  0.226188  0.126725  0.456823  1
  P  P19  1  0.273812  0.873275  0.956823  1
  P  P20  1  0.372353  0.541523  0.727080  1
  P  P21  1  0.458183  0.226008  0.126796  1
  P  P22  1  0.545481  0.728060  0.374993  1
  P  P23  1  0.623531  0.044678  0.772001  1
  P  P24  1  0.729384  0.376944  0.544122  1
  P  P25  1  0.770616  0.623056  0.044122  1
  P  P26  1  0.876469  0.955322  0.272001  1
  P  P27  1  0.954519  0.271940  0.874993  1
  O  O28  1  0.001366  0.419053  0.854079  1
  O  O29  1  0.027132  0.544373  0.298749  1
  O  O30  1  0.024678  0.701461  0.764656  1
  O  O31  1  0.052146  0.202076  0.977244  1
  O  O32  1  0.084122  0.307377  0.230112  1
  O  O33  1  0.079028  0.147292  0.500682  1
  O  O34  1  0.149136  0.499310  0.077582  1
  O  O35  1  0.193046  0.770782  0.584602  1
  O  O36  1  0.197527  0.740440  0.979639  1
  O  O37  1  0.202035  0.979115  0.045446  1
  O  O38  1  0.232305  0.079856  0.308871  1
  O  O39  1  0.235070  0.526153  0.800012  1
  O  O40  1  0.264930  0.473847  0.300012  1
  O  O41  1  0.267695  0.920144  0.808871  1
  O  O42  1  0.297965  0.020885  0.545446  1
  O  O43  1  0.302473  0.259560  0.479639  1
  O  O44  1  0.306954  0.229218  0.084602  1
  O  O45  1  0.350864  0.500690  0.577582  1
  O  O46  1  0.420972  0.852708  0.000682  1
  O  O47  1  0.415878  0.692623  0.730112  1
  O  O48  1  0.447854  0.797924  0.477243  1
  O  O49  1  0.475322  0.298539  0.264656  1
  O  O50  1  0.472868  0.455627  0.798749  1
  O  O51  1  0.498634  0.580947  0.354079  1
  O  O52  1  0.500057  0.077119  0.148353  1
  O  O53  1  0.521510  0.947969  0.701952  1
  O  O54  1  0.521262  0.803624  0.240341  1
  O  O55  1  0.542921  0.298687  0.026175  1
  O  O56  1  0.571512  0.186751  0.759905  1
  O  O57  1  0.578855  0.353287  0.499802  1
  O  O58  1  0.645119  0.998293  0.919295  1
  O  O59  1  0.687080  0.740702  0.428025  1
  O  O60  1  0.700416  0.765150  0.027231  1
  O  O61  1  0.700381  0.530834  0.947379  1
  O  O62  1  0.738590  0.424586  0.688423  1
  O  O63  1  0.740618  0.980010  0.197751  1
  O  O64  1  0.759382  0.019990  0.697751  1
  O  O65  1  0.761410  0.575414  0.188423  1
  O  O66  1  0.799619  0.469166  0.447379  1
  O  O67  1  0.799584  0.234850  0.527231  1
  O  O68  1  0.812920  0.259298  0.928025  1
  O  O69  1  0.854881  0.001707  0.419295  1
  O  O70  1  0.921145  0.646713  0.999802  1
  O  O71  1  0.928488  0.813249  0.259905  1
  O  O72  1  0.957079  0.701313  0.526175  1
  O  O73  1  0.978738  0.196376  0.740341  1
  O  O74  1  0.978490  0.052031  0.201952  1
  O  O75  1  0.999943  0.922881  0.648353  1
