# generated using pymatgen
data_Cd3(BiO2)10
_symmetry_space_group_name_H-M   'P 1'
_cell_length_a   8.92502380
_cell_length_b   8.92502383
_cell_length_c   8.83868160
_cell_angle_alpha   108.88742490
_cell_angle_beta   108.63421548
_cell_angle_gamma   111.28380429
_symmetry_Int_Tables_number   1
_chemical_formula_structural   Cd3(BiO2)10
_chemical_formula_sum   'Cd3 Bi10 O20'
_cell_volume   539.08014642
_cell_formula_units_Z   1
loop_
 _symmetry_equiv_pos_site_id
 _symmetry_equiv_pos_as_xyz
  1  'x, y, z'
loop_
 _atom_site_type_symbol
 _atom_site_label
 _atom_site_symmetry_multiplicity
 _atom_site_fract_x
 _atom_site_fract_y
 _atom_site_fract_z
 _atom_site_occupancy
  Cd  Cd0  1  0.999697  0.999697  0.000000  1
  Cd  Cd1  1  0.320557  0.189497  0.496649  1
  Cd  Cd2  1  0.692848  0.823908  0.503351  1
  Bi  Bi3  1  0.180827  0.862171  0.688506  1
  Bi  Bi4  1  0.133103  0.322592  0.823806  1
  Bi  Bi5  1  0.173665  0.492321  0.311494  1
  Bi  Bi6  1  0.339264  0.840152  0.169625  1
  Bi  Bi7  1  0.502606  0.678727  0.813653  1
  Bi  Bi8  1  0.498786  0.309297  0.176194  1
  Bi  Bi9  1  0.670526  0.169638  0.830375  1
  Bi  Bi10  1  0.814353  0.517178  0.674799  1
  Bi  Bi11  1  0.865074  0.688953  0.186347  1
  Bi  Bi12  1  0.842378  0.139553  0.325201  1
  O  O13  1  0.002087  0.012465  0.746858  1
  O  O14  1  0.255975  0.631767  0.905971  1
  O  O15  1  0.982520  0.737935  0.000605  1
  O  O16  1  0.117256  0.729947  0.356641  1
  O  O17  1  0.001824  0.351300  0.001374  1
  O  O18  1  0.373306  0.760615  0.643359  1
  O  O19  1  0.247971  0.388253  0.630007  1
  O  O20  1  0.367035  0.109441  0.722682  1
  O  O21  1  0.265607  0.255228  0.253142  1
  O  O22  1  0.386759  0.644353  0.277318  1
  O  O23  1  0.644625  0.648927  0.650382  1
  O  O24  1  0.623135  0.888889  0.254728  1
  O  O25  1  0.634160  0.368407  0.745272  1
  O  O26  1  0.349926  0.000450  0.998626  1
  O  O27  1  0.619060  0.256758  0.381603  1
  O  O28  1  0.758246  0.617965  0.369993  1
  O  O29  1  0.725796  0.350003  0.094029  1
  O  O30  1  0.875155  0.237457  0.618397  1
  O  O31  1  0.737330  0.981915  0.999395  1
  O  O32  1  0.998545  0.994243  0.349618  1
