# generated using pymatgen
data_Hg2Pb(SBr)2
_symmetry_space_group_name_H-M   'P 1'
_cell_length_a   9.14531567
_cell_length_b   10.96306925
_cell_length_c   13.68020100
_cell_angle_alpha   111.01304488
_cell_angle_beta   90.00000000
_cell_angle_gamma   90.00000000
_symmetry_Int_Tables_number   1
_chemical_formula_structural   Hg2Pb(SBr)2
_chemical_formula_sum   'Hg8 Pb4 S8 Br8'
_cell_volume   1280.37476404
_cell_formula_units_Z   4
loop_
 _symmetry_equiv_pos_site_id
 _symmetry_equiv_pos_as_xyz
  1  'x, y, z'
loop_
 _atom_site_type_symbol
 _atom_site_label
 _atom_site_symmetry_multiplicity
 _atom_site_fract_x
 _atom_site_fract_y
 _atom_site_fract_z
 _atom_site_occupancy
  Hg  Hg0  1  0.178703  0.931820  0.389936  1
  Hg  Hg1  1  0.934522  0.648614  0.327701  1
  Hg  Hg2  1  0.065478  0.351386  0.672299  1
  Hg  Hg3  1  0.321297  0.431820  0.889936  1
  Hg  Hg4  1  0.678703  0.568180  0.110064  1
  Hg  Hg5  1  0.565478  0.148614  0.827701  1
  Hg  Hg6  1  0.821297  0.068180  0.610064  1
  Hg  Hg7  1  0.434522  0.851386  0.172299  1
  Pb  Pb8  1  0.091739  0.812551  0.947434  1
  Pb  Pb9  1  0.591739  0.687449  0.552566  1
  Pb  Pb10  1  0.908261  0.187449  0.052566  1
  Pb  Pb11  1  0.408261  0.312551  0.447434  1
  S  S12  1  0.031701  0.819393  0.473464  1
  S  S13  1  0.171313  0.537251  0.801534  1
  S  S14  1  0.968299  0.180607  0.526536  1
  S  S15  1  0.531701  0.680607  0.026536  1
  S  S16  1  0.671313  0.962749  0.698466  1
  S  S17  1  0.828687  0.462749  0.198466  1
  S  S18  1  0.468299  0.319393  0.973464  1
  S  S19  1  0.328687  0.037251  0.301534  1
  Br  Br20  1  0.302466  0.591364  0.545383  1
  Br  Br21  1  0.072081  0.735783  0.118172  1
  Br  Br22  1  0.427919  0.235783  0.618172  1
  Br  Br23  1  0.697534  0.408636  0.454617  1
  Br  Br24  1  0.802466  0.908636  0.954617  1
  Br  Br25  1  0.197534  0.091364  0.045383  1
  Br  Br26  1  0.927919  0.264217  0.881828  1
  Br  Br27  1  0.572081  0.764217  0.381828  1
