# generated using pymatgen
data_Cs2UMoO7
_symmetry_space_group_name_H-M   'P 1'
_cell_length_a   12.24627876
_cell_length_b   12.81334719
_cell_length_c   18.14487301
_cell_angle_alpha   90.00000000
_cell_angle_beta   90.00000000
_cell_angle_gamma   90.00000000
_symmetry_Int_Tables_number   1
_chemical_formula_structural   Cs2UMoO7
_chemical_formula_sum   'Cs24 U12 Mo12 O84'
_cell_volume   2847.21765506
_cell_formula_units_Z   12
loop_
 _symmetry_equiv_pos_site_id
 _symmetry_equiv_pos_as_xyz
  1  'x, y, z'
loop_
 _atom_site_type_symbol
 _atom_site_label
 _atom_site_symmetry_multiplicity
 _atom_site_fract_x
 _atom_site_fract_y
 _atom_site_fract_z
 _atom_site_occupancy
  Cs  Cs0  1  0.632068  0.494408  0.403033  1
  Cs  Cs1  1  0.639503  0.958153  0.405235  1
  Cs  Cs2  1  0.367932  0.505592  0.903033  1
  Cs  Cs3  1  0.864551  0.520813  0.241405  1
  Cs  Cs4  1  0.866237  0.516262  0.568795  1
  Cs  Cs5  1  0.635449  0.520813  0.741405  1
  Cs  Cs6  1  0.133763  0.483738  0.068795  1
  Cs  Cs7  1  0.375859  0.997717  0.565008  1
  Cs  Cs8  1  0.139503  0.041847  0.405235  1
  Cs  Cs9  1  0.875859  0.002283  0.565008  1
  Cs  Cs10  1  0.124141  0.997717  0.065008  1
  Cs  Cs11  1  0.633763  0.516262  0.068795  1
  Cs  Cs12  1  0.132068  0.505592  0.403033  1
  Cs  Cs13  1  0.360497  0.041847  0.905235  1
  Cs  Cs14  1  0.872316  0.001136  0.244614  1
  Cs  Cs15  1  0.135449  0.479187  0.741405  1
  Cs  Cs16  1  0.127684  0.998864  0.744614  1
  Cs  Cs17  1  0.372316  0.998864  0.244614  1
  Cs  Cs18  1  0.867932  0.494408  0.903033  1
  Cs  Cs19  1  0.860497  0.958153  0.905235  1
  Cs  Cs20  1  0.627684  0.001136  0.744614  1
  Cs  Cs21  1  0.624141  0.002283  0.065008  1
  Cs  Cs22  1  0.364551  0.479187  0.241405  1
  Cs  Cs23  1  0.366237  0.483738  0.568795  1
  U  U24  1  0.863546  0.262617  0.404848  1
  U  U25  1  0.370479  0.759061  0.736162  1
  U  U26  1  0.129650  0.754381  0.572872  1
  U  U27  1  0.136454  0.737383  0.904848  1
  U  U28  1  0.636454  0.262617  0.904848  1
  U  U29  1  0.629521  0.240939  0.236162  1
  U  U30  1  0.870350  0.245619  0.072872  1
  U  U31  1  0.363546  0.737383  0.404848  1
  U  U32  1  0.370350  0.754381  0.072872  1
  U  U33  1  0.870479  0.240939  0.736162  1
  U  U34  1  0.129521  0.759061  0.236162  1
  U  U35  1  0.629650  0.245619  0.572872  1
  Mo  Mo36  1  0.914125  0.745422  0.405220  1
  Mo  Mo37  1  0.412603  0.245763  0.737527  1
  Mo  Mo38  1  0.085875  0.254578  0.905220  1
  Mo  Mo39  1  0.409229  0.240111  0.073999  1
  Mo  Mo40  1  0.590771  0.759889  0.573999  1
  Mo  Mo41  1  0.587397  0.754237  0.237527  1
  Mo  Mo42  1  0.585875  0.745422  0.905220  1
  Mo  Mo43  1  0.414125  0.254578  0.405220  1
  Mo  Mo44  1  0.912603  0.754237  0.737527  1
  Mo  Mo45  1  0.090771  0.240111  0.573999  1
  Mo  Mo46  1  0.087397  0.245763  0.237527  1
  Mo  Mo47  1  0.909229  0.759889  0.073999  1
  O  O48  1  0.622486  0.107504  0.539336  1
  O  O49  1  0.112376  0.118799  0.907420  1
  O  O50  1  0.502498  0.766852  0.492958  1
  O  O51  1  0.291756  0.172421  0.748463  1
  O  O52  1  0.201854  0.155135  0.558881  1
  O  O53  1  0.382662  0.622480  0.701565  1
  O  O54  1  0.374472  0.898264  0.768474  1
  O  O55  1  0.752611  0.287833  0.817926  1
  O  O56  1  0.493048  0.294901  0.486263  1
  O  O57  1  0.997502  0.766852  0.992958  1
  O  O58  1  0.612376  0.881201  0.907420  1
  O  O59  1  0.986056  0.807096  0.154232  1
  O  O60  1  0.499974  0.220476  0.817363  1
  O  O61  1  0.387624  0.118799  0.407420  1
  O  O62  1  0.013944  0.192904  0.654232  1
  O  O63  1  0.008943  0.288623  0.822020  1
  O  O64  1  0.880530  0.619530  0.732311  1
  O  O65  1  0.402619  0.594721  0.401955  1
  O  O66  1  0.138732  0.369206  0.587263  1
  O  O67  1  0.002498  0.233148  0.492958  1
  O  O68  1  0.119470  0.380470  0.232311  1
  O  O69  1  0.097381  0.594721  0.901955  1
  O  O70  1  0.877514  0.107504  0.039336  1
  O  O71  1  0.617338  0.377520  0.201565  1
  O  O72  1  0.620711  0.382482  0.607509  1
  O  O73  1  0.163768  0.880753  0.907784  1
  O  O74  1  0.515946  0.798980  0.154363  1
  O  O75  1  0.708244  0.827579  0.248463  1
  O  O76  1  0.361268  0.369206  0.087263  1
  O  O77  1  0.874472  0.101736  0.768474  1
  O  O78  1  0.638732  0.630794  0.587263  1
  O  O79  1  0.709756  0.674582  0.905013  1
  O  O80  1  0.798146  0.844865  0.058881  1
  O  O81  1  0.991057  0.711377  0.322020  1
  O  O82  1  0.484054  0.201020  0.654363  1
  O  O83  1  0.249060  0.707077  0.491679  1
  O  O84  1  0.379289  0.617518  0.107509  1
  O  O85  1  0.993047  0.705099  0.486263  1
  O  O86  1  0.836232  0.119247  0.407784  1
  O  O87  1  0.015946  0.201020  0.154363  1
  O  O88  1  0.290244  0.325418  0.405013  1
  O  O89  1  0.882662  0.377520  0.701565  1
  O  O90  1  0.500026  0.779524  0.317363  1
  O  O91  1  0.122486  0.892496  0.539336  1
  O  O92  1  0.250782  0.799242  0.154546  1
  O  O93  1  0.380530  0.380470  0.732311  1
  O  O94  1  0.209756  0.325418  0.905013  1
  O  O95  1  0.336232  0.880753  0.407784  1
  O  O96  1  0.250940  0.707077  0.991679  1
  O  O97  1  0.749060  0.292923  0.491679  1
  O  O98  1  0.513944  0.807096  0.654232  1
  O  O99  1  0.247389  0.712167  0.317926  1
  O  O100  1  0.117338  0.622480  0.201565  1
  O  O101  1  0.999974  0.779524  0.817363  1
  O  O102  1  0.887624  0.881201  0.407420  1
  O  O103  1  0.006953  0.294901  0.986263  1
  O  O104  1  0.747389  0.287833  0.317926  1
  O  O105  1  0.298146  0.155135  0.058881  1
  O  O106  1  0.249218  0.799242  0.654546  1
  O  O107  1  0.750782  0.200758  0.154546  1
  O  O108  1  0.625528  0.101736  0.268474  1
  O  O109  1  0.663768  0.119247  0.907784  1
  O  O110  1  0.619470  0.619530  0.232311  1
  O  O111  1  0.208244  0.172421  0.248463  1
  O  O112  1  0.497502  0.233148  0.992958  1
  O  O113  1  0.125528  0.898264  0.268474  1
  O  O114  1  0.000026  0.220476  0.317363  1
  O  O115  1  0.791756  0.827579  0.748463  1
  O  O116  1  0.790244  0.674582  0.405013  1
  O  O117  1  0.861268  0.630794  0.087263  1
  O  O118  1  0.486056  0.192904  0.154232  1
  O  O119  1  0.701854  0.844865  0.558881  1
  O  O120  1  0.377514  0.892496  0.039336  1
  O  O121  1  0.902619  0.405279  0.401955  1
  O  O122  1  0.750940  0.292923  0.991679  1
  O  O123  1  0.508943  0.711377  0.822020  1
  O  O124  1  0.597381  0.405279  0.901955  1
  O  O125  1  0.879289  0.382482  0.107509  1
  O  O126  1  0.252611  0.712167  0.817926  1
  O  O127  1  0.491057  0.288623  0.322020  1
  O  O128  1  0.984054  0.798980  0.654363  1
  O  O129  1  0.120711  0.617518  0.607509  1
  O  O130  1  0.749218  0.200758  0.654546  1
  O  O131  1  0.506953  0.705099  0.986263  1
