# generated using pymatgen
data_Ba2YTlCu2O7
_symmetry_space_group_name_H-M   'P 1'
_cell_length_a   3.87821814
_cell_length_b   3.87823818
_cell_length_c   12.81036143
_cell_angle_alpha   89.99946402
_cell_angle_beta   89.99978866
_cell_angle_gamma   90.00020934
_symmetry_Int_Tables_number   1
_chemical_formula_structural   Ba2YTlCu2O7
_chemical_formula_sum   'Ba2 Y1 Tl1 Cu2 O7'
_cell_volume   192.67620953
_cell_formula_units_Z   1
loop_
 _symmetry_equiv_pos_site_id
 _symmetry_equiv_pos_as_xyz
  1  'x, y, z'
loop_
 _atom_site_type_symbol
 _atom_site_label
 _atom_site_symmetry_multiplicity
 _atom_site_fract_x
 _atom_site_fract_y
 _atom_site_fract_z
 _atom_site_occupancy
  Ba  Ba0  1  0.500001  0.500001  0.206826  1
  Ba  Ba1  1  0.500000  0.500004  0.793192  1
  Y  Y2  1  0.499998  0.499996  0.499998  1
  Tl  Tl3  1  0.000002  0.000000  0.000032  1
  Cu  Cu4  1  0.000005  0.000009  0.374825  1
  Cu  Cu5  1  0.999998  0.999998  0.625128  1
  O  O6  1  -0.000002  -0.000003  0.164615  1
  O  O7  1  -0.000004  0.499999  0.387644  1
  O  O8  1  0.500003  -0.000003  0.387644  1
  O  O9  1  0.499999  0.000003  0.612342  1
  O  O10  1  0.499999  0.499998  0.000013  1
  O  O11  1  0.000001  0.499995  0.612344  1
  O  O12  1  -0.000002  0.000003  0.835398  1
