# generated using pymatgen
data_V(FeSe2)2
_symmetry_space_group_name_H-M   'P 1'
_cell_length_a   5.78477527
_cell_length_b   4.95334954
_cell_length_c   4.86735065
_cell_angle_alpha   106.79282574
_cell_angle_beta   111.30499082
_cell_angle_gamma   94.85143633
_symmetry_Int_Tables_number   1
_chemical_formula_structural   V(FeSe2)2
_chemical_formula_sum   'V1 Fe2 Se4'
_cell_volume   121.55530568
_cell_formula_units_Z   1
loop_
 _symmetry_equiv_pos_site_id
 _symmetry_equiv_pos_as_xyz
  1  'x, y, z'
loop_
 _atom_site_type_symbol
 _atom_site_label
 _atom_site_symmetry_multiplicity
 _atom_site_fract_x
 _atom_site_fract_y
 _atom_site_fract_z
 _atom_site_occupancy
  V  V0  1  0.311131  0.633238  0.806823  1
  Fe  Fe1  1  0.707430  0.430913  0.064464  1
  Fe  Fe2  1  0.466907  0.248041  0.383094  1
  Se  Se3  1  0.822379  0.612608  0.621553  1
  Se  Se4  1  0.320757  0.125086  0.712948  1
  Se  Se5  1  0.712807  0.952011  0.202947  1
  Se  Se6  1  0.158589  0.498103  0.208171  1
