# generated using pymatgen
data_K2Mn(SnSe3)2
_symmetry_space_group_name_H-M   'P 1'
_cell_length_a   8.42864321
_cell_length_b   8.42864321
_cell_length_c   19.94422634
_cell_angle_alpha   90.00000000
_cell_angle_beta   90.00000000
_cell_angle_gamma   90.00000000
_symmetry_Int_Tables_number   1
_chemical_formula_structural   K2Mn(SnSe3)2
_chemical_formula_sum   'K8 Mn4 Sn8 Se24'
_cell_volume   1416.87825341
_cell_formula_units_Z   4
loop_
 _symmetry_equiv_pos_site_id
 _symmetry_equiv_pos_as_xyz
  1  'x, y, z'
loop_
 _atom_site_type_symbol
 _atom_site_label
 _atom_site_symmetry_multiplicity
 _atom_site_fract_x
 _atom_site_fract_y
 _atom_site_fract_z
 _atom_site_occupancy
  K  K0  1  0.750000  0.750000  0.321104  1
  K  K1  1  0.750000  0.750000  0.025888  1
  K  K2  1  0.250000  0.250000  0.178896  1
  K  K3  1  0.750000  0.750000  0.821104  1
  K  K4  1  0.250000  0.250000  0.678896  1
  K  K5  1  0.250000  0.250000  0.974112  1
  K  K6  1  0.250000  0.250000  0.474112  1
  K  K7  1  0.750000  0.750000  0.525888  1
  Mn  Mn8  1  0.750000  0.250000  0.000000  1
  Mn  Mn9  1  0.250000  0.750000  0.500000  1
  Mn  Mn10  1  0.750000  0.250000  0.500000  1
  Mn  Mn11  1  0.250000  0.750000  0.000000  1
  Sn  Sn12  1  0.750000  0.250000  0.338265  1
  Sn  Sn13  1  0.750000  0.250000  0.161735  1
  Sn  Sn14  1  0.250000  0.750000  0.838265  1
  Sn  Sn15  1  0.250000  0.750000  0.661735  1
  Sn  Sn16  1  0.250000  0.750000  0.338265  1
  Sn  Sn17  1  0.250000  0.750000  0.161735  1
  Sn  Sn18  1  0.750000  0.250000  0.838265  1
  Sn  Sn19  1  0.750000  0.250000  0.661735  1
  Se  Se20  1  0.412787  0.587213  0.250000  1
  Se  Se21  1  0.427528  0.594550  0.917623  1
  Se  Se22  1  0.072472  0.594550  0.417623  1
  Se  Se23  1  0.594550  0.072472  0.917623  1
  Se  Se24  1  0.087213  0.912787  0.250000  1
  Se  Se25  1  0.594550  0.427528  0.417623  1
  Se  Se26  1  0.405450  0.572472  0.582377  1
  Se  Se27  1  0.087213  0.587213  0.750000  1
  Se  Se28  1  0.094550  0.572472  0.082377  1
  Se  Se29  1  0.587213  0.412787  0.750000  1
  Se  Se30  1  0.405450  0.927528  0.082377  1
  Se  Se31  1  0.412787  0.912787  0.750000  1
  Se  Se32  1  0.572472  0.405450  0.082377  1
  Se  Se33  1  0.427528  0.905450  0.417623  1
  Se  Se34  1  0.912787  0.087213  0.750000  1
  Se  Se35  1  0.587213  0.087213  0.250000  1
  Se  Se36  1  0.094550  0.927528  0.582377  1
  Se  Se37  1  0.927528  0.094550  0.082377  1
  Se  Se38  1  0.072472  0.905450  0.917623  1
  Se  Se39  1  0.912787  0.412787  0.250000  1
  Se  Se40  1  0.927528  0.405450  0.582377  1
  Se  Se41  1  0.905450  0.072472  0.417623  1
  Se  Se42  1  0.572472  0.094550  0.582377  1
  Se  Se43  1  0.905450  0.427528  0.917623  1
