# generated using pymatgen
data_Fe(CO)5
_symmetry_space_group_name_H-M   'P 1'
_cell_length_a   6.85732248
_cell_length_b   6.85732209
_cell_length_c   9.41567278
_cell_angle_alpha   74.47757796
_cell_angle_beta   74.47757885
_cell_angle_gamma   59.90725353
_symmetry_Int_Tables_number   1
_chemical_formula_structural   Fe(CO)5
_chemical_formula_sum   'Fe2 C10 O10'
_cell_volume   364.34463745
_cell_formula_units_Z   2
loop_
 _symmetry_equiv_pos_site_id
 _symmetry_equiv_pos_as_xyz
  1  'x, y, z'
loop_
 _atom_site_type_symbol
 _atom_site_label
 _atom_site_symmetry_multiplicity
 _atom_site_fract_x
 _atom_site_fract_y
 _atom_site_fract_z
 _atom_site_occupancy
  Fe  Fe0  1  0.833136  0.166864  0.250000  1
  Fe  Fe1  1  0.166864  0.833136  0.750000  1
  C  C2  1  0.293017  0.964728  0.816818  1
  C  C3  1  0.095433  0.904567  0.250000  1
  C  C4  1  0.384758  0.779764  0.588198  1
  C  C5  1  0.904567  0.095433  0.750000  1
  C  C6  1  0.779764  0.384758  0.088198  1
  C  C7  1  0.035272  0.706983  0.683182  1
  C  C8  1  0.964728  0.293017  0.316818  1
  C  C9  1  0.706983  0.035272  0.183182  1
  C  C10  1  0.220236  0.615242  0.911802  1
  C  C11  1  0.615242  0.220236  0.411802  1
  O  O12  1  0.628833  0.950462  0.140625  1
  O  O13  1  0.473265  0.255654  0.516022  1
  O  O14  1  0.526735  0.744346  0.483978  1
  O  O15  1  0.049538  0.371167  0.359375  1
  O  O16  1  0.950462  0.628833  0.640625  1
  O  O17  1  0.255654  0.473265  0.016022  1
  O  O18  1  0.371167  0.049538  0.859375  1
  O  O19  1  0.265006  0.734994  0.250000  1
  O  O20  1  0.744346  0.526735  0.983978  1
  O  O21  1  0.734994  0.265006  0.750000  1
