# generated using pymatgen
data_CuH8C2NCl3
_symmetry_space_group_name_H-M   'P 1'
_cell_length_a   9.93599677
_cell_length_b   9.93599677
_cell_length_c   12.14922153
_cell_angle_alpha   58.99738089
_cell_angle_beta   121.00261911
_cell_angle_gamma   127.60135355
_symmetry_Int_Tables_number   1
_chemical_formula_structural   CuH8C2NCl3
_chemical_formula_sum   'Cu4 H32 C8 N4 Cl12'
_cell_volume   778.09872145
_cell_formula_units_Z   4
loop_
 _symmetry_equiv_pos_site_id
 _symmetry_equiv_pos_as_xyz
  1  'x, y, z'
loop_
 _atom_site_type_symbol
 _atom_site_label
 _atom_site_symmetry_multiplicity
 _atom_site_fract_x
 _atom_site_fract_y
 _atom_site_fract_z
 _atom_site_occupancy
  Cu  Cu0  1  0.418427  0.349345  0.921027  1
  Cu  Cu1  1  0.349345  0.418427  0.578973  1
  Cu  Cu2  1  0.581573  0.650655  0.078973  1
  Cu  Cu3  1  0.650655  0.581573  0.421027  1
  H  H4  1  0.233032  0.956219  0.842923  1
  H  H5  1  0.956219  0.233032  0.657077  1
  H  H6  1  0.766968  0.043781  0.157077  1
  H  H7  1  0.043781  0.766968  0.342923  1
  H  H8  1  0.113311  0.948459  0.689903  1
  H  H9  1  0.948459  0.113311  0.810097  1
  H  H10  1  0.886689  0.051541  0.310097  1
  H  H11  1  0.051541  0.886689  0.189903  1
  H  H12  1  0.083589  0.636604  0.934665  1
  H  H13  1  0.636604  0.083589  0.565335  1
  H  H14  1  0.916411  0.363396  0.065335  1
  H  H15  1  0.363396  0.916411  0.434665  1
  H  H16  1  0.937667  0.734353  0.837095  1
  H  H17  1  0.734353  0.937667  0.662905  1
  H  H18  1  0.062333  0.265647  0.162905  1
  H  H19  1  0.265647  0.062333  0.337095  1
  H  H20  1  0.948491  0.624820  0.765727  1
  H  H21  1  0.624820  0.948491  0.734273  1
  H  H22  1  0.051509  0.375180  0.234273  1
  H  H23  1  0.375180  0.051509  0.265727  1
  H  H24  1  0.235004  0.770482  0.713648  1
  H  H25  1  0.770482  0.235004  0.786352  1
  H  H26  1  0.764996  0.229518  0.286352  1
  H  H27  1  0.229518  0.764996  0.213648  1
  H  H28  1  0.379780  0.000102  0.708098  1
  H  H29  1  0.000102  0.379780  0.791902  1
  H  H30  1  0.620220  -0.000102  0.291902  1
  H  H31  1  -0.000102  0.620220  0.208098  1
  H  H32  1  0.389593  0.830011  0.866142  1
  H  H33  1  0.830011  0.389593  0.633858  1
  H  H34  1  0.610407  0.169989  0.133858  1
  H  H35  1  0.169989  0.610407  0.366142  1
  C  C36  1  0.025100  0.705019  0.833732  1
  C  C37  1  0.705019  0.025100  0.666268  1
  C  C38  1  0.974900  0.294981  0.166268  1
  C  C39  1  0.294981  0.974900  0.333732  1
  C  C40  1  0.302566  0.867046  0.766747  1
  C  C41  1  0.867046  0.302566  0.733253  1
  C  C42  1  0.697434  0.132954  0.233253  1
  C  C43  1  0.132954  0.697434  0.266747  1
  N  N44  1  0.169540  0.877429  0.781572  1
  N  N45  1  0.877429  0.169540  0.718428  1
  N  N46  1  0.830460  0.122571  0.218428  1
  N  N47  1  0.122571  0.830460  0.281572  1
  Cl  Cl48  1  0.537571  0.297061  0.839350  1
  Cl  Cl49  1  0.297061  0.537571  0.660650  1
  Cl  Cl50  1  0.462429  0.702939  0.160650  1
  Cl  Cl51  1  0.702939  0.462429  0.339350  1
  Cl  Cl52  1  0.683965  0.586460  0.986662  1
  Cl  Cl53  1  0.586460  0.683965  0.513338  1
  Cl  Cl54  1  0.316035  0.413540  0.013338  1
  Cl  Cl55  1  0.413540  0.316035  0.486662  1
  Cl  Cl56  1  0.194737  0.064084  0.951646  1
  Cl  Cl57  1  0.064084  0.194737  0.548354  1
  Cl  Cl58  1  0.805263  0.935916  0.048354  1
  Cl  Cl59  1  0.935916  0.805263  0.451646  1
