# generated using pymatgen
data_K2LiSn4
_symmetry_space_group_name_H-M   'P 1'
_cell_length_a   15.78103644
_cell_length_b   15.78103596
_cell_length_c   19.18646084
_cell_angle_alpha   114.28487920
_cell_angle_beta   114.25390471
_cell_angle_gamma   90.03163763
_symmetry_Int_Tables_number   1
_chemical_formula_structural   K2LiSn4
_chemical_formula_sum   'K32 Li16 Sn64'
_cell_volume   3887.50182826
_cell_formula_units_Z   16
loop_
 _symmetry_equiv_pos_site_id
 _symmetry_equiv_pos_as_xyz
  1  'x, y, z'
loop_
 _atom_site_type_symbol
 _atom_site_label
 _atom_site_symmetry_multiplicity
 _atom_site_fract_x
 _atom_site_fract_y
 _atom_site_fract_z
 _atom_site_occupancy
  K  K0  1  0.122751  0.872751  0.750000  1
  K  K1  1  0.072379  0.544501  0.135392  1
  K  K2  1  0.363697  0.117996  0.250207  1
  K  K3  1  0.590891  0.563013  0.635392  1
  K  K4  1  0.395296  0.612107  0.743310  1
  K  K5  1  0.409109  0.436987  0.364608  1
  K  K6  1  0.538261  0.058558  0.628051  1
  K  K7  1  0.089046  0.572223  0.633714  1
  K  K8  1  0.611388  0.361388  0.750000  1
  K  K9  1  0.877249  0.127249  0.250000  1
  K  K10  1  0.646742  0.896742  0.250000  1
  K  K11  1  0.353258  0.103258  0.750000  1
  K  K12  1  0.388612  0.638612  0.250000  1
  K  K13  1  0.114070  0.364070  0.250000  1
  K  K14  1  0.604704  0.387893  0.256690  1
  K  K15  1  0.061491  0.044668  0.133714  1
  K  K16  1  0.938509  0.955332  0.866286  1
  K  K17  1  0.910954  0.427777  0.366286  1
  K  K18  1  0.636303  0.882004  0.749793  1
  K  K19  1  0.461739  0.941442  0.371949  1
  K  K20  1  0.132211  0.386509  0.750207  1
  K  K21  1  0.430507  0.410211  0.871949  1
  K  K22  1  0.868797  0.151986  0.756690  1
  K  K23  1  0.561806  0.092293  0.132734  1
  K  K24  1  0.867789  0.613491  0.249793  1
  K  K25  1  0.885930  0.635930  0.750000  1
  K  K26  1  0.569493  0.589789  0.128051  1
  K  K27  1  0.959559  0.929072  0.367266  1
  K  K28  1  0.040441  0.070928  0.632734  1
  K  K29  1  0.438194  0.907707  0.867266  1
  K  K30  1  0.131203  0.848014  0.243310  1
  K  K31  1  0.927621  0.455499  0.864608  1
  Li  Li32  1  0.751887  0.540949  0.998580  1
  Li  Li33  1  0.751581  0.543954  0.501246  1
  Li  Li34  1  0.248640  0.043341  0.502141  1
  Li  Li35  1  0.248419  0.456046  0.498754  1
  Li  Li36  1  0.042708  0.750335  0.998754  1
  Li  Li37  1  0.248113  0.459051  0.001420  1
  Li  Li38  1  0.757749  0.957326  0.003280  1
  Li  Li39  1  0.751360  0.956659  0.497859  1
  Li  Li40  1  0.045954  0.745530  0.503280  1
  Li  Li41  1  0.541200  0.246499  0.997859  1
  Li  Li42  1  0.242251  0.042674  0.996720  1
  Li  Li43  1  0.458800  0.753501  0.002141  1
  Li  Li44  1  0.954046  0.254470  0.496720  1
  Li  Li45  1  0.957292  0.249665  0.001246  1
  Li  Li46  1  0.542369  0.253307  0.501420  1
  Li  Li47  1  0.457631  0.746693  0.498580  1
  Sn  Sn48  1  0.238126  0.265548  0.872427  1
  Sn  Sn49  1  0.851377  0.898993  0.635648  1
  Sn  Sn50  1  0.306127  0.848766  0.447253  1
  Sn  Sn51  1  0.367528  0.234595  0.128572  1
  Sn  Sn52  1  0.403679  0.367710  0.572562  1
  Sn  Sn53  1  0.893977  0.261044  0.628572  1
  Sn  Sn54  1  0.192259  0.898700  0.552718  1
  Sn  Sn55  1  0.866039  0.815125  0.466192  1
  Sn  Sn56  1  0.397997  0.787757  0.138528  1
  Sn  Sn57  1  0.127143  0.110385  0.871481  1
  Sn  Sn58  1  0.886581  0.381455  0.117197  1
  Sn  Sn59  1  0.651067  0.100153  0.966192  1
  Sn  Sn60  1  0.235747  0.389247  0.616791  1
  Sn  Sn61  1  0.227543  0.881044  0.116791  1
  Sn  Sn62  1  0.764253  0.610753  0.383209  1
  Sn  Sn63  1  0.148623  0.101007  0.364352  1
  Sn  Sn64  1  0.772457  0.118956  0.883209  1
  Sn  Sn65  1  0.654017  0.860458  0.052718  1
  Sn  Sn66  1  0.640925  0.353415  0.450652  1
  Sn  Sn67  1  0.263346  0.715729  0.864352  1
  Sn  Sn68  1  0.606878  0.134301  0.372427  1
  Sn  Sn69  1  0.737367  0.604986  0.867412  1
  Sn  Sn70  1  0.761874  0.734452  0.127573  1
  Sn  Sn71  1  0.859129  0.406261  0.556312  1
  Sn  Sn72  1  0.238904  0.755661  0.628519  1
  Sn  Sn73  1  0.693873  0.151234  0.552747  1
  Sn  Sn74  1  0.872857  0.889615  0.128519  1
  Sn  Sn75  1  0.737573  0.369955  0.632588  1
  Sn  Sn76  1  0.140871  0.593739  0.443688  1
  Sn  Sn77  1  0.096041  0.294025  0.426851  1
  Sn  Sn78  1  0.632472  0.765405  0.871428  1
  Sn  Sn79  1  0.807741  0.101300  0.447282  1
  Sn  Sn80  1  0.365365  0.150889  0.469468  1
  Sn  Sn81  1  0.761096  0.244339  0.371481  1
  Sn  Sn82  1  0.902763  0.690273  0.049348  1
  Sn  Sn83  1  0.867174  0.169190  0.073149  1
  Sn  Sn84  1  0.649229  0.759469  0.361472  1
  Sn  Sn85  1  0.262427  0.630045  0.367412  1
  Sn  Sn86  1  0.598487  0.641126  0.947253  1
  Sn  Sn87  1  0.262633  0.395014  0.132588  1
  Sn  Sn88  1  0.097237  0.309727  0.950652  1
  Sn  Sn89  1  0.795149  0.331117  0.927438  1
  Sn  Sn90  1  0.113419  0.618545  0.882803  1
  Sn  Sn91  1  0.133961  0.184875  0.533808  1
  Sn  Sn92  1  0.849949  0.802817  0.943688  1
  Sn  Sn93  1  0.359075  0.646585  0.549348  1
  Sn  Sn94  1  0.401513  0.358874  0.052747  1
  Sn  Sn95  1  0.596321  0.632290  0.427438  1
  Sn  Sn96  1  0.903959  0.705975  0.573149  1
  Sn  Sn97  1  0.318580  0.604104  0.969468  1
  Sn  Sn98  1  0.264258  0.269384  0.382803  1
  Sn  Sn99  1  0.150051  0.197183  0.056312  1
  Sn  Sn100  1  0.106023  0.738956  0.371428  1
  Sn  Sn101  1  0.348933  0.899847  0.033808  1
  Sn  Sn102  1  0.602003  0.212243  0.861472  1
  Sn  Sn103  1  0.735742  0.730616  0.617197  1
  Sn  Sn104  1  0.736654  0.284271  0.135648  1
  Sn  Sn105  1  0.393122  0.865699  0.627573  1
  Sn  Sn106  1  0.132826  0.830810  0.926851  1
  Sn  Sn107  1  0.681420  0.395896  0.030532  1
  Sn  Sn108  1  0.634635  0.849111  0.530532  1
  Sn  Sn109  1  0.204851  0.668883  0.072562  1
  Sn  Sn110  1  0.345983  0.139542  0.947282  1
  Sn  Sn111  1  0.350771  0.240531  0.638528  1
