# generated using pymatgen
data_K3Co(CN)6
_symmetry_space_group_name_H-M   'P 1'
_cell_length_a   7.47238000
_cell_length_b   8.49634295
_cell_length_c   10.62379222
_cell_angle_alpha   90.00000000
_cell_angle_beta   90.00000000
_cell_angle_gamma   106.77806561
_symmetry_Int_Tables_number   1
_chemical_formula_structural   K3Co(CN)6
_chemical_formula_sum   'K6 Co2 C12 N12'
_cell_volume   645.76963205
_cell_formula_units_Z   2
loop_
 _symmetry_equiv_pos_site_id
 _symmetry_equiv_pos_as_xyz
  1  'x, y, z'
loop_
 _atom_site_type_symbol
 _atom_site_label
 _atom_site_symmetry_multiplicity
 _atom_site_fract_x
 _atom_site_fract_y
 _atom_site_fract_z
 _atom_site_occupancy
  K  K0  1  0.506328  0.459690  0.250124  1
  K  K1  1  0.493672  0.040310  0.750124  1
  K  K2  1  0.506328  0.959690  0.249876  1
  K  K3  1  0.493672  0.540310  0.749876  1
  K  K4  1  0.000000  0.500000  0.000000  1
  K  K5  1  0.000000  0.000000  0.500000  1
  Co  Co6  1  0.000000  0.500000  0.500000  1
  Co  Co7  1  0.000000  0.000000  0.000000  1
  C  C8  1  0.899145  0.482991  0.661051  1
  C  C9  1  0.819050  0.303808  0.457386  1
  C  C10  1  0.100855  0.017009  0.161051  1
  C  C11  1  0.161881  0.880842  0.949422  1
  C  C12  1  0.838119  0.119158  0.050578  1
  C  C13  1  0.161881  0.380842  0.550578  1
  C  C14  1  0.819050  0.803808  0.042614  1
  C  C15  1  0.899145  0.982991  0.838949  1
  C  C16  1  0.838119  0.619158  0.449422  1
  C  C17  1  0.180950  0.696192  0.542614  1
  C  C18  1  0.180950  0.196192  0.957386  1
  C  C19  1  0.100855  0.517009  0.338949  1
  N  N20  1  0.830082  0.469358  0.761358  1
  N  N21  1  0.169918  0.530642  0.238642  1
  N  N22  1  0.735769  0.193777  0.082552  1
  N  N23  1  0.706958  0.179731  0.430746  1
  N  N24  1  0.735769  0.693777  0.417448  1
  N  N25  1  0.830082  0.969358  0.738642  1
  N  N26  1  0.264231  0.806223  0.917448  1
  N  N27  1  0.706958  0.679731  0.069254  1
  N  N28  1  0.293042  0.820269  0.569254  1
  N  N29  1  0.264231  0.306223  0.582552  1
  N  N30  1  0.169918  0.030642  0.261358  1
  N  N31  1  0.293042  0.320269  0.930746  1
