# generated using pymatgen
data_Ti24Ga5S48
_symmetry_space_group_name_H-M   'P 1'
_cell_length_a   7.09136317
_cell_length_b   85.04610677
_cell_length_c   12.27944341
_cell_angle_alpha   29.96332465
_cell_angle_beta   54.72204004
_cell_angle_gamma   59.97752554
_symmetry_Int_Tables_number   1
_chemical_formula_structural   Ti24Ga5S48
_chemical_formula_sum   'Ti48 Ga10 S96'
_cell_volume   3019.48316867
_cell_formula_units_Z   2
loop_
 _symmetry_equiv_pos_site_id
 _symmetry_equiv_pos_as_xyz
  1  'x, y, z'
loop_
 _atom_site_type_symbol
 _atom_site_label
 _atom_site_symmetry_multiplicity
 _atom_site_fract_x
 _atom_site_fract_y
 _atom_site_fract_z
 _atom_site_occupancy
  Ti  Ti0  1  0.145453  0.000018  0.625826  1
  Ti  Ti1  1  0.625739  0.038012  0.146185  1
  Ti  Ti2  1  0.602675  0.000015  0.625837  1
  Ti  Ti3  1  0.148322  0.081543  0.624532  1
  Ti  Ti4  1  0.610560  0.120330  0.167452  1
  Ti  Ti5  1  0.618878  0.040526  0.637961  1
  Ti  Ti6  1  0.624114  0.081541  0.624527  1
  Ti  Ti7  1  0.148460  0.168446  0.603073  1
  Ti  Ti8  1  0.618916  0.209455  0.124356  1
  Ti  Ti9  1  0.610536  0.129680  0.611393  1
  Ti  Ti10  1  0.624047  0.168447  0.603050  1
  Ti  Ti11  1  0.145683  0.249980  0.625973  1
  Ti  Ti12  1  0.625299  0.288021  0.146572  1
  Ti  Ti13  1  0.625709  0.212007  0.602250  1
  Ti  Ti14  1  0.602612  0.249984  0.625957  1
  Ti  Ti15  1  0.146889  0.331643  0.624398  1
  Ti  Ti16  1  0.610822  0.370407  0.166749  1
  Ti  Ti17  1  0.619049  0.290289  0.639210  1
  Ti  Ti18  1  0.624586  0.331645  0.624401  1
  Ti  Ti19  1  0.165303  0.416593  0.612031  1
  Ti  Ti20  1  0.611739  0.453834  0.165259  1
  Ti  Ti21  1  0.611401  0.379336  0.612584  1
  Ti  Ti22  1  0.611527  0.416596  0.611987  1
  Ti  Ti23  1  0.163913  0.500100  0.611818  1
  Ti  Ti24  1  0.612502  0.537465  0.162689  1
  Ti  Ti25  1  0.612034  0.462762  0.611379  1
  Ti  Ti26  1  0.611265  0.500099  0.611841  1
  Ti  Ti27  1  0.162380  0.583366  0.612457  1
  Ti  Ti28  1  0.612645  0.620856  0.162211  1
  Ti  Ti29  1  0.612540  0.545860  0.612299  1
  Ti  Ti30  1  0.612327  0.583367  0.612422  1
  Ti  Ti31  1  0.162994  0.666623  0.612734  1
  Ti  Ti32  1  0.612391  0.704084  0.163102  1
  Ti  Ti33  1  0.612404  0.629213  0.612314  1
  Ti  Ti34  1  0.612085  0.666622  0.612719  1
  Ti  Ti35  1  0.163820  0.749897  0.613060  1
  Ti  Ti36  1  0.612512  0.712540  0.612249  1
  Ti  Ti37  1  0.612115  0.787250  0.164379  1
  Ti  Ti38  1  0.611304  0.749897  0.613051  1
  Ti  Ti39  1  0.164522  0.833409  0.611394  1
  Ti  Ti40  1  0.611646  0.870761  0.163785  1
  Ti  Ti41  1  0.612014  0.796063  0.611608  1
  Ti  Ti42  1  0.611778  0.833406  0.611399  1
  Ti  Ti43  1  0.146750  0.918372  0.604041  1
  Ti  Ti44  1  0.618999  0.959725  0.122649  1
  Ti  Ti45  1  0.610973  0.879573  0.611600  1
  Ti  Ti46  1  0.624707  0.918372  0.604047  1
  Ti  Ti47  1  0.625362  0.961946  0.602950  1
  Ga  Ga48  1  0.000857  0.083752  0.996636  1
  Ga  Ga49  1  0.000847  0.166243  0.001706  1
  Ga  Ga50  1  0.000064  0.334182  0.994852  1
  Ga  Ga51  1  0.000863  0.417189  0.996010  1
  Ga  Ga52  1  0.000115  0.499873  0.000648  1
  Ga  Ga53  1  0.000052  0.583279  0.000282  1
  Ga  Ga54  1  0.000053  0.666720  0.999634  1
  Ga  Ga55  1  0.000125  0.750134  0.999071  1
  Ga  Ga56  1  0.000855  0.832816  0.002240  1
  Ga  Ga57  1  0.000061  0.915815  0.005053  1
  S  S58  1  0.373815  0.000016  0.380659  1
  S  S59  1  0.381270  0.041071  0.372294  1
  S  S60  1  0.379219  0.082554  0.381951  1
  S  S61  1  0.864662  0.000015  0.380669  1
  S  S62  1  0.390124  0.999982  0.868460  1
  S  S63  1  0.870436  0.039017  0.395491  1
  S  S64  1  0.376608  0.122982  0.385507  1
  S  S65  1  0.376622  0.042080  0.870904  1
  S  S66  1  0.873220  0.999979  0.868445  1
  S  S67  1  0.379175  0.167459  0.372534  1
  S  S68  1  0.866246  0.082555  0.381939  1
  S  S69  1  0.398001  0.083866  0.865043  1
  S  S70  1  0.868319  0.044370  0.865462  1
  S  S71  1  0.864475  0.122786  0.398806  1
  S  S72  1  0.376557  0.127016  0.861346  1
  S  S73  1  0.376645  0.207929  0.375800  1
  S  S74  1  0.865499  0.083860  0.865088  1
  S  S75  1  0.373847  0.249986  0.380885  1
  S  S76  1  0.866250  0.167458  0.372532  1
  S  S77  1  0.398064  0.166146  0.871385  1
  S  S78  1  0.381204  0.291061  0.372421  1
  S  S79  1  0.864445  0.127220  0.872222  1
  S  S80  1  0.868233  0.205641  0.397922  1
  S  S81  1  0.381290  0.208953  0.864967  1
  S  S82  1  0.865406  0.166152  0.871350  1
  S  S83  1  0.379818  0.332624  0.381538  1
  S  S84  1  0.864534  0.249981  0.380916  1
  S  S85  1  0.390141  0.250007  0.868235  1
  S  S86  1  0.377043  0.372955  0.385219  1
  S  S87  1  0.870417  0.211002  0.863596  1
  S  S88  1  0.870817  0.289147  0.394313  1
  S  S89  1  0.376665  0.292130  0.870542  1
  S  S90  1  0.873338  0.250010  0.868201  1
  S  S91  1  0.375055  0.416694  0.374940  1
  S  S92  1  0.865628  0.332627  0.381493  1
  S  S93  1  0.397394  0.333883  0.865099  1
  S  S94  1  0.375323  0.458260  0.375099  1
  S  S95  1  0.868273  0.294405  0.865320  1
  S  S96  1  0.374416  0.374855  0.876469  1
  S  S97  1  0.865433  0.373029  0.396402  1
  S  S98  1  0.865814  0.333880  0.865112  1
  S  S99  1  0.374917  0.500019  0.375383  1
  S  S100  1  0.874773  0.416696  0.374927  1
  S  S101  1  0.400188  0.416751  0.865965  1
  S  S102  1  0.375290  0.541753  0.374171  1
  S  S103  1  0.866592  0.455488  0.400465  1
  S  S104  1  0.866175  0.378021  0.865679  1
  S  S105  1  0.375414  0.458351  0.874470  1
  S  S106  1  0.866861  0.416751  0.865995  1
  S  S107  1  0.375255  0.583331  0.375372  1
  S  S108  1  0.874151  0.500019  0.375352  1
  S  S109  1  0.399706  0.499948  0.867069  1
  S  S110  1  0.375436  0.624985  0.374657  1
  S  S111  1  0.866313  0.461299  0.865882  1
  S  S112  1  0.867006  0.538864  0.399790  1
  S  S113  1  0.375418  0.541736  0.874147  1
  S  S114  1  0.866792  0.499947  0.867084  1
  S  S115  1  0.375241  0.666667  0.375464  1
  S  S116  1  0.874078  0.583331  0.375369  1
  S  S117  1  0.399441  0.583327  0.866859  1
  S  S118  1  0.866923  0.544363  0.866888  1
  S  S119  1  0.375537  0.708244  0.374993  1
  S  S120  1  0.866889  0.622280  0.399423  1
  S  S121  1  0.375539  0.625035  0.874255  1
  S  S122  1  0.866917  0.583329  0.866864  1
  S  S123  1  0.374937  0.749962  0.375677  1
  S  S124  1  0.873858  0.666667  0.375464  1
  S  S125  1  0.399458  0.666681  0.866651  1
  S  S126  1  0.375318  0.708230  0.875300  1
  S  S127  1  0.866979  0.627738  0.866578  1
  S  S128  1  0.866891  0.705609  0.399431  1
  S  S129  1  0.375376  0.791650  0.374721  1
  S  S130  1  0.867076  0.666677  0.866688  1
  S  S131  1  0.374879  0.833306  0.375216  1
  S  S132  1  0.874216  0.749961  0.375664  1
  S  S133  1  0.399628  0.750017  0.866679  1
  S  S134  1  0.866926  0.711118  0.866341  1
  S  S135  1  0.866426  0.788705  0.401327  1
  S  S136  1  0.375192  0.791714  0.874498  1
  S  S137  1  0.374304  0.875164  0.374728  1
  S  S138  1  0.866813  0.750018  0.866688  1
  S  S139  1  0.379847  0.917381  0.372966  1
  S  S140  1  0.875053  0.833304  0.375219  1
  S  S141  1  0.400054  0.833258  0.867026  1
  S  S142  1  0.377044  0.877043  0.860694  1
  S  S143  1  0.866597  0.794486  0.866478  1
  S  S144  1  0.866161  0.872010  0.401769  1
  S  S145  1  0.376743  0.957883  0.375960  1
  S  S146  1  0.866798  0.833256  0.867056  1
  S  S147  1  0.865640  0.917380  0.372973  1
  S  S148  1  0.397305  0.916141  0.871520  1
  S  S149  1  0.865552  0.876975  0.872589  1
  S  S150  1  0.868231  0.955598  0.398184  1
  S  S151  1  0.381189  0.958925  0.865240  1
  S  S152  1  0.865947  0.916144  0.871513  1
  S  S153  1  0.870781  0.960843  0.864181  1
