# generated using pymatgen
data_Sr(H8O5)2
_symmetry_space_group_name_H-M   'P 1'
_cell_length_a   6.64574170
_cell_length_b   6.54363185
_cell_length_c   5.95682373
_cell_angle_alpha   88.93837701
_cell_angle_beta   88.22934344
_cell_angle_gamma   87.28104652
_symmetry_Int_Tables_number   1
_chemical_formula_structural   Sr(H8O5)2
_chemical_formula_sum   'Sr1 H16 O10'
_cell_volume   258.59315921
_cell_formula_units_Z   1
loop_
 _symmetry_equiv_pos_site_id
 _symmetry_equiv_pos_as_xyz
  1  'x, y, z'
loop_
 _atom_site_type_symbol
 _atom_site_label
 _atom_site_symmetry_multiplicity
 _atom_site_fract_x
 _atom_site_fract_y
 _atom_site_fract_z
 _atom_site_occupancy
  Sr  Sr0  1  0.001125  0.997997  0.003196  1
  H  H1  1  0.326572  0.331552  0.745622  1
  H  H2  1  0.200156  0.207529  0.595104  1
  H  H3  1  0.655303  0.674653  0.689911  1
  H  H4  1  0.687318  0.917771  0.721832  1
  H  H5  1  0.646882  0.310227  0.730634  1
  H  H6  1  0.790947  0.188722  0.574378  1
  H  H7  1  0.315956  0.649735  0.696530  1
  H  H8  1  0.074202  0.651153  0.715755  1
  H  H9  1  0.801155  0.787465  0.414683  1
  H  H10  1  0.674484  0.668076  0.260194  1
  H  H11  1  0.341617  0.323285  0.319414  1
  H  H12  1  0.312972  0.080256  0.285194  1
  H  H13  1  0.209738  0.813308  0.435357  1
  H  H14  1  0.352245  0.688262  0.280441  1
  H  H15  1  0.683392  0.345766  0.311667  1
  H  H16  1  0.924894  0.344736  0.284898  1
  O  O17  1  0.499816  0.510305  0.630589  1
  O  O18  1  0.498775  0.487943  0.378907  1
  O  O19  1  0.215089  0.234568  0.756757  1
  O  O20  1  0.760268  0.782440  0.713312  1
  O  O21  1  0.743997  0.186871  0.734435  1
  O  O22  1  0.185308  0.742802  0.721902  1
  O  O23  1  0.788760  0.761210  0.252085  1
  O  O24  1  0.238371  0.214749  0.293169  1
  O  O25  1  0.257105  0.813104  0.275109  1
  O  O26  1  0.813554  0.252947  0.283373  1
