# generated using pymatgen
data_AlPO4
_symmetry_space_group_name_H-M   'P 1'
_cell_length_a   8.57018806
_cell_length_b   14.96235572
_cell_length_c   18.32587722
_cell_angle_alpha   114.09371101
_cell_angle_beta   90.00000000
_cell_angle_gamma   90.00000000
_symmetry_Int_Tables_number   1
_chemical_formula_structural   AlPO4
_chemical_formula_sum   'Al18 P18 O72'
_cell_volume   2145.20258907
_cell_formula_units_Z   18
loop_
 _symmetry_equiv_pos_site_id
 _symmetry_equiv_pos_as_xyz
  1  'x, y, z'
loop_
 _atom_site_type_symbol
 _atom_site_label
 _atom_site_symmetry_multiplicity
 _atom_site_fract_x
 _atom_site_fract_y
 _atom_site_fract_z
 _atom_site_occupancy
  Al  Al0  1  0.948517  0.074524  1.000000  1
  Al  Al1  1  0.976422  0.965920  0.163432  1
  Al  Al2  1  0.976422  0.802488  0.836568  1
  Al  Al3  1  0.969965  0.775491  0.365692  1
  Al  Al4  1  0.469965  0.590201  0.365692  1
  Al  Al5  1  0.972968  0.123977  0.453121  1
  Al  Al6  1  0.968182  0.057761  0.695613  1
  Al  Al7  1  0.468182  0.637851  0.695613  1
  Al  Al8  1  0.972968  0.670856  0.546879  1
  Al  Al9  1  0.472968  0.329144  0.453121  1
  Al  Al10  1  0.968182  0.362149  0.304387  1
  Al  Al11  1  0.472968  0.876023  0.546879  1
  Al  Al12  1  0.969965  0.409799  0.634308  1
  Al  Al13  1  0.448517  0.925476  0.000000  1
  Al  Al14  1  0.468182  0.942239  0.304387  1
  Al  Al15  1  0.476422  0.034080  0.836568  1
  Al  Al16  1  0.476422  0.197512  0.163432  1
  Al  Al17  1  0.469965  0.224509  0.634308  1
  P  P18  1  0.087984  0.216995  0.639108  1
  P  P19  1  0.096236  0.932013  0.311516  1
  P  P20  1  0.581502  0.124359  0.000000  1
  P  P21  1  0.109617  0.165986  0.163874  1
  P  P22  1  0.596236  0.067987  0.688484  1
  P  P23  1  0.587984  0.783005  0.360892  1
  P  P24  1  0.090922  0.868451  0.550982  1
  P  P25  1  0.109617  0.002112  0.836126  1
  P  P26  1  0.596236  0.379503  0.311516  1
  P  P27  1  0.590922  0.682531  0.550982  1
  P  P28  1  0.090922  0.317469  0.449018  1
  P  P29  1  0.587984  0.422113  0.639108  1
  P  P30  1  0.081502  0.875641  1.000000  1
  P  P31  1  0.609617  0.997888  0.163874  1
  P  P32  1  0.590922  0.131549  0.449018  1
  P  P33  1  0.087984  0.577887  0.360892  1
  P  P34  1  0.609617  0.834014  0.836126  1
  P  P35  1  0.096236  0.620497  0.688484  1
  O  O36  1  0.567543  0.480467  0.310897  1
  O  O37  1  0.529839  0.347594  0.671247  1
  O  O38  1  0.570433  0.105588  0.183451  1
  O  O39  1  0.987568  0.943998  0.249407  1
  O  O40  1  0.568452  0.737479  0.766005  1
  O  O41  1  0.783619  0.838799  0.853574  1
  O  O42  1  0.547347  0.136918  0.921940  1
  O  O43  1  0.070433  0.077863  0.183451  1
  O  O44  1  0.283619  0.014775  0.853574  1
  O  O45  1  0.067543  0.830430  0.310897  1
  O  O46  1  0.529839  0.676347  0.328753  1
  O  O47  1  0.029839  0.323653  0.671247  1
  O  O48  1  0.567543  0.169570  0.689103  1
  O  O49  1  0.269026  0.327776  0.445436  1
  O  O50  1  0.751498  0.095096  1.000000  1
  O  O51  1  0.769026  0.672224  0.554564  1
  O  O52  1  0.512319  0.033609  0.398463  1
  O  O53  1  0.283619  0.161201  0.146426  1
  O  O54  1  0.067543  0.519533  0.689103  1
  O  O55  1  0.251498  0.904904  0.000000  1
  O  O56  1  0.533214  0.164586  0.535261  1
  O  O57  1  0.070433  0.894412  0.816549  1
  O  O58  1  0.021791  0.162011  0.089130  1
  O  O59  1  0.525253  0.524060  0.693841  1
  O  O60  1  0.046293  0.208045  0.416580  1
  O  O61  1  0.068452  0.262521  0.233995  1
  O  O62  1  0.266689  0.939851  0.288575  1
  O  O63  1  0.769026  0.117661  0.445436  1
  O  O64  1  0.766689  0.060149  0.711425  1
  O  O65  1  0.021791  0.072881  0.910870  1
  O  O66  1  0.767329  0.425326  0.640365  1
  O  O67  1  0.033214  0.835414  0.464739  1
  O  O68  1  0.266689  0.651275  0.711425  1
  O  O69  1  0.767329  0.784961  0.359635  1
  O  O70  1  0.568452  0.971474  0.233995  1
  O  O71  1  0.059427  0.615906  0.604766  1
  O  O72  1  0.269026  0.882339  0.554564  1
  O  O73  1  0.474272  0.041092  1.000000  1
  O  O74  1  0.487568  0.056002  0.750593  1
  O  O75  1  0.570433  0.922137  0.816549  1
  O  O76  1  0.029839  0.652406  0.328753  1
  O  O77  1  0.512319  0.635146  0.601537  1
  O  O78  1  0.525253  0.830219  0.306159  1
  O  O79  1  0.533214  0.629325  0.464739  1
  O  O80  1  0.047347  0.785022  0.921940  1
  O  O81  1  0.028968  0.606714  0.446975  1
  O  O82  1  0.487568  0.305409  0.249407  1
  O  O83  1  0.033214  0.370675  0.535261  1
  O  O84  1  0.012319  0.966391  0.601537  1
  O  O85  1  0.267329  0.215039  0.640365  1
  O  O86  1  0.521791  0.927119  0.089130  1
  O  O87  1  0.974272  0.958908  0.000000  1
  O  O88  1  0.047347  0.863082  0.078060  1
  O  O89  1  0.267329  0.574674  0.359635  1
  O  O90  1  0.059427  0.011140  0.395234  1
  O  O91  1  0.547347  0.214978  0.078060  1
  O  O92  1  0.028968  0.159740  0.553025  1
  O  O93  1  0.068452  0.028526  0.766005  1
  O  O94  1  0.559427  0.384094  0.395234  1
  O  O95  1  0.012319  0.364854  0.398463  1
  O  O96  1  0.546293  0.208535  0.416580  1
  O  O97  1  0.783619  0.985225  0.146426  1
  O  O98  1  0.025253  0.475940  0.306159  1
  O  O99  1  0.025253  0.169781  0.693841  1
  O  O100  1  0.559427  0.988860  0.604766  1
  O  O101  1  0.528968  0.840260  0.446975  1
  O  O102  1  0.521791  0.837989  0.910870  1
  O  O103  1  0.546293  0.791955  0.583420  1
  O  O104  1  0.046293  0.791465  0.583420  1
  O  O105  1  0.987568  0.694591  0.750593  1
  O  O106  1  0.528968  0.393286  0.553025  1
  O  O107  1  0.766689  0.348725  0.288575  1
