# generated using pymatgen
data_Ca4LaB3O10
_symmetry_space_group_name_H-M   'P 1'
_cell_length_a   3.65555450
_cell_length_b   8.21075554
_cell_length_c   9.09432753
_cell_angle_alpha   63.16505766
_cell_angle_beta   84.87774238
_cell_angle_gamma   78.59295788
_symmetry_Int_Tables_number   1
_chemical_formula_structural   Ca4LaB3O10
_chemical_formula_sum   'Ca4 La1 B3 O10'
_cell_volume   238.75833012
_cell_formula_units_Z   1
loop_
 _symmetry_equiv_pos_site_id
 _symmetry_equiv_pos_as_xyz
  1  'x, y, z'
loop_
 _atom_site_type_symbol
 _atom_site_label
 _atom_site_symmetry_multiplicity
 _atom_site_fract_x
 _atom_site_fract_y
 _atom_site_fract_z
 _atom_site_occupancy
  B  B0  1  0.088890  0.234770  0.607688  1
  B  B1  1  0.088890  0.842458  0.392312  1
  B  B2  1  0.709785  0.610083  0.000000  1
  O  O3  1  0.273004  0.299881  0.457635  1
  O  O4  1  0.096162  0.748480  0.296486  1
  O  O5  1  0.273004  0.757516  0.542365  1
  O  O6  1  0.891507  0.022458  0.338846  1
  O  O7  1  0.891507  0.361304  0.661154  1
  O  O8  1  0.417888  0.173686  0.000000  1
  O  O9  1  0.757093  0.450861  0.148968  1
  O  O10  1  0.757093  0.599829  0.851032  1
  O  O11  1  0.614467  0.783166  0.000000  1
  O  O12  1  0.096162  0.044967  0.703514  1
  Ca  Ca13  1  0.670735  0.540973  0.362156  1
  Ca  Ca14  1  0.670735  0.903129  0.637844  1
  Ca  Ca15  1  0.333821  0.463986  0.771574  1
  Ca  Ca16  1  0.333821  0.235559  0.228426  1
  La  La17  1  0.001034  0.995597  0.000000  1
