# generated using pymatgen
data_Os7C19SO19
_symmetry_space_group_name_H-M   'P 1'
_cell_length_a   10.20005667
_cell_length_b   11.70857786
_cell_length_c   12.96111145
_cell_angle_alpha   90.00000000
_cell_angle_beta   90.55474758
_cell_angle_gamma   90.00000000
_symmetry_Int_Tables_number   1
_chemical_formula_structural   Os7C19SO19
_chemical_formula_sum   'Os14 C38 S2 O38'
_cell_volume   1547.84910769
_cell_formula_units_Z   2
loop_
 _symmetry_equiv_pos_site_id
 _symmetry_equiv_pos_as_xyz
  1  'x, y, z'
loop_
 _atom_site_type_symbol
 _atom_site_label
 _atom_site_symmetry_multiplicity
 _atom_site_fract_x
 _atom_site_fract_y
 _atom_site_fract_z
 _atom_site_occupancy
  Os  Os0  1  0.130880  0.716259  0.640567  1
  Os  Os1  1  0.902620  0.381287  0.187628  1
  Os  Os2  1  0.412002  0.522341  0.873785  1
  Os  Os3  1  0.814517  0.156069  0.147988  1
  Os  Os4  1  0.394682  0.685247  0.716012  1
  Os  Os5  1  0.097380  0.881287  0.812372  1
  Os  Os6  1  0.185483  0.656069  0.852012  1
  Os  Os7  1  0.760382  0.991057  0.295968  1
  Os  Os8  1  0.605318  0.185247  0.283988  1
  Os  Os9  1  0.310230  0.911795  0.667844  1
  Os  Os10  1  0.689770  0.411795  0.332156  1
  Os  Os11  1  0.587998  0.022341  0.126215  1
  Os  Os12  1  0.239618  0.491057  0.704032  1
  Os  Os13  1  0.869120  0.216259  0.359433  1
  C  C14  1  0.426523  0.194704  0.241663  1
  C  C15  1  0.636964  0.385646  0.470023  1
  C  C16  1  0.218156  0.048669  0.635361  1
  C  C17  1  0.466258  0.646656  0.587222  1
  C  C18  1  0.717300  0.939220  0.431409  1
  C  C19  1  0.877625  0.536724  0.149062  1
  C  C20  1  0.026029  0.841115  0.941125  1
  C  C21  1  0.363036  0.885646  0.529977  1
  C  C22  1  0.032341  0.134695  0.357715  1
  C  C23  1  0.973971  0.341115  0.058875  1
  C  C24  1  0.077516  0.408770  0.710479  1
  C  C25  1  0.981122  0.088470  0.130705  1
  C  C26  1  0.927885  0.916111  0.759336  1
  C  C27  1  0.430221  0.943822  0.162568  1
  C  C28  1  0.533742  0.146656  0.412778  1
  C  C29  1  0.282700  0.439220  0.568591  1
  C  C30  1  0.350656  0.416386  0.973688  1
  C  C31  1  0.797152  0.138416  0.002975  1
  C  C32  1  0.537509  0.496567  0.294284  1
  C  C33  1  0.018878  0.588470  0.869295  1
  C  C34  1  0.122375  0.036724  0.850938  1
  C  C35  1  0.922484  0.908770  0.289521  1
  C  C36  1  0.462491  0.996567  0.705716  1
  C  C37  1  0.202848  0.638416  0.997025  1
  C  C38  1  0.180383  0.667801  0.505300  1
  C  C39  1  0.323298  0.352763  0.745862  1
  C  C40  1  0.569779  0.443822  0.837432  1
  C  C41  1  0.499066  0.101137  0.020525  1
  C  C42  1  0.573477  0.694704  0.758337  1
  C  C43  1  0.952098  0.344490  0.425111  1
  C  C44  1  0.819617  0.167801  0.494700  1
  C  C45  1  0.781844  0.548669  0.364639  1
  C  C46  1  0.649344  0.916386  0.026312  1
  C  C47  1  0.967659  0.634695  0.642285  1
  C  C48  1  0.047902  0.844490  0.574889  1
  C  C49  1  0.676702  0.852763  0.254138  1
  C  C50  1  0.500934  0.601137  0.979475  1
  C  C51  1  0.072115  0.416111  0.240664  1
  S  S52  1  0.328914  0.825224  0.843284  1
  S  S53  1  0.671086  0.325224  0.156716  1
  O  O54  1  0.865886  0.590772  0.634676  1
  O  O55  1  0.165783  0.132759  0.609892  1
  O  O56  1  0.445729  0.149304  0.953676  1
  O  O57  1  0.018922  0.330486  0.977138  1
  O  O58  1  0.516812  0.627699  0.508405  1
  O  O59  1  0.444560  0.544541  0.265849  1
  O  O60  1  0.311006  0.402867  0.488508  1
  O  O61  1  0.865899  0.631352  0.123863  1
  O  O62  1  0.635332  0.760367  0.244834  1
  O  O63  1  0.605906  0.372093  0.555201  1
  O  O64  1  0.364668  0.260367  0.755166  1
  O  O65  1  0.201690  0.644878  0.420003  1
  O  O66  1  0.134114  0.090772  0.365324  1
  O  O67  1  0.394094  0.872093  0.444799  1
  O  O68  1  0.006522  0.413832  0.473858  1
  O  O69  1  0.017997  0.855598  0.282715  1
  O  O70  1  0.798310  0.144878  0.579997  1
  O  O71  1  0.798042  0.130967  0.913020  1
  O  O72  1  0.834217  0.632759  0.390108  1
  O  O73  1  0.334490  0.896435  0.184375  1
  O  O74  1  0.085669  0.051365  0.116984  1
  O  O75  1  0.201958  0.630967  0.086980  1
  O  O76  1  0.555440  0.044541  0.734151  1
  O  O77  1  0.554271  0.649304  0.046324  1
  O  O78  1  0.483188  0.127699  0.491595  1
  O  O79  1  0.310890  0.355149  0.036642  1
  O  O80  1  0.689110  0.855149  0.963358  1
  O  O81  1  0.993478  0.913832  0.526142  1
  O  O82  1  0.134102  0.131352  0.876137  1
  O  O83  1  0.981078  0.830486  0.022862  1
  O  O84  1  0.176167  0.437874  0.271725  1
  O  O85  1  0.315099  0.202120  0.221227  1
  O  O86  1  0.914331  0.551365  0.883016  1
  O  O87  1  0.665510  0.396435  0.815625  1
  O  O88  1  0.688994  0.902867  0.511492  1
  O  O89  1  0.823833  0.937874  0.728275  1
  O  O90  1  0.982003  0.355598  0.717285  1
  O  O91  1  0.684901  0.702120  0.778773  1
