# generated using pymatgen
data_Ca19In8N7
_symmetry_space_group_name_H-M   'P 1'
_cell_length_a   10.55928011
_cell_length_b   10.56560401
_cell_length_c   10.55911394
_cell_angle_alpha   60.01771213
_cell_angle_beta   60.02505602
_cell_angle_gamma   60.05432422
_symmetry_Int_Tables_number   1
_chemical_formula_structural   Ca19In8N7
_chemical_formula_sum   'Ca19 In8 N7'
_cell_volume   833.60346755
_cell_formula_units_Z   1
loop_
 _symmetry_equiv_pos_site_id
 _symmetry_equiv_pos_as_xyz
  1  'x, y, z'
loop_
 _atom_site_type_symbol
 _atom_site_label
 _atom_site_symmetry_multiplicity
 _atom_site_fract_x
 _atom_site_fract_y
 _atom_site_fract_z
 _atom_site_occupancy
  Ca  Ca0  1  0.499840  0.500124  0.177836  1
  Ca  Ca1  1  0.499946  0.822373  0.499848  1
  Ca  Ca2  1  0.500492  0.177313  0.822061  1
  Ca  Ca3  1  0.834843  0.834640  0.164966  1
  Ca  Ca4  1  0.500007  0.499861  0.822544  1
  Ca  Ca5  1  0.499649  0.822284  0.177557  1
  Ca  Ca6  1  0.834761  0.165160  0.165477  1
  Ca  Ca7  1  0.822422  0.499913  0.177662  1
  Ca  Ca8  1  0.165009  0.834998  0.834690  1
  Ca  Ca9  1  0.165335  0.165415  0.834566  1
  Ca  Ca10  1  0.177425  0.822152  0.499798  1
  Ca  Ca11  1  0.500193  0.500108  0.499765  1
  Ca  Ca12  1  0.822501  0.500041  0.499643  1
  Ca  Ca13  1  0.165062  0.834969  0.165259  1
  Ca  Ca14  1  0.499876  0.177677  0.500148  1
  Ca  Ca15  1  0.822270  0.177830  0.500182  1
  Ca  Ca16  1  0.177814  0.500157  0.822213  1
  Ca  Ca17  1  0.834497  0.165275  0.834681  1
  Ca  Ca18  1  0.177976  0.500022  0.499786  1
  In  In19  1  0.174207  0.174573  0.174830  1
  In  In20  1  0.825808  0.524042  0.825331  1
  In  In21  1  0.174620  0.174487  0.476496  1
  In  In22  1  0.174300  0.476931  0.174232  1
  In  In23  1  0.825363  0.824946  0.524046  1
  In  In24  1  0.476160  0.174954  0.174607  1
  In  In25  1  0.523623  0.825580  0.825625  1
  In  In26  1  0.825449  0.824899  0.825964  1
  N  N27  1  0.325410  0.325798  0.674488  1
  N  N28  1  0.674648  0.325360  0.674173  1
  N  N29  1  0.325899  0.674014  0.325657  1
  N  N30  1  0.674589  0.674075  0.325522  1
  N  N31  1  0.674677  0.325380  0.326058  1
  N  N32  1  0.325361  0.673716  0.674920  1
  N  N33  1  -0.000034  0.000934  -0.000634  1
