# generated using pymatgen
data_H9BrO4
_symmetry_space_group_name_H-M   'P 1'
_cell_length_a   6.88955483
_cell_length_b   12.05327783
_cell_length_c   7.48493150
_cell_angle_alpha   90.00000000
_cell_angle_beta   109.49929212
_cell_angle_gamma   90.00000000
_symmetry_Int_Tables_number   1
_chemical_formula_structural   H9BrO4
_chemical_formula_sum   'H36 Br4 O16'
_cell_volume   585.91229323
_cell_formula_units_Z   4
loop_
 _symmetry_equiv_pos_site_id
 _symmetry_equiv_pos_as_xyz
  1  'x, y, z'
loop_
 _atom_site_type_symbol
 _atom_site_label
 _atom_site_symmetry_multiplicity
 _atom_site_fract_x
 _atom_site_fract_y
 _atom_site_fract_z
 _atom_site_occupancy
  H  H0  1  0.325215  0.328214  0.998075  1
  H  H1  1  0.113793  0.257576  0.022811  1
  H  H2  1  0.886207  0.757576  0.977189  1
  H  H3  1  0.674785  0.828214  0.001925  1
  H  H4  1  0.976175  0.175503  0.149737  1
  H  H5  1  0.827125  0.253726  0.987132  1
  H  H6  1  0.023825  0.675503  0.850263  1
  H  H7  1  0.172875  0.753726  0.012868  1
  H  H8  1  0.536621  0.183199  0.806725  1
  H  H9  1  0.643252  0.251210  0.688388  1
  H  H10  1  0.463379  0.683199  0.193275  1
  H  H11  1  0.356748  0.751210  0.311612  1
  H  H12  1  0.701054  0.309431  0.376155  1
  H  H13  1  0.614758  0.187652  0.357858  1
  H  H14  1  0.298946  0.809431  0.623845  1
  H  H15  1  0.385242  0.687652  0.642142  1
  H  H16  1  0.036387  0.181802  0.546423  1
  H  H17  1  0.178114  0.287141  0.551328  1
  H  H18  1  0.200263  0.241993  0.820153  1
  H  H19  1  0.963613  0.681802  0.453577  1
  H  H20  1  0.821886  0.787141  0.448672  1
  H  H21  1  0.799737  0.741993  0.179847  1
  H  H22  1  0.196535  0.442105  0.352624  1
  H  H23  1  0.392526  0.356699  0.422142  1
  H  H24  1  0.607474  0.856699  0.577858  1
  H  H25  1  0.803465  0.942105  0.647376  1
  H  H26  1  0.508904  0.504406  0.849935  1
  H  H27  1  0.653152  0.522926  0.714752  1
  H  H28  1  0.408263  0.469225  0.609335  1
  H  H29  1  0.491096  0.004406  0.150065  1
  H  H30  1  0.346848  0.022926  0.285248  1
  H  H31  1  0.591737  0.969225  0.390665  1
  H  H32  1  0.047593  0.505862  0.072445  1
  H  H33  1  0.895406  0.493649  0.185715  1
  H  H34  1  0.952407  0.005862  0.927555  1
  H  H35  1  0.104594  0.993649  0.814285  1
  Br  Br36  1  0.951154  0.506909  0.723384  1
  Br  Br37  1  0.048846  0.006909  0.276616  1
  Br  Br38  1  0.537445  0.470898  0.130629  1
  Br  Br39  1  0.462555  0.970898  0.869371  1
  O  O40  1  0.247592  0.256878  0.967685  1
  O  O41  1  0.752408  0.756878  0.032315  1
  O  O42  1  0.963830  0.252055  0.096103  1
  O  O43  1  0.036170  0.752055  0.903897  1
  O  O44  1  0.615535  0.251278  0.809407  1
  O  O45  1  0.384465  0.751278  0.190593  1
  O  O46  1  0.657722  0.250593  0.444729  1
  O  O47  1  0.342278  0.750593  0.555271  1
  O  O48  1  0.162247  0.219651  0.620626  1
  O  O49  1  0.837753  0.719651  0.379374  1
  O  O50  1  0.295734  0.398824  0.466898  1
  O  O51  1  0.704266  0.898824  0.533102  1
  O  O52  1  0.503139  0.527675  0.716315  1
  O  O53  1  0.496861  0.027675  0.283685  1
  O  O54  1  0.040039  0.512436  0.200999  1
  O  O55  1  0.959961  0.012436  0.799001  1
