# generated using pymatgen
data_TiH8(NF3)2
_symmetry_space_group_name_H-M   'P 1'
_cell_length_a   5.91046288
_cell_length_b   5.91559367
_cell_length_c   5.37867294
_cell_angle_alpha   90.00000002
_cell_angle_beta   90.27907926
_cell_angle_gamma   120.02872108
_symmetry_Int_Tables_number   1
_chemical_formula_structural   TiH8(NF3)2
_chemical_formula_sum   'Ti1 H8 N2 F6'
_cell_volume   162.81445585
_cell_formula_units_Z   1
loop_
 _symmetry_equiv_pos_site_id
 _symmetry_equiv_pos_as_xyz
  1  'x, y, z'
loop_
 _atom_site_type_symbol
 _atom_site_label
 _atom_site_symmetry_multiplicity
 _atom_site_fract_x
 _atom_site_fract_y
 _atom_site_fract_z
 _atom_site_occupancy
  Ti  Ti0  1  0.000000  0.000000  0.000000  1
  H  H1  1  0.335294  0.667647  0.008964  1
  H  H2  1  0.664706  0.332353  -0.008964  1
  H  H3  1  0.569195  0.142291  0.739370  1
  H  H4  1  0.569194  0.426903  0.739370  1
  H  H5  1  0.855277  0.427638  0.740897  1
  H  H6  1  0.430805  0.857709  0.260630  1
  H  H7  1  0.430806  0.573097  0.260630  1
  H  H8  1  0.144723  0.572362  0.259103  1
  N  N9  1  0.335474  0.667737  0.200112  1
  N  N10  1  0.664526  0.332263  0.799888  1
  F  F11  1  0.152077  0.847433  0.798121  1
  F  F12  1  0.693180  0.846590  0.795948  1
  F  F13  1  0.152077  0.304644  0.798121  1
  F  F14  1  0.847923  0.152567  0.201879  1
  F  F15  1  0.306820  0.153410  0.204052  1
  F  F16  1  0.847923  0.695356  0.201879  1
