# generated using pymatgen
data_RbAl6H20N5F24
_symmetry_space_group_name_H-M   'P 1'
_cell_length_a   5.33719583
_cell_length_b   5.35700210
_cell_length_c   20.21527623
_cell_angle_alpha   104.61891713
_cell_angle_beta   106.19133013
_cell_angle_gamma   90.75498836
_symmetry_Int_Tables_number   1
_chemical_formula_structural   RbAl6H20N5F24
_chemical_formula_sum   'Rb1 Al6 H20 N5 F24'
_cell_volume   534.91222446
_cell_formula_units_Z   1
loop_
 _symmetry_equiv_pos_site_id
 _symmetry_equiv_pos_as_xyz
  1  'x, y, z'
loop_
 _atom_site_type_symbol
 _atom_site_label
 _atom_site_symmetry_multiplicity
 _atom_site_fract_x
 _atom_site_fract_y
 _atom_site_fract_z
 _atom_site_occupancy
  Rb  Rb0  1  0.280571  0.812277  0.179891  1
  Al  Al1  1  -0.007515  0.938837  0.653374  1
  Al  Al2  1  -0.000936  0.968196  0.342141  1
  Al  Al3  1  0.511925  0.441633  0.663342  1
  Al  Al4  1  0.995200  0.032265  0.004656  1
  Al  Al5  1  0.489551  0.424033  0.329873  1
  Al  Al6  1  0.491171  0.514220  0.997703  1
  H  H7  1  0.311204  0.675437  0.809608  1
  H  H8  1  0.703239  0.320014  0.879247  1
  H  H9  1  0.316810  0.556435  0.495526  1
  H  H10  1  0.811750  0.448227  0.823319  1
  H  H11  1  0.604889  0.045483  0.756402  1
  H  H12  1  0.618660  0.961178  0.781899  1
  H  H13  1  0.920186  0.583004  0.909978  1
  H  H14  1  0.911898  0.975224  0.768079  1
  H  H15  1  0.022536  0.294488  0.879017  1
  H  H16  1  0.555973  0.538381  0.412164  1
  H  H17  1  0.624812  0.890887  0.411633  1
  H  H18  1  0.718355  0.222269  0.530549  1
  H  H19  1  0.833428  0.509974  0.524893  1
  H  H20  1  0.004751  0.246944  0.510598  1
  H  H21  1  0.984025  0.392975  0.592244  1
  H  H22  1  0.724968  0.727538  0.151200  1
  H  H23  1  0.815539  0.137775  0.204114  1
  H  H24  1  0.714398  0.433352  0.215987  1
  H  H25  1  0.772823  0.283803  0.137262  1
  H  H26  1  0.025983  0.382021  0.212185  1
  N  N27  1  0.331385  0.810530  0.857978  1
  N  N28  1  0.277152  0.747530  0.497320  1
  N  N29  1  0.865905  0.405708  0.872844  1
  N  N30  1  0.883357  0.341494  0.538981  1
  N  N31  1  0.830144  0.312674  0.191814  1
  F  F32  1  0.397958  0.398978  0.906038  1
  F  F33  1  0.073435  0.033932  0.760833  1
  F  F34  1  0.244370  0.702628  0.663112  1
  F  F35  1  0.246673  0.192449  0.666113  1
  F  F36  1  0.414869  0.350228  0.572628  1
  F  F37  1  0.067883  0.125235  0.428681  1
  F  F38  1  0.896240  0.939437  0.912971  1
  F  F39  1  0.183451  0.708025  0.316927  1
  F  F40  1  0.612361  0.533263  0.755413  1
  F  F41  1  0.202120  0.178546  0.313694  1
  F  F42  1  0.762429  0.699965  0.664434  1
  F  F43  1  0.384444  0.378899  0.236153  1
  F  F44  1  0.761957  0.193579  0.665542  1
  F  F45  1  0.089992  0.117613  0.097854  1
  F  F46  1  0.872690  0.856989  0.561984  1
  F  F47  1  0.251604  0.767460  0.006276  1
  F  F48  1  0.545813  0.047850  0.423662  1
  F  F49  1  0.250426  0.283583  0.007611  1
  F  F50  1  0.736910  0.715335  0.329421  1
  F  F51  1  0.724028  0.175131  0.314710  1
  F  F52  1  0.822378  0.836406  0.208679  1
  F  F53  1  0.599235  0.602604  0.097683  1
  F  F54  1  0.743905  0.766828  0.005496  1
  F  F55  1  0.749888  0.281030  0.008400  1
