# generated using pymatgen
data_Na3HoTi2Nb2O12
_symmetry_space_group_name_H-M   'P 1'
_cell_length_a   5.45247632
_cell_length_b   5.63222118
_cell_length_c   15.38499414
_cell_angle_alpha   90.00030276
_cell_angle_beta   90.00018334
_cell_angle_gamma   89.99920127
_symmetry_Int_Tables_number   1
_chemical_formula_structural   Na3HoTi2Nb2O12
_chemical_formula_sum   'Na6 Ho2 Ti4 Nb4 O24'
_cell_volume   472.46628697
_cell_formula_units_Z   2
loop_
 _symmetry_equiv_pos_site_id
 _symmetry_equiv_pos_as_xyz
  1  'x, y, z'
loop_
 _atom_site_type_symbol
 _atom_site_label
 _atom_site_symmetry_multiplicity
 _atom_site_fract_x
 _atom_site_fract_y
 _atom_site_fract_z
 _atom_site_occupancy
  Na  Na0  1  0.008021  0.962165  0.373224  1
  Na  Na1  1  0.008105  0.962152  0.876782  1
  Na  Na2  1  0.491871  0.462183  0.876795  1
  Na  Na3  1  0.492004  0.462157  0.373232  1
  Na  Na4  1  0.510889  0.521752  0.625002  1
  Na  Na5  1  0.989061  0.021726  0.624998  1
  Ho  Ho6  1  0.513723  0.568864  0.125002  1
  Ho  Ho7  1  0.986294  0.068848  0.125001  1
  Ti  Ti8  1  0.013388  0.528695  0.998168  1
  Ti  Ti9  1  0.013406  0.528745  0.251823  1
  Ti  Ti10  1  0.486620  0.028760  0.251821  1
  Ti  Ti11  1  0.486632  0.028706  0.998170  1
  Nb  Nb12  1  0.997521  0.480563  0.497494  1
  Nb  Nb13  1  0.997487  0.480532  0.752513  1
  Nb  Nb14  1  0.502485  0.980530  0.752516  1
  Nb  Nb15  1  0.502451  0.980563  0.497490  1
  O  O16  1  0.103089  0.461563  0.124994  1
  O  O17  1  0.085133  0.490399  0.625004  1
  O  O18  1  0.216444  0.222005  0.474883  1
  O  O19  1  0.198319  0.194945  0.263097  1
  O  O20  1  0.216473  0.222006  0.775124  1
  O  O21  1  0.198343  0.194966  0.986890  1
  O  O22  1  0.301689  0.694944  0.263099  1
  O  O23  1  0.283552  0.722006  0.474881  1
  O  O24  1  0.283536  0.722004  0.775127  1
  O  O25  1  0.301661  0.694966  0.986891  1
  O  O26  1  0.396921  0.961569  0.124995  1
  O  O27  1  0.414861  0.990383  0.625004  1
  O  O28  1  0.581663  0.023430  0.370470  1
  O  O29  1  0.581709  0.023413  0.879527  1
  O  O30  1  0.715239  0.285479  0.520535  1
  O  O31  1  0.700886  0.281439  0.033557  1
  O  O32  1  0.700878  0.281451  0.216445  1
  O  O33  1  0.715258  0.285454  0.729454  1
  O  O34  1  0.799116  0.781436  0.033555  1
  O  O35  1  0.799130  0.781453  0.216448  1
  O  O36  1  0.784758  0.785477  0.520530  1
  O  O37  1  0.784745  0.785458  0.729461  1
  O  O38  1  0.918345  0.523415  0.370470  1
  O  O39  1  0.918295  0.523398  0.879527  1
