# generated using pymatgen
data_Mo9O26
_symmetry_space_group_name_H-M   'P 1'
_cell_length_a   8.52037967
_cell_length_b   12.09150215
_cell_length_c   20.14396706
_cell_angle_alpha   95.41450301
_cell_angle_beta   92.41094475
_cell_angle_gamma   109.69235768
_symmetry_Int_Tables_number   1
_chemical_formula_structural   Mo9O26
_chemical_formula_sum   'Mo36 O104'
_cell_volume   1939.17456656
_cell_formula_units_Z   4
loop_
 _symmetry_equiv_pos_site_id
 _symmetry_equiv_pos_as_xyz
  1  'x, y, z'
loop_
 _atom_site_type_symbol
 _atom_site_label
 _atom_site_symmetry_multiplicity
 _atom_site_fract_x
 _atom_site_fract_y
 _atom_site_fract_z
 _atom_site_occupancy
  Mo  Mo0  1  0.644853  0.196942  0.348540  1
  Mo  Mo1  1  0.431786  0.013324  0.177115  1
  Mo  Mo2  1  0.373230  0.992781  0.433236  1
  Mo  Mo3  1  0.996835  0.353058  0.155552  1
  Mo  Mo4  1  0.398005  0.510274  0.697420  1
  Mo  Mo5  1  0.783577  0.171946  0.990676  1
  Mo  Mo6  1  0.623845  0.697796  0.861383  1
  Mo  Mo7  1  0.937010  0.926520  0.798784  1
  Mo  Mo8  1  0.376155  0.302204  0.138617  1
  Mo  Mo9  1  0.137583  0.806425  0.259803  1
  Mo  Mo10  1  0.729155  0.930273  0.407079  1
  Mo  Mo11  1  0.003165  0.646942  0.844448  1
  Mo  Mo12  1  0.300113  0.566421  0.074440  1
  Mo  Mo13  1  0.081570  0.382391  0.910352  1
  Mo  Mo14  1  0.918430  0.617609  0.089648  1
  Mo  Mo15  1  0.216423  0.828054  0.009324  1
  Mo  Mo16  1  0.516600  0.750258  0.238476  1
  Mo  Mo17  1  0.695046  0.729549  0.625474  1
  Mo  Mo18  1  0.217283  0.540243  0.318892  1
  Mo  Mo19  1  0.843071  0.885135  0.030881  1
  Mo  Mo20  1  0.601995  0.489726  0.302580  1
  Mo  Mo21  1  0.626770  0.007219  0.566764  1
  Mo  Mo22  1  0.062990  0.073480  0.201216  1
  Mo  Mo23  1  0.341069  0.621485  0.493581  1
  Mo  Mo24  1  0.270845  0.069727  0.592921  1
  Mo  Mo25  1  0.862417  0.193575  0.740197  1
  Mo  Mo26  1  0.782717  0.459757  0.681108  1
  Mo  Mo27  1  0.568214  0.986676  0.822885  1
  Mo  Mo28  1  0.304954  0.270451  0.374526  1
  Mo  Mo29  1  0.483400  0.249742  0.761524  1
  Mo  Mo30  1  0.658931  0.378515  0.506419  1
  Mo  Mo31  1  0.826962  0.673810  0.465787  1
  Mo  Mo32  1  0.156929  0.114865  0.969119  1
  Mo  Mo33  1  0.699887  0.433579  0.925560  1
  Mo  Mo34  1  0.173038  0.326190  0.534213  1
  Mo  Mo35  1  0.355147  0.803058  0.651460  1
  O  O36  1  0.327398  0.427443  0.348588  1
  O  O37  1  0.874145  0.042090  0.003230  1
  O  O38  1  0.344180  0.142848  0.168558  1
  O  O39  1  0.483714  0.603167  0.038173  1
  O  O40  1  0.047230  0.224517  0.940434  1
  O  O41  1  0.186928  0.685562  0.807851  1
  O  O42  1  0.652484  0.350580  0.592605  1
  O  O43  1  0.372992  0.941934  0.850569  1
  O  O44  1  0.961128  0.776879  0.301768  1
  O  O45  1  0.293480  0.207694  0.793354  1
  O  O46  1  0.014317  0.008879  0.878144  1
  O  O47  1  0.516286  0.396833  0.961827  1
  O  O48  1  0.554830  0.335528  0.098059  1
  O  O49  1  0.812523  0.524175  0.507141  1
  O  O50  1  0.212756  0.980355  0.489796  1
  O  O51  1  0.347516  0.649420  0.407395  1
  O  O52  1  0.089639  0.737983  0.933616  1
  O  O53  1  0.782991  0.521940  0.264141  1
  O  O54  1  0.544394  0.627074  0.525600  1
  O  O55  1  0.765754  0.804274  0.949970  1
  O  O56  1  0.482345  0.897653  0.466311  1
  O  O57  1  0.112329  0.955414  0.756251  1
  O  O58  1  0.234246  0.195726  0.050030  1
  O  O59  1  0.269774  0.412816  0.114157  1
  O  O60  1  0.813072  0.314439  0.192149  1
  O  O61  1  0.602141  0.846394  0.596118  1
  O  O62  1  0.627008  0.058066  0.149431  1
  O  O63  1  0.581995  0.123263  0.774715  1
  O  O64  1  0.730226  0.587184  0.885843  1
  O  O65  1  0.152948  0.750962  0.671943  1
  O  O66  1  0.853810  0.745565  0.567191  1
  O  O67  1  0.985683  0.991121  0.121856  1
  O  O68  1  0.613209  0.341783  0.836402  1
  O  O69  1  0.026279  0.718312  0.442448  1
  O  O70  1  0.925355  0.000342  0.383985  1
  O  O71  1  0.685146  0.573604  0.391062  1
  O  O72  1  0.455399  0.381336  0.221193  1
  O  O73  1  0.847052  0.249038  0.328057  1
  O  O74  1  0.375338  0.939085  0.603338  1
  O  O75  1  0.727201  0.283416  0.451214  1
  O  O76  1  0.962885  0.496975  0.641565  1
  O  O77  1  0.825008  0.034510  0.766587  1
  O  O78  1  0.503167  0.388904  0.716849  1
  O  O79  1  0.666113  0.851938  0.072439  1
  O  O80  1  0.727331  0.089529  0.642958  1
  O  O81  1  0.589689  0.128343  0.019420  1
  O  O82  1  0.973721  0.281688  0.557552  1
  O  O83  1  0.314854  0.426396  0.608938  1
  O  O84  1  0.250168  0.195860  0.554711  1
  O  O85  1  0.037115  0.503025  0.358435  1
  O  O86  1  0.386791  0.658217  0.163598  1
  O  O87  1  0.272669  0.910471  0.357042  1
  O  O88  1  0.898550  0.769943  0.823517  1
  O  O89  1  0.397859  0.153606  0.403882  1
  O  O90  1  0.672602  0.572557  0.651412  1
  O  O91  1  0.174992  0.965490  0.233413  1
  O  O92  1  0.272799  0.716584  0.548786  1
  O  O93  1  0.410311  0.871657  0.980580  1
  O  O94  1  0.022120  0.506985  0.116117  1
  O  O95  1  0.952770  0.775483  0.059566  1
  O  O96  1  0.496833  0.611096  0.283151  1
  O  O97  1  0.517655  0.102347  0.533689  1
  O  O98  1  0.467867  0.887497  0.727168  1
  O  O99  1  0.910361  0.262017  0.066384  1
  O  O100  1  0.146190  0.254435  0.432809  1
  O  O101  1  0.799435  0.309647  0.946523  1
  O  O102  1  0.839323  0.539006  0.006971  1
  O  O103  1  0.445170  0.664472  0.901941  1
  O  O104  1  0.307976  0.923573  0.103340  1
  O  O105  1  0.787244  0.019645  0.510204  1
  O  O106  1  0.977880  0.493015  0.883883  1
  O  O107  1  0.455606  0.372926  0.474400  1
  O  O108  1  0.187477  0.475825  0.492859  1
  O  O109  1  0.333887  0.148062  0.927561  1
  O  O110  1  0.198131  0.185261  0.301103  1
  O  O111  1  0.556678  0.329730  0.343594  1
  O  O112  1  0.692024  0.076427  0.896660  1
  O  O113  1  0.544601  0.618664  0.778807  1
  O  O114  1  0.390094  0.150999  0.670735  1
  O  O115  1  0.887671  0.044586  0.243749  1
  O  O116  1  0.200565  0.690353  0.053477  1
  O  O117  1  0.217009  0.478060  0.735859  1
  O  O118  1  0.160677  0.460994  0.993029  1
  O  O119  1  0.141117  0.456987  0.237664  1
  O  O120  1  0.038872  0.223121  0.698232  1
  O  O121  1  0.609906  0.849001  0.329265  1
  O  O122  1  0.858883  0.543013  0.762336  1
  O  O123  1  0.418005  0.876737  0.225285  1
  O  O124  1  0.706520  0.792306  0.206646  1
  O  O125  1  0.801869  0.814739  0.698897  1
  O  O126  1  0.532133  0.112503  0.272832  1
  O  O127  1  0.242614  0.694726  0.288645  1
  O  O128  1  0.940627  0.272717  0.820727  1
  O  O129  1  0.125855  0.957910  0.996770  1
  O  O130  1  0.738699  0.586466  0.129209  1
  O  O131  1  0.101450  0.230057  0.176483  1
  O  O132  1  0.757386  0.305274  0.711355  1
  O  O133  1  0.749832  0.804140  0.445289  1
  O  O134  1  0.059373  0.727283  0.179273  1
  O  O135  1  0.261301  0.413534  0.870791  1
  O  O136  1  0.655820  0.857152  0.831442  1
  O  O137  1  0.624662  0.060915  0.396662  1
  O  O138  1  0.074645  0.999658  0.616015  1
  O  O139  1  0.443322  0.670270  0.656406  1
