# generated using pymatgen
data_Pr5(Mo3Se4)12
_symmetry_space_group_name_H-M   'P 1'
_cell_length_a   6.82940018
_cell_length_b   81.85798103
_cell_length_c   9.75412810
_cell_angle_alpha   44.34774317
_cell_angle_beta   88.25790910
_cell_angle_gamma   88.72178530
_symmetry_Int_Tables_number   1
_chemical_formula_structural   Pr5(Mo3Se4)12
_chemical_formula_sum   'Pr10 Mo72 Se96'
_cell_volume   3809.91590486
_cell_formula_units_Z   2
loop_
 _symmetry_equiv_pos_site_id
 _symmetry_equiv_pos_as_xyz
  1  'x, y, z'
loop_
 _atom_site_type_symbol
 _atom_site_label
 _atom_site_symmetry_multiplicity
 _atom_site_fract_x
 _atom_site_fract_y
 _atom_site_fract_z
 _atom_site_occupancy
  Pr  Pr0  1  0.999862  0.249839  0.001202  1
  Pr  Pr1  1  0.000059  0.416683  0.999898  1
  Pr  Pr2  1  0.000005  0.500004  0.999968  1
  Pr  Pr3  1  -0.000003  0.583333  -0.000002  1
  Pr  Pr4  1  0.999955  0.749993  0.000053  1
  Pr  Pr5  1  0.000253  0.833359  0.999799  1
  Pr  Pr6  1  0.000119  0.916822  0.998831  1
  Pr  Pr7  1  0.000005  0.083334  -0.000008  1
  Pr  Pr8  1  0.999748  0.333309  0.000192  1
  Pr  Pr9  1  -0.000009  0.666660  0.000049  1
  Mo  Mo10  1  0.234174  0.071977  0.560351  1
  Mo  Mo11  1  0.235912  0.155319  0.558197  1
  Mo  Mo12  1  0.234812  0.238355  0.560920  1
  Mo  Mo13  1  0.235511  0.321789  0.560872  1
  Mo  Mo14  1  0.235894  0.405182  0.560791  1
  Mo  Mo15  1  0.235604  0.488498  0.560844  1
  Mo  Mo16  1  0.235647  0.571837  0.560811  1
  Mo  Mo17  1  0.235902  0.655174  0.560785  1
  Mo  Mo18  1  0.424043  0.026765  0.235123  1
  Mo  Mo19  1  0.236097  0.738501  0.560883  1
  Mo  Mo20  1  0.422450  0.110466  0.236706  1
  Mo  Mo21  1  0.235256  0.821806  0.560959  1
  Mo  Mo22  1  0.443419  0.015480  0.578344  1
  Mo  Mo23  1  0.424294  0.193439  0.234746  1
  Mo  Mo24  1  0.235030  0.905385  0.560549  1
  Mo  Mo25  1  0.438292  0.099165  0.574866  1
  Mo  Mo26  1  0.423426  0.277021  0.236382  1
  Mo  Mo27  1  0.235975  0.988701  0.558093  1
  Mo  Mo28  1  0.443286  0.182113  0.578925  1
  Mo  Mo29  1  0.423085  0.360377  0.236239  1
  Mo  Mo30  1  0.439803  0.265606  0.577280  1
  Mo  Mo31  1  0.423063  0.443739  0.236100  1
  Mo  Mo32  1  0.439506  0.348878  0.576872  1
  Mo  Mo33  1  0.423025  0.527092  0.235926  1
  Mo  Mo34  1  0.439177  0.432259  0.577170  1
  Mo  Mo35  1  0.423018  0.610399  0.236084  1
  Mo  Mo36  1  0.439232  0.515614  0.577026  1
  Mo  Mo37  1  0.561672  0.067504  0.425081  1
  Mo  Mo38  1  0.423056  0.693709  0.236352  1
  Mo  Mo39  1  0.439355  0.598931  0.577030  1
  Mo  Mo40  1  0.556511  0.151167  0.421682  1
  Mo  Mo41  1  0.577531  0.056198  0.763362  1
  Mo  Mo42  1  0.422925  0.777060  0.236314  1
  Mo  Mo43  1  0.439290  0.682249  0.577092  1
  Mo  Mo44  1  0.562614  0.234212  0.425237  1
  Mo  Mo45  1  0.575887  0.139889  0.765018  1
  Mo  Mo46  1  0.423051  0.860421  0.235981  1
  Mo  Mo47  1  0.439267  0.765588  0.577108  1
  Mo  Mo48  1  0.560607  0.317774  0.423292  1
  Mo  Mo49  1  0.578000  0.222821  0.763416  1
  Mo  Mo50  1  0.422009  0.943848  0.236537  1
  Mo  Mo51  1  0.439292  0.848908  0.576752  1
  Mo  Mo52  1  0.560669  0.401056  0.422926  1
  Mo  Mo53  1  0.576908  0.306269  0.763768  1
  Mo  Mo54  1  0.437412  0.932452  0.574766  1
  Mo  Mo55  1  0.560769  0.484397  0.422926  1
  Mo  Mo56  1  0.577070  0.389592  0.763883  1
  Mo  Mo57  1  0.560782  0.567740  0.422959  1
  Mo  Mo58  1  0.576966  0.472930  0.763956  1
  Mo  Mo59  1  0.560796  0.651078  0.422952  1
  Mo  Mo60  1  0.576997  0.556256  0.763951  1
  Mo  Mo61  1  0.560727  0.734413  0.422896  1
  Mo  Mo62  1  0.576993  0.639600  0.763771  1
  Mo  Mo63  1  0.560441  0.817768  0.423138  1
  Mo  Mo64  1  0.764019  0.011347  0.441840  1
  Mo  Mo65  1  0.576933  0.722950  0.763679  1
  Mo  Mo66  1  0.560222  0.901063  0.422691  1
  Mo  Mo67  1  0.765844  0.094698  0.439614  1
  Mo  Mo68  1  0.576900  0.806273  0.763954  1
  Mo  Mo69  1  0.556677  0.984558  0.421148  1
  Mo  Mo70  1  0.764210  0.177958  0.441986  1
  Mo  Mo71  1  0.576516  0.889641  0.763670  1
  Mo  Mo72  1  0.764926  0.261289  0.439378  1
  Mo  Mo73  1  0.575664  0.973240  0.765062  1
  Mo  Mo74  1  0.764504  0.344846  0.439134  1
  Mo  Mo75  1  0.764131  0.428163  0.439162  1
  Mo  Mo76  1  0.764458  0.511502  0.439169  1
  Mo  Mo77  1  0.764282  0.594837  0.439124  1
  Mo  Mo78  1  0.764007  0.678159  0.439214  1
  Mo  Mo79  1  0.763956  0.761474  0.439273  1
  Mo  Mo80  1  0.764843  0.844882  0.439123  1
  Mo  Mo81  1  0.765198  0.928321  0.439043  1
  Se  Se82  1  0.122109  0.031363  0.378915  1
  Se  Se83  1  0.123045  0.114538  0.376667  1
  Se  Se84  1  0.122223  0.198015  0.379074  1
  Se  Se85  1  0.122445  0.281509  0.376928  1
  Se  Se86  1  0.121751  0.364809  0.376114  1
  Se  Se87  1  0.121768  0.448157  0.376368  1
  Se  Se88  1  0.237461  0.000070  0.237425  1
  Se  Se89  1  0.121587  0.531503  0.376232  1
  Se  Se90  1  0.242189  0.083183  0.242685  1
  Se  Se91  1  0.121605  0.614827  0.376250  1
  Se  Se92  1  0.237042  0.166776  0.237306  1
  Se  Se93  1  0.243618  0.061968  0.878149  1
  Se  Se94  1  0.121641  0.698155  0.376262  1
  Se  Se95  1  0.242059  0.249904  0.242336  1
  Se  Se96  1  0.249886  0.145482  0.876520  1
  Se  Se97  1  0.121751  0.781485  0.376419  1
  Se  Se98  1  0.241149  0.333337  0.242101  1
  Se  Se99  1  0.243604  0.228739  0.877179  1
  Se  Se100  1  0.121612  0.864825  0.376105  1
  Se  Se101  1  0.241743  0.416652  0.241768  1
  Se  Se102  1  0.245420  0.312057  0.878233  1
  Se  Se103  1  0.122492  0.947878  0.375804  1
  Se  Se104  1  0.241650  0.499996  0.241758  1
  Se  Se105  1  0.245890  0.395462  0.878198  1
  Se  Se106  1  0.241644  0.583321  0.241848  1
  Se  Se107  1  0.245779  0.478781  0.878238  1
  Se  Se108  1  0.377798  0.031003  0.750536  1
  Se  Se109  1  0.241712  0.666645  0.241866  1
  Se  Se110  1  0.245869  0.562110  0.878308  1
  Se  Se111  1  0.376966  0.113908  0.755690  1
  Se  Se112  1  0.241799  0.749973  0.241805  1
  Se  Se113  1  0.245921  0.645440  0.878296  1
  Se  Se114  1  0.376891  0.197689  0.750757  1
  Se  Se115  1  0.241384  0.833290  0.242134  1
  Se  Se116  1  0.245892  0.728785  0.878262  1
  Se  Se117  1  0.376233  0.280550  0.755139  1
  Se  Se118  1  0.241915  0.916572  0.242386  1
  Se  Se119  1  0.245720  0.812058  0.878240  1
  Se  Se120  1  0.376275  0.363920  0.754298  1
  Se  Se121  1  0.245498  0.895383  0.878859  1
  Se  Se122  1  0.376242  0.447264  0.754401  1
  Se  Se123  1  0.250233  0.978829  0.876497  1
  Se  Se124  1  0.376188  0.530594  0.754441  1
  Se  Se125  1  0.376242  0.613932  0.754328  1
  Se  Se126  1  0.376226  0.697277  0.754283  1
  Se  Se127  1  0.376138  0.780593  0.754507  1
  Se  Se128  1  0.376976  0.863884  0.754408  1
  Se  Se129  1  0.376896  0.947287  0.755336  1
  Se  Se130  1  0.623047  0.052755  0.244323  1
  Se  Se131  1  0.622180  0.135661  0.249459  1
  Se  Se132  1  0.623110  0.219391  0.244602  1
  Se  Se133  1  0.623069  0.302785  0.245642  1
  Se  Se134  1  0.623773  0.386065  0.245534  1
  Se  Se135  1  0.623714  0.469405  0.245563  1
  Se  Se136  1  0.750096  0.021180  0.123504  1
  Se  Se137  1  0.623763  0.552745  0.245589  1
  Se  Se138  1  0.756403  0.104701  0.121853  1
  Se  Se139  1  0.623886  0.636073  0.245614  1
  Se  Se140  1  0.749801  0.187846  0.123433  1
  Se  Se141  1  0.757806  0.083486  0.757307  1
  Se  Se142  1  0.623820  0.719392  0.245716  1
  Se  Se143  1  0.754478  0.271287  0.121072  1
  Se  Se144  1  0.762563  0.166599  0.762608  1
  Se  Se145  1  0.623727  0.802741  0.245706  1
  Se  Se146  1  0.754251  0.354602  0.121819  1
  Se  Se147  1  0.758090  0.250095  0.757662  1
  Se  Se148  1  0.623784  0.886132  0.244767  1
  Se  Se149  1  0.754208  0.437889  0.121711  1
  Se  Se150  1  0.758560  0.333370  0.757824  1
  Se  Se151  1  0.623106  0.968980  0.249245  1
  Se  Se152  1  0.754166  0.521237  0.121663  1
  Se  Se153  1  0.758228  0.416690  0.758175  1
  Se  Se154  1  0.754066  0.604561  0.121640  1
  Se  Se155  1  0.758318  0.500026  0.758118  1
  Se  Se156  1  0.876992  0.052128  0.623323  1
  Se  Se157  1  0.754105  0.687879  0.121770  1
  Se  Se158  1  0.758317  0.583351  0.758151  1
  Se  Se159  1  0.877924  0.135299  0.621085  1
  Se  Se160  1  0.754146  0.771196  0.121841  1
  Se  Se161  1  0.758286  0.666675  0.758203  1
  Se  Se162  1  0.877525  0.218790  0.624188  1
  Se  Se163  1  0.754671  0.854609  0.121719  1
  Se  Se164  1  0.758297  0.750011  0.758248  1
  Se  Se165  1  0.878304  0.301842  0.623944  1
  Se  Se166  1  0.756349  0.937933  0.122793  1
  Se  Se167  1  0.758993  0.833325  0.757995  1
  Se  Se168  1  0.878285  0.385174  0.623597  1
  Se  Se169  1  0.757909  0.916761  0.757663  1
  Se  Se170  1  0.878423  0.468513  0.623634  1
  Se  Se171  1  0.762914  0.999887  0.762700  1
  Se  Se172  1  0.878368  0.551848  0.623668  1
  Se  Se173  1  0.878320  0.635171  0.623801  1
  Se  Se174  1  0.878214  0.718511  0.623707  1
  Se  Se175  1  0.878335  0.801843  0.623942  1
  Se  Se176  1  0.877549  0.885159  0.623053  1
  Se  Se177  1  0.877771  0.968657  0.620931  1
