# generated using pymatgen
data_UH2Se2O9
_symmetry_space_group_name_H-M   'P 1'
_cell_length_a   5.95034004
_cell_length_b   8.41769532
_cell_length_c   8.41769532
_cell_angle_alpha   100.78832914
_cell_angle_beta   87.99858130
_cell_angle_gamma   87.99858130
_symmetry_Int_Tables_number   1
_chemical_formula_structural   UH2Se2O9
_chemical_formula_sum   'U2 H4 Se4 O18'
_cell_volume   413.55272590
_cell_formula_units_Z   2
loop_
 _symmetry_equiv_pos_site_id
 _symmetry_equiv_pos_as_xyz
  1  'x, y, z'
loop_
 _atom_site_type_symbol
 _atom_site_label
 _atom_site_symmetry_multiplicity
 _atom_site_fract_x
 _atom_site_fract_y
 _atom_site_fract_z
 _atom_site_occupancy
  U  U0  1  0.250000  0.306914  0.693086  1
  U  U1  1  0.750000  0.693086  0.306914  1
  H  H2  1  0.162386  0.600703  0.519132  1
  H  H3  1  0.662386  0.519132  0.600703  1
  H  H4  1  0.837614  0.399297  0.480868  1
  H  H5  1  0.337614  0.480868  0.399297  1
  Se  Se6  1  0.049188  0.103038  0.266680  1
  Se  Se7  1  0.549188  0.266680  0.103038  1
  Se  Se8  1  0.950812  0.896962  0.733320  1
  Se  Se9  1  0.450812  0.733320  0.896962  1
  O  O10  1  0.250000  0.496037  0.503963  1
  O  O11  1  0.750000  0.503963  0.496037  1
  O  O12  1  0.094335  0.066130  0.727942  1
  O  O13  1  0.594335  0.727942  0.066130  1
  O  O14  1  0.905665  0.933870  0.272058  1
  O  O15  1  0.405665  0.272058  0.933870  1
  O  O16  1  0.499270  0.209387  0.585389  1
  O  O17  1  0.999270  0.585389  0.209387  1
  O  O18  1  0.500730  0.790613  0.414611  1
  O  O19  1  0.000730  0.414611  0.790613  1
  O  O20  1  0.925420  0.197906  0.129600  1
  O  O21  1  0.425420  0.129600  0.197906  1
  O  O22  1  0.074580  0.802094  0.870400  1
  O  O23  1  0.574580  0.870400  0.802094  1
  O  O24  1  0.015691  0.215552  0.456317  1
  O  O25  1  0.515691  0.456317  0.215552  1
  O  O26  1  0.984309  0.784448  0.543683  1
  O  O27  1  0.484309  0.543683  0.784448  1
