# generated using pymatgen
data_AgNO3
_symmetry_space_group_name_H-M   'P 1'
_cell_length_a   7.07777895
_cell_length_b   7.41914299
_cell_length_c   10.22652206
_cell_angle_alpha   90.00000000
_cell_angle_beta   90.00000000
_cell_angle_gamma   90.00000000
_symmetry_Int_Tables_number   1
_chemical_formula_structural   AgNO3
_chemical_formula_sum   'Ag8 N8 O24'
_cell_volume   537.00545296
_cell_formula_units_Z   8
loop_
 _symmetry_equiv_pos_site_id
 _symmetry_equiv_pos_as_xyz
  1  'x, y, z'
loop_
 _atom_site_type_symbol
 _atom_site_label
 _atom_site_symmetry_multiplicity
 _atom_site_fract_x
 _atom_site_fract_y
 _atom_site_fract_z
 _atom_site_occupancy
  Ag  Ag0  1  0.118774  0.759931  0.379410  1
  Ag  Ag1  1  0.884265  0.260483  0.378487  1
  Ag  Ag2  1  0.615735  0.760483  0.621513  1
  Ag  Ag3  1  0.381226  0.259931  0.620590  1
  Ag  Ag4  1  0.115735  0.239517  0.878487  1
  Ag  Ag5  1  0.384265  0.739517  0.121513  1
  Ag  Ag6  1  0.881226  0.740069  0.879410  1
  Ag  Ag7  1  0.618774  0.240069  0.120590  1
  N  N8  1  0.878751  0.614079  0.155844  1
  N  N9  1  0.130672  0.106790  0.159510  1
  N  N10  1  0.378751  0.385921  0.344156  1
  N  N11  1  0.121249  0.885921  0.655844  1
  N  N12  1  0.630672  0.893210  0.340490  1
  N  N13  1  0.869328  0.393210  0.659510  1
  N  N14  1  0.369328  0.606790  0.840490  1
  N  N15  1  0.621249  0.114079  0.844156  1
  O  O16  1  0.266343  0.541826  0.930992  1
  O  O17  1  0.505494  0.777578  0.369562  1
  O  O18  1  0.737751  0.043295  0.922932  1
  O  O19  1  0.877856  0.572653  0.276491  1
  O  O20  1  0.377856  0.427347  0.223509  1
  O  O21  1  0.122144  0.927347  0.776491  1
  O  O22  1  0.762249  0.543295  0.077068  1
  O  O23  1  0.766343  0.458174  0.569008  1
  O  O24  1  0.622144  0.072653  0.723509  1
  O  O25  1  0.495730  0.269346  0.386108  1
  O  O26  1  0.733657  0.958174  0.430992  1
  O  O27  1  0.654707  0.938868  0.221982  1
  O  O28  1  0.995730  0.730654  0.113892  1
  O  O29  1  0.237751  0.956705  0.577068  1
  O  O30  1  0.345293  0.561132  0.721982  1
  O  O31  1  0.262249  0.456705  0.422932  1
  O  O32  1  0.004270  0.769346  0.613892  1
  O  O33  1  0.494507  0.722422  0.869562  1
  O  O34  1  0.994506  0.277578  0.630438  1
  O  O35  1  0.005494  0.222422  0.130438  1
  O  O36  1  0.233657  0.041826  0.069008  1
  O  O37  1  0.154707  0.061132  0.278018  1
  O  O38  1  0.504270  0.230654  0.886108  1
  O  O39  1  0.845293  0.438868  0.778018  1
