# generated using pymatgen
data_Hf8PbO24
_symmetry_space_group_name_H-M   'P 1'
_cell_length_a   8.27069636
_cell_length_b   9.25109925
_cell_length_c   9.24047733
_cell_angle_alpha   66.59826655
_cell_angle_beta   90.00000000
_cell_angle_gamma   63.44789109
_symmetry_Int_Tables_number   1
_chemical_formula_structural   Hf8PbO24
_chemical_formula_sum   'Hf8 Pb1 O24'
_cell_volume   566.68728097
_cell_formula_units_Z   1
loop_
 _symmetry_equiv_pos_site_id
 _symmetry_equiv_pos_as_xyz
  1  'x, y, z'
loop_
 _atom_site_type_symbol
 _atom_site_label
 _atom_site_symmetry_multiplicity
 _atom_site_fract_x
 _atom_site_fract_y
 _atom_site_fract_z
 _atom_site_occupancy
  Hf  Hf0  1  0.184180  0.122425  0.245842  1
  Hf  Hf1  1  0.056605  0.377575  0.754158  1
  Hf  Hf2  1  0.693395  0.122425  0.245842  1
  Hf  Hf3  1  0.438519  0.631620  0.246046  1
  Hf  Hf4  1  0.565820  0.377575  0.754158  1
  Hf  Hf5  1  0.311481  0.868380  0.753954  1
  Hf  Hf6  1  0.929861  0.631620  0.246046  1
  Hf  Hf7  1  0.820139  0.868380  0.753954  1
  Pb  Pb8  1  0.375000  0.250000  0.500000  1
  O  O9  1  0.126809  0.250000  0.000000  1
  O  O10  1  0.078168  0.368749  0.262743  1
  O  O11  1  0.196917  0.131251  0.737257  1
  O  O12  1  0.434150  0.131701  0.262927  1
  O  O13  1  0.196862  0.606276  0.261809  1
  O  O14  1  0.315850  0.368299  0.737074  1
  O  O15  1  0.061011  0.877979  0.747760  1
  O  O16  1  0.623191  0.250000  0.000000  1
  O  O17  1  0.553083  0.368749  0.262743  1
  O  O18  1  0.375000  0.750000  0.000000  1
  O  O19  1  0.494354  0.486865  0.500088  1
  O  O20  1  0.671832  0.131251  0.737257  1
  O  O21  1  0.313079  0.873747  0.252516  1
  O  O22  1  0.255646  0.013135  0.499912  1
  O  O23  1  0.436921  0.626253  0.747484  1
  O  O24  1  0.688989  0.622021  0.252240  1
  O  O25  1  0.813122  0.373755  0.748754  1
  O  O26  1  0.553138  0.893724  0.738191  1
  O  O27  1  0.936878  0.126245  0.251246  1
  O  O28  1  0.875000  0.750000  0.000000  1
  O  O29  1  0.813173  0.873747  0.252516  1
  O  O30  1  0.936827  0.626253  0.747484  1
  O  O31  1  0.731219  0.013135  0.499912  1
  O  O32  1  0.018781  0.486865  0.500088  1
