# generated using pymatgen
data_CeIn7Pt2
_symmetry_space_group_name_H-M   'P 1'
_cell_length_a   4.59332165
_cell_length_b   4.59191361
_cell_length_c   12.08277940
_cell_angle_alpha   100.98483780
_cell_angle_beta   101.02434727
_cell_angle_gamma   90.07415937
_symmetry_Int_Tables_number   1
_chemical_formula_structural   CeIn7Pt2
_chemical_formula_sum   'Ce1 In7 Pt2'
_cell_volume   245.37693580
_cell_formula_units_Z   1
loop_
 _symmetry_equiv_pos_site_id
 _symmetry_equiv_pos_as_xyz
  1  'x, y, z'
loop_
 _atom_site_type_symbol
 _atom_site_label
 _atom_site_symmetry_multiplicity
 _atom_site_fract_x
 _atom_site_fract_y
 _atom_site_fract_z
 _atom_site_occupancy
  Ce  Ce0  1  0.999948  0.998674  0.000206  1
  In  In1  1  0.891855  0.388084  0.784401  1
  In  In2  1  0.610268  0.108943  0.216534  1
  In  In3  1  0.389602  0.888758  0.783429  1
  In  In4  1  0.499454  0.498041  0.998815  1
  In  In5  1  0.250255  0.747770  0.499965  1
  In  In6  1  0.108333  0.609205  0.216223  1
  In  In7  1  0.750103  0.249887  0.500620  1
  Pt  Pt8  1  0.319267  0.316298  0.637972  1
  Pt  Pt9  1  0.680963  0.681671  0.362859  1
