# generated using pymatgen
data_KBa6Zn4(GaO3)7
_symmetry_space_group_name_H-M   'P 1'
_cell_length_a   10.97135325
_cell_length_b   10.98856496
_cell_length_c   11.96538225
_cell_angle_alpha   90.18800578
_cell_angle_beta   89.81418361
_cell_angle_gamma   120.00270037
_symmetry_Int_Tables_number   1
_chemical_formula_structural   KBa6Zn4(GaO3)7
_chemical_formula_sum   'K2 Ba12 Zn8 Ga14 O42'
_cell_volume   1249.23311394
_cell_formula_units_Z   2
loop_
 _symmetry_equiv_pos_site_id
 _symmetry_equiv_pos_as_xyz
  1  'x, y, z'
loop_
 _atom_site_type_symbol
 _atom_site_label
 _atom_site_symmetry_multiplicity
 _atom_site_fract_x
 _atom_site_fract_y
 _atom_site_fract_z
 _atom_site_occupancy
  K  K0  1  0.333232  0.667162  0.401651  1
  K  K1  1  0.668123  0.334461  0.902856  1
  Ba  Ba2  1  0.125021  0.856263  0.963761  1
  Ba  Ba3  1  0.195548  0.798053  0.633650  1
  Ba  Ba4  1  0.196830  0.396613  0.635442  1
  Ba  Ba5  1  0.142807  0.268309  0.964026  1
  Ba  Ba6  1  0.266695  0.139650  0.457826  1
  Ba  Ba7  1  0.602758  0.802017  0.634626  1
  Ba  Ba8  1  0.394262  0.197371  0.137260  1
  Ba  Ba9  1  0.733618  0.875609  0.961505  1
  Ba  Ba10  1  0.804325  0.604864  0.135452  1
  Ba  Ba11  1  0.879247  0.734042  0.459443  1
  Ba  Ba12  1  0.803048  0.198237  0.133673  1
  Ba  Ba13  1  0.858641  0.124391  0.462505  1
  Zn  Zn14  1  0.165541  0.825280  0.280642  1
  Zn  Zn15  1  0.004159  0.476413  0.887463  1
  Zn  Zn16  1  0.470716  0.995763  0.888476  1
  Zn  Zn17  1  0.174227  0.340855  0.277729  1
  Zn  Zn18  1  0.525168  0.530684  0.887924  1
  Zn  Zn19  1  0.530426  0.526210  0.387657  1
  Zn  Zn20  1  0.471226  0.001407  0.389601  1
  Zn  Zn21  1  0.870427  0.430277  0.628739  1
  Ga  Ga22  1  0.129483  0.558708  0.132446  1
  Ga  Ga23  1  0.430068  0.868966  0.131152  1
  Ga  Ga24  1  0.332908  0.666702  0.813212  1
  Ga  Ga25  1  0.999297  0.997025  0.203159  1
  Ga  Ga26  1  0.436860  0.568682  0.134239  1
  Ga  Ga27  1  0.656891  0.834208  0.277375  1
  Ga  Ga28  1  0.343731  0.177176  0.777761  1
  Ga  Ga29  1  0.568663  0.435541  0.631155  1
  Ga  Ga30  1  0.562369  0.132689  0.631587  1
  Ga  Ga31  1  0.667523  0.335892  0.312778  1
  Ga  Ga32  1  0.834118  0.654841  0.778138  1
  Ga  Ga33  1  0.823740  0.166777  0.776521  1
  Ga  Ga34  1  0.998446  0.471174  0.388107  1
  Ga  Ga35  1  0.999297  0.000151  0.703558  1
  O  O36  1  0.993078  0.835954  0.758971  1
  O  O37  1  0.019316  0.583405  0.028093  1
  O  O38  1  0.087238  0.608995  0.273869  1
  O  O39  1  0.264394  0.891914  0.423141  1
  O  O40  1  0.287464  0.910697  0.145979  1
  O  O41  1  0.305903  0.816955  0.845178  1
  O  O42  1  0.086345  0.373393  0.143670  1
  O  O43  1  0.102124  0.379853  0.419070  1
  O  O44  1  0.183782  0.488836  0.845409  1
  O  O45  1  0.332472  0.666232  0.114469  1
  O  O46  1  0.334036  0.666883  0.650170  1
  O  O47  1  0.564847  0.981242  0.026178  1
  O  O48  1  0.528710  0.904118  0.269834  1
  O  O49  1  0.164759  0.158867  0.759366  1
  O  O50  1  0.160033  0.154947  0.259814  1
  O  O51  1  0.383256  0.476656  0.271910  1
  O  O52  1  0.511102  0.695197  0.844506  1
  O  O53  1  0.420310  0.439036  0.027149  1
  O  O54  1  0.437303  0.421121  0.527581  1
  O  O55  1  0.631579  0.743623  0.413680  1
  O  O56  1  0.623699  0.718308  0.150837  1
  O  O57  1  0.469775  0.375576  0.770751  1
  O  O58  1  0.371932  0.112872  0.913189  1
  O  O59  1  0.374545  0.090371  0.653539  1
  O  O60  1  0.839208  0.002809  0.761377  1
  O  O61  1  0.493200  0.184408  0.345476  1
  O  O62  1  0.715332  0.622040  0.653214  1
  O  O63  1  0.739773  0.630501  0.913625  1
  O  O64  1  0.697332  0.513067  0.346283  1
  O  O65  1  0.658801  0.329077  0.612182  1
  O  O66  1  0.998195  0.000177  0.047455  1
  O  O67  1  0.668320  0.333135  0.151045  1
  O  O68  1  0.583653  0.019707  0.527586  1
  O  O69  1  0.624106  0.095215  0.770208  1
  O  O70  1  0.989546  0.832234  0.257022  1
  O  O71  1  0.909682  0.535116  0.774150  1
  O  O72  1  0.824395  0.316656  0.346446  1
  O  O73  1  0.990360  0.567201  0.514142  1
  O  O74  1  0.886935  0.258691  0.913248  1
  O  O75  1  0.910821  0.274813  0.651538  1
  O  O76  1  0.833452  0.996610  0.257564  1
  O  O77  1  0.999453  0.001030  0.549188  1
