# generated using pymatgen
data_Yb11(Sm2Se11)2
_symmetry_space_group_name_H-M   'P 1'
_cell_length_a   4.22959301
_cell_length_b   11.89913244
_cell_length_c   21.38754204
_cell_angle_alpha   97.50221436
_cell_angle_beta   95.67466464
_cell_angle_gamma   90.00000149
_symmetry_Int_Tables_number   1
_chemical_formula_structural   Yb11(Sm2Se11)2
_chemical_formula_sum   'Yb11 Sm4 Se22'
_cell_volume   1061.86763380
_cell_formula_units_Z   1
loop_
 _symmetry_equiv_pos_site_id
 _symmetry_equiv_pos_as_xyz
  1  'x, y, z'
loop_
 _atom_site_type_symbol
 _atom_site_label
 _atom_site_symmetry_multiplicity
 _atom_site_fract_x
 _atom_site_fract_y
 _atom_site_fract_z
 _atom_site_occupancy
  Yb  Yb0  1  0.937201  0.162823  0.874403  1
  Yb  Yb1  1  0.062799  0.837177  0.125597  1
  Yb  Yb2  1  0.798710  0.522817  0.597419  1
  Yb  Yb3  1  0.538803  0.201705  0.077606  1
  Yb  Yb4  1  0.266631  0.861407  0.533262  1
  Yb  Yb5  1  0.338878  0.180737  0.677756  1
  Yb  Yb6  1  0.733369  0.138593  0.466738  1
  Yb  Yb7  1  0.000000  0.500000  0.000000  1
  Yb  Yb8  1  0.201290  0.477183  0.402581  1
  Yb  Yb9  1  0.661122  0.819263  0.322244  1
  Yb  Yb10  1  0.461197  0.798295  0.922394  1
  Sm  Sm11  1  0.625489  0.159231  0.250977  1
  Sm  Sm12  1  0.890895  0.498138  0.781790  1
  Sm  Sm13  1  0.374511  0.840769  0.749023  1
  Sm  Sm14  1  0.109105  0.501862  0.218210  1
  Se  Se15  1  0.140873  0.988394  0.281745  1
  Se  Se16  1  0.735929  0.379183  0.471858  1
  Se  Se17  1  0.724653  0.896429  0.449306  1
  Se  Se18  1  0.000124  0.735576  0.000248  1
  Se  Se19  1  0.999876  0.264424  0.999752  1
  Se  Se20  1  0.859127  0.011606  0.718255  1
  Se  Se21  1  0.448294  0.504813  0.896588  1
  Se  Se22  1  0.264071  0.620817  0.528142  1
  Se  Se23  1  0.275347  0.103571  0.550694  1
  Se  Se24  1  0.088393  0.251845  0.176786  1
  Se  Se25  1  0.165528  0.667316  0.331056  1
  Se  Se26  1  0.564922  0.993770  0.129845  1
  Se  Se27  1  0.587859  0.673565  0.175719  1
  Se  Se28  1  0.412141  0.326435  0.824281  1
  Se  Se29  1  0.834472  0.332684  0.668944  1
  Se  Se30  1  0.179675  0.161751  0.359351  1
  Se  Se31  1  0.353217  0.586924  0.706433  1
  Se  Se32  1  0.646783  0.413076  0.293567  1
  Se  Se33  1  0.551706  0.495187  0.103412  1
  Se  Se34  1  0.820325  0.838248  0.640649  1
  Se  Se35  1  0.911607  0.748155  0.823214  1
  Se  Se36  1  0.435078  0.006230  0.870155  1
