# generated using pymatgen
data_Eu(C2N3)3
_symmetry_space_group_name_H-M   'P 1'
_cell_length_a   7.01166737
_cell_length_b   7.01166756
_cell_length_c   10.46692950
_cell_angle_alpha   90.00000000
_cell_angle_beta   90.00000000
_cell_angle_gamma   110.02009901
_symmetry_Int_Tables_number   1
_chemical_formula_structural   Eu(C2N3)3
_chemical_formula_sum   'Eu2 C12 N18'
_cell_volume   483.49530034
_cell_formula_units_Z   2
loop_
 _symmetry_equiv_pos_site_id
 _symmetry_equiv_pos_as_xyz
  1  'x, y, z'
loop_
 _atom_site_type_symbol
 _atom_site_label
 _atom_site_symmetry_multiplicity
 _atom_site_fract_x
 _atom_site_fract_y
 _atom_site_fract_z
 _atom_site_occupancy
  Eu  Eu0  1  0.712073  0.287927  0.250000  1
  Eu  Eu1  1  0.287927  0.712073  0.750000  1
  C  C2  1  0.713100  0.996804  0.558943  1
  C  C3  1  0.447788  0.259692  0.750000  1
  C  C4  1  0.552212  0.740308  0.250000  1
  C  C5  1  0.003196  0.286900  0.558943  1
  C  C6  1  0.996804  0.713100  0.441057  1
  C  C7  1  0.996804  0.713100  0.058943  1
  C  C8  1  0.286900  0.003196  0.058943  1
  C  C9  1  0.003196  0.286900  0.941057  1
  C  C10  1  0.740308  0.552212  0.750000  1
  C  C11  1  0.259692  0.447788  0.250000  1
  C  C12  1  0.713100  0.996804  0.941057  1
  C  C13  1  0.286900  0.003196  0.441057  1
  N  N14  1  0.088527  0.337895  0.250000  1
  N  N15  1  0.849205  0.150795  0.504994  1
  N  N16  1  0.579411  0.851452  0.593825  1
  N  N17  1  0.420589  0.148548  0.406175  1
  N  N18  1  0.337895  0.088527  0.750000  1
  N  N19  1  0.148548  0.420589  0.593825  1
  N  N20  1  0.545853  0.454147  0.750000  1
  N  N21  1  0.150795  0.849205  0.495006  1
  N  N22  1  0.849205  0.150795  0.995006  1
  N  N23  1  0.454147  0.545853  0.250000  1
  N  N24  1  0.851452  0.579411  0.093825  1
  N  N25  1  0.420589  0.148548  0.093825  1
  N  N26  1  0.911473  0.662105  0.750000  1
  N  N27  1  0.150795  0.849205  0.004994  1
  N  N28  1  0.148548  0.420589  0.906175  1
  N  N29  1  0.851452  0.579411  0.406175  1
  N  N30  1  0.662105  0.911473  0.250000  1
  N  N31  1  0.579411  0.851452  0.906175  1
