# generated using pymatgen
data_NaTeH6O6F
_symmetry_space_group_name_H-M   'P 1'
_cell_length_a   5.70912784
_cell_length_b   5.70912784
_cell_length_c   5.70912750
_cell_angle_alpha   64.62446159
_cell_angle_beta   64.62446158
_cell_angle_gamma   64.62446014
_symmetry_Int_Tables_number   1
_chemical_formula_structural   NaTeH6O6F
_chemical_formula_sum   'Na1 Te1 H6 O6 F1'
_cell_volume   144.91236907
_cell_formula_units_Z   1
loop_
 _symmetry_equiv_pos_site_id
 _symmetry_equiv_pos_as_xyz
  1  'x, y, z'
loop_
 _atom_site_type_symbol
 _atom_site_label
 _atom_site_symmetry_multiplicity
 _atom_site_fract_x
 _atom_site_fract_y
 _atom_site_fract_z
 _atom_site_occupancy
  Na  Na0  1  0.376218  0.376218  0.376218  1
  Te  Te1  1  0.002818  0.002818  0.002818  1
  H  H2  1  0.955037  0.016476  0.455220  1
  H  H3  1  0.016476  0.455220  0.955037  1
  H  H4  1  0.455220  0.955037  0.016476  1
  H  H5  1  0.320633  0.798820  0.617809  1
  H  H6  1  0.798820  0.617809  0.320633  1
  H  H7  1  0.617809  0.320633  0.798820  1
  O  O8  1  0.823563  0.064796  0.356940  1
  O  O9  1  0.064796  0.356940  0.823563  1
  O  O10  1  0.356940  0.823563  0.064796  1
  O  O11  1  0.157701  0.971006  0.633925  1
  O  O12  1  0.971006  0.633925  0.157701  1
  O  O13  1  0.633925  0.157701  0.971006  1
  F  F14  1  0.556137  0.556137  0.556137  1
