# generated using pymatgen
data_Ba2Tl2CuO6
_symmetry_space_group_name_H-M   'P 1'
_cell_length_a   5.50411013
_cell_length_b   5.58574279
_cell_length_c   12.28312742
_cell_angle_alpha   90.00000000
_cell_angle_beta   102.94711845
_cell_angle_gamma   90.00000000
_symmetry_Int_Tables_number   1
_chemical_formula_structural   Ba2Tl2CuO6
_chemical_formula_sum   'Ba4 Tl4 Cu2 O12'
_cell_volume   368.03852731
_cell_formula_units_Z   2
loop_
 _symmetry_equiv_pos_site_id
 _symmetry_equiv_pos_as_xyz
  1  'x, y, z'
loop_
 _atom_site_type_symbol
 _atom_site_label
 _atom_site_symmetry_multiplicity
 _atom_site_fract_x
 _atom_site_fract_y
 _atom_site_fract_z
 _atom_site_occupancy
  O  O0  1  0.211818  0.454508  0.423636  1
  O  O1  1  0.788182  0.545492  0.576364  1
  O  O2  1  0.288182  0.954508  0.576364  1
  O  O3  1  0.711818  0.045492  0.423636  1
  O  O4  1  0.382961  0.500647  0.765921  1
  O  O5  1  0.617039  0.499353  0.234079  1
  O  O6  1  0.117039  0.000647  0.234079  1
  O  O7  1  0.882961  0.999353  0.765921  1
  O  O8  1  0.749993  0.750000  0.999986  1
  O  O9  1  0.750007  0.250000  0.000014  1
  O  O10  1  0.249993  0.750000  0.999986  1
  O  O11  1  0.250007  0.250000  0.000014  1
  Cu  Cu12  1  0.500000  0.500000  0.000000  1
  Cu  Cu13  1  0.000000  0.000000  0.000000  1
  Ba  Ba14  1  0.918835  0.498974  0.837670  1
  Ba  Ba15  1  0.081165  0.501026  0.162330  1
  Ba  Ba16  1  0.581165  0.998974  0.162330  1
  Ba  Ba17  1  0.418835  0.001026  0.837670  1
  Tl  Tl18  1  0.297926  0.519213  0.595852  1
  Tl  Tl19  1  0.702074  0.480787  0.404148  1
  Tl  Tl20  1  0.202074  0.019213  0.404148  1
  Tl  Tl21  1  0.797926  0.980787  0.595852  1
