# generated using pymatgen
data_MnFeC5N6O
_symmetry_space_group_name_H-M   'P 1'
_cell_length_a   7.49930366
_cell_length_b   10.94783345
_cell_length_c   13.94430206
_cell_angle_alpha   90.00000000
_cell_angle_beta   90.00000000
_cell_angle_gamma   90.00000000
_symmetry_Int_Tables_number   1
_chemical_formula_structural   MnFeC5N6O
_chemical_formula_sum   'Mn4 Fe4 C20 N24 O4'
_cell_volume   1144.84292078
_cell_formula_units_Z   4
loop_
 _symmetry_equiv_pos_site_id
 _symmetry_equiv_pos_as_xyz
  1  'x, y, z'
loop_
 _atom_site_type_symbol
 _atom_site_label
 _atom_site_symmetry_multiplicity
 _atom_site_fract_x
 _atom_site_fract_y
 _atom_site_fract_z
 _atom_site_occupancy
  Mn  Mn0  1  0.250000  0.357360  0.322238  1
  Mn  Mn1  1  0.750000  0.642640  0.677762  1
  Mn  Mn2  1  0.750000  0.857360  0.177762  1
  Mn  Mn3  1  0.250000  0.142640  0.822238  1
  Fe  Fe4  1  0.750000  0.192249  0.557684  1
  Fe  Fe5  1  0.250000  0.692249  0.942316  1
  Fe  Fe6  1  0.750000  0.307751  0.057684  1
  Fe  Fe7  1  0.250000  0.807751  0.442316  1
  C  C8  1  0.566679  0.336157  0.153470  1
  C  C9  1  0.433687  0.751892  0.028890  1
  C  C10  1  0.566679  0.163843  0.653470  1
  C  C11  1  0.433321  0.836157  0.346530  1
  C  C12  1  0.066679  0.663843  0.846530  1
  C  C13  1  0.933321  0.163843  0.653470  1
  C  C14  1  0.566313  0.248108  0.971110  1
  C  C15  1  0.433687  0.748108  0.528890  1
  C  C16  1  0.066313  0.748108  0.528890  1
  C  C17  1  0.066313  0.751892  0.028890  1
  C  C18  1  0.933687  0.251892  0.471110  1
  C  C19  1  0.750000  0.356629  0.606907  1
  C  C20  1  0.933321  0.336157  0.153470  1
  C  C21  1  0.250000  0.643371  0.393093  1
  C  C22  1  0.750000  0.143371  0.106907  1
  C  C23  1  0.066679  0.836157  0.346530  1
  C  C24  1  0.433321  0.663843  0.846530  1
  C  C25  1  0.250000  0.856629  0.893093  1
  C  C26  1  0.933687  0.248108  0.971110  1
  C  C27  1  0.566313  0.251892  0.471110  1
  N  N28  1  0.046313  0.216201  0.919020  1
  N  N29  1  0.046313  0.283799  0.419020  1
  N  N30  1  0.250000  0.543558  0.363931  1
  N  N31  1  0.546165  0.647038  0.790348  1
  N  N32  1  0.546313  0.716201  0.580980  1
  N  N33  1  0.250000  0.956442  0.863931  1
  N  N34  1  0.546165  0.852962  0.290348  1
  N  N35  1  0.453835  0.147038  0.709652  1
  N  N36  1  0.453835  0.352962  0.209652  1
  N  N37  1  0.453687  0.283799  0.419020  1
  N  N38  1  0.953835  0.852962  0.290348  1
  N  N39  1  0.453687  0.216201  0.919020  1
  N  N40  1  0.046165  0.352962  0.209652  1
  N  N41  1  0.750000  0.049160  0.515372  1
  N  N42  1  0.750000  0.456442  0.636069  1
  N  N43  1  0.250000  0.549160  0.984628  1
  N  N44  1  0.953687  0.783799  0.080980  1
  N  N45  1  0.750000  0.450840  0.015372  1
  N  N46  1  0.953835  0.647038  0.790348  1
  N  N47  1  0.953687  0.716201  0.580980  1
  N  N48  1  0.750000  0.043558  0.136069  1
  N  N49  1  0.046165  0.147038  0.709652  1
  N  N50  1  0.250000  0.950840  0.484628  1
  N  N51  1  0.546313  0.783799  0.080980  1
  O  O52  1  0.750000  0.549541  0.987097  1
  O  O53  1  0.250000  0.049541  0.512903  1
  O  O54  1  0.750000  0.950459  0.487097  1
  O  O55  1  0.250000  0.450459  0.012903  1
