# generated using pymatgen
data_K2Cd2(SO4)3
_symmetry_space_group_name_H-M   'P 1'
_cell_length_a   10.41768281
_cell_length_b   10.37864885
_cell_length_c   10.48335250
_cell_angle_alpha   90.00000000
_cell_angle_beta   90.00000000
_cell_angle_gamma   90.00000000
_symmetry_Int_Tables_number   1
_chemical_formula_structural   K2Cd2(SO4)3
_chemical_formula_sum   'K8 Cd8 S12 O48'
_cell_volume   1133.47550081
_cell_formula_units_Z   4
loop_
 _symmetry_equiv_pos_site_id
 _symmetry_equiv_pos_as_xyz
  1  'x, y, z'
loop_
 _atom_site_type_symbol
 _atom_site_label
 _atom_site_symmetry_multiplicity
 _atom_site_fract_x
 _atom_site_fract_y
 _atom_site_fract_z
 _atom_site_occupancy
  O  O0  1  0.075698  0.898108  0.799869  1
  O  O1  1  0.575698  0.601892  0.200131  1
  O  O2  1  0.924302  0.398108  0.700131  1
  O  O3  1  0.424302  0.101892  0.299869  1
  O  O4  1  0.240639  0.066500  0.782496  1
  O  O5  1  0.740639  0.433500  0.217504  1
  O  O6  1  0.759361  0.566500  0.717504  1
  O  O7  1  0.259361  0.933500  0.282496  1
  O  O8  1  0.031673  0.099913  0.690130  1
  O  O9  1  0.531673  0.400087  0.309870  1
  O  O10  1  0.968327  0.599913  0.809870  1
  O  O11  1  0.468327  0.900087  0.190130  1
  O  O12  1  0.180329  0.943471  0.595940  1
  O  O13  1  0.680329  0.556529  0.404060  1
  O  O14  1  0.819671  0.443471  0.904060  1
  O  O15  1  0.319671  0.056529  0.095940  1
  O  O16  1  0.382001  0.673777  0.492840  1
  O  O17  1  0.882001  0.826223  0.507160  1
  O  O18  1  0.157536  0.690771  0.434336  1
  O  O19  1  0.617999  0.173777  0.007160  1
  O  O20  1  0.249839  0.480297  0.459974  1
  O  O21  1  0.749839  0.019703  0.540026  1
  O  O22  1  0.750161  0.980297  0.040026  1
  O  O23  1  0.250161  0.519703  0.959974  1
  O  O24  1  0.213319  0.608324  0.646771  1
  O  O25  1  0.713319  0.891676  0.353229  1
  O  O26  1  0.786681  0.108324  0.853229  1
  O  O27  1  0.286681  0.391676  0.146771  1
  O  O28  1  0.029694  0.304533  0.260818  1
  O  O29  1  0.529694  0.195467  0.739182  1
  O  O30  1  0.970306  0.804533  0.239182  1
  O  O31  1  0.470306  0.695467  0.760818  1
  O  O32  1  0.994521  0.081728  0.326008  1
  O  O33  1  0.494521  0.418272  0.673992  1
  O  O34  1  0.005479  0.581728  0.173992  1
  O  O35  1  0.505479  0.918272  0.826008  1
  O  O36  1  0.925034  0.260352  0.461221  1
  O  O37  1  0.425034  0.239648  0.538779  1
  O  O38  1  0.074966  0.760352  0.038779  1
  O  O39  1  0.574966  0.739648  0.961221  1
  O  O40  1  0.154664  0.215010  0.434380  1
  O  O41  1  0.654664  0.284990  0.565620  1
  O  O42  1  0.845336  0.715010  0.065620  1
  O  O43  1  0.345336  0.784990  0.934380  1
  O  O44  1  0.342464  0.309229  0.934336  1
  O  O45  1  0.842464  0.190771  0.065664  1
  O  O46  1  0.657536  0.809229  0.565664  1
  O  O47  1  0.117999  0.326223  0.992840  1
  S  S48  1  0.131480  0.002061  0.717381  1
  S  S49  1  0.631480  0.497939  0.282619  1
  S  S50  1  0.868520  0.502061  0.782619  1
  S  S51  1  0.368520  0.997939  0.217381  1
  S  S52  1  0.252534  0.614627  0.510347  1
  S  S53  1  0.752534  0.885373  0.489653  1
  S  S54  1  0.747466  0.114627  0.989653  1
  S  S55  1  0.247466  0.385373  0.010347  1
  S  S56  1  0.473839  0.784697  0.870902  1
  S  S57  1  0.026161  0.215303  0.370902  1
  S  S58  1  0.526161  0.284697  0.629098  1
  S  S59  1  0.973839  0.715303  0.129098  1
  K  K60  1  0.193879  0.329894  0.687426  1
  K  K61  1  0.306121  0.670106  0.187426  1
  K  K62  1  0.437489  0.963703  0.561471  1
  K  K63  1  0.806121  0.829894  0.812574  1
  K  K64  1  0.062511  0.036297  0.061471  1
  K  K65  1  0.562511  0.463703  0.938529  1
  K  K66  1  0.937489  0.536297  0.438529  1
  K  K67  1  0.693879  0.170106  0.312574  1
  Cd  Cd68  1  0.334063  0.305374  0.343438  1
  Cd  Cd69  1  0.834063  0.194626  0.656562  1
  Cd  Cd70  1  0.665937  0.805374  0.156562  1
  Cd  Cd71  1  0.165937  0.694626  0.843438  1
  Cd  Cd72  1  0.926476  0.396171  0.086848  1
  Cd  Cd73  1  0.073524  0.896171  0.413152  1
  Cd  Cd74  1  0.573524  0.603829  0.586848  1
  Cd  Cd75  1  0.426476  0.103829  0.913152  1
