# generated using pymatgen
data_Na8In6Au11
_symmetry_space_group_name_H-M   'P 1'
_cell_length_a   5.62213623
_cell_length_b   15.29192884
_cell_length_c   26.16939866
_cell_angle_alpha   90.00000000
_cell_angle_beta   90.00000000
_cell_angle_gamma   90.00000000
_symmetry_Int_Tables_number   1
_chemical_formula_structural   Na8In6Au11
_chemical_formula_sum   'Na32 In24 Au44'
_cell_volume   2249.86974913
_cell_formula_units_Z   4
loop_
 _symmetry_equiv_pos_site_id
 _symmetry_equiv_pos_as_xyz
  1  'x, y, z'
loop_
 _atom_site_type_symbol
 _atom_site_label
 _atom_site_symmetry_multiplicity
 _atom_site_fract_x
 _atom_site_fract_y
 _atom_site_fract_z
 _atom_site_occupancy
  Na  Na0  1  0.774488  0.137545  0.639840  1
  Na  Na1  1  0.774488  0.862455  0.860160  1
  Na  Na2  1  0.246590  0.063812  0.698421  1
  Na  Na3  1  0.229845  0.940960  0.483719  1
  Na  Na4  1  0.225512  0.362455  0.139840  1
  Na  Na5  1  0.773238  0.750000  0.070712  1
  Na  Na6  1  0.225512  0.862455  0.360160  1
  Na  Na7  1  0.773238  0.250000  0.429288  1
  Na  Na8  1  0.234092  0.250000  0.357986  1
  Na  Na9  1  0.234092  0.750000  0.142014  1
  Na  Na10  1  0.753410  0.563812  0.301579  1
  Na  Na11  1  0.229845  0.059040  0.016281  1
  Na  Na12  1  0.225512  0.137545  0.139840  1
  Na  Na13  1  0.246590  0.936188  0.801579  1
  Na  Na14  1  0.770155  0.059040  0.516281  1
  Na  Na15  1  0.765908  0.750000  0.642014  1
  Na  Na16  1  0.225512  0.637545  0.360160  1
  Na  Na17  1  0.774488  0.362455  0.639840  1
  Na  Na18  1  0.753410  0.436188  0.198421  1
  Na  Na19  1  0.229845  0.559040  0.483719  1
  Na  Na20  1  0.753410  0.936188  0.301579  1
  Na  Na21  1  0.765908  0.250000  0.857986  1
  Na  Na22  1  0.774488  0.637545  0.860160  1
  Na  Na23  1  0.226762  0.250000  0.929288  1
  Na  Na24  1  0.246590  0.436188  0.698421  1
  Na  Na25  1  0.770155  0.440960  0.516281  1
  Na  Na26  1  0.770155  0.940960  0.983719  1
  Na  Na27  1  0.226762  0.750000  0.570712  1
  Na  Na28  1  0.246590  0.563812  0.801579  1
  Na  Na29  1  0.753410  0.063812  0.198421  1
  Na  Na30  1  0.770155  0.559040  0.983719  1
  Na  Na31  1  0.229845  0.440960  0.016281  1
  In  In32  1  0.496485  0.750000  0.763470  1
  In  In33  1  0.503515  0.250000  0.236530  1
  In  In34  1  0.468937  0.939272  0.604699  1
  In  In35  1  0.500882  0.250000  0.545525  1
  In  In36  1  0.228793  0.418875  0.283625  1
  In  In37  1  0.228793  0.581125  0.216375  1
  In  In38  1  0.228793  0.081125  0.283625  1
  In  In39  1  0.771207  0.581125  0.716375  1
  In  In40  1  0.496485  0.250000  0.736530  1
  In  In41  1  0.228793  0.918875  0.216375  1
  In  In42  1  0.771207  0.418875  0.783625  1
  In  In43  1  0.531063  0.060728  0.395301  1
  In  In44  1  0.500882  0.750000  0.954475  1
  In  In45  1  0.468937  0.439272  0.895301  1
  In  In46  1  0.771207  0.081125  0.783625  1
  In  In47  1  0.531063  0.439272  0.395301  1
  In  In48  1  0.503515  0.750000  0.263470  1
  In  In49  1  0.468937  0.560728  0.604699  1
  In  In50  1  0.771207  0.918875  0.716375  1
  In  In51  1  0.531063  0.939272  0.104699  1
  In  In52  1  0.499118  0.250000  0.045525  1
  In  In53  1  0.531063  0.560728  0.104699  1
  In  In54  1  0.468937  0.060728  0.895301  1
  In  In55  1  0.499118  0.750000  0.454475  1
  Au  Au56  1  0.265242  0.652291  0.032491  1
  Au  Au57  1  0.036347  0.444494  0.385882  1
  Au  Au58  1  0.963653  0.555506  0.614118  1
  Au  Au59  1  0.734758  0.152291  0.967509  1
  Au  Au60  1  0.748324  0.594013  0.423409  1
  Au  Au61  1  0.729787  0.643101  0.189742  1
  Au  Au62  1  0.251676  0.905987  0.923409  1
  Au  Au63  1  0.018163  0.750000  0.260327  1
  Au  Au64  1  0.729787  0.143101  0.310258  1
  Au  Au65  1  0.978203  0.750000  0.954405  1
  Au  Au66  1  0.270213  0.356899  0.810258  1
  Au  Au67  1  0.978203  0.250000  0.545595  1
  Au  Au68  1  0.036347  0.055506  0.385882  1
  Au  Au69  1  0.748324  0.094013  0.076591  1
  Au  Au70  1  0.737645  0.750000  0.356319  1
  Au  Au71  1  0.265242  0.847709  0.032491  1
  Au  Au72  1  0.251676  0.094013  0.576591  1
  Au  Au73  1  0.729787  0.856899  0.189742  1
  Au  Au74  1  0.251676  0.594013  0.923409  1
  Au  Au75  1  0.036347  0.555506  0.114118  1
  Au  Au76  1  0.734758  0.652291  0.532491  1
  Au  Au77  1  0.021797  0.250000  0.045595  1
  Au  Au78  1  0.748324  0.905987  0.423409  1
  Au  Au79  1  0.036347  0.944494  0.114118  1
  Au  Au80  1  0.963653  0.444494  0.885882  1
  Au  Au81  1  0.270213  0.643101  0.689742  1
  Au  Au82  1  0.021797  0.750000  0.454405  1
  Au  Au83  1  0.734758  0.347709  0.967509  1
  Au  Au84  1  0.265242  0.152291  0.467509  1
  Au  Au85  1  0.981837  0.250000  0.739673  1
  Au  Au86  1  0.262355  0.750000  0.856319  1
  Au  Au87  1  0.262355  0.250000  0.643681  1
  Au  Au88  1  0.963653  0.055506  0.885882  1
  Au  Au89  1  0.981837  0.750000  0.760327  1
  Au  Au90  1  0.748324  0.405987  0.076591  1
  Au  Au91  1  0.251676  0.405987  0.576591  1
  Au  Au92  1  0.265242  0.347709  0.467509  1
  Au  Au93  1  0.734758  0.847709  0.532491  1
  Au  Au94  1  0.737645  0.250000  0.143681  1
  Au  Au95  1  0.270213  0.143101  0.810258  1
  Au  Au96  1  0.963653  0.944494  0.614118  1
  Au  Au97  1  0.729787  0.356899  0.310258  1
  Au  Au98  1  0.270213  0.856899  0.689742  1
  Au  Au99  1  0.018163  0.250000  0.239673  1
