# generated using pymatgen
data_Sr3La5Mn8O24
_symmetry_space_group_name_H-M   'P 1'
_cell_length_a   11.06935433
_cell_length_b   14.61588181
_cell_length_c   9.56831305
_cell_angle_alpha   29.49897156
_cell_angle_beta   55.27413597
_cell_angle_gamma   41.27097959
_symmetry_Int_Tables_number   1
_chemical_formula_structural   Sr3La5Mn8O24
_chemical_formula_sum   'Sr3 La5 Mn8 O24'
_cell_volume   485.48860769
_cell_formula_units_Z   1
loop_
 _symmetry_equiv_pos_site_id
 _symmetry_equiv_pos_as_xyz
  1  'x, y, z'
loop_
 _atom_site_type_symbol
 _atom_site_label
 _atom_site_symmetry_multiplicity
 _atom_site_fract_x
 _atom_site_fract_y
 _atom_site_fract_z
 _atom_site_occupancy
  Sr  Sr0  1  0.125512  0.998975  0.251025  1
  Sr  Sr1  1  0.873667  0.502667  0.247333  1
  Sr  Sr2  1  0.625687  0.998625  0.251375  1
  La  La3  1  0.124361  0.499757  0.752291  1
  La  La4  1  0.374914  0.500172  0.249828  1
  La  La5  1  0.625882  0.499757  0.748195  1
  La  La6  1  0.374926  0.000024  0.749778  1
  La  La7  1  0.875050  0.000024  0.750175  1
  Mn  Mn8  1  0.999009  0.000746  0.000270  1
  Mn  Mn9  1  0.500505  0.998926  0.001209  1
  Mn  Mn10  1  0.999188  0.500210  0.500395  1
  Mn  Mn11  1  0.249696  0.500025  0.999357  1
  Mn  Mn12  1  0.500279  0.500025  0.500593  1
  Mn  Mn13  1  0.750602  0.500210  0.999185  1
  Mn  Mn14  1  0.250244  0.000746  0.498237  1
  Mn  Mn15  1  0.750570  0.998926  0.500940  1
  O  O16  1  0.346616  0.055268  0.194745  1
  O  O17  1  0.219792  0.269213  0.252597  1
  O  O18  1  0.042474  0.221741  0.749740  1
  O  O19  1  0.103410  0.553591  0.196075  1
  O  O20  1  0.483910  0.228383  0.303299  1
  O  O21  1  0.263078  0.276094  0.697688  1
  O  O22  1  0.848115  0.055268  0.194718  1
  O  O23  1  0.239074  0.717782  0.304501  1
  O  O24  1  0.710828  0.276094  0.250124  1
  O  O25  1  0.009501  0.771354  0.709639  1
  O  O26  1  0.537707  0.228383  0.739934  1
  O  O27  1  0.395049  0.459901  0.790099  1
  O  O28  1  0.592999  0.553591  0.196743  1
  O  O29  1  0.469145  0.771354  0.247652  1
  O  O30  1  0.985785  0.221741  0.306778  1
  O  O31  1  0.293144  0.717782  0.759934  1
  O  O32  1  0.760995  0.269213  0.708977  1
  O  O33  1  0.151351  0.947298  0.802702  1
  O  O34  1  0.736894  0.723796  0.302418  1
  O  O35  1  0.509050  0.768206  0.713599  1
  O  O36  1  0.896099  0.457801  0.792199  1
  O  O37  1  0.972744  0.768206  0.249990  1
  O  O38  1  0.789310  0.723796  0.749990  1
  O  O39  1  0.642835  0.964329  0.785671  1
