# generated using pymatgen
data_CBr4
_symmetry_space_group_name_H-M   'P 1'
_cell_length_a   12.62536491
_cell_length_b   12.79460538
_cell_length_c   21.73865795
_cell_angle_alpha   73.93527351
_cell_angle_beta   73.11871047
_cell_angle_gamma   60.43660789
_symmetry_Int_Tables_number   1
_chemical_formula_structural   CBr4
_chemical_formula_sum   'C16 Br64'
_cell_volume   2884.98445056
_cell_formula_units_Z   16
loop_
 _symmetry_equiv_pos_site_id
 _symmetry_equiv_pos_as_xyz
  1  'x, y, z'
loop_
 _atom_site_type_symbol
 _atom_site_label
 _atom_site_symmetry_multiplicity
 _atom_site_fract_x
 _atom_site_fract_y
 _atom_site_fract_z
 _atom_site_occupancy
  C  C0  1  0.810113  0.370967  0.376756  1
  C  C1  1  0.364782  0.318516  0.371423  1
  C  C2  1  0.945279  0.818516  0.871423  1
  C  C3  1  0.064508  0.685766  0.121752  1
  C  C4  1  0.635218  0.681484  0.628577  1
  C  C5  1  0.557835  0.129033  0.123244  1
  C  C6  1  0.438992  0.361871  0.879507  1
  C  C7  1  0.872025  0.814234  0.378248  1
  C  C8  1  0.054721  0.181484  0.128577  1
  C  C9  1  0.935492  0.314234  0.878248  1
  C  C10  1  0.189887  0.629033  0.623244  1
  C  C11  1  0.127975  0.185766  0.621752  1
  C  C12  1  0.319629  0.861871  0.379507  1
  C  C13  1  0.442165  0.870967  0.876756  1
  C  C14  1  0.680371  0.138129  0.620493  1
  C  C15  1  0.561008  0.638129  0.120493  1
  Br  Br16  1  0.224481  0.309944  0.355792  1
  Br  Br17  1  0.104056  0.558521  0.700168  1
  Br  Br18  1  0.834702  0.394950  0.954222  1
  Br  Br19  1  0.457313  0.496638  0.893585  1
  Br  Br20  1  0.152464  0.996638  0.393585  1
  Br  Br21  1  0.637255  0.058521  0.200168  1
  Br  Br22  1  0.602082  0.224838  0.861213  1
  Br  Br23  1  0.192185  0.767714  0.643063  1
  Br  Br24  1  0.340543  0.310438  0.957852  1
  Br  Br25  1  0.000684  0.648234  0.397164  1
  Br  Br26  1  0.731400  0.810722  0.358786  1
  Br  Br27  1  0.572946  0.589923  0.705661  1
  Br  Br28  1  0.309647  0.401250  0.446646  1
  Br  Br29  1  0.898207  0.316624  0.449438  1
  Br  Br30  1  0.497473  0.153954  0.389148  1
  Br  Br31  1  0.602962  0.732286  0.856937  1
  Br  Br32  1  0.157543  0.098750  0.053354  1
  Br  Br33  1  0.464708  0.994475  0.900343  1
  Br  Br34  1  0.183874  0.105050  0.545778  1
  Br  Br35  1  0.335730  0.816624  0.949438  1
  Br  Br36  1  0.608833  0.189562  0.542148  1
  Br  Br37  1  0.999316  0.351766  0.602836  1
  Br  Br38  1  0.690353  0.598750  0.553354  1
  Br  Br39  1  0.040575  0.346046  0.110852  1
  Br  Br40  1  0.895944  0.441479  0.299832  1
  Br  Br41  1  0.099091  0.310722  0.858786  1
  Br  Br42  1  0.688134  0.275162  0.638787  1
  Br  Br43  1  0.354310  0.416932  0.805538  1
  Br  Br44  1  0.900909  0.689278  0.141214  1
  Br  Br45  1  0.046082  0.851766  0.102836  1
  Br  Br46  1  0.868530  0.910077  0.794339  1
  Br  Br47  1  0.397918  0.775162  0.138787  1
  Br  Br48  1  0.423220  0.916932  0.305538  1
  Br  Br49  1  0.131470  0.089923  0.205661  1
  Br  Br50  1  0.535292  0.005525  0.099657  1
  Br  Br51  1  0.391167  0.810438  0.457852  1
  Br  Br52  1  0.542687  0.503362  0.106415  1
  Br  Br53  1  0.362745  0.941479  0.799832  1
  Br  Br54  1  0.427054  0.410077  0.294339  1
  Br  Br55  1  0.890217  0.190056  0.144208  1
  Br  Br56  1  0.959425  0.653954  0.889148  1
  Br  Br57  1  0.842457  0.901250  0.946646  1
  Br  Br58  1  0.165298  0.605050  0.045778  1
  Br  Br59  1  0.109783  0.809944  0.855792  1
  Br  Br60  1  0.502527  0.846046  0.610852  1
  Br  Br61  1  0.101793  0.683376  0.550562  1
  Br  Br62  1  0.938225  0.905124  0.302855  1
  Br  Br63  1  0.645690  0.583068  0.194462  1
  Br  Br64  1  0.847536  0.003362  0.606415  1
  Br  Br65  1  0.397038  0.267714  0.143063  1
  Br  Br66  1  0.816126  0.894950  0.454222  1
  Br  Br67  1  0.659457  0.689562  0.042148  1
  Br  Br68  1  0.807815  0.232286  0.356937  1
  Br  Br69  1  0.664270  0.183376  0.050562  1
  Br  Br70  1  0.268600  0.189278  0.641214  1
  Br  Br71  1  0.775519  0.690056  0.644208  1
  Br  Br72  1  0.953918  0.148234  0.897164  1
  Br  Br73  1  0.061775  0.094876  0.697145  1
  Br  Br74  1  0.311866  0.724838  0.361213  1
  Br  Br75  1  0.576780  0.083068  0.694462  1
  Br  Br76  1  0.146203  0.594876  0.197145  1
  Br  Br77  1  0.359526  0.505525  0.599657  1
  Br  Br78  1  0.640474  0.494475  0.400343  1
  Br  Br79  1  0.853797  0.405124  0.802855  1
