# generated using pymatgen
data_Cd4Bi2O7
_symmetry_space_group_name_H-M   'P 1'
_cell_length_a   9.26682413
_cell_length_b   10.42377365
_cell_length_c   10.60707287
_cell_angle_alpha   79.85635357
_cell_angle_beta   65.80277455
_cell_angle_gamma   67.85059006
_symmetry_Int_Tables_number   1
_chemical_formula_structural   Cd4Bi2O7
_chemical_formula_sum   'Cd16 Bi8 O28'
_cell_volume   865.32199232
_cell_formula_units_Z   4
loop_
 _symmetry_equiv_pos_site_id
 _symmetry_equiv_pos_as_xyz
  1  'x, y, z'
loop_
 _atom_site_type_symbol
 _atom_site_label
 _atom_site_symmetry_multiplicity
 _atom_site_fract_x
 _atom_site_fract_y
 _atom_site_fract_z
 _atom_site_occupancy
  Cd  Cd0  1  0.008675  0.103188  0.406684  1
  Cd  Cd1  1  0.046906  0.467924  0.212948  1
  Cd  Cd2  1  0.364146  0.101645  0.128792  1
  Cd  Cd3  1  0.184285  0.856812  0.142802  1
  Cd  Cd4  1  0.217614  0.630125  0.344440  1
  Cd  Cd5  1  0.505421  0.380486  0.110555  1
  Cd  Cd6  1  0.376940  0.324209  0.852006  1
  Cd  Cd7  1  0.322261  0.608662  0.632935  1
  Cd  Cd8  1  0.577487  0.134585  0.589000  1
  Cd  Cd9  1  0.386843  0.869801  0.445184  1
  Cd  Cd10  1  0.591190  0.410223  0.378763  1
  Cd  Cd11  1  0.276928  0.950569  0.745541  1
  Cd  Cd12  1  0.955637  0.265445  0.090362  1
  Cd  Cd13  1  0.483090  0.614169  0.882158  1
  Cd  Cd14  1  0.633413  0.877606  0.864122  1
  Cd  Cd15  1  0.013074  0.835746  0.565984  1
  Bi  Bi16  1  0.227913  0.268911  0.479134  1
  Bi  Bi17  1  0.046204  0.753174  0.943549  1
  Bi  Bi18  1  0.732107  0.041987  0.227155  1
  Bi  Bi19  1  0.620788  0.686314  0.163536  1
  Bi  Bi20  1  0.761230  0.388067  0.608665  1
  Bi  Bi21  1  0.802614  0.146931  0.856094  1
  Bi  Bi22  1  0.733185  0.736582  0.529760  1
  Bi  Bi23  1  0.951909  0.513036  0.790470  1
  O  O24  1  0.962147  0.056776  0.230962  1
  O  O25  1  0.990728  0.328437  0.411275  1
  O  O26  1  0.191430  0.284717  0.058278  1
  O  O27  1  0.268319  0.420892  0.283964  1
  O  O28  1  0.282318  0.081752  0.366118  1
  O  O29  1  0.314761  0.139057  0.667865  1
  O  O30  1  0.485317  0.600128  0.101885  1
  O  O31  1  0.196977  0.552770  0.857460  1
  O  O32  1  0.554802  0.214668  0.376361  1
  O  O33  1  0.756209  0.229750  0.058435  1
  O  O34  1  0.434124  0.882989  0.087651  1
  O  O35  1  0.429662  0.648445  0.389500  1
  O  O36  1  0.497915  0.383545  0.613635  1
  O  O37  1  0.571225  0.101895  0.916038  1
  O  O38  1  0.264098  0.806329  0.924461  1
  O  O39  1  0.475672  0.750076  0.626685  1
  O  O40  1  0.795149  0.467192  0.205616  1
  O  O41  1  0.587253  0.376774  0.867102  1
  O  O42  1  0.651884  0.869347  0.371346  1
  O  O43  1  0.798633  0.168895  0.612979  1
  O  O44  1  0.040300  0.690287  0.149827  1
  O  O45  1  0.721183  0.907557  0.628471  1
  O  O46  1  0.725912  0.647450  0.757609  1
  O  O47  1  0.958534  0.328808  0.696293  1
  O  O48  1  0.900060  0.960939  0.999145  1
  O  O49  1  0.830507  0.713895  0.943191  1
  O  O50  1  0.094647  0.589932  0.596493  1
  O  O51  1  0.106373  0.841497  0.727718  1
