# generated using pymatgen
data_Zr7N2O11
_symmetry_space_group_name_H-M   'P 1'
_cell_length_a   8.15803339
_cell_length_b   8.20185641
_cell_length_c   8.18238091
_cell_angle_alpha   73.16136534
_cell_angle_beta   72.69296287
_cell_angle_gamma   72.94584492
_symmetry_Int_Tables_number   1
_chemical_formula_structural   Zr7N2O11
_chemical_formula_sum   'Zr14 N4 O22'
_cell_volume   487.27416287
_cell_formula_units_Z   2
loop_
 _symmetry_equiv_pos_site_id
 _symmetry_equiv_pos_as_xyz
  1  'x, y, z'
loop_
 _atom_site_type_symbol
 _atom_site_label
 _atom_site_symmetry_multiplicity
 _atom_site_fract_x
 _atom_site_fract_y
 _atom_site_fract_z
 _atom_site_occupancy
  Zr  Zr0  1  0.997013  0.000866  0.997544  1
  Zr  Zr1  1  0.162877  0.255301  0.596793  1
  Zr  Zr2  1  0.280263  0.548245  0.147550  1
  Zr  Zr3  1  0.078799  0.618239  0.778068  1
  Zr  Zr4  1  0.206148  0.906305  0.400767  1
  Zr  Zr5  1  0.596913  0.157974  0.254203  1
  Zr  Zr6  1  0.390250  0.207483  0.910689  1
  Zr  Zr7  1  0.512022  0.506660  0.513608  1
  Zr  Zr8  1  0.601615  0.794715  0.095526  1
  Zr  Zr9  1  0.445356  0.871729  0.708770  1
  Zr  Zr10  1  0.797431  0.080348  0.606494  1
  Zr  Zr11  1  0.913232  0.383968  0.212133  1
  Zr  Zr12  1  0.711409  0.455951  0.866498  1
  Zr  Zr13  1  0.853090  0.751706  0.395847  1
  N  N14  1  0.251290  0.075700  0.832422  1
  N  N15  1  0.830145  0.249092  0.073528  1
  N  N16  1  0.757132  0.919484  0.165937  1
  N  N17  1  0.972963  0.822322  0.581542  1
  O  O18  1  0.025783  0.172486  0.401813  1
  O  O19  1  0.165046  0.388593  0.035578  1
  O  O20  1  0.037807  0.533142  0.320319  1
  O  O21  1  0.074960  0.878075  0.231269  1
  O  O22  1  0.405014  0.028354  0.157417  1
  O  O23  1  0.327131  0.033209  0.503704  1
  O  O24  1  0.358544  0.355126  0.369159  1
  O  O25  1  0.287374  0.404558  0.687872  1
  O  O26  1  0.492597  0.347372  0.046181  1
  O  O27  1  0.125786  0.739649  0.948724  1
  O  O28  1  0.388871  0.685942  0.289057  1
  O  O29  1  0.316497  0.717902  0.617642  1
  O  O30  1  0.688517  0.280990  0.405666  1
  O  O31  1  0.610827  0.310692  0.727619  1
  O  O32  1  0.486329  0.672822  0.949192  1
  O  O33  1  0.714548  0.597847  0.301932  1
  O  O34  1  0.648385  0.636474  0.618263  1
  O  O35  1  0.650206  0.968873  0.499374  1
  O  O36  1  0.605751  0.970201  0.835004  1
  O  O37  1  0.946442  0.111823  0.750089  1
  O  O38  1  0.959804  0.452542  0.698821  1
  O  O39  1  0.825836  0.607241  0.967385  1
