# generated using pymatgen
data_Os(CO)4
_symmetry_space_group_name_H-M   'P 1'
_cell_length_a   9.58199462
_cell_length_b   9.65032786
_cell_length_c   14.26531418
_cell_angle_alpha   87.46267104
_cell_angle_beta   78.68351154
_cell_angle_gamma   69.79508707
_symmetry_Int_Tables_number   1
_chemical_formula_structural   Os(CO)4
_chemical_formula_sum   'Os8 C32 O32'
_cell_volume   1213.46811855
_cell_formula_units_Z   8
loop_
 _symmetry_equiv_pos_site_id
 _symmetry_equiv_pos_as_xyz
  1  'x, y, z'
loop_
 _atom_site_type_symbol
 _atom_site_label
 _atom_site_symmetry_multiplicity
 _atom_site_fract_x
 _atom_site_fract_y
 _atom_site_fract_z
 _atom_site_occupancy
  Os  Os0  1  0.513158  0.921688  0.726731  1
  Os  Os1  1  0.203013  0.101243  0.192563  1
  Os  Os2  1  0.097105  0.438388  0.215241  1
  Os  Os3  1  0.902895  0.561612  0.784759  1
  Os  Os4  1  0.486842  0.078312  0.273269  1
  Os  Os5  1  0.669275  0.600106  0.655258  1
  Os  Os6  1  0.330725  0.399894  0.344742  1
  Os  Os7  1  0.796987  0.898757  0.807437  1
  C  C8  1  0.243534  0.607880  0.372152  1
  C  C9  1  0.976311  0.887230  0.850781  1
  C  C10  1  0.974246  0.439899  0.124631  1
  C  C11  1  0.510272  0.575174  0.757151  1
  C  C12  1  0.825355  0.648033  0.564131  1
  C  C13  1  0.174645  0.351967  0.435869  1
  C  C14  1  0.057095  0.585165  0.679805  1
  C  C15  1  0.546077  0.641519  0.560603  1
  C  C16  1  0.341623  0.903496  0.686306  1
  C  C17  1  0.942905  0.414835  0.320195  1
  C  C18  1  0.270491  0.443902  0.117365  1
  C  C19  1  0.112381  0.091455  0.327626  1
  C  C20  1  0.453923  0.358481  0.439397  1
  C  C21  1  0.576611  0.871231  0.244462  1
  C  C22  1  0.706714  0.108313  0.824027  1
  C  C23  1  0.023689  0.112770  0.149219  1
  C  C24  1  0.025754  0.560102  0.875369  1
  C  C25  1  0.553472  0.136063  0.143606  1
  C  C26  1  0.729509  0.556098  0.882635  1
  C  C27  1  0.612526  0.953845  0.598941  1
  C  C28  1  0.423389  0.128769  0.755538  1
  C  C29  1  0.706386  0.856088  0.934838  1
  C  C30  1  0.658377  0.096504  0.313694  1
  C  C31  1  0.446528  0.863937  0.856394  1
  C  C32  1  0.293614  0.143912  0.065162  1
  C  C33  1  0.756466  0.392120  0.627848  1
  C  C34  1  0.971124  0.353049  0.764486  1
  C  C35  1  0.887618  0.908545  0.672374  1
  C  C36  1  0.387474  0.046155  0.401059  1
  C  C37  1  0.489728  0.424826  0.242849  1
  C  C38  1  0.028876  0.646951  0.235514  1
  C  C39  1  0.293286  0.891687  0.175973  1
  O  O40  1  0.338082  0.020233  0.478194  1
  O  O41  1  0.339931  0.164787  0.986198  1
  O  O42  1  0.660068  0.835213  0.013802  1
  O  O43  1  0.518609  0.337745  0.502335  1
  O  O44  1  0.661918  0.979767  0.521806  1
  O  O45  1  0.341719  0.764308  0.162885  1
  O  O46  1  0.394178  0.836042  0.932242  1
  O  O47  1  0.978897  0.775457  0.243013  1
  O  O48  1  0.053129  0.079814  0.405005  1
  O  O49  1  0.919925  0.109021  0.119870  1
  O  O50  1  0.910498  0.672181  0.501383  1
  O  O51  1  0.587763  0.444730  0.188586  1
  O  O52  1  0.412237  0.555270  0.811414  1
  O  O53  1  0.896776  0.445925  0.070181  1
  O  O54  1  0.799501  0.266640  0.609151  1
  O  O55  1  0.605822  0.163958  0.067758  1
  O  O56  1  0.200499  0.733360  0.390849  1
  O  O57  1  0.841307  0.412478  0.379394  1
  O  O58  1  0.361095  0.255762  0.766432  1
  O  O59  1  0.089502  0.327819  0.498617  1
  O  O60  1  0.080075  0.890979  0.880130  1
  O  O61  1  0.021103  0.224543  0.756987  1
  O  O62  1  0.362636  0.458134  0.055320  1
  O  O63  1  0.658281  0.235692  0.837115  1
  O  O64  1  0.638905  0.744238  0.233568  1
  O  O65  1  0.637364  0.541866  0.944680  1
  O  O66  1  0.766305  0.105332  0.334267  1
  O  O67  1  0.233695  0.894668  0.665733  1
  O  O68  1  0.158693  0.587522  0.620606  1
  O  O69  1  0.946871  0.920186  0.594995  1
  O  O70  1  0.481391  0.662255  0.497665  1
  O  O71  1  0.103224  0.554075  0.929819  1
