# generated using pymatgen
data_Sm3S4
_symmetry_space_group_name_H-M   'P 1'
_cell_length_a   8.55457075
_cell_length_b   8.55467560
_cell_length_c   8.55480771
_cell_angle_alpha   109.47138870
_cell_angle_beta   109.47180861
_cell_angle_gamma   109.47035924
_symmetry_Int_Tables_number   1
_chemical_formula_structural   Sm3S4
_chemical_formula_sum   'Sm6 S8'
_cell_volume   481.93747069
_cell_formula_units_Z   2
loop_
 _symmetry_equiv_pos_site_id
 _symmetry_equiv_pos_as_xyz
  1  'x, y, z'
loop_
 _atom_site_type_symbol
 _atom_site_label
 _atom_site_symmetry_multiplicity
 _atom_site_fract_x
 _atom_site_fract_y
 _atom_site_fract_z
 _atom_site_occupancy
  Sm  Sm0  1  0.125002  0.749992  0.875000  1
  Sm  Sm1  1  0.250000  0.625004  0.375006  1
  Sm  Sm2  1  0.375001  0.250005  0.625000  1
  Sm  Sm3  1  0.750000  0.874996  0.124997  1
  Sm  Sm4  1  0.625000  0.375000  0.249998  1
  Sm  Sm5  1  0.875002  0.125004  0.750002  1
  S  S6  1  0.999999  0.561642  0.500004  1
  S  S7  1  0.999998  0.061647  0.499998  1
  S  S8  1  0.938352  0.938346  0.938350  1
  S  S9  1  0.061643  0.500000  0.000004  1
  S  S10  1  0.438359  0.438355  0.438355  1
  S  S11  1  0.500002  0.000004  0.561649  1
  S  S12  1  0.500000  0.000003  0.061644  1
  S  S13  1  0.561643  0.500001  0.999995  1
