# generated using pymatgen
data_H6N4O9
_symmetry_space_group_name_H-M   'P 1'
_cell_length_a   6.53572363
_cell_length_b   13.59337364
_cell_length_c   4.90173658
_cell_angle_alpha   90.00000000
_cell_angle_beta   92.83767475
_cell_angle_gamma   90.00000000
_symmetry_Int_Tables_number   1
_chemical_formula_structural   H6N4O9
_chemical_formula_sum   'H12 N8 O18'
_cell_volume   434.94870647
_cell_formula_units_Z   2
loop_
 _symmetry_equiv_pos_site_id
 _symmetry_equiv_pos_as_xyz
  1  'x, y, z'
loop_
 _atom_site_type_symbol
 _atom_site_label
 _atom_site_symmetry_multiplicity
 _atom_site_fract_x
 _atom_site_fract_y
 _atom_site_fract_z
 _atom_site_occupancy
  H  H0  1  0.857373  0.034073  0.497957  1
  H  H1  1  0.142627  0.534073  0.002043  1
  H  H2  1  0.357165  0.983887  0.205394  1
  H  H3  1  0.387653  0.070360  0.720161  1
  H  H4  1  0.612347  0.570360  0.779839  1
  H  H5  1  0.642835  0.483887  0.294606  1
  H  H6  1  0.652501  0.350367  0.636628  1
  H  H7  1  0.347499  0.850367  0.863372  1
  H  H8  1  0.881113  0.850774  0.925744  1
  H  H9  1  0.985062  0.075696  0.998314  1
  H  H10  1  0.014938  0.575696  0.501686  1
  H  H11  1  0.118887  0.350774  0.574256  1
  N  N12  1  0.913832  0.515733  0.495374  1
  N  N13  1  0.086168  0.015733  0.004627  1
  N  N14  1  0.570710  0.021189  0.459439  1
  N  N15  1  0.429290  0.521189  0.040561  1
  N  N16  1  0.787609  0.736375  0.106561  1
  N  N17  1  0.783811  0.267936  0.907355  1
  N  N18  1  0.216189  0.767936  0.592645  1
  N  N19  1  0.212391  0.236375  0.393439  1
  O  O20  1  0.766186  0.976658  0.499126  1
  O  O21  1  0.233814  0.476658  0.000874  1
  O  O22  1  0.452708  0.946040  0.327750  1
  O  O23  1  0.500470  0.022734  0.739032  1
  O  O24  1  0.499530  0.522734  0.760968  1
  O  O25  1  0.547292  0.446040  0.172250  1
  O  O26  1  0.678064  0.707886  0.284904  1
  O  O27  1  0.653242  0.278586  0.672520  1
  O  O28  1  0.346758  0.778586  0.827480  1
  O  O29  1  0.321936  0.207886  0.215096  1
  O  O30  1  0.911447  0.688439  0.978168  1
  O  O31  1  0.898815  0.337264  0.965853  1
  O  O32  1  0.101185  0.837264  0.534147  1
  O  O33  1  0.088553  0.188439  0.521832  1
  O  O34  1  0.764749  0.835335  0.039634  1
  O  O35  1  0.768427  0.189242  0.022793  1
  O  O36  1  0.231573  0.689242  0.477207  1
  O  O37  1  0.235251  0.335335  0.460367  1
