# generated using pymatgen
data_Cr3Pb5F19
_symmetry_space_group_name_H-M   'P 1'
_cell_length_a   7.72904474
_cell_length_b   11.34562544
_cell_length_c   11.34031271
_cell_angle_alpha   83.34307088
_cell_angle_beta   70.12598352
_cell_angle_gamma   70.02965774
_symmetry_Int_Tables_number   1
_chemical_formula_structural   Cr3Pb5F19
_chemical_formula_sum   'Cr6 Pb10 F38'
_cell_volume   878.98012141
_cell_formula_units_Z   2
loop_
 _symmetry_equiv_pos_site_id
 _symmetry_equiv_pos_as_xyz
  1  'x, y, z'
loop_
 _atom_site_type_symbol
 _atom_site_label
 _atom_site_symmetry_multiplicity
 _atom_site_fract_x
 _atom_site_fract_y
 _atom_site_fract_z
 _atom_site_occupancy
  Cr  Cr0  1  0.324549  0.499893  0.823176  1
  Cr  Cr1  1  0.822442  0.823905  0.500119  1
  Cr  Cr2  1  0.147296  0.177033  0.501060  1
  Cr  Cr3  1  0.649385  0.498717  0.177433  1
  Cr  Cr4  1  0.687755  0.000119  0.000135  1
  Cr  Cr5  1  0.186832  0.000526  0.001591  1
  Pb  Pb6  1  0.155469  0.501004  0.499552  1
  Pb  Pb7  1  0.779232  0.163159  0.312199  1
  Pb  Pb8  1  0.942622  0.311444  0.837249  1
  Pb  Pb9  1  0.654392  0.500568  0.502185  1
  Pb  Pb10  1  0.589544  0.163938  0.690826  1
  Pb  Pb11  1  0.250752  0.839076  0.687606  1
  Pb  Pb12  1  0.443248  0.835040  0.309563  1
  Pb  Pb13  1  0.279248  0.309370  0.164389  1
  Pb  Pb14  1  0.092232  0.687456  0.161985  1
  Pb  Pb15  1  0.753554  0.689706  0.836774  1
  F  F16  1  0.922336  0.500687  0.715327  1
  F  F17  1  0.448857  0.632365  0.775644  1
  F  F18  1  0.079852  0.776711  0.367492  1
  F  F19  1  0.426836  0.632503  0.154498  1
  F  F20  1  0.846287  0.645967  0.500932  1
  F  F21  1  0.582329  0.366844  0.776148  1
  F  F22  1  0.612414  0.966608  0.177790  1
  F  F23  1  0.581294  0.177935  0.033570  1
  F  F24  1  0.356819  0.223942  0.367697  1
  F  F25  1  0.945410  0.778453  0.633949  1
  F  F26  1  0.710593  0.846971  0.366667  1
  F  F27  1  0.117402  0.177270  0.964474  1
  F  F28  1  0.290808  0.962865  0.824979  1
  F  F29  1  0.078918  0.632907  0.847480  1
  F  F30  1  0.291065  0.995700  0.499909  1
  F  F31  1  0.289207  0.499968  0.003929  1
  F  F32  1  0.213725  0.365913  0.847116  1
  F  F33  1  0.860549  0.365971  0.223199  1
  F  F34  1  0.346533  0.499139  0.645587  1
  F  F35  1  0.259410  0.823866  0.039604  1
  F  F36  1  0.934945  0.000644  0.005554  1
  F  F37  1  0.419268  0.714441  0.499928  1
  F  F38  1  0.795359  0.822633  0.966092  1
  F  F39  1  0.992660  0.355120  0.502336  1
  F  F40  1  0.785998  0.004865  0.499910  1
  F  F41  1  0.560677  0.365906  0.153257  1
  F  F42  1  0.136913  0.499348  0.285193  1
  F  F43  1  0.576654  0.848093  0.633047  1
  F  F44  1  0.439828  0.000157  0.996295  1
  F  F45  1  0.926262  0.152480  0.634171  1
  F  F46  1  0.793014  0.499796  0.996435  1
  F  F47  1  0.226206  0.221899  0.634134  1
  F  F48  1  0.726258  0.632020  0.224380  1
  F  F49  1  0.057170  0.154723  0.368255  1
  F  F50  1  0.085399  0.038205  0.178231  1
  F  F51  1  0.495196  0.498196  0.355282  1
  F  F52  1  0.636571  0.284855  0.501431  1
  F  F53  1  0.763676  0.034171  0.822734  1
