# generated using pymatgen
data_Ce13O24
_symmetry_space_group_name_H-M   'P 1'
_cell_length_a   50.63166886
_cell_length_b   14.04698470
_cell_length_c   6.75146575
_cell_angle_alpha   28.26403187
_cell_angle_beta   29.97463056
_cell_angle_gamma   13.88845928
_symmetry_Int_Tables_number   1
_chemical_formula_structural   Ce13O24
_chemical_formula_sum   'Ce13 O24'
_cell_volume   543.12411090
_cell_formula_units_Z   1
loop_
 _symmetry_equiv_pos_site_id
 _symmetry_equiv_pos_as_xyz
  1  'x, y, z'
loop_
 _atom_site_type_symbol
 _atom_site_label
 _atom_site_symmetry_multiplicity
 _atom_site_fract_x
 _atom_site_fract_y
 _atom_site_fract_z
 _atom_site_occupancy
  Ce  Ce0  1  0.002796  0.989142  0.980173  1
  Ce  Ce1  1  0.088366  0.979089  0.971129  1
  Ce  Ce2  1  0.154858  0.998542  0.001521  1
  Ce  Ce3  1  0.220145  0.045983  0.982098  1
  Ce  Ce4  1  0.305526  0.004372  0.011455  1
  Ce  Ce5  1  0.386245  0.968402  0.054238  1
  Ce  Ce6  1  0.462109  0.994830  0.978899  1
  Ce  Ce7  1  0.549434  0.978740  0.981585  1
  Ce  Ce8  1  0.613451  0.017844  0.979043  1
  Ce  Ce9  1  0.699199  0.976512  0.997093  1
  Ce  Ce10  1  0.753307  0.061146  0.994194  1
  Ce  Ce11  1  0.847969  0.993744  0.009289  1
  Ce  Ce12  1  0.918458  0.985520  0.063260  1
  O  O13  1  0.027858  0.241498  0.207854  1
  O  O14  1  0.095879  0.253992  0.246560  1
  O  O15  1  0.171149  0.257411  0.246018  1
  O  O16  1  0.250273  0.246107  0.256948  1
  O  O17  1  0.047678  0.796170  0.707202  1
  O  O18  1  0.321388  0.245230  0.292917  1
  O  O19  1  0.118204  0.793464  0.792931  1
  O  O20  1  0.231887  0.695073  0.700627  1
  O  O21  1  0.482068  0.263201  0.221343  1
  O  O22  1  0.295276  0.715470  0.785350  1
  O  O23  1  0.371115  0.697686  0.790365  1
  O  O24  1  0.567677  0.220720  0.240045  1
  O  O25  1  0.439750  0.791128  0.706392  1
  O  O26  1  0.629763  0.273175  0.219452  1
  O  O27  1  0.504815  0.812044  0.703421  1
  O  O28  1  0.714911  0.242075  0.259529  1
  O  O29  1  0.576693  0.795857  0.812730  1
  O  O30  1  0.777075  0.280595  0.276723  1
  O  O31  1  0.677991  0.740787  0.741254  1
  O  O32  1  0.867042  0.225682  0.276042  1
  O  O33  1  0.763199  0.719357  0.702578  1
  O  O34  1  0.839894  0.694210  0.794008  1
  O  O35  1  0.907183  0.701557  0.798350  1
  O  O36  1  0.973214  0.803644  0.717381  1
