# generated using pymatgen
data_Rb12Sn8GeO4
_symmetry_space_group_name_H-M   'P 1'
_cell_length_a   13.48460619
_cell_length_b   13.24335383
_cell_length_c   23.96839428
_cell_angle_alpha   90.00000000
_cell_angle_beta   90.00000000
_cell_angle_gamma   118.98594954
_symmetry_Int_Tables_number   1
_chemical_formula_structural   Rb12Sn8GeO4
_chemical_formula_sum   'Rb48 Sn32 Ge4 O16'
_cell_volume   3744.15195722
_cell_formula_units_Z   4
loop_
 _symmetry_equiv_pos_site_id
 _symmetry_equiv_pos_as_xyz
  1  'x, y, z'
loop_
 _atom_site_type_symbol
 _atom_site_label
 _atom_site_symmetry_multiplicity
 _atom_site_fract_x
 _atom_site_fract_y
 _atom_site_fract_z
 _atom_site_occupancy
  Rb  Rb0  1  0.831053  0.407338  0.931747  1
  Rb  Rb1  1  0.377487  0.661648  0.794413  1
  Rb  Rb2  1  0.503715  0.286772  0.027269  1
  Rb  Rb3  1  0.093046  0.056711  0.105399  1
  Rb  Rb4  1  0.879119  0.880100  0.381733  1
  Rb  Rb5  1  0.622513  0.338352  0.205587  1
  Rb  Rb6  1  0.904170  0.227277  0.839643  1
  Rb  Rb7  1  0.729032  0.841253  0.755224  1
  Rb  Rb8  1  0.810219  0.986904  0.161645  1
  Rb  Rb9  1  0.729032  0.341253  0.744776  1
  Rb  Rb10  1  0.720111  0.045872  0.005913  1
  Rb  Rb11  1  0.095830  0.772723  0.160357  1
  Rb  Rb12  1  0.622513  0.838352  0.294413  1
  Rb  Rb13  1  0.270968  0.658747  0.255224  1
  Rb  Rb14  1  0.856875  0.134083  0.690336  1
  Rb  Rb15  1  0.525345  0.601077  0.122322  1
  Rb  Rb16  1  0.120881  0.119900  0.618267  1
  Rb  Rb17  1  0.503715  0.786772  0.472731  1
  Rb  Rb18  1  0.160844  0.789191  0.725260  1
  Rb  Rb19  1  0.906954  0.943289  0.894601  1
  Rb  Rb20  1  0.839156  0.710809  0.225260  1
  Rb  Rb21  1  0.143125  0.365917  0.190336  1
  Rb  Rb22  1  0.496285  0.213228  0.527269  1
  Rb  Rb23  1  0.831053  0.907338  0.568253  1
  Rb  Rb24  1  0.270968  0.158747  0.244776  1
  Rb  Rb25  1  0.377487  0.161648  0.705587  1
  Rb  Rb26  1  0.095830  0.272723  0.339643  1
  Rb  Rb27  1  0.143125  0.865917  0.309664  1
  Rb  Rb28  1  0.168947  0.592662  0.068253  1
  Rb  Rb29  1  0.093046  0.556711  0.394601  1
  Rb  Rb30  1  0.279889  0.454128  0.505913  1
  Rb  Rb31  1  0.720111  0.545872  0.494087  1
  Rb  Rb32  1  0.160844  0.289191  0.774740  1
  Rb  Rb33  1  0.168947  0.092662  0.431747  1
  Rb  Rb34  1  0.839156  0.210809  0.274740  1
  Rb  Rb35  1  0.496285  0.713228  0.972731  1
  Rb  Rb36  1  0.906954  0.443289  0.605399  1
  Rb  Rb37  1  0.856875  0.634083  0.809664  1
  Rb  Rb38  1  0.474655  0.398923  0.877678  1
  Rb  Rb39  1  0.904170  0.727277  0.660357  1
  Rb  Rb40  1  0.189781  0.013096  0.838355  1
  Rb  Rb41  1  0.810219  0.486904  0.338355  1
  Rb  Rb42  1  0.879119  0.380100  0.118267  1
  Rb  Rb43  1  0.279889  0.954128  0.994087  1
  Rb  Rb44  1  0.474655  0.898923  0.622322  1
  Rb  Rb45  1  0.120881  0.619900  0.881733  1
  Rb  Rb46  1  0.189781  0.513096  0.661645  1
  Rb  Rb47  1  0.525345  0.101077  0.377678  1
  Sn  Sn48  1  0.475433  0.987180  0.231978  1
  Sn  Sn49  1  0.814353  0.801003  0.046831  1
  Sn  Sn50  1  0.619344  0.099558  0.132145  1
  Sn  Sn51  1  0.032535  0.779221  0.496474  1
  Sn  Sn52  1  0.524567  0.512820  0.731978  1
  Sn  Sn53  1  0.726938  0.127160  0.544479  1
  Sn  Sn54  1  0.475433  0.487180  0.268022  1
  Sn  Sn55  1  0.273062  0.372840  0.044479  1
  Sn  Sn56  1  0.380656  0.900442  0.867855  1
  Sn  Sn57  1  0.450778  0.351601  0.374740  1
  Sn  Sn58  1  0.524567  0.012820  0.768022  1
  Sn  Sn59  1  0.621313  0.464958  0.632198  1
  Sn  Sn60  1  0.185647  0.698997  0.546831  1
  Sn  Sn61  1  0.450778  0.851601  0.125260  1
  Sn  Sn62  1  0.229295  0.938013  0.568586  1
  Sn  Sn63  1  0.185647  0.198997  0.953169  1
  Sn  Sn64  1  0.967465  0.720779  0.996474  1
  Sn  Sn65  1  0.549222  0.648399  0.625260  1
  Sn  Sn66  1  0.549222  0.148399  0.874740  1
  Sn  Sn67  1  0.380656  0.400442  0.632145  1
  Sn  Sn68  1  0.229295  0.438013  0.931414  1
  Sn  Sn69  1  0.770705  0.061987  0.431414  1
  Sn  Sn70  1  0.378687  0.535042  0.367802  1
  Sn  Sn71  1  0.967465  0.220779  0.503526  1
  Sn  Sn72  1  0.621313  0.964958  0.867802  1
  Sn  Sn73  1  0.770705  0.561987  0.068586  1
  Sn  Sn74  1  0.814353  0.301003  0.453169  1
  Sn  Sn75  1  0.273062  0.872840  0.455521  1
  Sn  Sn76  1  0.032535  0.279221  0.003526  1
  Sn  Sn77  1  0.726938  0.627160  0.955521  1
  Sn  Sn78  1  0.619344  0.599558  0.367855  1
  Sn  Sn79  1  0.378687  0.035042  0.132198  1
  Ge  Ge80  1  0.995568  0.009330  0.257654  1
  Ge  Ge81  1  0.004432  0.490670  0.757654  1
  Ge  Ge82  1  0.004432  0.990670  0.742346  1
  Ge  Ge83  1  0.995568  0.509330  0.242346  1
  O  O84  1  0.023927  0.141642  0.223252  1
  O  O85  1  0.155021  0.080983  0.732817  1
  O  O86  1  0.070549  0.041467  0.323630  1
  O  O87  1  0.951964  0.566931  0.715185  1
  O  O88  1  0.929451  0.958533  0.676370  1
  O  O89  1  0.844979  0.419017  0.232817  1
  O  O90  1  0.023927  0.641642  0.276748  1
  O  O91  1  0.048036  0.433069  0.284815  1
  O  O92  1  0.929451  0.458533  0.823630  1
  O  O93  1  0.951964  0.066931  0.784815  1
  O  O94  1  0.844979  0.919017  0.267183  1
  O  O95  1  0.155021  0.580983  0.767183  1
  O  O96  1  0.048036  0.933069  0.215185  1
  O  O97  1  0.976073  0.858358  0.776748  1
  O  O98  1  0.070549  0.541467  0.176370  1
  O  O99  1  0.976073  0.358358  0.723252  1
