# generated using pymatgen
data_Al6ZnP4(H4O7)4
_symmetry_space_group_name_H-M   'P 1'
_cell_length_a   8.75520383
_cell_length_b   8.81535552
_cell_length_c   9.50450855
_cell_angle_alpha   72.04437124
_cell_angle_beta   69.93843001
_cell_angle_gamma   63.76268865
_symmetry_Int_Tables_number   1
_chemical_formula_structural   Al6ZnP4(H4O7)4
_chemical_formula_sum   'Al6 Zn1 P4 H16 O28'
_cell_volume   607.28490953
_cell_formula_units_Z   1
loop_
 _symmetry_equiv_pos_site_id
 _symmetry_equiv_pos_as_xyz
  1  'x, y, z'
loop_
 _atom_site_type_symbol
 _atom_site_label
 _atom_site_symmetry_multiplicity
 _atom_site_fract_x
 _atom_site_fract_y
 _atom_site_fract_z
 _atom_site_occupancy
  Al  Al0  1  0.242914  0.713769  0.839677  1
  Al  Al1  1  0.692225  0.914717  0.293586  1
  Al  Al2  1  0.837568  0.596136  0.451319  1
  Al  Al3  1  0.162432  0.403864  0.548681  1
  Al  Al4  1  0.307775  0.085283  0.706414  1
  Al  Al5  1  0.757086  0.286231  0.160323  1
  Zn  Zn6  1  0.000000  0.000000  0.000000  1
  P  P7  1  0.596898  0.194943  0.648682  1
  P  P8  1  0.476203  0.613005  0.178385  1
  P  P9  1  0.523797  0.386995  0.821615  1
  P  P10  1  0.403102  0.805057  0.351318  1
  H  H11  1  0.864230  0.509876  0.726300  1
  H  H12  1  0.213413  0.636323  0.606842  1
  H  H13  1  0.330125  0.134188  0.415671  1
  H  H14  1  0.963175  0.321117  0.269412  1
  H  H15  1  0.732283  0.464671  0.503607  1
  H  H16  1  0.816024  0.737616  0.098754  1
  H  H17  1  0.884810  0.943248  0.822371  1
  H  H18  1  0.877869  0.141450  0.620412  1
  H  H19  1  0.122131  0.858550  0.379588  1
  H  H20  1  0.115190  0.056752  0.177629  1
  H  H21  1  0.183976  0.262384  0.901246  1
  H  H22  1  0.267717  0.535329  0.496393  1
  H  H23  1  0.036825  0.678883  0.730588  1
  H  H24  1  0.669875  0.865812  0.584329  1
  H  H25  1  0.786587  0.363677  0.393158  1
  H  H26  1  0.135770  0.490124  0.273700  1
  O  O27  1  0.198955  0.921142  0.323413  1
  O  O28  1  0.254595  0.783365  0.010105  1
  O  O29  1  0.291182  0.645027  0.149617  1
  O  O30  1  0.137300  0.714930  0.685129  1
  O  O31  1  0.209079  0.514745  0.963238  1
  O  O32  1  0.476674  0.953816  0.274065  1
  O  O33  1  0.461418  0.576504  0.738021  1
  O  O34  1  0.777984  0.815306  -0.001863  1
  O  O35  1  0.068639  0.138726  0.086463  1
  O  O36  1  0.818010  0.705248  0.260012  1
  O  O37  1  0.384057  0.385102  -0.011746  1
  O  O38  1  0.689345  0.822941  0.493674  1
  O  O39  1  0.925346  0.539449  0.621324  1
  O  O40  1  0.202516  0.939702  0.778260  1
  O  O41  1  0.797484  0.060298  0.221740  1
  O  O42  1  0.074654  0.460551  0.378676  1
  O  O43  1  0.310655  0.177059  0.506326  1
  O  O44  1  0.615943  0.614898  0.011746  1
  O  O45  1  0.181990  0.294752  0.739988  1
  O  O46  1  0.931361  0.861274  0.913537  1
  O  O47  1  0.222016  0.184694  0.001863  1
  O  O48  1  0.538582  0.423496  0.261979  1
  O  O49  1  0.523326  0.046184  0.725935  1
  O  O50  1  0.790921  0.485255  0.036762  1
  O  O51  1  0.862700  0.285070  0.314871  1
  O  O52  1  0.708818  0.354973  0.850383  1
  O  O53  1  0.745405  0.216635  -0.010105  1
  O  O54  1  0.801045  0.078858  0.676587  1
