# generated using pymatgen
data_Ba3SrRu2O9
_symmetry_space_group_name_H-M   'P 1'
_cell_length_a   6.03893306
_cell_length_b   6.03893306
_cell_length_c   15.34996001
_cell_angle_alpha   91.05910893
_cell_angle_beta   91.05910896
_cell_angle_gamma   119.50352029
_symmetry_Int_Tables_number   1
_chemical_formula_structural   Ba3SrRu2O9
_chemical_formula_sum   'Ba6 Sr2 Ru4 O18'
_cell_volume   486.87424618
_cell_formula_units_Z   2
loop_
 _symmetry_equiv_pos_site_id
 _symmetry_equiv_pos_as_xyz
  1  'x, y, z'
loop_
 _atom_site_type_symbol
 _atom_site_label
 _atom_site_symmetry_multiplicity
 _atom_site_fract_x
 _atom_site_fract_y
 _atom_site_fract_z
 _atom_site_occupancy
  O  O0  1  0.313121  0.123639  0.389494  1
  O  O1  1  0.876361  0.686879  0.110506  1
  O  O2  1  0.686879  0.876361  0.610506  1
  O  O3  1  0.123639  0.313121  0.889494  1
  O  O4  1  0.771264  0.114841  0.398377  1
  O  O5  1  0.885159  0.228736  0.101623  1
  O  O6  1  0.228736  0.885159  0.601623  1
  O  O7  1  0.114841  0.771264  0.898377  1
  O  O8  1  0.770595  0.577687  0.426718  1
  O  O9  1  0.422313  0.229405  0.073282  1
  O  O10  1  0.229405  0.422313  0.573282  1
  O  O11  1  0.577687  0.770595  0.926718  1
  O  O12  1  0.484006  0.515994  0.750000  1
  O  O13  1  0.515994  0.484006  0.250000  1
  O  O14  1  0.041209  0.518640  0.734703  1
  O  O15  1  0.481360  0.958791  0.765297  1
  O  O16  1  0.958791  0.481360  0.265297  1
  O  O17  1  0.518640  0.041209  0.234703  1
  Sr  Sr18  1  0.000000  0.000000  0.000000  1
  Sr  Sr19  1  0.000000  0.000000  0.500000  1
  Ru  Ru20  1  0.643507  0.307585  0.340547  1
  Ru  Ru21  1  0.692415  0.356493  0.159453  1
  Ru  Ru22  1  0.307585  0.643507  0.840547  1
  Ru  Ru23  1  0.356493  0.692415  0.659453  1
  Ba  Ba24  1  0.325523  0.652985  0.394508  1
  Ba  Ba25  1  0.347015  0.674477  0.105492  1
  Ba  Ba26  1  0.674477  0.347015  0.605492  1
  Ba  Ba27  1  0.652985  0.325523  0.894508  1
  Ba  Ba28  1  0.993071  0.006929  0.250000  1
  Ba  Ba29  1  0.006929  0.993071  0.750000  1
