# generated using pymatgen
data_Ca4Al11Si13(AgO16)3
_symmetry_space_group_name_H-M   'P 1'
_cell_length_a   12.85027269
_cell_length_b   12.20683818
_cell_length_c   12.22660319
_cell_angle_alpha   89.66944331
_cell_angle_beta   89.44972757
_cell_angle_gamma   89.69447279
_symmetry_Int_Tables_number   1
_chemical_formula_structural   Ca4Al11Si13(AgO16)3
_chemical_formula_sum   'Ca4 Al11 Si13 Ag3 O48'
_cell_volume   1917.73256784
_cell_formula_units_Z   1
loop_
 _symmetry_equiv_pos_site_id
 _symmetry_equiv_pos_as_xyz
  1  'x, y, z'
loop_
 _atom_site_type_symbol
 _atom_site_label
 _atom_site_symmetry_multiplicity
 _atom_site_fract_x
 _atom_site_fract_y
 _atom_site_fract_z
 _atom_site_occupancy
  Ca  Ca0  1  0.780393  0.183628  0.817311  1
  Ca  Ca1  1  0.783794  0.820997  0.823285  1
  Ca  Ca2  1  0.788495  0.808693  0.186641  1
  Ca  Ca3  1  0.774536  0.185129  0.192104  1
  Al  Al4  1  0.003675  0.814192  0.366679  1
  Al  Al5  1  0.373992  0.999183  0.805302  1
  Al  Al6  1  0.372031  0.807988  0.004736  1
  Al  Al7  1  0.610266  0.003168  0.196456  1
  Al  Al8  1  0.607908  0.195610  0.997914  1
  Al  Al9  1  0.611594  0.002790  0.805735  1
  Al  Al10  1  0.615000  0.810216  0.007712  1
  Al  Al11  1  0.830191  0.001441  0.365241  1
  Al  Al12  1  0.838316  0.000566  0.639623  1
  Al  Al13  1  0.833480  0.360805  0.999177  1
  Al  Al14  1  0.834918  0.633538  0.998984  1
  Si  Si15  1  0.004581  0.186778  0.368315  1
  Si  Si16  1  0.002549  0.363037  0.183093  1
  Si  Si17  1  0.008319  0.814768  0.632864  1
  Si  Si18  1  0.181158  0.003239  0.366611  1
  Si  Si19  1  0.180304  0.001991  0.622491  1
  Si  Si20  1  0.179862  0.365115  0.999426  1
  Si  Si21  1  0.182480  0.620992  0.000736  1
  Si  Si22  1  0.366653  0.003253  0.188666  1
  Si  Si23  1  0.369266  0.188012  0.001711  1
  Si  Si24  1  0.003557  0.190084  0.626106  1
  Si  Si25  1  0.009046  0.367376  0.812317  1
  Si  Si26  1  0.003232  0.622981  0.186544  1
  Si  Si27  1  0.010433  0.629303  0.814300  1
  Ag  Ag28  1  0.209644  0.806926  0.806453  1
  Ag  Ag29  1  0.211301  0.190984  0.795736  1
  Ag  Ag30  1  0.199649  0.797260  0.196123  1
  O  O31  1  0.990975  0.492424  0.211235  1
  O  O32  1  0.023454  0.301908  0.696846  1
  O  O33  1  0.021397  0.690976  0.296111  1
  O  O34  1  0.997328  0.787660  0.506406  1
  O  O35  1  0.028781  0.700820  0.703025  1
  O  O36  1  0.107818  0.111891  0.350998  1
  O  O37  1  0.102462  0.342073  0.102248  1
  O  O38  1  0.106165  0.111781  0.644873  1
  O  O39  1  0.105423  0.641540  0.106350  1
  O  O40  1  0.114954  0.339860  0.884214  1
  O  O41  1  0.115935  0.893743  0.335533  1
  O  O42  1  0.114369  0.650271  0.889032  1
  O  O43  1  0.112527  0.891341  0.656205  1
  O  O44  1  0.215509  0.997479  0.495278  1
  O  O45  1  0.215913  0.492177  0.995641  1
  O  O46  1  0.283175  0.014405  0.291372  1
  O  O47  1  0.278713  0.285847  0.002957  1
  O  O48  1  0.277858  0.700720  0.010484  1
  O  O49  1  0.274382  0.013111  0.704882  1
  O  O50  1  0.348094  0.111296  0.109789  1
  O  O51  1  0.347840  0.119088  0.889101  1
  O  O52  1  0.336959  0.891302  0.121834  1
  O  O53  1  0.341166  0.884647  0.886421  1
  O  O54  1  0.481418  0.999734  0.240074  1
  O  O55  1  0.480997  0.247313  0.003083  1
  O  O56  1  0.494605  0.752639  0.012174  1
  O  O57  1  0.493882  0.996881  0.742610  1
  O  O58  1  0.632638  0.120899  0.116816  1
  O  O59  1  0.629071  0.127537  0.874570  1
  O  O60  1  0.645722  0.882704  0.128009  1
  O  O61  1  0.640760  0.889883  0.890292  1
  O  O62  1  0.721342  0.020947  0.282013  1
  O  O63  1  0.730397  0.269105  0.995187  1
  O  O64  1  0.737879  0.733937  -0.000082  1
  O  O65  1  0.739393  0.003067  0.738377  1
  O  O66  1  0.813851  0.497333  0.996717  1
  O  O67  1  0.819983  0.997847  0.503598  1
  O  O68  1  0.901368  0.128888  0.677099  1
  O  O69  1  0.901284  0.671655  0.122087  1
  O  O70  1  0.906314  0.675324  0.876493  1
  O  O71  1  0.907602  0.878801  0.687707  1
  O  O72  1  0.899809  0.126518  0.324351  1
  O  O73  1  0.898187  0.315736  0.123061  1
  O  O74  1  0.905920  0.320594  0.875869  1
  O  O75  1  0.892473  0.880974  0.313567  1
  O  O76  1  0.993649  0.222120  0.497557  1
  O  O77  1  0.018956  0.299557  0.298429  1
  O  O78  1  0.003682  0.498604  0.786114  1
