# generated using pymatgen
data_Li2Cr(PO3)4
_symmetry_space_group_name_H-M   'P 1'
_cell_length_a   9.47136565
_cell_length_b   10.15920942
_cell_length_c   9.40003045
_cell_angle_alpha   90.00000000
_cell_angle_beta   91.87887391
_cell_angle_gamma   90.00000000
_symmetry_Int_Tables_number   1
_chemical_formula_structural   Li2Cr(PO3)4
_chemical_formula_sum   'Li8 Cr4 P16 O48'
_cell_volume   903.99957352
_cell_formula_units_Z   4
loop_
 _symmetry_equiv_pos_site_id
 _symmetry_equiv_pos_as_xyz
  1  'x, y, z'
loop_
 _atom_site_type_symbol
 _atom_site_label
 _atom_site_symmetry_multiplicity
 _atom_site_fract_x
 _atom_site_fract_y
 _atom_site_fract_z
 _atom_site_occupancy
  Li  Li0  1  0.500839  0.674566  0.394283  1
  Li  Li1  1  0.995542  0.177518  0.894746  1
  Li  Li2  1  0.495542  0.322482  0.894746  1
  Li  Li3  1  0.000839  0.825434  0.394283  1
  Li  Li4  1  0.499161  0.325434  0.605717  1
  Li  Li5  1  0.504458  0.677518  0.105254  1
  Li  Li6  1  0.004458  0.822482  0.105254  1
  Li  Li7  1  0.999161  0.174566  0.605717  1
  Cr  Cr8  1  0.482047  0.689620  0.747063  1
  Cr  Cr9  1  0.517953  0.310380  0.252937  1
  Cr  Cr10  1  0.017953  0.189620  0.252937  1
  Cr  Cr11  1  0.982047  0.810380  0.747063  1
  P  P12  1  0.802535  0.599675  0.267673  1
  P  P13  1  0.798215  0.397374  0.488942  1
  P  P14  1  0.771971  0.537610  0.761777  1
  P  P15  1  0.271971  0.962390  0.761777  1
  P  P16  1  0.697465  0.099675  0.732327  1
  P  P17  1  0.706373  0.890561  0.959021  1
  P  P18  1  0.228029  0.462390  0.238223  1
  P  P19  1  0.293627  0.109439  0.040979  1
  P  P20  1  0.206373  0.609439  0.959021  1
  P  P21  1  0.201785  0.602626  0.511058  1
  P  P22  1  0.302535  0.900325  0.267673  1
  P  P23  1  0.298215  0.102626  0.488942  1
  P  P24  1  0.728029  0.037610  0.238223  1
  P  P25  1  0.701785  0.897374  0.511058  1
  P  P26  1  0.793627  0.390561  0.040979  1
  P  P27  1  0.197465  0.400325  0.732327  1
  O  O28  1  0.855304  0.481177  0.167636  1
  O  O29  1  0.355304  0.018823  0.167636  1
  O  O30  1  0.652122  0.035176  0.580542  1
  O  O31  1  0.165680  0.568537  0.346019  1
  O  O32  1  0.887221  0.029725  0.245344  1
  O  O33  1  0.385549  0.230120  0.043552  1
  O  O34  1  0.347878  0.964824  0.419458  1
  O  O35  1  0.640717  0.381735  0.463538  1
  O  O36  1  0.387221  0.470275  0.245344  1
  O  O37  1  0.152122  0.464824  0.580542  1
  O  O38  1  0.663789  0.980518  0.092395  1
  O  O39  1  0.164906  0.330322  0.260864  1
  O  O40  1  0.896118  0.287004  0.452052  1
  O  O41  1  0.396035  0.783056  0.247204  1
  O  O42  1  0.614451  0.769880  0.956448  1
  O  O43  1  0.145734  0.883919  0.254650  1
  O  O44  1  0.896035  0.716944  0.247204  1
  O  O45  1  0.335094  0.830322  0.739136  1
  O  O46  1  0.836211  0.480518  0.907605  1
  O  O47  1  0.114451  0.730120  0.956448  1
  O  O48  1  0.336211  0.019482  0.907605  1
  O  O49  1  0.334320  0.068537  0.653981  1
  O  O50  1  0.103965  0.283056  0.752796  1
  O  O51  1  0.644696  0.981177  0.832364  1
  O  O52  1  0.612779  0.529725  0.754656  1
  O  O53  1  0.854266  0.116081  0.745350  1
  O  O54  1  0.103882  0.712996  0.547948  1
  O  O55  1  0.645734  0.616081  0.254650  1
  O  O56  1  0.603965  0.216944  0.752796  1
  O  O57  1  0.359283  0.618265  0.536462  1
  O  O58  1  0.163789  0.519482  0.092395  1
  O  O59  1  0.847878  0.535176  0.419458  1
  O  O60  1  0.665680  0.931463  0.346019  1
  O  O61  1  0.834320  0.431463  0.653981  1
  O  O62  1  0.140717  0.118265  0.463538  1
  O  O63  1  0.112779  0.970275  0.754656  1
  O  O64  1  0.364622  0.620798  0.952589  1
  O  O65  1  0.354266  0.383919  0.745350  1
  O  O66  1  0.144696  0.518823  0.832364  1
  O  O67  1  0.396118  0.212996  0.452052  1
  O  O68  1  0.885549  0.269880  0.043552  1
  O  O69  1  0.835094  0.669678  0.739136  1
  O  O70  1  0.635378  0.379202  0.047411  1
  O  O71  1  0.664906  0.169678  0.260864  1
  O  O72  1  0.135378  0.120798  0.047411  1
  O  O73  1  0.859283  0.881735  0.536462  1
  O  O74  1  0.603882  0.787004  0.547948  1
  O  O75  1  0.864622  0.879202  0.952589  1
