# generated using pymatgen
data_CuH12N2(Cl2O)2
_symmetry_space_group_name_H-M   'P 1'
_cell_length_a   7.70994122
_cell_length_b   7.72399353
_cell_length_c   7.98881651
_cell_angle_alpha   90.51932093
_cell_angle_beta   89.64539819
_cell_angle_gamma   91.32617814
_symmetry_Int_Tables_number   1
_chemical_formula_structural   CuH12N2(Cl2O)2
_chemical_formula_sum   'Cu2 H24 N4 Cl8 O4'
_cell_volume   475.59081709
_cell_formula_units_Z   2
loop_
 _symmetry_equiv_pos_site_id
 _symmetry_equiv_pos_as_xyz
  1  'x, y, z'
loop_
 _atom_site_type_symbol
 _atom_site_label
 _atom_site_symmetry_multiplicity
 _atom_site_fract_x
 _atom_site_fract_y
 _atom_site_fract_z
 _atom_site_occupancy
  Cu  Cu0  1  0.008062  0.003210  0.999052  1
  Cu  Cu1  1  0.487038  0.487296  0.499815  1
  H  H2  1  0.078352  0.078409  0.323178  1
  H  H3  1  0.075697  0.077691  0.677695  1
  H  H4  1  0.101577  0.537777  0.298351  1
  H  H5  1  0.101968  0.536912  0.699920  1
  H  H6  1  0.397542  0.083298  0.758361  1
  H  H7  1  0.410445  0.948187  0.205512  1
  H  H8  1  0.449971  0.895223  0.848462  1
  H  H9  1  0.425390  0.571961  0.179308  1
  H  H10  1  0.424596  0.570950  0.824215  1
  H  H11  1  0.500019  0.095958  0.341875  1
  H  H12  1  0.569971  0.424604  0.177222  1
  H  H13  1  0.570079  0.424707  0.819023  1
  H  H14  1  0.595590  0.064782  0.841648  1
  H  H15  1  0.595940  0.062801  0.156086  1
  H  H16  1  0.600151  0.906476  0.304025  1
  H  H17  1  0.543944  0.954070  0.663043  1
  H  H18  1  0.947236  0.405111  0.205122  1
  H  H19  1  0.946969  0.404997  0.792595  1
  H  H20  1  0.890755  0.562772  0.344452  1
  H  H21  1  0.891224  0.560427  0.656014  1
  H  H22  1  0.928890  0.929604  0.320225  1
  H  H23  1  0.925425  0.928931  0.678185  1
  H  H24  1  0.960461  0.615700  0.155861  1
  H  H25  1  0.959375  0.616587  0.844447  1
  N  N26  1  0.977069  0.527357  0.250927  1
  N  N27  1  0.977335  0.527230  0.748574  1
  N  N28  1  0.525041  0.002452  0.251383  1
  N  N29  1  0.497577  -0.001470  0.776769  1
  Cl  Cl30  1  0.213662  0.213201  0.999663  1
  Cl  Cl31  1  0.216529  0.217763  0.502491  1
  Cl  Cl32  1  0.289753  0.720700  0.005545  1
  Cl  Cl33  1  0.285991  0.697044  0.502494  1
  Cl  Cl34  1  0.699198  0.293684  0.498923  1
  Cl  Cl35  1  0.722514  0.279205  0.998079  1
  Cl  Cl36  1  0.770676  0.787083  0.500512  1
  Cl  Cl37  1  0.796573  0.792512  0.001048  1
  O  O38  1  0.003468  0.005148  0.248215  1
  O  O39  1  0.001952  0.002169  0.751100  1
  O  O40  1  0.505498  0.505630  0.250328  1
  O  O41  1  0.503600  0.505352  0.749660  1
