# generated using pymatgen
data_VCu2BiO6
_symmetry_space_group_name_H-M   'P 1'
_cell_length_a   7.88955613
_cell_length_b   13.68536361
_cell_length_c   15.88450055
_cell_angle_alpha   112.74041805
_cell_angle_beta   89.99998274
_cell_angle_gamma   90.00009795
_symmetry_Int_Tables_number   1
_chemical_formula_structural   VCu2BiO6
_chemical_formula_sum   'V12 Cu24 Bi12 O72'
_cell_volume   1581.75239078
_cell_formula_units_Z   12
loop_
 _symmetry_equiv_pos_site_id
 _symmetry_equiv_pos_as_xyz
  1  'x, y, z'
loop_
 _atom_site_type_symbol
 _atom_site_label
 _atom_site_symmetry_multiplicity
 _atom_site_fract_x
 _atom_site_fract_y
 _atom_site_fract_z
 _atom_site_occupancy
  V  V0  1  0.478408  0.308723  0.684176  1
  V  V1  1  0.021769  0.811280  0.540810  1
  V  V2  1  0.504093  0.691539  0.653403  1
  V  V3  1  0.995907  0.191540  0.153404  1
  V  V4  1  0.521592  0.691277  0.315824  1
  V  V5  1  0.478231  0.311280  0.040810  1
  V  V6  1  0.978231  0.188720  0.459190  1
  V  V7  1  0.978408  0.191278  0.815824  1
  V  V8  1  0.004093  0.808460  0.846596  1
  V  V9  1  0.521769  0.688720  0.959190  1
  V  V10  1  0.495907  0.308461  0.346597  1
  V  V11  1  0.021592  0.808722  0.184176  1
  Cu  Cu12  1  0.811506  0.075803  0.943828  1
  Cu  Cu13  1  0.816632  0.076057  0.601989  1
  Cu  Cu14  1  0.183368  0.923943  0.398011  1
  Cu  Cu15  1  0.207622  0.068777  0.267132  1
  Cu  Cu16  1  0.803400  0.053610  0.259923  1
  Cu  Cu17  1  0.684743  0.412259  0.551744  1
  Cu  Cu18  1  0.683368  0.576056  0.101989  1
  Cu  Cu19  1  0.792378  0.931223  0.732868  1
  Cu  Cu20  1  0.316632  0.423944  0.898011  1
  Cu  Cu21  1  0.315257  0.587741  0.448256  1
  Cu  Cu22  1  0.696595  0.553609  0.759922  1
  Cu  Cu23  1  0.688495  0.575803  0.443828  1
  Cu  Cu24  1  0.196600  0.946390  0.740077  1
  Cu  Cu25  1  0.188494  0.924197  0.056172  1
  Cu  Cu26  1  0.311505  0.424197  0.556172  1
  Cu  Cu27  1  0.815257  0.912261  0.051745  1
  Cu  Cu28  1  0.180344  0.084137  0.604110  1
  Cu  Cu29  1  0.819656  0.915863  0.395890  1
  Cu  Cu30  1  0.303405  0.446391  0.240078  1
  Cu  Cu31  1  0.707622  0.431223  0.232868  1
  Cu  Cu32  1  0.319658  0.584136  0.104109  1
  Cu  Cu33  1  0.680342  0.415864  0.895891  1
  Cu  Cu34  1  0.292378  0.568777  0.767132  1
  Cu  Cu35  1  0.184743  0.087739  0.948255  1
  Bi  Bi36  1  0.514657  0.095884  0.438956  1
  Bi  Bi37  1  0.485343  0.904116  0.561044  1
  Bi  Bi38  1  0.986112  0.590152  0.621970  1
  Bi  Bi39  1  0.486113  0.909847  0.878030  1
  Bi  Bi40  1  0.484207  0.874365  0.212913  1
  Bi  Bi41  1  0.515793  0.125635  0.787087  1
  Bi  Bi42  1  0.985343  0.595884  0.938956  1
  Bi  Bi43  1  0.013888  0.409848  0.378030  1
  Bi  Bi44  1  0.513887  0.090153  0.121970  1
  Bi  Bi45  1  0.014657  0.404116  0.061044  1
  Bi  Bi46  1  0.984207  0.625635  0.287087  1
  Bi  Bi47  1  0.015793  0.374365  0.712913  1
  O  O48  1  0.499862  0.391902  0.161815  1
  O  O49  1  0.319799  0.351392  0.304875  1
  O  O50  1  0.279484  0.257221  0.023691  1
  O  O51  1  0.870711  0.712861  0.145619  1
  O  O52  1  0.679387  0.981527  0.328659  1
  O  O53  1  0.129633  0.285562  0.488135  1
  O  O54  1  0.220516  0.757220  0.523691  1
  O  O55  1  0.673576  0.342450  0.300889  1
  O  O56  1  0.994409  0.128900  0.694433  1
  O  O57  1  0.011152  0.670367  0.815930  1
  O  O58  1  0.496267  0.385759  0.970175  1
  O  O59  1  0.825538  0.492582  0.497874  1
  O  O60  1  0.000139  0.891902  0.661815  1
  O  O61  1  0.819800  0.148608  0.195125  1
  O  O62  1  0.323626  0.987506  0.329172  1
  O  O63  1  0.996267  0.114241  0.529825  1
  O  O64  1  0.005591  0.871100  0.305567  1
  O  O65  1  0.220035  0.752180  0.157241  1
  O  O66  1  0.662061  0.021342  0.839247  1
  O  O67  1  0.001375  0.905443  0.134367  1
  O  O68  1  0.370711  0.787139  0.354381  1
  O  O69  1  0.173576  0.157550  0.199111  1
  O  O70  1  0.180200  0.851392  0.804875  1
  O  O71  1  0.498623  0.405442  0.634368  1
  O  O72  1  0.129289  0.287139  0.854381  1
  O  O73  1  0.779484  0.242780  0.476309  1
  O  O74  1  0.370367  0.785562  0.988136  1
  O  O75  1  0.494409  0.371100  0.805567  1
  O  O76  1  0.174462  0.507418  0.502126  1
  O  O77  1  0.998625  0.094557  0.865633  1
  O  O78  1  0.824629  0.495138  0.998174  1
  O  O79  1  0.279965  0.252181  0.657242  1
  O  O80  1  0.870367  0.714438  0.511865  1
  O  O81  1  0.162061  0.478658  0.660754  1
  O  O82  1  0.999861  0.108098  0.338185  1
  O  O83  1  0.176374  0.487506  0.829172  1
  O  O84  1  0.993817  0.122391  0.032863  1
  O  O85  1  0.179386  0.518473  0.171341  1
  O  O86  1  0.826424  0.842450  0.800889  1
  O  O87  1  0.674463  0.992581  0.997874  1
  O  O88  1  0.163868  0.532943  0.344704  1
  O  O89  1  0.779965  0.247820  0.842759  1
  O  O90  1  0.511152  0.829634  0.684070  1
  O  O91  1  0.500138  0.608098  0.838185  1
  O  O92  1  0.820614  0.481527  0.828659  1
  O  O93  1  0.006183  0.877609  0.967137  1
  O  O94  1  0.503733  0.614241  0.029825  1
  O  O95  1  0.720516  0.742779  0.976309  1
  O  O96  1  0.629633  0.214438  0.011864  1
  O  O97  1  0.325537  0.007419  0.002126  1
  O  O98  1  0.837939  0.521342  0.339246  1
  O  O99  1  0.003733  0.885759  0.470175  1
  O  O100  1  0.175371  0.504862  0.001826  1
  O  O101  1  0.324628  0.004862  0.501826  1
  O  O102  1  0.337939  0.978658  0.160753  1
  O  O103  1  0.675372  0.995138  0.498174  1
  O  O104  1  0.320613  0.018473  0.671341  1
  O  O105  1  0.663870  0.967056  0.155295  1
  O  O106  1  0.680201  0.648608  0.695125  1
  O  O107  1  0.488848  0.170366  0.315930  1
  O  O108  1  0.836132  0.467057  0.655296  1
  O  O109  1  0.988848  0.329633  0.184070  1
  O  O110  1  0.629289  0.212861  0.645619  1
  O  O111  1  0.823626  0.512494  0.170828  1
  O  O112  1  0.506184  0.622391  0.532864  1
  O  O113  1  0.493816  0.377609  0.467136  1
  O  O114  1  0.676374  0.012494  0.670828  1
  O  O115  1  0.501377  0.594558  0.365632  1
  O  O116  1  0.505591  0.628900  0.194433  1
  O  O117  1  0.720035  0.747819  0.342758  1
  O  O118  1  0.336130  0.032944  0.844705  1
  O  O119  1  0.326424  0.657550  0.699111  1
