# generated using pymatgen
data_Ni3(BiO2)10
_symmetry_space_group_name_H-M   'P 1'
_cell_length_a   8.74427126
_cell_length_b   8.74427124
_cell_length_c   8.73550594
_cell_angle_alpha   108.33961068
_cell_angle_beta   109.99584885
_cell_angle_gamma   110.12426741
_symmetry_Int_Tables_number   1
_chemical_formula_structural   Ni3(BiO2)10
_chemical_formula_sum   'Ni3 Bi10 O20'
_cell_volume   513.76963034
_cell_formula_units_Z   1
loop_
 _symmetry_equiv_pos_site_id
 _symmetry_equiv_pos_as_xyz
  1  'x, y, z'
loop_
 _atom_site_type_symbol
 _atom_site_label
 _atom_site_symmetry_multiplicity
 _atom_site_fract_x
 _atom_site_fract_y
 _atom_site_fract_z
 _atom_site_occupancy
  Ni  Ni0  1  0.999584  0.999584  1.000000  1
  Ni  Ni1  1  0.351181  0.236052  0.542085  1
  Ni  Ni2  1  0.693967  0.809096  0.457915  1
  Bi  Bi3  1  0.147711  0.858869  0.658694  1
  Bi  Bi4  1  0.135407  0.293940  0.804756  1
  Bi  Bi5  1  0.200176  0.489017  0.341306  1
  Bi  Bi6  1  0.320432  0.821683  0.164901  1
  Bi  Bi7  1  0.505182  0.696898  0.841879  1
  Bi  Bi8  1  0.489184  0.330651  0.195244  1
  Bi  Bi9  1  0.656782  0.155530  0.835099  1
  Bi  Bi10  1  0.831093  0.511735  0.690788  1
  Bi  Bi11  1  0.855019  0.663303  0.158121  1
  Bi  Bi12  1  0.820947  0.140304  0.309212  1
  O  O13  1  0.263804  0.645655  0.894331  1
  O  O14  1  0.122116  0.756677  0.375156  1
  O  O15  1  -0.000006  0.612042  0.998887  1
  O  O16  1  0.975438  0.991394  0.601653  1
  O  O17  1  0.227341  0.364956  0.613993  1
  O  O18  1  0.381521  0.746960  0.624844  1
  O  O19  1  0.015145  0.222579  0.005907  1
  O  O20  1  0.364232  0.121334  0.731791  1
  O  O21  1  0.389542  0.632441  0.268209  1
  O  O22  1  0.389741  0.373785  0.398347  1
  O  O23  1  0.216671  0.009237  0.994093  1
  O  O24  1  0.617164  0.377096  0.739004  1
  O  O25  1  0.638092  0.878160  0.260996  1
  O  O26  1  0.782220  0.786203  0.788681  1
  O  O27  1  0.621597  0.232450  0.356692  1
  O  O28  1  0.750963  0.613347  0.386007  1
  O  O29  1  0.875758  0.264905  0.643308  1
  O  O30  1  0.751324  0.369472  0.105669  1
  O  O31  1  0.997522  0.993538  0.211319  1
  O  O32  1  0.613155  0.001107  0.001113  1
