# generated using pymatgen
data_U3Cu2S7
_symmetry_space_group_name_H-M   'P 1'
_cell_length_a   9.64264360
_cell_length_b   9.64264360
_cell_length_c   5.68050029
_cell_angle_alpha   90.00000000
_cell_angle_beta   90.00000000
_cell_angle_gamma   119.99999999
_symmetry_Int_Tables_number   1
_chemical_formula_structural   U3Cu2S7
_chemical_formula_sum   'U6 Cu4 S14'
_cell_volume   457.41399546
_cell_formula_units_Z   2
loop_
 _symmetry_equiv_pos_site_id
 _symmetry_equiv_pos_as_xyz
  1  'x, y, z'
loop_
 _atom_site_type_symbol
 _atom_site_label
 _atom_site_symmetry_multiplicity
 _atom_site_fract_x
 _atom_site_fract_y
 _atom_site_fract_z
 _atom_site_occupancy
  U  U0  1  0.229173  0.849187  0.030189  1
  U  U1  1  0.150813  0.379986  0.030189  1
  U  U2  1  0.849187  0.620014  0.530189  1
  U  U3  1  0.620014  0.770827  0.030189  1
  U  U4  1  0.770827  0.150813  0.530189  1
  U  U5  1  0.379986  0.229173  0.530189  1
  Cu  Cu6  1  0.666667  0.333333  0.149421  1
  Cu  Cu7  1  0.333333  0.666667  0.649421  1
  Cu  Cu8  1  0.000000  0.000000  0.500150  1
  Cu  Cu9  1  0.000000  0.000000  0.000150  1
  S  S10  1  0.666667  0.333333  0.751307  1
  S  S11  1  0.567112  0.487378  0.281876  1
  S  S12  1  0.154321  0.892385  0.515376  1
  S  S13  1  0.512622  0.079734  0.281876  1
  S  S14  1  0.432888  0.512622  0.781876  1
  S  S15  1  0.487378  0.920266  0.781876  1
  S  S16  1  0.845679  0.107615  0.015376  1
  S  S17  1  0.079734  0.567112  0.781876  1
  S  S18  1  0.738064  0.845679  0.515376  1
  S  S19  1  0.333333  0.666667  0.251307  1
  S  S20  1  0.920266  0.432888  0.281876  1
  S  S21  1  0.261936  0.154321  0.015376  1
  S  S22  1  0.107615  0.261936  0.515376  1
  S  S23  1  0.892385  0.738064  0.015376  1
