# generated using pymatgen
data_Li2MnSn3O8
_symmetry_space_group_name_H-M   'P 1'
_cell_length_a   10.07608709
_cell_length_b   10.78664200
_cell_length_c   10.78613112
_cell_angle_alpha   120.00156928
_cell_angle_beta   90.00000000
_cell_angle_gamma   90.00000000
_symmetry_Int_Tables_number   1
_chemical_formula_structural   Li2MnSn3O8
_chemical_formula_sum   'Li12 Mn6 Sn18 O48'
_cell_volume   1015.23746696
_cell_formula_units_Z   6
loop_
 _symmetry_equiv_pos_site_id
 _symmetry_equiv_pos_as_xyz
  1  'x, y, z'
loop_
 _atom_site_type_symbol
 _atom_site_label
 _atom_site_symmetry_multiplicity
 _atom_site_fract_x
 _atom_site_fract_y
 _atom_site_fract_z
 _atom_site_occupancy
  Li  Li0  1  0.280016  0.982698  0.000000  1
  Li  Li1  1  0.780016  0.017302  0.000000  1
  Li  Li2  1  0.006318  0.164749  0.499432  1
  Li  Li3  1  0.506318  0.835251  0.500568  1
  Li  Li4  1  0.776632  0.664780  0.360781  1
  Li  Li5  1  0.504799  0.833578  0.000000  1
  Li  Li6  1  0.506318  0.334682  0.499432  1
  Li  Li7  1  0.276632  0.696002  0.360781  1
  Li  Li8  1  0.006318  0.665318  0.500568  1
  Li  Li9  1  0.276632  0.335220  0.639219  1
  Li  Li10  1  0.776632  0.303998  0.639219  1
  Li  Li11  1  0.004799  0.166422  1.000000  1
  Mn  Mn12  1  0.686904  0.666719  0.665933  1
  Mn  Mn13  1  0.686904  0.000786  0.334067  1
  Mn  Mn14  1  0.185977  0.666747  1.000000  1
  Mn  Mn15  1  0.685977  0.333253  0.000000  1
  Mn  Mn16  1  0.186904  0.333281  0.334067  1
  Mn  Mn17  1  0.186904  0.999214  0.665933  1
  Sn  Sn18  1  0.000325  0.492588  0.171382  1
  Sn  Sn19  1  0.000325  0.321206  0.828618  1
  Sn  Sn20  1  0.279427  0.329920  1.000000  1
  Sn  Sn21  1  0.779427  0.670080  0.000000  1
  Sn  Sn22  1  0.500325  0.678794  0.171382  1
  Sn  Sn23  1  0.499843  0.986576  0.825913  1
  Sn  Sn24  1  0.497862  0.161824  0.657378  1
  Sn  Sn25  1  0.500325  0.507412  0.828618  1
  Sn  Sn26  1  0.778829  0.997242  0.664250  1
  Sn  Sn27  1  0.778829  0.332993  0.335750  1
  Sn  Sn28  1  0.499843  0.160663  0.174087  1
  Sn  Sn29  1  0.999843  0.013424  0.174087  1
  Sn  Sn30  1  0.497862  0.504446  0.342622  1
  Sn  Sn31  1  0.997862  0.838176  0.342622  1
  Sn  Sn32  1  0.997862  0.495554  0.657378  1
  Sn  Sn33  1  0.278829  0.002758  0.335750  1
  Sn  Sn34  1  0.278829  0.667007  0.664250  1
  Sn  Sn35  1  0.999843  0.839337  0.825913  1
  O  O36  1  0.124855  0.670002  0.818646  1
  O  O37  1  0.394082  0.004574  0.671429  1
  O  O38  1  0.635135  0.854174  0.670568  1
  O  O39  1  0.391206  0.661289  1.000000  1
  O  O40  1  0.636888  0.012901  0.525068  1
  O  O41  1  0.638998  0.810497  0.151250  1
  O  O42  1  0.887271  0.496790  0.832348  1
  O  O43  1  0.880514  0.165340  0.168718  1
  O  O44  1  0.595711  0.333766  0.670393  1
  O  O45  1  0.596665  0.003025  0.000000  1
  O  O46  1  0.894082  0.995426  0.328571  1
  O  O47  1  0.595711  0.663373  0.329607  1
  O  O48  1  0.138998  0.189503  0.848750  1
  O  O49  1  0.380170  0.504981  0.674081  1
  O  O50  1  0.124855  0.851357  0.181354  1
  O  O51  1  0.380514  0.003378  0.168718  1
  O  O52  1  0.135135  0.145826  0.329432  1
  O  O53  1  0.387271  0.503210  0.167652  1
  O  O54  1  0.095711  0.336627  0.670393  1
  O  O55  1  0.394082  0.333145  0.328571  1
  O  O56  1  0.136888  0.512168  0.525068  1
  O  O57  1  0.624855  0.148643  0.818646  1
  O  O58  1  0.635135  0.183606  0.329432  1
  O  O59  1  0.138998  0.340753  0.151250  1
  O  O60  1  0.636888  0.487832  0.474932  1
  O  O61  1  0.387271  0.335558  0.832348  1
  O  O62  1  0.096665  0.996975  1.000000  1
  O  O63  1  0.380514  0.834660  0.831282  1
  O  O64  1  0.638998  0.659247  0.848750  1
  O  O65  1  0.136888  0.987099  0.474932  1
  O  O66  1  0.377870  0.166661  0.505418  1
  O  O67  1  0.095711  0.666234  0.329607  1
  O  O68  1  0.380170  0.830900  0.325919  1
  O  O69  1  0.883052  0.840976  1.000000  1
  O  O70  1  0.629447  0.518964  0.000000  1
  O  O71  1  0.887271  0.664442  0.167652  1
  O  O72  1  0.880514  0.996622  0.831282  1
  O  O73  1  0.877870  0.833339  0.494582  1
  O  O74  1  0.624855  0.329998  0.181354  1
  O  O75  1  0.894082  0.666855  0.671429  1
  O  O76  1  0.877870  0.338757  0.505418  1
  O  O77  1  0.129447  0.481036  1.000000  1
  O  O78  1  0.891206  0.338711  0.000000  1
  O  O79  1  0.377870  0.661243  0.494582  1
  O  O80  1  0.135135  0.816394  0.670568  1
  O  O81  1  0.880170  0.169100  0.674081  1
  O  O82  1  0.880170  0.495019  0.325919  1
  O  O83  1  0.383052  0.159024  0.000000  1
