# generated using pymatgen
data_Mg(GaS2)2
_symmetry_space_group_name_H-M   'P 1'
_cell_length_a   6.45587389
_cell_length_b   12.46741300
_cell_length_c   13.12447501
_cell_angle_alpha   115.48797046
_cell_angle_beta   99.15883683
_cell_angle_gamma   100.50422011
_symmetry_Int_Tables_number   1
_chemical_formula_structural   Mg(GaS2)2
_chemical_formula_sum   'Mg6 Ga12 S24'
_cell_volume   903.34633926
_cell_formula_units_Z   6
loop_
 _symmetry_equiv_pos_site_id
 _symmetry_equiv_pos_as_xyz
  1  'x, y, z'
loop_
 _atom_site_type_symbol
 _atom_site_label
 _atom_site_symmetry_multiplicity
 _atom_site_fract_x
 _atom_site_fract_y
 _atom_site_fract_z
 _atom_site_occupancy
  Mg  Mg0  1  0.533074  0.783783  0.565126  1
  Mg  Mg1  1  0.291981  0.043249  0.085013  1
  Mg  Mg2  1  0.706519  0.958042  0.913812  1
  Mg  Mg3  1  0.466081  0.218021  0.434467  1
  Mg  Mg4  1  0.878388  0.128873  0.257612  1
  Mg  Mg5  1  0.120228  0.871318  0.741163  1
  Ga  Ga6  1  0.704385  0.326594  0.080694  1
  Ga  Ga7  1  0.537613  0.164946  0.750250  1
  Ga  Ga8  1  0.877642  0.755265  0.080763  1
  Ga  Ga9  1  0.462405  0.836188  0.248539  1
  Ga  Ga10  1  0.713393  0.587853  0.750858  1
  Ga  Ga11  1  0.861239  0.513861  0.403244  1
  Ga  Ga12  1  0.123021  0.246171  0.918358  1
  Ga  Ga13  1  0.140178  0.485545  0.597433  1
  Ga  Ga14  1  0.296339  0.674268  0.918573  1
  Ga  Ga15  1  0.288251  0.413765  0.249159  1
  Ga  Ga16  1  0.043612  0.887930  0.402409  1
  Ga  Ga17  1  0.956874  0.111288  0.595999  1
  S  S18  1  0.256328  0.237362  0.261047  1
  S  S19  1  0.079588  0.089044  0.432250  1
  S  S20  1  0.017502  0.509813  0.762864  1
  S  S21  1  0.340642  0.818760  0.396750  1
  S  S22  1  0.184472  0.677232  0.080935  1
  S  S23  1  0.755425  0.746780  0.236821  1
  S  S24  1  0.854194  0.343011  0.433723  1
  S  S25  1  0.815573  0.323824  0.918114  1
  S  S26  1  0.147121  0.656384  0.566882  1
  S  S27  1  0.494558  0.976633  0.738194  1
  S  S28  1  0.657127  0.178099  0.600017  1
  S  S29  1  0.443308  0.422358  0.602717  1
  S  S30  1  0.982299  0.490640  0.237479  1
  S  S31  1  0.743035  0.763610  0.738213  1
  S  S32  1  0.668124  0.150702  0.087473  1
  S  S33  1  0.330783  0.849965  0.911435  1
  S  S34  1  0.918605  0.937602  0.086926  1
  S  S35  1  0.920760  0.910205  0.566165  1
  S  S36  1  0.080358  0.063413  0.911602  1
  S  S37  1  0.503770  0.024436  0.260988  1
  S  S38  1  0.557079  0.576460  0.400536  1
  S  S39  1  0.397890  0.405134  0.081308  1
  S  S40  1  0.603111  0.596196  0.918317  1
  S  S41  1  0.243978  0.253955  0.761700  1
