# generated using pymatgen
data_RbNO3
_symmetry_space_group_name_H-M   'P 1'
_cell_length_a   11.69011891
_cell_length_b   11.69011916
_cell_length_c   7.45274995
_cell_angle_alpha   90.00000000
_cell_angle_beta   90.00000000
_cell_angle_gamma   119.99999930
_symmetry_Int_Tables_number   1
_chemical_formula_structural   RbNO3
_chemical_formula_sum   'Rb9 N9 O27'
_cell_volume   882.03344239
_cell_formula_units_Z   9
loop_
 _symmetry_equiv_pos_site_id
 _symmetry_equiv_pos_as_xyz
  1  'x, y, z'
loop_
 _atom_site_type_symbol
 _atom_site_label
 _atom_site_symmetry_multiplicity
 _atom_site_fract_x
 _atom_site_fract_y
 _atom_site_fract_z
 _atom_site_occupancy
  Rb  Rb0  1  0.093766  0.570753  0.920621  1
  Rb  Rb1  1  0.476986  0.906234  0.253955  1
  Rb  Rb2  1  0.742534  0.561559  0.256136  1
  Rb  Rb3  1  0.429247  0.523014  0.587288  1
  Rb  Rb4  1  0.100596  0.228787  0.051993  1
  Rb  Rb5  1  0.771213  0.871809  0.718660  1
  Rb  Rb6  1  0.128191  0.899404  0.385326  1
  Rb  Rb7  1  0.819025  0.257466  0.589469  1
  Rb  Rb8  1  0.438441  0.180975  0.922802  1
  N  N9  1  0.762028  0.226794  0.079153  1
  N  N10  1  0.405873  0.534241  0.078786  1
  N  N11  1  0.079994  0.187208  0.569421  1
  N  N12  1  0.128369  0.594127  0.412119  1
  N  N13  1  0.464766  0.237972  0.412486  1
  N  N14  1  0.465759  0.871631  0.745453  1
  N  N15  1  0.773206  0.535234  0.745820  1
  N  N16  1  0.107215  0.920006  0.902754  1
  N  N17  1  0.812792  0.892785  0.236088  1
  O  O18  1  0.058867  0.136194  0.414527  1
  O  O19  1  0.077327  0.941133  0.747860  1
  O  O20  1  0.171772  0.018064  0.010478  1
  O  O21  1  0.886103  0.288441  0.056862  1
  O  O22  1  0.358874  0.463768  0.218366  1
  O  O23  1  0.488242  0.286412  0.569463  1
  O  O24  1  0.536232  0.895107  0.885033  1
  O  O25  1  0.729745  0.924823  0.287110  1
  O  O26  1  0.526603  0.621884  0.070221  1
  O  O27  1  0.981936  0.153708  0.677145  1
  O  O28  1  0.798170  0.511758  0.902797  1
  O  O29  1  0.713588  0.201830  0.236130  1
  O  O30  1  0.685750  0.190860  0.944234  1
  O  O31  1  0.075177  0.804922  0.953776  1
  O  O32  1  0.505110  0.314250  0.277567  1
  O  O33  1  0.329047  0.513609  0.944063  1
  O  O34  1  0.846292  0.828228  0.343812  1
  O  O35  1  0.863806  0.922673  0.081194  1
  O  O36  1  0.095281  0.473397  0.403554  1
  O  O37  1  0.378116  0.904719  0.736888  1
  O  O38  1  0.402338  0.113897  0.390195  1
  O  O39  1  0.809140  0.494890  0.610901  1
  O  O40  1  0.104893  0.641126  0.551699  1
  O  O41  1  0.711559  0.597662  0.723529  1
  O  O42  1  0.184562  0.670953  0.277396  1
  O  O43  1  0.486391  0.815438  0.610730  1
  O  O44  1  0.195078  0.270255  0.620443  1
