# generated using pymatgen
data_V5N4O
_symmetry_space_group_name_H-M   'P 1'
_cell_length_a   15.19974086
_cell_length_b   8.04173321
_cell_length_c   5.28552792
_cell_angle_alpha   29.15527453
_cell_angle_beta   30.17448590
_cell_angle_gamma   19.29482244
_symmetry_Int_Tables_number   1
_chemical_formula_structural   V5N4O
_chemical_formula_sum   'V5 N4 O1'
_cell_volume   100.69845335
_cell_formula_units_Z   1
loop_
 _symmetry_equiv_pos_site_id
 _symmetry_equiv_pos_as_xyz
  1  'x, y, z'
loop_
 _atom_site_type_symbol
 _atom_site_label
 _atom_site_symmetry_multiplicity
 _atom_site_fract_x
 _atom_site_fract_y
 _atom_site_fract_z
 _atom_site_occupancy
  V  V0  1  0.998267  0.993239  0.028016  1
  V  V1  1  0.212195  0.979139  0.000747  1
  V  V2  1  0.389422  0.013133  0.011183  1
  V  V3  1  0.600554  0.008152  0.974224  1
  V  V4  1  0.802453  0.994575  0.002903  1
  N  N5  1  0.997091  0.503046  0.505264  1
  N  N6  1  0.198796  0.496409  0.514602  1
  N  N7  1  0.401283  0.498720  0.494760  1
  N  N8  1  0.607993  0.487284  0.500000  1
  O  O9  1  0.800988  0.497148  0.502352  1
