# generated using pymatgen
data_FeBi25O39
_symmetry_space_group_name_H-M   'P 1'
_cell_length_a   17.91192997
_cell_length_b   10.33176758
_cell_length_c   10.32855368
_cell_angle_alpha   89.84989645
_cell_angle_beta   54.78341151
_cell_angle_gamma   54.54096242
_symmetry_Int_Tables_number   1
_chemical_formula_structural   FeBi25O39
_chemical_formula_sum   'Fe1 Bi25 O39'
_cell_volume   1102.44283745
_cell_formula_units_Z   1
loop_
 _symmetry_equiv_pos_site_id
 _symmetry_equiv_pos_as_xyz
  1  'x, y, z'
loop_
 _atom_site_type_symbol
 _atom_site_label
 _atom_site_symmetry_multiplicity
 _atom_site_fract_x
 _atom_site_fract_y
 _atom_site_fract_z
 _atom_site_occupancy
  Fe  Fe0  1  0.500370  0.999247  0.000037  1
  Bi  Bi1  1  0.012458  0.671730  0.164834  1
  Bi  Bi2  1  0.187351  0.137408  0.298158  1
  Bi  Bi3  1  0.016304  0.315423  0.800750  1
  Bi  Bi4  1  0.185219  0.490836  0.324591  1
  Bi  Bi5  1  0.177452  0.810157  0.136924  1
  Bi  Bi6  1  0.328687  0.182996  0.488904  1
  Bi  Bi7  1  0.182089  0.828694  0.491911  1
  Bi  Bi8  1  0.486250  0.326082  0.188697  1
  Bi  Bi9  1  0.984621  0.030801  0.995805  1
  Bi  Bi10  1  0.323876  0.166026  0.860645  1
  Bi  Bi11  1  0.316842  0.505134  0.695179  1
  Bi  Bi12  1  0.511838  0.673963  0.164936  1
  Bi  Bi13  1  0.313862  0.862697  0.673368  1
  Bi  Bi14  1  0.676257  0.142309  0.312642  1
  Bi  Bi15  1  0.510684  0.304240  0.813070  1
  Bi  Bi16  1  0.668020  0.514802  0.348002  1
  Bi  Bi17  1  0.676866  0.810778  0.136949  1
  Bi  Bi18  1  0.487674  0.694510  0.840718  1
  Bi  Bi19  1  0.823441  0.189475  0.489532  1
  Bi  Bi20  1  0.675183  0.838941  0.512039  1
  Bi  Bi21  1  0.988812  0.335704  0.192438  1
  Bi  Bi22  1  0.817068  0.166909  0.850184  1
  Bi  Bi23  1  0.813786  0.509288  0.698094  1
  Bi  Bi24  1  0.818187  0.853348  0.669748  1
  Bi  Bi25  1  0.987355  0.697826  0.835534  1
  O  O26  1  0.115842  0.988656  0.994870  1
  O  O27  1  0.012777  0.238314  0.357341  1
  O  O28  1  0.131517  0.378635  0.120532  1
  O  O29  1  0.310482  0.997599  0.997498  1
  O  O30  1  0.191205  0.617581  0.999478  1
  O  O31  1  0.134761  0.353111  0.613914  1
  O  O32  1  0.392324  0.215781  0.999877  1
  O  O33  1  0.393353  0.998449  0.215405  1
  O  O34  1  0.010306  0.737308  0.619534  1
  O  O35  1  0.251634  0.617021  0.237896  1
  O  O36  1  0.251229  0.118274  0.759463  1
  O  O37  1  0.308475  0.380787  0.383132  1
  O  O38  1  0.608889  0.997424  0.999432  1
  O  O39  1  0.253224  0.376325  0.735397  1
  O  O40  1  0.114156  0.768689  0.778623  1
  O  O41  1  0.254525  0.877681  0.255910  1
  O  O42  1  0.371129  0.616894  0.376172  1
  O  O43  1  0.511170  0.235388  0.356839  1
  O  O44  1  0.184492  0.000659  0.628957  1
  O  O45  1  0.490438  0.256764  0.641155  1
  O  O46  1  0.634294  0.379787  0.115981  1
  O  O47  1  0.814079  0.001428  0.000237  1
  O  O48  1  0.490016  0.760324  0.381045  1
  O  O49  1  0.369993  0.641969  0.881731  1
  O  O50  1  0.691856  0.616036  0.999778  1
  O  O51  1  0.630670  0.358243  0.619995  1
  O  O52  1  0.894778  0.992345  0.218289  1
  O  O53  1  0.512195  0.739223  0.622383  1
  O  O54  1  0.750523  0.615226  0.235220  1
  O  O55  1  0.748265  0.116862  0.763473  1
  O  O56  1  0.813748  0.373569  0.371351  1
  O  O57  1  0.750287  0.378200  0.738977  1
  O  O58  1  0.608142  0.782936  0.785518  1
  O  O59  1  0.748607  0.880660  0.263643  1
  O  O60  1  0.868147  0.620492  0.385317  1
  O  O61  1  0.692123  0.999520  0.618233  1
  O  O62  1  0.985942  0.263593  0.648022  1
  O  O63  1  0.987931  0.760204  0.381627  1
  O  O64  1  0.871042  0.638478  0.878063  1
