# generated using pymatgen
data_Cu6PbSe2Cl5O8
_symmetry_space_group_name_H-M   'P 1'
_cell_length_a   6.26914622
_cell_length_b   9.86081292
_cell_length_c   14.07210443
_cell_angle_alpha   78.50995574
_cell_angle_beta   77.12934197
_cell_angle_gamma   71.46512543
_symmetry_Int_Tables_number   1
_chemical_formula_structural   Cu6PbSe2Cl5O8
_chemical_formula_sum   'Cu12 Pb2 Se4 Cl10 O16'
_cell_volume   796.28170170
_cell_formula_units_Z   2
loop_
 _symmetry_equiv_pos_site_id
 _symmetry_equiv_pos_as_xyz
  1  'x, y, z'
loop_
 _atom_site_type_symbol
 _atom_site_label
 _atom_site_symmetry_multiplicity
 _atom_site_fract_x
 _atom_site_fract_y
 _atom_site_fract_z
 _atom_site_occupancy
  Cu  Cu0  1  0.651860  0.530380  0.165900  1
  Cu  Cu1  1  0.069243  0.326957  0.534556  1
  Cu  Cu2  1  0.930757  0.673043  0.465444  1
  Cu  Cu3  1  0.439632  0.168059  0.952676  1
  Cu  Cu4  1  0.739007  0.772097  0.256780  1
  Cu  Cu5  1  0.560368  0.831941  0.047324  1
  Cu  Cu6  1  0.260993  0.227903  0.743220  1
  Cu  Cu7  1  0.500000  0.500000  0.500000  1
  Cu  Cu8  1  0.348140  0.469620  0.834100  1
  Cu  Cu9  1  0.232117  0.772097  0.256780  1
  Cu  Cu10  1  0.000000  0.000000  0.000000  1
  Cu  Cu11  1  0.767883  0.227903  0.743220  1
  Pb  Pb12  1  0.206134  0.948364  0.639368  1
  Pb  Pb13  1  0.793866  0.051636  0.360632  1
  Se  Se14  1  0.873393  0.544245  0.708968  1
  Se  Se15  1  0.126607  0.455755  0.291032  1
  Se  Se16  1  0.357687  0.084942  0.199684  1
  Se  Se17  1  0.642313  0.915058  0.800316  1
  Cl  Cl18  1  0.695211  0.614817  0.994761  1
  Cl  Cl19  1  0.413725  0.723409  0.449142  1
  Cl  Cl20  1  0.063101  0.793571  0.080227  1
  Cl  Cl21  1  0.936899  0.206429  0.919773  1
  Cl  Cl22  1  0.210007  0.139403  0.440582  1
  Cl  Cl23  1  0.789993  0.860597  0.559418  1
  Cl  Cl24  1  0.762027  0.288440  0.187506  1
  Cl  Cl25  1  0.237973  0.711560  0.812494  1
  Cl  Cl26  1  0.304789  0.385183  0.005239  1
  Cl  Cl27  1  0.586275  0.276591  0.550858  1
  O  O28  1  0.168184  0.983925  0.250499  1
  O  O29  1  0.874872  0.561507  0.252446  1
  O  O30  1  0.052344  0.478034  0.417278  1
  O  O31  1  0.311176  0.561507  0.252446  1
  O  O32  1  0.125128  0.438493  0.747554  1
  O  O33  1  0.597392  0.983925  0.250499  1
  O  O34  1  0.688824  0.438493  0.747554  1
  O  O35  1  0.831816  0.016075  0.749501  1
  O  O36  1  0.402608  0.016075  0.749501  1
  O  O37  1  0.441607  0.036949  0.079837  1
  O  O38  1  0.067103  0.205322  0.660473  1
  O  O39  1  0.947656  0.521966  0.582722  1
  O  O40  1  0.558393  0.963051  0.920163  1
  O  O41  1  0.459977  0.260862  0.819184  1
  O  O42  1  0.540023  0.739138  0.180816  1
  O  O43  1  0.932897  0.794678  0.339527  1
