# generated using pymatgen
data_SiO2
_symmetry_space_group_name_H-M   'P 1'
_cell_length_a   10.05814818
_cell_length_b   7.58452135
_cell_length_c   9.41876151
_cell_angle_alpha   90.00000000
_cell_angle_beta   90.00000000
_cell_angle_gamma   90.00000000
_symmetry_Int_Tables_number   1
_chemical_formula_structural   SiO2
_chemical_formula_sum   'Si12 O24'
_cell_volume   718.52189741
_cell_formula_units_Z   12
loop_
 _symmetry_equiv_pos_site_id
 _symmetry_equiv_pos_as_xyz
  1  'x, y, z'
loop_
 _atom_site_type_symbol
 _atom_site_label
 _atom_site_symmetry_multiplicity
 _atom_site_fract_x
 _atom_site_fract_y
 _atom_site_fract_z
 _atom_site_occupancy
  Si  Si0  1  0.095393  0.205851  0.371066  1
  Si  Si1  1  0.595393  0.794149  0.628934  1
  Si  Si2  1  0.904607  0.205851  0.628934  1
  Si  Si3  1  0.404607  0.794149  0.371066  1
  Si  Si4  1  0.904607  0.794149  0.628934  1
  Si  Si5  1  0.404607  0.205851  0.371066  1
  Si  Si6  1  0.095393  0.794149  0.371066  1
  Si  Si7  1  0.595393  0.205851  0.628934  1
  Si  Si8  1  0.095352  0.500000  0.137489  1
  Si  Si9  1  0.595352  0.500000  0.862511  1
  Si  Si10  1  0.904648  0.500000  0.862511  1
  Si  Si11  1  0.404648  0.500000  0.137489  1
  O  O12  1  0.065453  0.323991  0.231675  1
  O  O13  1  0.565453  0.676009  0.768325  1
  O  O14  1  0.934547  0.323991  0.768325  1
  O  O15  1  0.434547  0.676009  0.231675  1
  O  O16  1  0.934547  0.676009  0.768325  1
  O  O17  1  0.434547  0.323991  0.231675  1
  O  O18  1  0.065453  0.676009  0.231675  1
  O  O19  1  0.565453  0.323991  0.768325  1
  O  O20  1  0.250000  0.229181  0.419585  1
  O  O21  1  0.750000  0.770819  0.580415  1
  O  O22  1  0.750000  0.229181  0.580415  1
  O  O23  1  0.250000  0.770819  0.419585  1
  O  O24  1  0.064994  0.000000  0.334006  1
  O  O25  1  0.564994  0.000000  0.665994  1
  O  O26  1  0.935006  0.000000  0.665994  1
  O  O27  1  0.435006  0.000000  0.334006  1
  O  O28  1  0.000000  0.270786  0.500000  1
  O  O29  1  0.500000  0.729214  0.500000  1
  O  O30  1  0.000000  0.729214  0.500000  1
  O  O31  1  0.500000  0.270786  0.500000  1
  O  O32  1  0.000000  0.500000  0.000000  1
  O  O33  1  0.500000  0.500000  0.000000  1
  O  O34  1  0.250000  0.500000  0.086436  1
  O  O35  1  0.750000  0.500000  0.913564  1
