# generated using pymatgen
data_Sr(Ni5P3)2
_symmetry_space_group_name_H-M   'P 1'
_cell_length_a   6.45135163
_cell_length_b   8.70320006
_cell_length_c   15.96422305
_cell_angle_alpha   90.00000000
_cell_angle_beta   90.00000000
_cell_angle_gamma   90.00000000
_symmetry_Int_Tables_number   1
_chemical_formula_structural   Sr(Ni5P3)2
_chemical_formula_sum   'Sr4 Ni40 P24'
_cell_volume   896.34967943
_cell_formula_units_Z   4
loop_
 _symmetry_equiv_pos_site_id
 _symmetry_equiv_pos_as_xyz
  1  'x, y, z'
loop_
 _atom_site_type_symbol
 _atom_site_label
 _atom_site_symmetry_multiplicity
 _atom_site_fract_x
 _atom_site_fract_y
 _atom_site_fract_z
 _atom_site_occupancy
  Sr  Sr0  1  0.250000  0.483743  0.750737  1
  Sr  Sr1  1  0.250000  0.016257  0.250737  1
  Sr  Sr2  1  0.750000  0.516257  0.249263  1
  Sr  Sr3  1  0.750000  0.983743  0.749263  1
  Ni  Ni4  1  0.250000  0.393749  0.294266  1
  Ni  Ni5  1  0.947751  0.046722  0.424403  1
  Ni  Ni6  1  0.250000  0.866845  0.707320  1
  Ni  Ni7  1  0.750000  0.192520  0.960513  1
  Ni  Ni8  1  0.052249  0.546722  0.075597  1
  Ni  Ni9  1  0.998884  0.734007  0.916011  1
  Ni  Ni10  1  0.450166  0.485191  0.423399  1
  Ni  Ni11  1  0.549834  0.985191  0.076601  1
  Ni  Ni12  1  0.750000  0.366845  0.792680  1
  Ni  Ni13  1  0.950166  0.985191  0.076601  1
  Ni  Ni14  1  0.250000  0.277985  0.948373  1
  Ni  Ni15  1  0.250000  0.633155  0.207320  1
  Ni  Ni16  1  0.750000  0.133155  0.292680  1
  Ni  Ni17  1  0.750000  0.307480  0.460513  1
  Ni  Ni18  1  0.250000  0.222015  0.448373  1
  Ni  Ni19  1  0.001116  0.265993  0.083989  1
  Ni  Ni20  1  0.947751  0.453278  0.924403  1
  Ni  Ni21  1  0.998884  0.765993  0.416011  1
  Ni  Ni22  1  0.250000  0.692520  0.539487  1
  Ni  Ni23  1  0.001116  0.234007  0.583989  1
  Ni  Ni24  1  0.552249  0.046722  0.424403  1
  Ni  Ni25  1  0.250000  0.106251  0.794266  1
  Ni  Ni26  1  0.052249  0.953278  0.575597  1
  Ni  Ni27  1  0.501116  0.765993  0.416011  1
  Ni  Ni28  1  0.447751  0.953278  0.575597  1
  Ni  Ni29  1  0.501116  0.734007  0.916011  1
  Ni  Ni30  1  0.447751  0.546722  0.075597  1
  Ni  Ni31  1  0.750000  0.893749  0.205734  1
  Ni  Ni32  1  0.498884  0.265993  0.083989  1
  Ni  Ni33  1  0.552249  0.453278  0.924403  1
  Ni  Ni34  1  0.750000  0.722015  0.051627  1
  Ni  Ni35  1  0.049834  0.485191  0.423399  1
  Ni  Ni36  1  0.750000  0.777985  0.551627  1
  Ni  Ni37  1  0.450166  0.014809  0.923399  1
  Ni  Ni38  1  0.549834  0.514809  0.576601  1
  Ni  Ni39  1  0.950166  0.514809  0.576601  1
  Ni  Ni40  1  0.049834  0.014809  0.923399  1
  Ni  Ni41  1  0.750000  0.606251  0.705734  1
  Ni  Ni42  1  0.498884  0.234007  0.583989  1
  Ni  Ni43  1  0.250000  0.807480  0.039487  1
  P  P44  1  0.250000  0.941102  0.457323  1
  P  P45  1  0.250000  0.114157  0.658535  1
  P  P46  1  0.750000  0.058898  0.542677  1
  P  P47  1  0.750000  0.580777  0.458945  1
  P  P48  1  0.507589  0.233873  0.854778  1
  P  P49  1  0.250000  0.645179  0.343617  1
  P  P50  1  0.992411  0.233873  0.854778  1
  P  P51  1  0.007589  0.733873  0.645222  1
  P  P52  1  0.492411  0.766127  0.145222  1
  P  P53  1  0.250000  0.558898  0.957323  1
  P  P54  1  0.750000  0.919223  0.958945  1
  P  P55  1  0.750000  0.354821  0.656383  1
  P  P56  1  0.250000  0.419223  0.541055  1
  P  P57  1  0.492411  0.733873  0.645222  1
  P  P58  1  0.750000  0.145179  0.156383  1
  P  P59  1  0.250000  0.385843  0.158535  1
  P  P60  1  0.992411  0.266127  0.354778  1
  P  P61  1  0.750000  0.885843  0.341465  1
  P  P62  1  0.507589  0.266127  0.354778  1
  P  P63  1  0.750000  0.614157  0.841465  1
  P  P64  1  0.250000  0.080777  0.041055  1
  P  P65  1  0.007589  0.766127  0.145222  1
  P  P66  1  0.750000  0.441102  0.042677  1
  P  P67  1  0.250000  0.854821  0.843617  1
