# generated using pymatgen
data_Ce3(AgGe)4
_symmetry_space_group_name_H-M   'P 1'
_cell_length_a   4.45975018
_cell_length_b   7.24308088
_cell_length_c   8.51197617
_cell_angle_alpha   115.18004266
_cell_angle_beta   105.18693021
_cell_angle_gamma   90.00000051
_symmetry_Int_Tables_number   1
_chemical_formula_structural   Ce3(AgGe)4
_chemical_formula_sum   'Ce3 Ag4 Ge4'
_cell_volume   238.17541948
_cell_formula_units_Z   1
loop_
 _symmetry_equiv_pos_site_id
 _symmetry_equiv_pos_as_xyz
  1  'x, y, z'
loop_
 _atom_site_type_symbol
 _atom_site_label
 _atom_site_symmetry_multiplicity
 _atom_site_fract_x
 _atom_site_fract_y
 _atom_site_fract_z
 _atom_site_occupancy
  Ce  Ce0  1  0.127342  0.127342  0.254684  1
  Ce  Ce1  1  0.872658  0.872658  0.745316  1
  Ce  Ce2  1  0.000000  0.500000  0.000000  1
  Ag  Ag3  1  0.333069  0.140232  0.666138  1
  Ag  Ag4  1  0.666931  0.859768  0.333862  1
  Ag  Ag5  1  0.666931  0.474094  0.333862  1
  Ag  Ag6  1  0.333069  0.525906  0.666138  1
  Ge  Ge7  1  0.500000  0.180613  1.000000  1
  Ge  Ge8  1  0.781860  0.281860  0.563721  1
  Ge  Ge9  1  0.500000  0.819387  0.000000  1
  Ge  Ge10  1  0.218140  0.718140  0.436279  1
