# generated using pymatgen
data_TeAs(SeF3)2
_symmetry_space_group_name_H-M   'P 1'
_cell_length_a   8.80369465
_cell_length_b   15.33174804
_cell_length_c   24.19908511
_cell_angle_alpha   90.00000000
_cell_angle_beta   90.00000000
_cell_angle_gamma   90.00000000
_symmetry_Int_Tables_number   1
_chemical_formula_structural   TeAs(SeF3)2
_chemical_formula_sum   'Te16 As16 Se32 F96'
_cell_volume   3266.29639410
_cell_formula_units_Z   16
loop_
 _symmetry_equiv_pos_site_id
 _symmetry_equiv_pos_as_xyz
  1  'x, y, z'
loop_
 _atom_site_type_symbol
 _atom_site_label
 _atom_site_symmetry_multiplicity
 _atom_site_fract_x
 _atom_site_fract_y
 _atom_site_fract_z
 _atom_site_occupancy
  Te  Te0  1  0.075809  0.746333  0.751654  1
  Te  Te1  1  0.179320  0.599882  0.688187  1
  Te  Te2  1  0.819219  0.522644  0.062998  1
  Te  Te3  1  0.180781  0.022644  0.937002  1
  Te  Te4  1  0.944035  0.385349  0.995896  1
  Te  Te5  1  0.924191  0.246333  0.248346  1
  Te  Te6  1  0.320680  0.599882  0.188187  1
  Te  Te7  1  0.319219  0.022644  0.437002  1
  Te  Te8  1  0.820680  0.099882  0.311813  1
  Te  Te9  1  0.424191  0.746333  0.251654  1
  Te  Te10  1  0.444035  0.885349  0.504104  1
  Te  Te11  1  0.680781  0.522644  0.562998  1
  Te  Te12  1  0.055965  0.885349  0.004104  1
  Te  Te13  1  0.555965  0.385349  0.495896  1
  Te  Te14  1  0.575809  0.246333  0.748346  1
  Te  Te15  1  0.679320  0.099882  0.811813  1
  As  As16  1  0.745039  0.501617  0.731911  1
  As  As17  1  0.230847  0.338982  0.627337  1
  As  As18  1  0.754961  0.501617  0.231911  1
  As  As19  1  0.269153  0.338982  0.127337  1
  As  As20  1  0.208679  0.294685  0.386424  1
  As  As21  1  0.252509  0.628941  0.521571  1
  As  As22  1  0.247491  0.628941  0.021571  1
  As  As23  1  0.708679  0.794685  0.113576  1
  As  As24  1  0.791321  0.794685  0.613576  1
  As  As25  1  0.254961  0.001617  0.268089  1
  As  As26  1  0.291321  0.294685  0.886424  1
  As  As27  1  0.245039  0.001617  0.768089  1
  As  As28  1  0.747491  0.128941  0.478429  1
  As  As29  1  0.752509  0.128941  0.978429  1
  As  As30  1  0.730847  0.838982  0.872663  1
  As  As31  1  0.769153  0.838982  0.372663  1
  Se  Se32  1  0.644977  0.109113  0.173692  1
  Se  Se33  1  0.817661  0.380491  0.540680  1
  Se  Se34  1  0.627676  0.503169  0.927951  1
  Se  Se35  1  0.276095  0.116733  0.018988  1
  Se  Se36  1  0.355023  0.609113  0.826308  1
  Se  Se37  1  0.658376  0.233167  0.289037  1
  Se  Se38  1  0.745825  0.000892  0.728236  1
  Se  Se39  1  0.130160  0.681167  0.849210  1
  Se  Se40  1  0.723905  0.616733  0.981012  1
  Se  Se41  1  0.341624  0.733167  0.710963  1
  Se  Se42  1  0.135466  0.949710  0.099091  1
  Se  Se43  1  0.127676  0.003169  0.572049  1
  Se  Se44  1  0.369840  0.681167  0.349210  1
  Se  Se45  1  0.872324  0.503169  0.427951  1
  Se  Se46  1  0.245825  0.500892  0.771764  1
  Se  Se47  1  0.182339  0.880491  0.459320  1
  Se  Se48  1  0.682339  0.380491  0.040680  1
  Se  Se49  1  0.635466  0.449710  0.400909  1
  Se  Se50  1  0.869840  0.181167  0.150790  1
  Se  Se51  1  0.776095  0.616733  0.481012  1
  Se  Se52  1  0.144977  0.609113  0.326308  1
  Se  Se53  1  0.158376  0.733167  0.210963  1
  Se  Se54  1  0.364534  0.949710  0.599091  1
  Se  Se55  1  0.372324  0.003169  0.072049  1
  Se  Se56  1  0.855023  0.109113  0.673692  1
  Se  Se57  1  0.317661  0.880491  0.959320  1
  Se  Se58  1  0.630160  0.181167  0.650790  1
  Se  Se59  1  0.254175  0.500892  0.271764  1
  Se  Se60  1  0.864534  0.449710  0.900909  1
  Se  Se61  1  0.754175  0.000892  0.228236  1
  Se  Se62  1  0.223905  0.116733  0.518988  1
  Se  Se63  1  0.841624  0.233167  0.789037  1
  F  F64  1  0.905465  0.753738  0.373348  1
  F  F65  1  0.881974  0.804999  0.548936  1
  F  F66  1  0.163576  0.377396  0.563090  1
  F  F67  1  0.874488  0.479624  0.289115  1
  F  F68  1  0.301810  0.286693  0.321898  1
  F  F69  1  0.777178  0.228068  0.442021  1
  F  F70  1  0.143167  0.231638  0.917977  1
  F  F71  1  0.135335  0.271076  0.092296  1
  F  F72  1  0.589308  0.177831  0.512568  1
  F  F73  1  0.867822  0.923688  0.870847  1
  F  F74  1  0.107000  0.197312  0.372405  1
  F  F75  1  0.062049  0.357427  0.354824  1
  F  F76  1  0.893000  0.697312  0.627595  1
  F  F77  1  0.314896  0.391961  0.400656  1
  F  F78  1  0.663576  0.877396  0.936910  1
  F  F79  1  0.722822  0.228068  0.942021  1
  F  F80  1  0.185104  0.391961  0.900656  1
  F  F81  1  0.089308  0.677831  0.987432  1
  F  F82  1  0.856833  0.731638  0.082023  1
  F  F83  1  0.333217  0.088132  0.731751  1
  F  F84  1  0.391734  0.073278  0.296550  1
  F  F85  1  0.336424  0.377396  0.063090  1
  F  F86  1  0.367822  0.423688  0.629153  1
  F  F87  1  0.635335  0.771077  0.407704  1
  F  F88  1  0.211879  0.530513  0.985644  1
  F  F89  1  0.365559  0.022524  0.826155  1
  F  F90  1  0.101387  0.408143  0.662786  1
  F  F91  1  0.222822  0.728068  0.557979  1
  F  F92  1  0.937951  0.857427  0.645176  1
  F  F93  1  0.836424  0.877396  0.436910  1
  F  F94  1  0.800971  0.799244  0.807751  1
  F  F95  1  0.608266  0.573278  0.703450  1
  F  F96  1  0.339049  0.913311  0.305613  1
  F  F97  1  0.198190  0.286693  0.821898  1
  F  F98  1  0.288121  0.530513  0.485644  1
  F  F99  1  0.122937  0.594409  0.076164  1
  F  F100  1  0.864665  0.771077  0.907704  1
  F  F101  1  0.839049  0.413311  0.194387  1
  F  F102  1  0.393000  0.197312  0.872405  1
  F  F103  1  0.094535  0.253738  0.626652  1
  F  F104  1  0.660951  0.413311  0.694387  1
  F  F105  1  0.405465  0.253738  0.126652  1
  F  F106  1  0.108266  0.073278  0.796550  1
  F  F107  1  0.699029  0.799244  0.307751  1
  F  F108  1  0.562049  0.857427  0.145176  1
  F  F109  1  0.877063  0.094409  0.923836  1
  F  F110  1  0.711879  0.030513  0.514356  1
  F  F111  1  0.199029  0.299244  0.192249  1
  F  F112  1  0.618026  0.804999  0.048936  1
  F  F113  1  0.788121  0.030513  0.014356  1
  F  F114  1  0.898613  0.908143  0.337214  1
  F  F115  1  0.865559  0.522524  0.673845  1
  F  F116  1  0.622937  0.094409  0.423836  1
  F  F117  1  0.118530  0.927567  0.240942  1
  F  F118  1  0.356833  0.231638  0.417977  1
  F  F119  1  0.381974  0.304999  0.951064  1
  F  F120  1  0.398613  0.408143  0.162785  1
  F  F121  1  0.901638  0.080517  0.443098  1
  F  F122  1  0.801809  0.786693  0.178102  1
  F  F123  1  0.625512  0.479624  0.789115  1
  F  F124  1  0.881470  0.427567  0.759058  1
  F  F125  1  0.160951  0.913311  0.805613  1
  F  F126  1  0.607000  0.697312  0.127595  1
  F  F127  1  0.377063  0.594409  0.576164  1
  F  F128  1  0.634441  0.522524  0.173845  1
  F  F129  1  0.910692  0.177831  0.012568  1
  F  F130  1  0.891734  0.573278  0.203450  1
  F  F131  1  0.098362  0.580517  0.556902  1
  F  F132  1  0.594535  0.753738  0.873348  1
  F  F133  1  0.368101  0.664934  0.967344  1
  F  F134  1  0.698191  0.786693  0.678102  1
  F  F135  1  0.601387  0.908143  0.837214  1
  F  F136  1  0.125512  0.979624  0.710885  1
  F  F137  1  0.631899  0.164934  0.032656  1
  F  F138  1  0.364665  0.271076  0.592296  1
  F  F139  1  0.374488  0.979624  0.210885  1
  F  F140  1  0.814896  0.891961  0.099344  1
  F  F141  1  0.132178  0.423688  0.129153  1
  F  F142  1  0.437951  0.357427  0.854824  1
  F  F143  1  0.685104  0.891961  0.599344  1
  F  F144  1  0.277178  0.728068  0.057979  1
  F  F145  1  0.134441  0.022524  0.326155  1
  F  F146  1  0.401638  0.580517  0.056902  1
  F  F147  1  0.300971  0.299244  0.692249  1
  F  F148  1  0.598362  0.080517  0.943098  1
  F  F149  1  0.833217  0.588132  0.768249  1
  F  F150  1  0.632178  0.923688  0.370847  1
  F  F151  1  0.166783  0.088132  0.231751  1
  F  F152  1  0.643167  0.731638  0.582023  1
  F  F153  1  0.666783  0.588132  0.268249  1
  F  F154  1  0.618530  0.427567  0.259058  1
  F  F155  1  0.118026  0.304999  0.451064  1
  F  F156  1  0.131899  0.664934  0.467344  1
  F  F157  1  0.410692  0.677831  0.487432  1
  F  F158  1  0.381470  0.927567  0.740942  1
  F  F159  1  0.868101  0.164934  0.532656  1
