# generated using pymatgen
data_SiO2
_symmetry_space_group_name_H-M   'P 1'
_cell_length_a   18.38454397
_cell_length_b   20.67644161
_cell_length_c   7.58653333
_cell_angle_alpha   90.00000000
_cell_angle_beta   90.00000000
_cell_angle_gamma   90.00000000
_symmetry_Int_Tables_number   1
_chemical_formula_structural   SiO2
_chemical_formula_sum   'Si48 O96'
_cell_volume   2883.84577522
_cell_formula_units_Z   48
loop_
 _symmetry_equiv_pos_site_id
 _symmetry_equiv_pos_as_xyz
  1  'x, y, z'
loop_
 _atom_site_type_symbol
 _atom_site_label
 _atom_site_symmetry_multiplicity
 _atom_site_fract_x
 _atom_site_fract_y
 _atom_site_fract_z
 _atom_site_occupancy
  Si  Si0  1  0.305698  0.073625  0.043434  1
  Si  Si1  1  0.305698  0.926375  0.956566  1
  Si  Si2  1  0.694302  0.073625  0.456566  1
  Si  Si3  1  0.694302  0.926375  0.543434  1
  Si  Si4  1  0.694302  0.926375  0.956566  1
  Si  Si5  1  0.694302  0.073625  0.043434  1
  Si  Si6  1  0.305698  0.926375  0.543434  1
  Si  Si7  1  0.305698  0.073625  0.456566  1
  Si  Si8  1  0.805698  0.573625  0.043434  1
  Si  Si9  1  0.805698  0.426375  0.956566  1
  Si  Si10  1  0.194302  0.573625  0.456566  1
  Si  Si11  1  0.194302  0.426375  0.543434  1
  Si  Si12  1  0.194302  0.426375  0.956566  1
  Si  Si13  1  0.194302  0.573625  0.043434  1
  Si  Si14  1  0.805698  0.426375  0.543434  1
  Si  Si15  1  0.805698  0.573625  0.456566  1
  Si  Si16  1  0.302799  0.310687  0.043878  1
  Si  Si17  1  0.302799  0.689313  0.956122  1
  Si  Si18  1  0.697201  0.310687  0.456122  1
  Si  Si19  1  0.697201  0.689313  0.543878  1
  Si  Si20  1  0.697201  0.689313  0.956122  1
  Si  Si21  1  0.697201  0.310687  0.043878  1
  Si  Si22  1  0.302799  0.689313  0.543878  1
  Si  Si23  1  0.302799  0.310687  0.456122  1
  Si  Si24  1  0.802799  0.810687  0.043878  1
  Si  Si25  1  0.802799  0.189313  0.956122  1
  Si  Si26  1  0.197201  0.810687  0.456122  1
  Si  Si27  1  0.197201  0.189313  0.543878  1
  Si  Si28  1  0.197201  0.189313  0.956122  1
  Si  Si29  1  0.197201  0.810687  0.043878  1
  Si  Si30  1  0.802799  0.189313  0.543878  1
  Si  Si31  1  0.802799  0.810687  0.456122  1
  Si  Si32  1  0.084734  0.379161  0.250000  1
  Si  Si33  1  0.084734  0.620839  0.750000  1
  Si  Si34  1  0.915266  0.379161  0.250000  1
  Si  Si35  1  0.915266  0.620839  0.750000  1
  Si  Si36  1  0.584734  0.879161  0.250000  1
  Si  Si37  1  0.584734  0.120839  0.750000  1
  Si  Si38  1  0.415266  0.879161  0.250000  1
  Si  Si39  1  0.415266  0.120839  0.750000  1
  Si  Si40  1  0.084835  0.222689  0.250000  1
  Si  Si41  1  0.084835  0.777311  0.750000  1
  Si  Si42  1  0.915165  0.222689  0.250000  1
  Si  Si43  1  0.915165  0.777311  0.750000  1
  Si  Si44  1  0.584835  0.722689  0.250000  1
  Si  Si45  1  0.584835  0.277311  0.750000  1
  Si  Si46  1  0.415165  0.722689  0.250000  1
  Si  Si47  1  0.415165  0.277311  0.750000  1
  O  O48  1  0.280425  0.000000  0.000000  1
  O  O49  1  0.719575  0.000000  0.500000  1
  O  O50  1  0.719575  0.000000  0.000000  1
  O  O51  1  0.280425  0.000000  0.500000  1
  O  O52  1  0.780425  0.500000  0.000000  1
  O  O53  1  0.219575  0.500000  0.500000  1
  O  O54  1  0.219575  0.500000  0.000000  1
  O  O55  1  0.780425  0.500000  0.500000  1
  O  O56  1  0.327471  0.079718  0.250000  1
  O  O57  1  0.327471  0.920282  0.750000  1
  O  O58  1  0.672529  0.079718  0.250000  1
  O  O59  1  0.672529  0.920282  0.750000  1
  O  O60  1  0.827471  0.579718  0.250000  1
  O  O61  1  0.827471  0.420282  0.750000  1
  O  O62  1  0.172529  0.579718  0.250000  1
  O  O63  1  0.172529  0.420282  0.750000  1
  O  O64  1  0.376233  0.092351  0.925266  1
  O  O65  1  0.376233  0.907649  0.074734  1
  O  O66  1  0.623767  0.092351  0.574734  1
  O  O67  1  0.623767  0.907649  0.425266  1
  O  O68  1  0.623767  0.907649  0.074734  1
  O  O69  1  0.623767  0.092351  0.925266  1
  O  O70  1  0.376233  0.907649  0.425266  1
  O  O71  1  0.376233  0.092351  0.574734  1
  O  O72  1  0.876233  0.592351  0.925266  1
  O  O73  1  0.876233  0.407649  0.074734  1
  O  O74  1  0.123767  0.592351  0.574734  1
  O  O75  1  0.123767  0.407649  0.425266  1
  O  O76  1  0.123767  0.407649  0.074734  1
  O  O77  1  0.123767  0.592351  0.925266  1
  O  O78  1  0.876233  0.407649  0.425266  1
  O  O79  1  0.876233  0.592351  0.574734  1
  O  O80  1  0.238697  0.122018  0.999132  1
  O  O81  1  0.238697  0.877982  0.000868  1
  O  O82  1  0.761303  0.122018  0.500868  1
  O  O83  1  0.761303  0.877982  0.499132  1
  O  O84  1  0.761303  0.877982  0.000868  1
  O  O85  1  0.761303  0.122018  0.999132  1
  O  O86  1  0.238697  0.877982  0.499132  1
  O  O87  1  0.238697  0.122018  0.500868  1
  O  O88  1  0.738697  0.622018  0.999132  1
  O  O89  1  0.738697  0.377982  0.000868  1
  O  O90  1  0.261303  0.622018  0.500868  1
  O  O91  1  0.261303  0.377982  0.499132  1
  O  O92  1  0.261303  0.377982  0.000868  1
  O  O93  1  0.261303  0.622018  0.999132  1
  O  O94  1  0.738697  0.377982  0.499132  1
  O  O95  1  0.738697  0.622018  0.500868  1
  O  O96  1  0.325840  0.308887  0.250000  1
  O  O97  1  0.325840  0.691113  0.750000  1
  O  O98  1  0.674160  0.308887  0.250000  1
  O  O99  1  0.674160  0.691113  0.750000  1
  O  O100  1  0.825840  0.808887  0.250000  1
  O  O101  1  0.825840  0.191113  0.750000  1
  O  O102  1  0.174160  0.808887  0.250000  1
  O  O103  1  0.174160  0.191113  0.750000  1
  O  O104  1  0.250000  0.250000  0.000000  1
  O  O105  1  0.250000  0.750000  0.000000  1
  O  O106  1  0.750000  0.250000  0.500000  1
  O  O107  1  0.750000  0.750000  0.500000  1
  O  O108  1  0.750000  0.750000  0.000000  1
  O  O109  1  0.750000  0.250000  0.000000  1
  O  O110  1  0.250000  0.750000  0.500000  1
  O  O111  1  0.250000  0.250000  0.500000  1
  O  O112  1  0.376128  0.306019  0.925046  1
  O  O113  1  0.376128  0.693981  0.074954  1
  O  O114  1  0.623872  0.306019  0.574954  1
  O  O115  1  0.623872  0.693981  0.425046  1
  O  O116  1  0.623872  0.693981  0.074954  1
  O  O117  1  0.623872  0.306019  0.925046  1
  O  O118  1  0.376128  0.693981  0.425046  1
  O  O119  1  0.376128  0.306019  0.574954  1
  O  O120  1  0.876128  0.806019  0.925046  1
  O  O121  1  0.876128  0.193981  0.074954  1
  O  O122  1  0.123872  0.806019  0.574954  1
  O  O123  1  0.123872  0.193981  0.425046  1
  O  O124  1  0.123872  0.193981  0.074954  1
  O  O125  1  0.123872  0.806019  0.925046  1
  O  O126  1  0.876128  0.193981  0.425046  1
  O  O127  1  0.876128  0.806019  0.574954  1
  O  O128  1  0.000000  0.400905  0.250000  1
  O  O129  1  0.000000  0.599095  0.750000  1
  O  O130  1  0.500000  0.900905  0.250000  1
  O  O131  1  0.500000  0.099095  0.750000  1
  O  O132  1  0.090879  0.300861  0.250000  1
  O  O133  1  0.090879  0.699139  0.750000  1
  O  O134  1  0.909121  0.300861  0.250000  1
  O  O135  1  0.909121  0.699139  0.750000  1
  O  O136  1  0.590879  0.800861  0.250000  1
  O  O137  1  0.590879  0.199139  0.750000  1
  O  O138  1  0.409121  0.800861  0.250000  1
  O  O139  1  0.409121  0.199139  0.750000  1
  O  O140  1  0.000000  0.200839  0.250000  1
  O  O141  1  0.000000  0.799161  0.750000  1
  O  O142  1  0.500000  0.700839  0.250000  1
  O  O143  1  0.500000  0.299161  0.750000  1
