# generated using pymatgen
data_P4H35C4(NO)16
_symmetry_space_group_name_H-M   'P 1'
_cell_length_a   13.98107509
_cell_length_b   10.72976589
_cell_length_c   10.86593630
_cell_angle_alpha   53.89878536
_cell_angle_beta   41.41962500
_cell_angle_gamma   39.97694290
_symmetry_Int_Tables_number   1
_chemical_formula_structural   P4H35C4(NO)16
_chemical_formula_sum   'P4 H35 C4 N16 O16'
_cell_volume   692.43117748
_cell_formula_units_Z   1
loop_
 _symmetry_equiv_pos_site_id
 _symmetry_equiv_pos_as_xyz
  1  'x, y, z'
loop_
 _atom_site_type_symbol
 _atom_site_label
 _atom_site_symmetry_multiplicity
 _atom_site_fract_x
 _atom_site_fract_y
 _atom_site_fract_z
 _atom_site_occupancy
  P  P0  1  0.221775  0.240809  0.015721  1
  P  P1  1  0.724633  0.244734  0.008422  1
  P  P2  1  0.278225  0.759191  0.984279  1
  P  P3  1  0.775367  0.755266  0.991578  1
  H  H4  1  0.007056  0.990089  0.001576  1
  H  H5  1  0.048422  0.310055  0.372277  1
  H  H6  1  0.492944  0.009911  0.998424  1
  H  H7  1  0.332786  0.249585  0.170605  1
  H  H8  1  0.049100  0.226240  0.739479  1
  H  H9  1  0.406137  0.215402  0.272980  1
  H  H10  1  0.066544  0.709268  0.383586  1
  H  H11  1  0.339826  0.067505  0.646178  1
  H  H12  1  0.750000  0.000000  0.000000  1
  H  H13  1  0.222393  0.301042  0.648676  1
  H  H14  1  0.061713  0.489534  0.839674  1
  H  H15  1  0.438287  0.510467  0.160326  1
  H  H16  1  0.277607  0.698958  0.351324  1
  H  H17  1  0.160174  0.932495  0.353822  1
  H  H18  1  0.548029  0.310285  0.372692  1
  H  H19  1  0.433456  0.290732  0.616414  1
  H  H20  1  0.093863  0.784598  0.727020  1
  H  H21  1  0.450900  0.773760  0.260521  1
  H  H22  1  0.833322  0.248499  0.170691  1
  H  H23  1  0.167214  0.750415  0.829395  1
  H  H24  1  0.549240  0.225804  0.739132  1
  H  H25  1  0.909861  0.211744  0.270063  1
  H  H26  1  0.567351  0.708208  0.383672  1
  H  H27  1  0.451578  0.689945  0.627723  1
  H  H28  1  0.841951  0.068450  0.642406  1
  H  H29  1  0.721904  0.302844  0.647825  1
  H  H30  1  0.560703  0.490366  0.838345  1
  H  H31  1  0.939297  0.509634  0.161655  1
  H  H32  1  0.778096  0.697156  0.352175  1
  H  H33  1  0.658049  0.931550  0.357594  1
  H  H34  1  0.932649  0.291792  0.616328  1
  H  H35  1  0.590139  0.788256  0.729937  1
  H  H36  1  0.950760  0.774196  0.260868  1
  H  H37  1  0.666678  0.751501  0.829309  1
  H  H38  1  0.951971  0.689715  0.627308  1
  C  C39  1  0.170672  0.248898  0.457402  1
  C  C40  1  0.670991  0.249249  0.456952  1
  C  C41  1  0.329328  0.751102  0.542598  1
  C  C42  1  0.829009  0.750751  0.543048  1
  N  N43  1  0.050080  0.267720  0.483844  1
  N  N44  1  0.310898  0.243521  0.286583  1
  N  N45  1  0.150448  0.234712  0.606772  1
  N  N46  1  0.284915  0.198653  0.579648  1
  N  N47  1  0.215085  0.801347  0.420352  1
  N  N48  1  0.550132  0.267991  0.483782  1
  N  N49  1  0.349552  0.765288  0.393228  1
  N  N50  1  0.189102  0.756479  0.713417  1
  N  N51  1  0.810832  0.244611  0.286114  1
  N  N52  1  0.650483  0.234571  0.606722  1
  N  N53  1  0.449920  0.732280  0.516156  1
  N  N54  1  0.784061  0.200192  0.579573  1
  N  N55  1  0.715939  0.799808  0.420427  1
  N  N56  1  0.849517  0.765429  0.393278  1
  N  N57  1  0.689168  0.755389  0.713886  1
  N  N58  1  0.949868  0.732009  0.516218  1
  O  O59  1  0.197197  0.084954  0.111625  1
  O  O60  1  0.055903  0.412266  0.157909  1
  O  O61  1  0.106989  0.831624  0.024201  1
  O  O62  1  0.269978  0.666185  0.163905  1
  O  O63  1  0.705228  0.081965  0.094513  1
  O  O64  1  0.553313  0.406446  0.160651  1
  O  O65  1  0.230022  0.333815  0.836095  1
  O  O66  1  0.393011  0.168376  0.975799  1
  O  O67  1  0.610086  0.830030  0.022814  1
  O  O68  1  0.770350  0.662106  0.168442  1
  O  O69  1  0.444097  0.587734  0.842091  1
  O  O70  1  0.302803  0.915046  0.888375  1
  O  O71  1  0.729650  0.337894  0.831558  1
  O  O72  1  0.889914  0.169970  0.977186  1
  O  O73  1  0.946687  0.593554  0.839349  1
  O  O74  1  0.794772  0.918035  0.905487  1
