# generated using pymatgen
data_Na3Zr2Si2PO12
_symmetry_space_group_name_H-M   'P 1'
_cell_length_a   9.40378714
_cell_length_b   9.34918952
_cell_length_c   9.35798833
_cell_angle_alpha   58.86062053
_cell_angle_beta   58.87579172
_cell_angle_gamma   58.77138240
_symmetry_Int_Tables_number   1
_chemical_formula_structural   Na3Zr2Si2PO12
_chemical_formula_sum   'Na6 Zr4 Si4 P2 O24'
_cell_volume   566.29722928
_cell_formula_units_Z   2
loop_
 _symmetry_equiv_pos_site_id
 _symmetry_equiv_pos_as_xyz
  1  'x, y, z'
loop_
 _atom_site_type_symbol
 _atom_site_label
 _atom_site_symmetry_multiplicity
 _atom_site_fract_x
 _atom_site_fract_y
 _atom_site_fract_z
 _atom_site_occupancy
  Na  Na0  1  0.108189  0.391666  0.756594  1
  Na  Na1  1  0.378444  0.751387  0.120231  1
  Na  Na2  1  0.758324  0.102829  0.366227  1
  Na  Na3  1  0.483534  0.502621  0.525494  1
  Na  Na4  1  0.176095  0.957956  0.794920  1
  Na  Na5  1  0.890926  0.639645  0.243344  1
  Zr  Zr6  1  0.150826  0.147463  0.142262  1
  Zr  Zr7  1  0.354406  0.352620  0.346368  1
  Zr  Zr8  1  0.644495  0.643302  0.656166  1
  Zr  Zr9  1  0.850676  0.855029  0.852384  1
  Si  Si10  1  0.038196  0.743925  0.464202  1
  Si  Si11  1  0.464957  0.044586  0.744779  1
  Si  Si12  1  0.749481  0.464453  0.046604  1
  Si  Si13  1  0.252490  0.542482  0.948538  1
  P  P14  1  0.542787  0.949505  0.252752  1
  P  P15  1  0.958602  0.252055  0.538866  1
  O  O16  1  0.119042  0.280666  0.517911  1
  O  O17  1  0.286475  0.504238  0.123825  1
  O  O18  1  0.075470  0.919375  0.292596  1
  O  O19  1  0.506658  0.106678  0.298302  1
  O  O20  1  0.219389  0.569846  0.436063  1
  O  O21  1  0.000724  0.750483  0.652689  1
  O  O22  1  0.284573  0.065087  0.920440  1
  O  O23  1  0.429295  0.224811  0.575113  1
  O  O24  1  0.574478  0.429672  0.221065  1
  O  O25  1  0.213954  0.374296  0.981839  1
  O  O26  1  0.075760  0.723568  0.936589  1
  O  O27  1  0.382575  0.982935  0.217235  1
  O  O28  1  0.643619  0.013500  0.758911  1
  O  O29  1  0.920574  0.284826  0.078747  1
  O  O30  1  0.761369  0.641753  0.028798  1
  O  O31  1  0.421810  0.572520  0.766895  1
  O  O32  1  0.572622  0.772748  0.410482  1
  O  O33  1  0.712391  0.931796  0.088859  1
  O  O34  1  0.999507  0.220629  0.372714  1
  O  O35  1  0.793041  0.422333  0.548077  1
  O  O36  1  0.486192  0.868835  0.724161  1
  O  O37  1  0.933523  0.088660  0.706569  1
  O  O38  1  0.734560  0.501316  0.862265  1
  O  O39  1  0.865972  0.727104  0.476825  1
