# generated using pymatgen
data_Ba3MgNb2O9
_symmetry_space_group_name_H-M   'P 1'
_cell_length_a   5.87249861
_cell_length_b   5.87249861
_cell_length_c   7.20865874
_cell_angle_alpha   90.00000000
_cell_angle_beta   90.00000000
_cell_angle_gamma   120.00000004
_symmetry_Int_Tables_number   1
_chemical_formula_structural   Ba3MgNb2O9
_chemical_formula_sum   'Ba3 Mg1 Nb2 O9'
_cell_volume   215.29351254
_cell_formula_units_Z   1
loop_
 _symmetry_equiv_pos_site_id
 _symmetry_equiv_pos_as_xyz
  1  'x, y, z'
loop_
 _atom_site_type_symbol
 _atom_site_label
 _atom_site_symmetry_multiplicity
 _atom_site_fract_x
 _atom_site_fract_y
 _atom_site_fract_z
 _atom_site_occupancy
  O  O0  1  0.829004  0.170996  0.673478  1
  O  O1  1  0.829004  0.658008  0.673478  1
  O  O2  1  0.341993  0.170996  0.673478  1
  O  O3  1  0.658008  0.829004  0.326523  1
  O  O4  1  0.170996  0.341993  0.326523  1
  O  O5  1  0.170997  0.829004  0.326523  1
  O  O6  1  0.500000  0.000000  0.000000  1
  O  O7  1  0.500000  0.499999  0.000000  1
  O  O8  1  1.000000  0.499999  0.000000  1
  Mg  Mg9  1  0.000000  0.000000  0.500000  1
  Nb  Nb10  1  0.333334  0.666667  0.178525  1
  Nb  Nb11  1  0.666667  0.333334  0.821475  1
  Ba  Ba12  1  0.000000  0.000000  0.000000  1
  Ba  Ba13  1  0.333334  0.666667  0.666606  1
  Ba  Ba14  1  0.666667  0.333334  0.333393  1
