# generated using pymatgen
data_Zn(InS2)2
_symmetry_space_group_name_H-M   'P 1'
_cell_length_a   12.78693296
_cell_length_b   25.66635798
_cell_length_c   25.35818876
_cell_angle_alpha   8.88762307
_cell_angle_beta   15.20588650
_cell_angle_gamma   17.55968721
_symmetry_Int_Tables_number   1
_chemical_formula_structural   Zn(InS2)2
_chemical_formula_sum   'Zn2 In4 S8'
_cell_volume   337.24675052
_cell_formula_units_Z   2
loop_
 _symmetry_equiv_pos_site_id
 _symmetry_equiv_pos_as_xyz
  1  'x, y, z'
loop_
 _atom_site_type_symbol
 _atom_site_label
 _atom_site_symmetry_multiplicity
 _atom_site_fract_x
 _atom_site_fract_y
 _atom_site_fract_z
 _atom_site_occupancy
  Zn  Zn0  1  0.223584  0.000000  0.237313  1
  Zn  Zn1  1  0.776416  0.000000  0.762687  1
  In  In2  1  0.000000  0.000000  0.000000  1
  In  In3  1  0.241084  0.500000  0.222704  1
  In  In4  1  0.000000  0.500000  0.000000  1
  In  In5  1  0.758916  0.500000  0.777296  1
  S  S6  1  0.157921  0.000000  0.109213  1
  S  S7  1  0.085156  0.500000  0.142351  1
  S  S8  1  0.292281  0.500000  0.298914  1
  S  S9  1  0.704078  0.000000  0.703072  1
  S  S10  1  0.295922  0.000000  0.296928  1
  S  S11  1  0.707719  0.500000  0.701086  1
  S  S12  1  0.914844  0.500000  0.857649  1
  S  S13  1  0.842079  0.000000  0.890787  1
