# generated using pymatgen
data_XeF6
_symmetry_space_group_name_H-M   'P 1'
_cell_length_a   13.46009831
_cell_length_b   13.62409818
_cell_length_c   13.95175463
_cell_angle_alpha   63.84211260
_cell_angle_beta   61.15903020
_cell_angle_gamma   60.39740252
_symmetry_Int_Tables_number   1
_chemical_formula_structural   XeF6
_chemical_formula_sum   'Xe16 F96'
_cell_volume   1878.43501557
_cell_formula_units_Z   16
loop_
 _symmetry_equiv_pos_site_id
 _symmetry_equiv_pos_as_xyz
  1  'x, y, z'
loop_
 _atom_site_type_symbol
 _atom_site_label
 _atom_site_symmetry_multiplicity
 _atom_site_fract_x
 _atom_site_fract_y
 _atom_site_fract_z
 _atom_site_occupancy
  Xe  Xe0  1  0.768825  0.095363  0.986833  1
  Xe  Xe1  1  0.697150  0.575077  0.787604  1
  Xe  Xe2  1  0.117195  0.286078  0.967922  1
  Xe  Xe3  1  0.468766  0.524955  0.710141  1
  Xe  Xe4  1  0.628804  0.786078  0.467922  1
  Xe  Xe5  1  0.882805  0.713922  0.032078  1
  Xe  Xe6  1  0.703862  0.975045  0.789859  1
  Xe  Xe7  1  0.231175  0.904637  0.013167  1
  Xe  Xe8  1  0.940168  0.075077  0.287604  1
  Xe  Xe9  1  0.302850  0.424923  0.212396  1
  Xe  Xe10  1  0.148980  0.595363  0.486833  1
  Xe  Xe11  1  0.059832  0.924923  0.712396  1
  Xe  Xe12  1  0.371196  0.213922  0.532078  1
  Xe  Xe13  1  0.851020  0.404637  0.513167  1
  Xe  Xe14  1  0.296138  0.024955  0.210141  1
  Xe  Xe15  1  0.531234  0.475045  0.289859  1
  F  F16  1  0.445579  0.996790  0.229428  1
  F  F17  1  0.662498  0.382425  0.178829  1
  F  F18  1  0.910089  0.147350  0.884269  1
  F  F19  1  0.824485  0.052981  0.445965  1
  F  F20  1  0.320212  0.559197  0.307860  1
  F  F21  1  0.526910  0.618231  0.159283  1
  F  F22  1  0.149865  0.375192  0.024505  1
  F  F23  1  0.585978  0.343992  0.416655  1
  F  F24  1  0.209346  0.398684  0.393083  1
  F  F25  1  0.375997  0.055516  0.635511  1
  F  F26  1  0.344264  0.151820  0.443567  1
  F  F27  1  0.994648  0.710762  0.558044  1
  F  F28  1  0.850135  0.624808  0.975495  1
  F  F29  1  0.346624  0.156008  0.083345  1
  F  F30  1  0.679788  0.440803  0.692140  1
  F  F31  1  0.755137  0.910831  0.021257  1
  F  F32  1  0.450438  0.875192  0.524505  1
  F  F33  1  0.210422  0.880408  0.739864  1
  F  F34  1  0.941708  0.352650  0.615731  1
  F  F35  1  0.130591  0.759146  0.703914  1
  F  F36  1  0.187269  0.940803  0.192140  1
  F  F37  1  0.385953  0.911930  0.887421  1
  F  F38  1  0.001113  0.101316  0.106917  1
  F  F39  1  0.624003  0.944484  0.364489  1
  F  F40  1  0.143452  0.010586  0.902674  1
  F  F41  1  0.869409  0.240854  0.296086  1
  F  F42  1  0.554421  0.003210  0.770572  1
  F  F43  1  0.420696  0.922575  0.104901  1
  F  F44  1  0.655736  0.848180  0.556433  1
  F  F45  1  0.776247  0.882425  0.678829  1
  F  F46  1  0.072865  0.251135  0.872168  1
  F  F47  1  0.614047  0.088070  0.112579  1
  F  F48  1  0.671797  0.503210  0.270572  1
  F  F49  1  0.196167  0.248865  0.627832  1
  F  F50  1  0.328203  0.496790  0.729428  1
  F  F51  1  0.789578  0.119592  0.260136  1
  F  F52  1  0.113935  0.173286  0.169486  1
  F  F53  1  0.005352  0.289238  0.441956  1
  F  F54  1  0.951969  0.976013  0.619892  1
  F  F55  1  0.263454  0.789238  0.941956  1
  F  F56  1  0.312774  0.410831  0.521257  1
  F  F57  1  0.790654  0.601316  0.606917  1
  F  F58  1  0.058292  0.647350  0.384269  1
  F  F59  1  0.939651  0.348180  0.056433  1
  F  F60  1  0.856548  0.989414  0.097326  1
  F  F61  1  0.067024  0.444484  0.864489  1
  F  F62  1  0.998887  0.898684  0.893083  1
  F  F63  1  0.323431  0.447019  0.054035  1
  F  F64  1  0.927135  0.748865  0.127832  1
  F  F65  1  0.813863  0.410234  0.816990  1
  F  F66  1  0.932976  0.555516  0.135511  1
  F  F67  1  0.276016  0.284870  0.845239  1
  F  F68  1  0.337502  0.617575  0.821171  1
  F  F69  1  0.943287  0.510586  0.402674  1
  F  F70  1  0.723984  0.715130  0.154761  1
  F  F71  1  0.809437  0.260735  0.595000  1
  F  F72  1  0.406349  0.259146  0.203914  1
  F  F73  1  0.579304  0.077425  0.895099  1
  F  F74  1  0.814696  0.411930  0.387421  1
  F  F75  1  0.185304  0.588070  0.612579  1
  F  F76  1  0.676569  0.552981  0.945965  1
  F  F77  1  0.048031  0.023987  0.380108  1
  F  F78  1  0.830695  0.619592  0.760136  1
  F  F79  1  0.223753  0.117575  0.321171  1
  F  F80  1  0.593875  0.784870  0.345239  1
  F  F81  1  0.549562  0.124808  0.475495  1
  F  F82  1  0.551827  0.422575  0.604901  1
  F  F83  1  0.456708  0.326714  0.330514  1
  F  F84  1  0.452126  0.476013  0.119892  1
  F  F85  1  0.186137  0.589766  0.183010  1
  F  F86  1  0.547874  0.523987  0.880108  1
  F  F87  1  0.886065  0.826714  0.830514  1
  F  F88  1  0.665172  0.239265  0.905000  1
  F  F89  1  0.406125  0.215130  0.654761  1
  F  F90  1  0.687226  0.589169  0.478743  1
  F  F91  1  0.190563  0.739265  0.405000  1
  F  F92  1  0.543292  0.673286  0.669486  1
  F  F93  1  0.169305  0.380408  0.239864  1
  F  F94  1  0.695577  0.118231  0.659283  1
  F  F95  1  0.060349  0.651820  0.943567  1
  F  F96  1  0.089911  0.852650  0.115731  1
  F  F97  1  0.304423  0.881769  0.340717  1
  F  F98  1  0.334828  0.760735  0.095000  1
  F  F99  1  0.414022  0.656008  0.583345  1
  F  F100  1  0.593651  0.740854  0.796086  1
  F  F101  1  0.244863  0.089169  0.978743  1
  F  F102  1  0.448173  0.577425  0.395099  1
  F  F103  1  0.958914  0.910234  0.316990  1
  F  F104  1  0.175515  0.947019  0.554035  1
  F  F105  1  0.056713  0.489414  0.597326  1
  F  F106  1  0.736546  0.210762  0.058044  1
  F  F107  1  0.041086  0.089766  0.683010  1
  F  F108  1  0.653376  0.843992  0.916655  1
  F  F109  1  0.812731  0.059197  0.807860  1
  F  F110  1  0.473090  0.381769  0.840717  1
  F  F111  1  0.803833  0.751135  0.372168  1
