# generated using pymatgen
data_MnAl2Sb2(PO4)6
_symmetry_space_group_name_H-M   'P 1'
_cell_length_a   8.62729915
_cell_length_b   17.23865415
_cell_length_c   14.96680413
_cell_angle_alpha   29.74849267
_cell_angle_beta   54.19088184
_cell_angle_gamma   59.47067768
_symmetry_Int_Tables_number   1
_chemical_formula_structural   MnAl2Sb2(PO4)6
_chemical_formula_sum   'Mn2 Al4 Sb4 P12 O48'
_cell_volume   895.70227205
_cell_formula_units_Z   2
loop_
 _symmetry_equiv_pos_site_id
 _symmetry_equiv_pos_as_xyz
  1  'x, y, z'
loop_
 _atom_site_type_symbol
 _atom_site_label
 _atom_site_symmetry_multiplicity
 _atom_site_fract_x
 _atom_site_fract_y
 _atom_site_fract_z
 _atom_site_occupancy
  Mn  Mn0  1  0.000000  0.000000  0.000000  1
  Mn  Mn1  1  0.500000  0.500000  0.500000  1
  Al  Al2  1  0.147745  0.998870  0.142994  1
  Al  Al3  1  0.352255  0.498870  0.359265  1
  Al  Al4  1  0.852255  0.001130  0.857006  1
  Al  Al5  1  0.647745  0.501130  0.640735  1
  Sb  Sb6  1  0.359924  0.000831  0.355438  1
  Sb  Sb7  1  0.140076  0.500831  0.142901  1
  Sb  Sb8  1  0.859924  0.499169  0.857099  1
  Sb  Sb9  1  0.640076  0.999169  0.644562  1
  P  P10  1  0.038920  0.141723  0.468138  1
  P  P11  1  0.754173  0.211057  0.031546  1
  P  P12  1  0.538920  0.358277  0.251583  1
  P  P13  1  0.040685  0.647042  0.453080  1
  P  P14  1  0.459315  0.147042  0.752837  1
  P  P15  1  0.745827  0.711057  0.046339  1
  P  P16  1  0.254173  0.288943  0.953661  1
  P  P17  1  0.540685  0.852958  0.247163  1
  P  P18  1  0.959315  0.352958  0.546921  1
  P  P19  1  0.461080  0.641723  0.748417  1
  P  P20  1  0.245827  0.788943  0.968454  1
  P  P21  1  0.961080  0.858277  0.531862  1
  O  O22  1  0.290043  0.196820  0.122102  1
  O  O23  1  0.060996  0.321290  0.276608  1
  O  O24  1  0.225559  0.068143  0.442903  1
  O  O25  1  0.000518  0.076652  0.637929  1
  O  O26  1  0.582902  0.107461  0.222736  1
  O  O27  1  0.372925  0.385597  0.212884  1
  O  O28  1  0.924098  0.103769  0.057675  1
  O  O29  1  0.131194  0.393977  0.504677  1
  O  O30  1  0.790043  0.303180  0.015742  1
  O  O31  1  0.289354  0.683849  0.137298  1
  O  O32  1  0.560996  0.178710  0.419188  1
  O  O33  1  0.060432  0.828040  0.265472  1
  O  O34  1  0.725559  0.431857  0.079189  1
  O  O35  1  0.500518  0.423348  0.291233  1
  O  O36  1  0.232295  0.570486  0.436516  1
  O  O37  1  0.020352  0.583145  0.621854  1
  O  O38  1  0.479648  0.083145  0.711855  1
  O  O39  1  0.267705  0.070486  0.922511  1
  O  O40  1  0.439568  0.328040  0.578447  1
  O  O41  1  0.575902  0.603769  0.234787  1
  O  O42  1  0.210646  0.183849  0.995004  1
  O  O43  1  0.872925  0.114403  0.484077  1
  O  O44  1  0.082902  0.392539  0.937658  1
  O  O45  1  0.368806  0.893977  0.207369  1
  O  O46  1  0.631194  0.106023  0.792631  1
  O  O47  1  0.917098  0.607461  0.062342  1
  O  O48  1  0.127075  0.885597  0.515923  1
  O  O49  1  0.789354  0.816151  0.004995  1
  O  O50  1  0.424098  0.396231  0.765213  1
  O  O51  1  0.560432  0.671960  0.421553  1
  O  O52  1  0.732295  0.929514  0.077489  1
  O  O53  1  0.520352  0.916855  0.288145  1
  O  O54  1  0.979648  0.416855  0.378146  1
  O  O55  1  0.767705  0.429514  0.563484  1
  O  O56  1  0.499482  0.576652  0.708767  1
  O  O57  1  0.274441  0.568143  0.920811  1
  O  O58  1  0.939568  0.171960  0.734528  1
  O  O59  1  0.439004  0.821290  0.580812  1
  O  O60  1  0.710646  0.316151  0.862702  1
  O  O61  1  0.209957  0.696820  0.984258  1
  O  O62  1  0.868806  0.606023  0.495323  1
  O  O63  1  0.075902  0.896231  0.942325  1
  O  O64  1  0.627075  0.614403  0.787116  1
  O  O65  1  0.417098  0.892539  0.777264  1
  O  O66  1  0.999482  0.923348  0.362071  1
  O  O67  1  0.774441  0.931857  0.557097  1
  O  O68  1  0.939004  0.678710  0.723392  1
  O  O69  1  0.709957  0.803180  0.877898  1
