# generated using pymatgen
data_KZn4(BO3)3
_symmetry_space_group_name_H-M   'P 1'
_cell_length_a   5.05523881
_cell_length_b   7.05019656
_cell_length_c   12.77338576
_cell_angle_alpha   94.02036487
_cell_angle_beta   90.00000000
_cell_angle_gamma   90.00000000
_symmetry_Int_Tables_number   1
_chemical_formula_structural   KZn4(BO3)3
_chemical_formula_sum   'K2 Zn8 B6 O18'
_cell_volume   454.12864646
_cell_formula_units_Z   2
loop_
 _symmetry_equiv_pos_site_id
 _symmetry_equiv_pos_as_xyz
  1  'x, y, z'
loop_
 _atom_site_type_symbol
 _atom_site_label
 _atom_site_symmetry_multiplicity
 _atom_site_fract_x
 _atom_site_fract_y
 _atom_site_fract_z
 _atom_site_occupancy
  B  B0  1  0.852852  0.185504  0.951263  1
  B  B1  1  0.852852  0.814496  0.548737  1
  B  B2  1  0.147148  0.814496  0.048737  1
  B  B3  1  0.147148  0.185504  0.451263  1
  B  B4  1  0.347041  0.500000  0.250000  1
  B  B5  1  0.652959  0.500000  0.750000  1
  O  O6  1  0.108172  0.260068  0.933259  1
  O  O7  1  0.108172  0.739932  0.566741  1
  O  O8  1  0.237598  0.967426  0.108169  1
  O  O9  1  0.237598  0.032574  0.391831  1
  O  O10  1  0.790103  0.408896  0.667380  1
  O  O11  1  0.790103  0.591104  0.832620  1
  O  O12  1  0.209897  0.591104  0.332620  1
  O  O13  1  0.209897  0.408896  0.167380  1
  O  O14  1  0.377637  0.500000  0.750000  1
  O  O15  1  0.622363  0.500000  0.250000  1
  O  O16  1  0.293452  0.275070  0.533474  1
  O  O17  1  0.293452  0.724930  0.966526  1
  O  O18  1  0.706548  0.724930  0.466526  1
  O  O19  1  0.706548  0.275070  0.033474  1
  O  O20  1  0.891828  0.260068  0.433259  1
  O  O21  1  0.891828  0.739932  0.066741  1
  O  O22  1  0.762402  0.967426  0.608169  1
  O  O23  1  0.762402  0.032574  0.891831  1
  K  K24  1  0.809432  0.000000  0.250000  1
  K  K25  1  0.190568  0.000000  0.750000  1
  Zn  Zn26  1  0.851199  0.488840  0.123316  1
  Zn  Zn27  1  0.851199  0.511160  0.376684  1
  Zn  Zn28  1  0.148801  0.511160  0.876684  1
  Zn  Zn29  1  0.148801  0.488840  0.623316  1
  Zn  Zn30  1  0.337957  0.209274  0.058542  1
  Zn  Zn31  1  0.337957  0.790726  0.441458  1
  Zn  Zn32  1  0.662043  0.790726  0.941458  1
  Zn  Zn33  1  0.662043  0.209274  0.558542  1
