# generated using pymatgen
data_Ba(HO)2
_symmetry_space_group_name_H-M   'P 1'
_cell_length_a   9.43556322
_cell_length_b   7.98054238
_cell_length_c   6.86099385
_cell_angle_alpha   90.00000000
_cell_angle_beta   96.00709831
_cell_angle_gamma   90.00000000
_symmetry_Int_Tables_number   1
_chemical_formula_structural   Ba(HO)2
_chemical_formula_sum   'Ba8 H16 O16'
_cell_volume   513.80219729
_cell_formula_units_Z   8
loop_
 _symmetry_equiv_pos_site_id
 _symmetry_equiv_pos_as_xyz
  1  'x, y, z'
loop_
 _atom_site_type_symbol
 _atom_site_label
 _atom_site_symmetry_multiplicity
 _atom_site_fract_x
 _atom_site_fract_y
 _atom_site_fract_z
 _atom_site_occupancy
  Ba  Ba0  1  0.896449  0.143434  0.248589  1
  Ba  Ba1  1  0.396449  0.356566  0.748589  1
  Ba  Ba2  1  0.103551  0.856566  0.751411  1
  Ba  Ba3  1  0.603551  0.643434  0.251411  1
  Ba  Ba4  1  0.318295  0.045457  0.283995  1
  Ba  Ba5  1  0.818295  0.454543  0.783995  1
  Ba  Ba6  1  0.681705  0.954543  0.716005  1
  Ba  Ba7  1  0.181705  0.545457  0.216005  1
  H  H8  1  0.617030  0.043210  0.193034  1
  H  H9  1  0.117030  0.456790  0.693034  1
  H  H10  1  0.382970  0.956790  0.806966  1
  H  H11  1  0.882970  0.543210  0.306966  1
  H  H12  1  0.020617  0.846588  0.223023  1
  H  H13  1  0.520617  0.653412  0.723023  1
  H  H14  1  0.979383  0.153413  0.776977  1
  H  H15  1  0.479383  0.346587  0.276977  1
  H  H16  1  0.865692  0.741428  0.050302  1
  H  H17  1  0.365692  0.758572  0.550302  1
  H  H18  1  0.134308  0.258572  0.949698  1
  H  H19  1  0.634308  0.241428  0.449698  1
  H  H20  1  0.407839  0.741060  0.950291  1
  H  H21  1  0.907839  0.758940  0.450291  1
  H  H22  1  0.592161  0.258940  0.049709  1
  H  H23  1  0.092161  0.241060  0.549709  1
  O  O24  1  0.623877  0.995470  0.324840  1
  O  O25  1  0.123877  0.504530  0.824839  1
  O  O26  1  0.376123  0.004530  0.675161  1
  O  O27  1  0.876123  0.495470  0.175160  1
  O  O28  1  0.081937  0.854126  0.349562  1
  O  O29  1  0.581937  0.645874  0.849562  1
  O  O30  1  0.918063  0.145874  0.650438  1
  O  O31  1  0.418063  0.354126  0.150438  1
  O  O32  1  0.893519  0.851307  0.003080  1
  O  O33  1  0.393519  0.648693  0.503080  1
  O  O34  1  0.106481  0.148693  0.996920  1
  O  O35  1  0.606481  0.351307  0.496920  1
  O  O36  1  0.340923  0.795917  0.029630  1
  O  O37  1  0.840923  0.704083  0.529630  1
  O  O38  1  0.659077  0.204083  0.970370  1
  O  O39  1  0.159077  0.295917  0.470370  1
