# generated using pymatgen
data_K4N2O5
_symmetry_space_group_name_H-M   'P 1'
_cell_length_a   5.48657133
_cell_length_b   5.48657113
_cell_length_c   14.87090523
_cell_angle_alpha   103.09159673
_cell_angle_beta   103.09159530
_cell_angle_gamma   92.74388026
_symmetry_Int_Tables_number   1
_chemical_formula_structural   K4N2O5
_chemical_formula_sum   'K8 N4 O10'
_cell_volume   422.35665076
_cell_formula_units_Z   2
loop_
 _symmetry_equiv_pos_site_id
 _symmetry_equiv_pos_as_xyz
  1  'x, y, z'
loop_
 _atom_site_type_symbol
 _atom_site_label
 _atom_site_symmetry_multiplicity
 _atom_site_fract_x
 _atom_site_fract_y
 _atom_site_fract_z
 _atom_site_occupancy
  K  K0  1  0.043385  0.474294  0.506130  1
  K  K1  1  0.310900  0.395118  0.825584  1
  K  K2  1  0.395118  0.310900  0.325584  1
  K  K3  1  0.525706  0.956615  0.493870  1
  K  K4  1  0.689100  0.604882  0.674416  1
  K  K5  1  0.474294  0.043385  0.006130  1
  K  K6  1  0.604882  0.689100  0.174416  1
  K  K7  1  0.956615  0.525706  0.993870  1
  N  N8  1  0.062580  0.994616  0.629921  1
  N  N9  1  0.994616  0.062580  0.129921  1
  N  N10  1  0.937420  0.005384  0.870079  1
  N  N11  1  0.005384  0.937420  0.370079  1
  O  O12  1  0.074884  0.830906  0.847384  1
  O  O13  1  0.473255  0.526745  1.000000  1
  O  O14  1  0.294059  0.071202  0.643443  1
  O  O15  1  0.071202  0.294059  0.143443  1
  O  O16  1  0.169094  0.925116  0.152616  1
  O  O17  1  0.705941  0.928798  0.856557  1
  O  O18  1  0.526745  0.473255  0.500000  1
  O  O19  1  0.925116  0.169094  0.652616  1
  O  O20  1  0.830906  0.074884  0.347384  1
  O  O21  1  0.928798  0.705941  0.356557  1
