# generated using pymatgen
data_Sm3Si2Ni
_symmetry_space_group_name_H-M   'P 1'
_cell_length_a   4.13178031
_cell_length_b   11.33005088
_cell_length_c   11.39442195
_cell_angle_alpha   89.99976114
_cell_angle_beta   90.00028412
_cell_angle_gamma   89.99971237
_symmetry_Int_Tables_number   1
_chemical_formula_structural   Sm3Si2Ni
_chemical_formula_sum   'Sm12 Si8 Ni4'
_cell_volume   533.41027813
_cell_formula_units_Z   4
loop_
 _symmetry_equiv_pos_site_id
 _symmetry_equiv_pos_as_xyz
  1  'x, y, z'
loop_
 _atom_site_type_symbol
 _atom_site_label
 _atom_site_symmetry_multiplicity
 _atom_site_fract_x
 _atom_site_fract_y
 _atom_site_fract_z
 _atom_site_occupancy
  Sm  Sm0  1  0.250000  0.375858  0.058174  1
  Sm  Sm1  1  0.749999  0.559280  0.617252  1
  Sm  Sm2  1  0.749998  0.196730  0.286034  1
  Sm  Sm3  1  0.249998  0.696728  0.213969  1
  Sm  Sm4  1  0.750000  0.624147  0.941817  1
  Sm  Sm5  1  0.749998  0.875854  0.441823  1
  Sm  Sm6  1  0.250001  0.803273  0.713980  1
  Sm  Sm7  1  0.249997  0.440717  0.382756  1
  Sm  Sm8  1  0.750000  0.303271  0.786025  1
  Sm  Sm9  1  0.250000  0.124148  0.558186  1
  Sm  Sm10  1  0.749999  0.940711  0.117243  1
  Sm  Sm11  1  0.250001  0.059280  0.882747  1
  Si  Si12  1  0.250000  0.493367  0.801231  1
  Si  Si13  1  0.250001  0.813847  0.972241  1
  Si  Si14  1  0.249999  0.686151  0.472246  1
  Si  Si15  1  0.749998  0.993369  0.698776  1
  Si  Si16  1  0.750000  0.506631  0.198767  1
  Si  Si17  1  0.250001  0.006627  0.301231  1
  Si  Si18  1  0.749999  0.186153  0.027750  1
  Si  Si19  1  0.750001  0.313849  0.527761  1
  Ni  Ni20  1  0.250003  0.133789  0.129018  1
  Ni  Ni21  1  0.750001  0.866218  0.870958  1
  Ni  Ni22  1  0.250001  0.366216  0.629038  1
  Ni  Ni23  1  0.750003  0.633788  0.370978  1
