# generated using pymatgen
data_Ga2NiO4
_symmetry_space_group_name_H-M   'P 1'
_cell_length_a   5.91552853
_cell_length_b   5.97109560
_cell_length_c   23.69271088
_cell_angle_alpha   59.73202938
_cell_angle_beta   59.68868904
_cell_angle_gamma   59.68877599
_symmetry_Int_Tables_number   1
_chemical_formula_structural   Ga2NiO4
_chemical_formula_sum   'Ga16 Ni8 O32'
_cell_volume   587.77220234
_cell_formula_units_Z   8
loop_
 _symmetry_equiv_pos_site_id
 _symmetry_equiv_pos_as_xyz
  1  'x, y, z'
loop_
 _atom_site_type_symbol
 _atom_site_label
 _atom_site_symmetry_multiplicity
 _atom_site_fract_x
 _atom_site_fract_y
 _atom_site_fract_z
 _atom_site_occupancy
  Ga  Ga0  1  0.263280  0.245475  0.061443  1
  Ga  Ga1  1  0.623421  0.119436  0.158127  1
  Ga  Ga2  1  0.630332  0.628676  0.028079  1
  Ga  Ga3  1  0.257205  0.241166  0.315116  1
  Ga  Ga4  1  0.623421  0.624633  0.158127  1
  Ga  Ga5  1  0.987369  0.005381  0.250467  1
  Ga  Ga6  1  0.623542  0.124359  0.406986  1
  Ga  Ga7  1  0.257672  0.241627  0.564768  1
  Ga  Ga8  1  0.993806  0.009774  0.746662  1
  Ga  Ga9  1  0.623542  0.624157  0.406986  1
  Ga  Ga10  1  0.624788  0.125173  0.656220  1
  Ga  Ga11  1  0.990792  0.007762  0.498421  1
  Ga  Ga12  1  0.258643  0.241356  0.814661  1
  Ga  Ga13  1  0.624788  0.625157  0.656220  1
  Ga  Ga14  1  0.629335  0.124400  0.904674  1
  Ga  Ga15  1  0.629335  0.627567  0.904674  1
  Ni  Ni16  1  0.993337  0.002540  0.000396  1
  Ni  Ni17  1  0.120859  0.623872  0.157849  1
  Ni  Ni18  1  0.124320  0.624349  0.406746  1
  Ni  Ni19  1  0.623917  0.624231  0.281906  1
  Ni  Ni20  1  0.125274  0.625245  0.656059  1
  Ni  Ni21  1  0.624850  0.624831  0.531372  1
  Ni  Ni22  1  0.125897  0.627507  0.904772  1
  Ni  Ni23  1  0.625836  0.625357  0.780863  1
  O  O24  1  0.390950  0.379799  0.094494  1
  O  O25  1  0.390881  0.375379  0.214590  1
  O  O26  1  0.390950  0.851277  0.094494  1
  O  O27  1  0.857979  0.381167  0.094922  1
  O  O28  1  0.381792  0.875042  0.217031  1
  O  O29  1  0.387301  0.370427  0.347012  1
  O  O30  1  0.388271  0.375832  0.465016  1
  O  O31  1  0.862655  0.390827  0.216996  1
  O  O32  1  0.387301  0.854223  0.347012  1
  O  O33  1  0.843790  0.867588  0.105258  1
  O  O34  1  0.862655  0.878535  0.216996  1
  O  O35  1  0.859598  0.375800  0.347200  1
  O  O36  1  0.389203  0.874238  0.465580  1
  O  O37  1  0.387779  0.370881  0.596702  1
  O  O38  1  0.388597  0.375994  0.714854  1
  O  O39  1  0.862316  0.395197  0.465755  1
  O  O40  1  0.387779  0.854531  0.596702  1
  O  O41  1  0.858713  0.872281  0.349181  1
  O  O42  1  0.862316  0.879468  0.465755  1
  O  O43  1  0.859758  0.376190  0.596965  1
  O  O44  1  0.392072  0.874667  0.714648  1
  O  O45  1  0.388868  0.371145  0.846357  1
  O  O46  1  0.863048  0.397228  0.714995  1
  O  O47  1  0.389846  0.377617  0.963730  1
  O  O48  1  0.388868  0.854557  0.846357  1
  O  O49  1  0.861731  0.874356  0.597389  1
  O  O50  1  0.863048  0.879745  0.714995  1
  O  O51  1  0.860890  0.375408  0.847073  1
  O  O52  1  0.407495  0.868357  0.963948  1
  O  O53  1  0.855528  0.409503  0.965845  1
  O  O54  1  0.866935  0.877123  0.844705  1
  O  O55  1  0.855528  0.871587  0.965845  1
