# generated using pymatgen
data_H4N2O3
_symmetry_space_group_name_H-M   'P 1'
_cell_length_a   8.25617673
_cell_length_b   8.62154508
_cell_length_c   7.05982277
_cell_angle_alpha   90.00000000
_cell_angle_beta   90.00000000
_cell_angle_gamma   90.00000000
_symmetry_Int_Tables_number   1
_chemical_formula_structural   H4N2O3
_chemical_formula_sum   'H16 N8 O12'
_cell_volume   502.52524365
_cell_formula_units_Z   4
loop_
 _symmetry_equiv_pos_site_id
 _symmetry_equiv_pos_as_xyz
  1  'x, y, z'
loop_
 _atom_site_type_symbol
 _atom_site_label
 _atom_site_symmetry_multiplicity
 _atom_site_fract_x
 _atom_site_fract_y
 _atom_site_fract_z
 _atom_site_occupancy
  H  H0  1  0.427201  0.782181  0.000098  1
  H  H1  1  0.108216  0.184528  0.568689  1
  H  H2  1  0.967902  0.239464  0.443093  1
  H  H3  1  0.572799  0.217819  0.500098  1
  H  H4  1  0.032098  0.760536  0.943093  1
  H  H5  1  0.891784  0.815472  0.068689  1
  H  H6  1  0.467902  0.260536  0.943093  1
  H  H7  1  0.608216  0.315472  0.068689  1
  H  H8  1  0.927201  0.717819  0.500098  1
  H  H9  1  0.391784  0.684528  0.568689  1
  H  H10  1  0.532098  0.739464  0.443093  1
  H  H11  1  0.072799  0.282181  0.000098  1
  H  H12  1  0.984492  0.546094  0.240414  1
  H  H13  1  0.515508  0.046094  0.240414  1
  H  H14  1  0.015508  0.453906  0.740414  1
  H  H15  1  0.484492  0.953906  0.740414  1
  N  N16  1  0.331627  0.661639  0.198081  1
  N  N17  1  0.168373  0.161639  0.198081  1
  N  N18  1  0.668373  0.338361  0.698081  1
  N  N19  1  0.831627  0.838361  0.698081  1
  N  N20  1  0.139754  0.479124  0.738962  1
  N  N21  1  0.360246  0.979124  0.738962  1
  N  N22  1  0.860246  0.520876  0.238962  1
  N  N23  1  0.639754  0.020876  0.238962  1
  O  O24  1  0.379098  0.677218  0.003698  1
  O  O25  1  0.996632  0.221038  0.575353  1
  O  O26  1  0.620902  0.322782  0.503698  1
  O  O27  1  0.003368  0.778962  0.075353  1
  O  O28  1  0.496632  0.278962  0.075353  1
  O  O29  1  0.879098  0.822782  0.503698  1
  O  O30  1  0.503368  0.721038  0.575353  1
  O  O31  1  0.120902  0.177218  0.003698  1
  O  O32  1  0.256463  0.545264  0.221301  1
  O  O33  1  0.243537  0.045264  0.221301  1
  O  O34  1  0.743537  0.454736  0.721301  1
  O  O35  1  0.756463  0.954736  0.721301  1
