# generated using pymatgen
data_Ba5Si8O21
_symmetry_space_group_name_H-M   'P 1'
_cell_length_a   4.77596553
_cell_length_b   14.08354558
_cell_length_c   16.84964836
_cell_angle_alpha   98.10764856
_cell_angle_beta   98.18091798
_cell_angle_gamma   89.94997161
_symmetry_Int_Tables_number   1
_chemical_formula_structural   Ba5Si8O21
_chemical_formula_sum   'Ba10 Si16 O42'
_cell_volume   1110.39077392
_cell_formula_units_Z   2
loop_
 _symmetry_equiv_pos_site_id
 _symmetry_equiv_pos_as_xyz
  1  'x, y, z'
loop_
 _atom_site_type_symbol
 _atom_site_label
 _atom_site_symmetry_multiplicity
 _atom_site_fract_x
 _atom_site_fract_y
 _atom_site_fract_z
 _atom_site_occupancy
  Ba  Ba0  1  0.804442  0.616533  0.564409  1
  Ba  Ba1  1  0.414903  0.554348  0.776496  1
  Ba  Ba2  1  0.192116  0.385094  0.436203  1
  Ba  Ba3  1  0.586515  0.446620  0.224217  1
  Ba  Ba4  1  0.360034  0.053963  0.776312  1
  Ba  Ba5  1  0.997346  -0.000041  0.000621  1
  Ba  Ba6  1  0.757015  0.116657  0.564115  1
  Ba  Ba7  1  0.998992  0.500480  0.999783  1
  Ba  Ba8  1  0.243004  0.884694  0.435869  1
  Ba  Ba9  1  0.634143  0.946251  0.223321  1
  Si  Si10  1  0.757642  0.398901  0.614025  1
  Si  Si11  1  0.855865  0.898698  0.614102  1
  Si  Si12  1  0.716187  0.710242  0.328911  1
  Si  Si13  1  0.501259  0.162441  0.142306  1
  Si  Si14  1  0.610096  0.210985  0.329758  1
  Si  Si15  1  0.641285  0.662110  0.141518  1
  Si  Si16  1  0.124013  0.777592  0.098317  1
  Si  Si17  1  0.282239  0.290354  0.670607  1
  Si  Si18  1  0.501189  0.837746  0.858447  1
  Si  Si19  1  0.142383  0.102566  0.386068  1
  Si  Si20  1  0.974185  0.277831  0.098192  1
  Si  Si21  1  0.355958  0.338062  0.857972  1
  Si  Si22  1  0.028084  0.721961  0.901774  1
  Si  Si23  1  0.873504  0.222077  0.901522  1
  Si  Si24  1  0.389302  0.790070  0.670905  1
  Si  Si25  1  0.239535  0.602462  0.386119  1
  O  O26  1  0.970964  0.691129  0.134786  1
  O  O27  1  0.659415  0.260559  0.125201  1
  O  O28  1  0.600674  0.148655  0.238291  1
  O  O29  1  0.947032  0.249560  -0.000024  1
  O  O30  1  0.181326  0.854089  0.612383  1
  O  O31  1  0.164982  0.191943  0.135211  1
  O  O32  1  0.466357  0.760763  0.125270  1
  O  O33  1  0.693196  0.802235  0.636515  1
  O  O34  1  0.430747  0.353602  0.611394  1
  O  O35  1  0.165610  0.507432  0.320330  1
  O  O36  1  0.071508  0.386951  0.128452  1
  O  O37  1  0.362282  0.352267  0.762152  1
  O  O38  1  0.304927  0.198756  0.363296  1
  O  O39  1  0.248336  0.081554  0.477494  1
  O  O40  1  0.054432  0.886330  0.128256  1
  O  O41  1  0.930884  0.612968  0.870960  1
  O  O42  1  0.837345  0.807996  0.865209  1
  O  O43  1  0.054377  0.699025  0.363748  1
  O  O44  1  0.455183  0.936468  0.914102  1
  O  O45  1  0.054284  0.749203  -0.000020  1
  O  O46  1  0.849983  0.993669  0.679923  1
  O  O47  1  0.567060  0.646256  0.387324  1
  O  O48  1  0.344028  0.739458  0.875782  1
  O  O49  1  0.770482  0.419964  0.522595  1
  O  O50  1  0.538758  0.564002  0.085449  1
  O  O51  1  0.346620  0.178617  0.666132  1
  O  O52  1  0.531627  0.239902  0.875326  1
  O  O53  1  0.639432  0.647782  0.237340  1
  O  O54  1  0.546490  0.063674  0.086750  1
  O  O55  1  0.751991  0.919262  0.522396  1
  O  O56  1  0.401796  0.851674  0.762623  1
  O  O57  1  0.827175  0.493974  0.679869  1
  O  O58  1  0.456154  0.436644  0.913826  1
  O  O59  1  0.648683  0.821820  0.333069  1
  O  O60  1  0.678298  0.322779  0.334392  1
  O  O61  1  0.943512  0.302715  0.636731  1
  O  O62  1  0.939552  0.112816  0.871241  1
  O  O63  1  0.145849  0.007587  0.320060  1
  O  O64  1  0.320631  0.678238  0.666071  1
  O  O65  1  0.026644  0.307911  0.864327  1
  O  O66  1  0.817985  0.147903  0.389229  1
  O  O67  1  0.229268  0.582192  0.477885  1
