# generated using pymatgen
data_LaH24C3N3(Cl2O)3
_symmetry_space_group_name_H-M   'P 1'
_cell_length_a   8.72138362
_cell_length_b   11.73312702
_cell_length_c   17.86837301
_cell_angle_alpha   90.00000000
_cell_angle_beta   90.00000000
_cell_angle_gamma   90.00000000
_symmetry_Int_Tables_number   1
_chemical_formula_structural   LaH24C3N3(Cl2O)3
_chemical_formula_sum   'La4 H96 C12 N12 Cl24 O12'
_cell_volume   1828.45456081
_cell_formula_units_Z   4
loop_
 _symmetry_equiv_pos_site_id
 _symmetry_equiv_pos_as_xyz
  1  'x, y, z'
loop_
 _atom_site_type_symbol
 _atom_site_label
 _atom_site_symmetry_multiplicity
 _atom_site_fract_x
 _atom_site_fract_y
 _atom_site_fract_z
 _atom_site_occupancy
  La  La0  1  0.250000  0.905263  0.982340  1
  La  La1  1  0.250000  0.594737  0.482340  1
  La  La2  1  0.750000  0.405263  0.517660  1
  La  La3  1  0.750000  0.094737  0.017660  1
  H  H4  1  0.840571  0.132734  0.194247  1
  H  H5  1  0.352782  0.457392  0.173635  1
  H  H6  1  0.846330  0.792947  0.533585  1
  H  H7  1  0.852778  0.996512  0.557768  1
  H  H8  1  0.352778  0.003488  0.442232  1
  H  H9  1  0.250000  0.325495  0.887392  1
  H  H10  1  0.154964  0.034175  0.222925  1
  H  H11  1  0.250000  0.435746  0.300539  1
  H  H12  1  0.845036  0.965825  0.777075  1
  H  H13  1  0.346330  0.207053  0.466415  1
  H  H14  1  0.158367  0.133075  0.068416  1
  H  H15  1  0.841633  0.866925  0.931584  1
  H  H16  1  0.155262  0.316087  0.274098  1
  H  H17  1  0.352396  0.657439  0.775778  1
  H  H18  1  0.750000  0.964963  0.473372  1
  H  H19  1  0.250000  0.555569  0.665866  1
  H  H20  1  0.647222  0.503488  0.057768  1
  H  H21  1  0.655262  0.816087  0.225902  1
  H  H22  1  0.658367  0.633075  0.431584  1
  H  H23  1  0.345036  0.465825  0.722925  1
  H  H24  1  0.344738  0.316087  0.274098  1
  H  H25  1  0.655262  0.683913  0.725902  1
  H  H26  1  0.155262  0.183913  0.774098  1
  H  H27  1  0.647222  0.996512  0.557768  1
  H  H28  1  0.852396  0.157439  0.724222  1
  H  H29  1  0.654964  0.534175  0.277075  1
  H  H30  1  0.158367  0.366925  0.568416  1
  H  H31  1  0.659429  0.367266  0.694247  1
  H  H32  1  0.647604  0.342561  0.224222  1
  H  H33  1  0.750000  0.055569  0.834134  1
  H  H34  1  0.345036  0.034175  0.222925  1
  H  H35  1  0.344738  0.183913  0.774098  1
  H  H36  1  0.852782  0.957392  0.326365  1
  H  H37  1  0.844738  0.683913  0.725902  1
  H  H38  1  0.654964  0.965825  0.777075  1
  H  H39  1  0.659429  0.132734  0.194247  1
  H  H40  1  0.844738  0.816087  0.225902  1
  H  H41  1  0.341633  0.366925  0.568416  1
  H  H42  1  0.647218  0.542608  0.826365  1
  H  H43  1  0.750000  0.440995  0.167000  1
  H  H44  1  0.840698  0.264321  0.878996  1
  H  H45  1  0.750000  0.674505  0.112608  1
  H  H46  1  0.750000  0.669426  0.851925  1
  H  H47  1  0.352782  0.042608  0.673635  1
  H  H48  1  0.147218  0.457392  0.173635  1
  H  H49  1  0.659302  0.235679  0.378996  1
  H  H50  1  0.159302  0.764321  0.621004  1
  H  H51  1  0.845036  0.534175  0.277075  1
  H  H52  1  0.852396  0.342561  0.224222  1
  H  H53  1  0.341633  0.133075  0.068416  1
  H  H54  1  0.841633  0.633075  0.431584  1
  H  H55  1  0.852778  0.503488  0.057768  1
  H  H56  1  0.659302  0.264321  0.878996  1
  H  H57  1  0.340698  0.764321  0.621004  1
  H  H58  1  0.750000  0.825495  0.612608  1
  H  H59  1  0.250000  0.464963  0.026628  1
  H  H60  1  0.750000  0.535037  0.973372  1
  H  H61  1  0.352396  0.842561  0.275778  1
  H  H62  1  0.647218  0.957392  0.326365  1
  H  H63  1  0.250000  0.559005  0.833000  1
  H  H64  1  0.750000  0.059005  0.667000  1
  H  H65  1  0.250000  0.174505  0.387392  1
  H  H66  1  0.750000  0.935746  0.199461  1
  H  H67  1  0.846330  0.707053  0.033585  1
  H  H68  1  0.153670  0.292947  0.966415  1
  H  H69  1  0.147218  0.042608  0.673635  1
  H  H70  1  0.250000  0.944431  0.165866  1
  H  H71  1  0.352778  0.496512  0.942232  1
  H  H72  1  0.750000  0.830574  0.351925  1
  H  H73  1  0.750000  0.444431  0.334134  1
  H  H74  1  0.852782  0.542608  0.826365  1
  H  H75  1  0.340571  0.632734  0.305753  1
  H  H76  1  0.840571  0.367266  0.694247  1
  H  H77  1  0.250000  0.330574  0.148075  1
  H  H78  1  0.153670  0.207053  0.466415  1
  H  H79  1  0.750000  0.564254  0.699461  1
  H  H80  1  0.250000  0.169426  0.648075  1
  H  H81  1  0.147222  0.003488  0.442232  1
  H  H82  1  0.346330  0.292947  0.966415  1
  H  H83  1  0.340571  0.867266  0.805753  1
  H  H84  1  0.250000  0.940995  0.333000  1
  H  H85  1  0.147604  0.657439  0.775778  1
  H  H86  1  0.250000  0.064254  0.800539  1
  H  H87  1  0.840698  0.235679  0.378996  1
  H  H88  1  0.658367  0.866925  0.931584  1
  H  H89  1  0.340698  0.735679  0.121004  1
  H  H90  1  0.653670  0.792947  0.533585  1
  H  H91  1  0.647604  0.157439  0.724222  1
  H  H92  1  0.653670  0.707053  0.033585  1
  H  H93  1  0.154964  0.465825  0.722925  1
  H  H94  1  0.159302  0.735679  0.121004  1
  H  H95  1  0.250000  0.035037  0.526628  1
  H  H96  1  0.147222  0.496512  0.942232  1
  H  H97  1  0.159429  0.867266  0.805753  1
  H  H98  1  0.147604  0.842561  0.275778  1
  H  H99  1  0.159429  0.632734  0.305753  1
  C  C100  1  0.750000  0.543430  0.034276  1
  C  C101  1  0.250000  0.456570  0.965724  1
  C  C102  1  0.250000  0.406034  0.183888  1
  C  C103  1  0.750000  0.593966  0.816112  1
  C  C104  1  0.250000  0.043430  0.465724  1
  C  C105  1  0.250000  0.603916  0.779685  1
  C  C106  1  0.750000  0.956570  0.534276  1
  C  C107  1  0.250000  0.896084  0.279685  1
  C  C108  1  0.750000  0.396084  0.220315  1
  C  C109  1  0.250000  0.093966  0.683888  1
  C  C110  1  0.750000  0.906034  0.316112  1
  C  C111  1  0.750000  0.103916  0.720315  1
  N  N112  1  0.750000  0.481101  0.281625  1
  N  N113  1  0.250000  0.981101  0.218375  1
  N  N114  1  0.750000  0.867838  0.236977  1
  N  N115  1  0.250000  0.333998  0.944924  1
  N  N116  1  0.750000  0.018899  0.781625  1
  N  N117  1  0.250000  0.367838  0.263023  1
  N  N118  1  0.750000  0.632162  0.736977  1
  N  N119  1  0.750000  0.666002  0.055076  1
  N  N120  1  0.750000  0.833998  0.555076  1
  N  N121  1  0.250000  0.166002  0.444924  1
  N  N122  1  0.250000  0.518899  0.718375  1
  N  N123  1  0.250000  0.132162  0.763023  1
  Cl  Cl124  1  0.966363  0.567536  0.584959  1
  Cl  Cl125  1  0.466363  0.432464  0.415041  1
  Cl  Cl126  1  0.525754  0.264644  0.061568  1
  Cl  Cl127  1  0.011790  0.339718  0.793045  1
  Cl  Cl128  1  0.474246  0.764644  0.438432  1
  Cl  Cl129  1  0.025754  0.764644  0.438432  1
  Cl  Cl130  1  0.033637  0.067536  0.915041  1
  Cl  Cl131  1  0.533637  0.932464  0.084959  1
  Cl  Cl132  1  0.966363  0.932464  0.084959  1
  Cl  Cl133  1  0.011790  0.160282  0.293045  1
  Cl  Cl134  1  0.488210  0.160282  0.293045  1
  Cl  Cl135  1  0.974246  0.264644  0.061568  1
  Cl  Cl136  1  0.511790  0.660282  0.206955  1
  Cl  Cl137  1  0.466363  0.067536  0.915041  1
  Cl  Cl138  1  0.511790  0.839718  0.706955  1
  Cl  Cl139  1  0.988210  0.660282  0.206955  1
  Cl  Cl140  1  0.488210  0.339718  0.793045  1
  Cl  Cl141  1  0.033637  0.432464  0.415041  1
  Cl  Cl142  1  0.474246  0.735356  0.938432  1
  Cl  Cl143  1  0.533637  0.567536  0.584959  1
  Cl  Cl144  1  0.525754  0.235356  0.561568  1
  Cl  Cl145  1  0.988210  0.839718  0.706955  1
  Cl  Cl146  1  0.974246  0.235356  0.561568  1
  Cl  Cl147  1  0.025754  0.735356  0.938432  1
  O  O148  1  0.750000  0.396310  0.666904  1
  O  O149  1  0.250000  0.728606  0.597751  1
  O  O150  1  0.250000  0.083254  0.069393  1
  O  O151  1  0.750000  0.916746  0.930607  1
  O  O152  1  0.750000  0.103690  0.166904  1
  O  O153  1  0.250000  0.896310  0.833096  1
  O  O154  1  0.250000  0.416746  0.569393  1
  O  O155  1  0.750000  0.271394  0.402249  1
  O  O156  1  0.750000  0.228606  0.902249  1
  O  O157  1  0.750000  0.583254  0.430607  1
  O  O158  1  0.250000  0.603690  0.333096  1
  O  O159  1  0.250000  0.771394  0.097751  1
