# generated using pymatgen
data_Mg5H8O9
_symmetry_space_group_name_H-M   'P 1'
_cell_length_a   3.14073004
_cell_length_b   3.14077533
_cell_length_c   22.16133618
_cell_angle_alpha   89.99999999
_cell_angle_beta   89.99710216
_cell_angle_gamma   120.00047422
_symmetry_Int_Tables_number   1
_chemical_formula_structural   Mg5H8O9
_chemical_formula_sum   'Mg5 H8 O9'
_cell_volume   189.31803015
_cell_formula_units_Z   1
loop_
 _symmetry_equiv_pos_site_id
 _symmetry_equiv_pos_as_xyz
  1  'x, y, z'
loop_
 _atom_site_type_symbol
 _atom_site_label
 _atom_site_symmetry_multiplicity
 _atom_site_fract_x
 _atom_site_fract_y
 _atom_site_fract_z
 _atom_site_occupancy
  Mg  Mg0  1  0.000000  0.000000  0.500000  1
  Mg  Mg1  1  0.000022  0.000011  0.279079  1
  Mg  Mg2  1  0.999978  0.999989  0.720921  1
  Mg  Mg3  1  0.333337  0.666668  0.055265  1
  Mg  Mg4  1  0.666663  0.333332  0.944735  1
  H  H5  1  0.666608  0.333304  0.591453  1
  H  H6  1  0.333392  0.666696  0.408547  1
  H  H7  1  0.666608  0.333304  0.146254  1
  H  H8  1  0.333392  0.666696  0.853746  1
  H  H9  1  0.666608  0.333304  0.370582  1
  H  H10  1  0.333392  0.666696  0.629418  1
  H  H11  1  0.333392  0.666696  0.187777  1
  H  H12  1  0.666608  0.333304  0.812223  1
  O  O13  1  0.666620  0.333310  0.547657  1
  O  O14  1  0.333380  0.666690  0.452343  1
  O  O15  1  0.666619  0.333309  0.102457  1
  O  O16  1  0.333381  0.666691  0.897543  1
  O  O17  1  0.000000  0.000000  0.000000  1
  O  O18  1  0.666622  0.333311  0.326764  1
  O  O19  1  0.333378  0.666689  0.673236  1
  O  O20  1  0.333391  0.666695  0.231534  1
  O  O21  1  0.666609  0.333305  0.768466  1
