# generated using pymatgen
data_RbGeSbO5
_symmetry_space_group_name_H-M   'P 1'
_cell_length_a   6.81385998
_cell_length_b   10.94035530
_cell_length_c   13.61865595
_cell_angle_alpha   90.00000000
_cell_angle_beta   90.00000000
_cell_angle_gamma   90.00000000
_symmetry_Int_Tables_number   1
_chemical_formula_structural   RbGeSbO5
_chemical_formula_sum   'Rb8 Ge8 Sb8 O40'
_cell_volume   1015.21699575
_cell_formula_units_Z   8
loop_
 _symmetry_equiv_pos_site_id
 _symmetry_equiv_pos_as_xyz
  1  'x, y, z'
loop_
 _atom_site_type_symbol
 _atom_site_label
 _atom_site_symmetry_multiplicity
 _atom_site_fract_x
 _atom_site_fract_y
 _atom_site_fract_z
 _atom_site_occupancy
  O  O0  1  0.546098  0.872519  0.278106  1
  O  O1  1  0.453902  0.372519  0.721894  1
  O  O2  1  0.953902  0.872519  0.778106  1
  O  O3  1  0.046098  0.372519  0.221894  1
  O  O4  1  0.468103  0.125029  0.275912  1
  O  O5  1  0.531897  0.625029  0.724088  1
  O  O6  1  0.031897  0.125029  0.775912  1
  O  O7  1  0.968103  0.625029  0.224088  1
  O  O8  1  0.958660  0.876185  0.237974  1
  O  O9  1  0.041340  0.376185  0.762026  1
  O  O10  1  0.541340  0.876185  0.737974  1
  O  O11  1  0.458660  0.376185  0.262026  1
  O  O12  1  0.050970  0.117899  0.233066  1
  O  O13  1  0.949030  0.617899  0.766934  1
  O  O14  1  0.449030  0.117899  0.733066  1
  O  O15  1  0.666062  0.727027  0.897720  1
  O  O16  1  0.550970  0.617899  0.266934  1
  O  O17  1  0.786969  0.466299  0.603445  1
  O  O18  1  0.286969  0.966299  0.896555  1
  O  O19  1  0.713031  0.466299  0.103445  1
  O  O20  1  0.801034  0.038435  0.391295  1
  O  O21  1  0.198966  0.538435  0.608705  1
  O  O22  1  0.698966  0.038435  0.891295  1
  O  O23  1  0.301034  0.538435  0.108705  1
  O  O24  1  0.494140  0.129773  0.484925  1
  O  O25  1  0.505860  0.629773  0.515075  1
  O  O26  1  0.005860  0.129773  0.984925  1
  O  O27  1  0.994140  0.629773  0.015075  1
  O  O28  1  0.461343  0.384058  0.508031  1
  O  O29  1  0.538657  0.884058  0.491969  1
  O  O30  1  0.038657  0.384058  0.008031  1
  O  O31  1  0.961343  0.884058  0.991969  1
  O  O32  1  0.176914  0.265257  0.390950  1
  O  O33  1  0.823086  0.765257  0.609050  1
  O  O34  1  0.323086  0.265257  0.890950  1
  O  O35  1  0.676914  0.765257  0.109050  1
  O  O36  1  0.166062  0.227027  0.602280  1
  O  O37  1  0.833938  0.727027  0.397720  1
  O  O38  1  0.333938  0.227027  0.102280  1
  O  O39  1  0.213031  0.966299  0.396555  1
  Ge  Ge40  1  0.009160  0.998749  0.320199  1
  Ge  Ge41  1  0.990840  0.498749  0.679801  1
  Ge  Ge42  1  0.490840  0.998749  0.820199  1
  Ge  Ge43  1  0.509160  0.498749  0.179801  1
  Ge  Ge44  1  0.820331  0.748130  0.001091  1
  Ge  Ge45  1  0.179669  0.248130  0.998909  1
  Ge  Ge46  1  0.679669  0.748130  0.501091  1
  Ge  Ge47  1  0.320331  0.248130  0.498909  1
  Rb  Rb48  1  0.198595  0.567155  0.390014  1
  Rb  Rb49  1  0.801405  0.067155  0.609986  1
  Rb  Rb50  1  0.301405  0.567155  0.890014  1
  Rb  Rb51  1  0.698595  0.067155  0.109986  1
  Rb  Rb52  1  0.278224  0.822275  0.113789  1
  Rb  Rb53  1  0.721776  0.322275  0.886211  1
  Rb  Rb54  1  0.221776  0.822275  0.613789  1
  Rb  Rb55  1  0.778224  0.322275  0.386211  1
  Sb  Sb56  1  0.755827  0.746330  0.253817  1
  Sb  Sb57  1  0.244173  0.246330  0.746183  1
  Sb  Sb58  1  0.744173  0.746330  0.753817  1
  Sb  Sb59  1  0.255827  0.246330  0.246183  1
  Sb  Sb60  1  0.005768  0.499981  0.119489  1
  Sb  Sb61  1  0.994232  -0.000019  0.880511  1
  Sb  Sb62  1  0.494232  0.499981  0.619489  1
  Sb  Sb63  1  0.505768  -0.000019  0.380511  1
