# generated using pymatgen
data_Yb(PO3)3
_symmetry_space_group_name_H-M   'P 1'
_cell_length_a   10.31891991
_cell_length_b   11.59716862
_cell_length_c   20.52292742
_cell_angle_alpha   90.00000000
_cell_angle_beta   90.00000000
_cell_angle_gamma   97.45061593
_symmetry_Int_Tables_number   1
_chemical_formula_structural   Yb(PO3)3
_chemical_formula_sum   'Yb12 P36 O108'
_cell_volume   2435.24805760
_cell_formula_units_Z   12
loop_
 _symmetry_equiv_pos_site_id
 _symmetry_equiv_pos_as_xyz
  1  'x, y, z'
loop_
 _atom_site_type_symbol
 _atom_site_label
 _atom_site_symmetry_multiplicity
 _atom_site_fract_x
 _atom_site_fract_y
 _atom_site_fract_z
 _atom_site_occupancy
  Yb  Yb0  1  0.981961  0.500876  0.342363  1
  Yb  Yb1  1  0.019666  0.000512  0.675611  1
  Yb  Yb2  1  0.980334  0.999488  0.324389  1
  Yb  Yb3  1  0.480334  0.999488  0.175611  1
  Yb  Yb4  1  0.000000  0.000000  0.000000  1
  Yb  Yb5  1  0.481961  0.500876  0.157637  1
  Yb  Yb6  1  0.518039  0.499124  0.842363  1
  Yb  Yb7  1  0.018039  0.499124  0.657637  1
  Yb  Yb8  1  0.000000  0.500000  0.000000  1
  Yb  Yb9  1  0.500000  0.000000  0.500000  1
  Yb  Yb10  1  0.500000  0.500000  0.500000  1
  Yb  Yb11  1  0.519666  0.000512  0.824389  1
  P  P12  1  0.822102  0.644045  0.778852  1
  P  P13  1  0.531161  0.761981  0.947861  1
  P  P14  1  0.968839  0.238018  0.447861  1
  P  P15  1  0.810791  0.139230  0.561249  1
  P  P16  1  0.310791  0.139230  0.938751  1
  P  P17  1  0.189209  0.860770  0.438751  1
  P  P18  1  0.677898  0.355955  0.278852  1
  P  P19  1  0.181361  0.320273  0.543072  1
  P  P20  1  0.324129  0.147482  0.624249  1
  P  P21  1  0.480885  0.745929  0.610489  1
  P  P22  1  0.191198  0.832945  0.791591  1
  P  P23  1  0.675871  0.852518  0.375751  1
  P  P24  1  0.031161  0.761981  0.552139  1
  P  P25  1  0.824129  0.147482  0.875751  1
  P  P26  1  0.504504  0.262375  0.723390  1
  P  P27  1  0.177898  0.355955  0.221148  1
  P  P28  1  0.308802  0.167055  0.291591  1
  P  P29  1  0.519115  0.254071  0.389511  1
  P  P30  1  0.322102  0.644045  0.721148  1
  P  P31  1  0.980885  0.745929  0.889511  1
  P  P32  1  0.681361  0.320273  0.956928  1
  P  P33  1  0.175871  0.852518  0.124249  1
  P  P34  1  0.019115  0.254071  0.110489  1
  P  P35  1  0.004504  0.262375  0.776610  1
  P  P36  1  0.468839  0.238018  0.052139  1
  P  P37  1  0.689209  0.860770  0.061249  1
  P  P38  1  0.192769  0.346610  0.886151  1
  P  P39  1  0.807231  0.653390  0.113849  1
  P  P40  1  0.692769  0.346610  0.613849  1
  P  P41  1  0.818639  0.679727  0.456928  1
  P  P42  1  0.307231  0.653390  0.386151  1
  P  P43  1  0.995496  0.737625  0.223390  1
  P  P44  1  0.808802  0.167055  0.208409  1
  P  P45  1  0.318639  0.679727  0.043072  1
  P  P46  1  0.495496  0.737625  0.276610  1
  P  P47  1  0.691198  0.832945  0.708409  1
  O  O48  1  0.458229  0.348653  0.088170  1
  O  O49  1  0.296843  0.399652  0.518845  1
  O  O50  1  0.765685  0.782150  0.108603  1
  O  O51  1  0.958229  0.348653  0.411830  1
  O  O52  1  0.570318  0.393719  0.237826  1
  O  O53  1  0.213138  0.043477  0.964533  1
  O  O54  1  0.763689  0.449679  0.314523  1
  O  O55  1  0.962413  0.855192  0.241876  1
  O  O56  1  0.689776  0.563910  0.120041  1
  O  O57  1  0.489487  0.624521  0.587167  1
  O  O58  1  0.608572  0.248261  0.016473  1
  O  O59  1  0.236311  0.550321  0.685477  1
  O  O60  1  0.541771  0.651347  0.911830  1
  O  O61  1  0.772327  0.291078  0.233101  1
  O  O62  1  0.119047  0.254298  0.171561  1
  O  O63  1  0.638034  0.767744  0.005473  1
  O  O64  1  0.378826  0.662668  0.316572  1
  O  O65  1  0.426107  0.104760  0.902501  1
  O  O66  1  0.098934  0.366023  0.939693  1
  O  O67  1  0.260568  0.942701  0.162184  1
  O  O68  1  0.310224  0.436090  0.879959  1
  O  O69  1  0.813645  0.912417  0.694827  1
  O  O70  1  0.619047  0.254298  0.328439  1
  O  O71  1  0.686355  0.087583  0.194827  1
  O  O72  1  0.880953  0.745702  0.828439  1
  O  O73  1  0.529649  0.660766  0.222735  1
  O  O74  1  0.189776  0.563910  0.379959  1
  O  O75  1  0.429682  0.606281  0.762174  1
  O  O76  1  0.121694  0.797519  0.859892  1
  O  O77  1  0.583532  0.372670  0.916208  1
  O  O78  1  0.598934  0.366023  0.560307  1
  O  O79  1  0.771315  0.787221  0.419107  1
  O  O80  1  0.571539  0.893218  0.417210  1
  O  O81  1  0.943932  0.833172  0.937928  1
  O  O82  1  0.416468  0.627330  0.083792  1
  O  O83  1  0.621174  0.337332  0.683428  1
  O  O84  1  0.734315  0.217850  0.608603  1
  O  O85  1  0.272327  0.291078  0.266899  1
  O  O86  1  0.786862  0.956523  0.035467  1
  O  O87  1  0.108572  0.248261  0.483527  1
  O  O88  1  0.713138  0.043477  0.535467  1
  O  O89  1  0.470351  0.339234  0.777265  1
  O  O90  1  0.121174  0.337332  0.816572  1
  O  O91  1  0.989487  0.624521  0.912833  1
  O  O92  1  0.455038  0.126850  0.090248  1
  O  O93  1  0.265685  0.782150  0.391397  1
  O  O94  1  0.380953  0.745702  0.671561  1
  O  O95  1  0.593299  0.873230  0.754337  1
  O  O96  1  0.878306  0.202481  0.140108  1
  O  O97  1  0.736311  0.550321  0.814523  1
  O  O98  1  0.739432  0.057299  0.837816  1
  O  O99  1  0.093299  0.873230  0.745663  1
  O  O100  1  0.186355  0.087583  0.305173  1
  O  O101  1  0.510513  0.375479  0.412833  1
  O  O102  1  0.556068  0.166828  0.437928  1
  O  O103  1  0.071539  0.893218  0.082790  1
  O  O104  1  0.760568  0.942701  0.337816  1
  O  O105  1  0.573893  0.895240  0.097499  1
  O  O106  1  0.313645  0.912417  0.805173  1
  O  O107  1  0.955038  0.126850  0.409752  1
  O  O108  1  0.926107  0.104760  0.597499  1
  O  O109  1  0.443932  0.833172  0.562072  1
  O  O110  1  0.878826  0.662668  0.183428  1
  O  O111  1  0.613592  0.747744  0.329216  1
  O  O112  1  0.406701  0.126770  0.245663  1
  O  O113  1  0.537587  0.144808  0.741876  1
  O  O114  1  0.886408  0.252256  0.829216  1
  O  O115  1  0.138034  0.767744  0.494527  1
  O  O116  1  0.041771  0.651347  0.588170  1
  O  O117  1  0.928461  0.106782  0.917210  1
  O  O118  1  0.916468  0.627330  0.416208  1
  O  O119  1  0.462413  0.855192  0.258124  1
  O  O120  1  0.263689  0.449679  0.185477  1
  O  O121  1  0.386408  0.252256  0.670784  1
  O  O122  1  0.906701  0.126770  0.254337  1
  O  O123  1  0.929682  0.606281  0.737826  1
  O  O124  1  0.029649  0.660766  0.277265  1
  O  O125  1  0.428461  0.106782  0.582790  1
  O  O126  1  0.544962  0.873150  0.909752  1
  O  O127  1  0.070318  0.393719  0.262174  1
  O  O128  1  0.727673  0.708922  0.733101  1
  O  O129  1  0.113592  0.747744  0.170784  1
  O  O130  1  0.728685  0.212779  0.919107  1
  O  O131  1  0.056068  0.166828  0.062072  1
  O  O132  1  0.037587  0.144808  0.758124  1
  O  O133  1  0.970351  0.339234  0.722735  1
  O  O134  1  0.044962  0.873150  0.590248  1
  O  O135  1  0.234315  0.217850  0.891397  1
  O  O136  1  0.083532  0.372670  0.583792  1
  O  O137  1  0.378306  0.202481  0.359892  1
  O  O138  1  0.203157  0.600348  0.018845  1
  O  O139  1  0.810224  0.436090  0.620041  1
  O  O140  1  0.703157  0.600348  0.481155  1
  O  O141  1  0.796843  0.399652  0.981155  1
  O  O142  1  0.227673  0.708922  0.766899  1
  O  O143  1  0.391428  0.751739  0.983527  1
  O  O144  1  0.361966  0.232256  0.994527  1
  O  O145  1  0.010513  0.375479  0.087167  1
  O  O146  1  0.286862  0.956523  0.464533  1
  O  O147  1  0.239432  0.057299  0.662184  1
  O  O148  1  0.271315  0.787221  0.080893  1
  O  O149  1  0.891428  0.751739  0.516473  1
  O  O150  1  0.901066  0.633977  0.060307  1
  O  O151  1  0.861966  0.232256  0.505473  1
  O  O152  1  0.073893  0.895240  0.402501  1
  O  O153  1  0.621694  0.797519  0.640108  1
  O  O154  1  0.401066  0.633977  0.439693  1
  O  O155  1  0.228685  0.212779  0.580893  1
