# generated using pymatgen
data_TeS2N3Cl5
_symmetry_space_group_name_H-M   'P 1'
_cell_length_a   7.26635000
_cell_length_b   16.25245185
_cell_length_c   19.85902819
_cell_angle_alpha   101.08487150
_cell_angle_beta   90.00000000
_cell_angle_gamma   90.00000000
_symmetry_Int_Tables_number   1
_chemical_formula_structural   TeS2N3Cl5
_chemical_formula_sum   'Te8 S16 N24 Cl40'
_cell_volume   2301.51721260
_cell_formula_units_Z   8
loop_
 _symmetry_equiv_pos_site_id
 _symmetry_equiv_pos_as_xyz
  1  'x, y, z'
loop_
 _atom_site_type_symbol
 _atom_site_label
 _atom_site_symmetry_multiplicity
 _atom_site_fract_x
 _atom_site_fract_y
 _atom_site_fract_z
 _atom_site_occupancy
  Te  Te0  1  0.428476  0.465475  0.649272  1
  Te  Te1  1  0.571524  0.534525  0.350728  1
  Te  Te2  1  0.928476  0.534525  0.850728  1
  Te  Te3  1  0.058252  0.044676  0.905916  1
  Te  Te4  1  0.071524  0.465475  0.149272  1
  Te  Te5  1  0.941748  0.955324  0.094084  1
  Te  Te6  1  0.558252  0.955324  0.594084  1
  Te  Te7  1  0.441748  0.044676  0.405916  1
  S  S8  1  0.902447  0.869541  0.346073  1
  S  S9  1  0.402447  0.130459  0.153927  1
  S  S10  1  0.638085  0.681399  0.175171  1
  S  S11  1  0.509187  0.831162  0.931591  1
  S  S12  1  0.990813  0.831162  0.431591  1
  S  S13  1  0.597553  0.869541  0.846073  1
  S  S14  1  0.138085  0.318601  0.324829  1
  S  S15  1  0.009187  0.168838  0.568409  1
  S  S16  1  0.490813  0.168838  0.068409  1
  S  S17  1  0.319557  0.339694  0.927923  1
  S  S18  1  0.097553  0.130459  0.653927  1
  S  S19  1  0.680443  0.660306  0.072077  1
  S  S20  1  0.819557  0.660306  0.572077  1
  S  S21  1  0.861915  0.681399  0.675171  1
  S  S22  1  0.180443  0.339694  0.427923  1
  S  S23  1  0.361915  0.318601  0.824829  1
  N  N24  1  0.513281  0.296281  0.943336  1
  N  N25  1  0.558904  0.271848  0.829392  1
  N  N26  1  0.013281  0.703719  0.556664  1
  N  N27  1  0.493726  0.209844  0.205681  1
  N  N28  1  0.993726  0.790156  0.294319  1
  N  N29  1  0.441096  0.728152  0.170608  1
  N  N30  1  0.582533  0.265311  0.177939  1
  N  N31  1  0.383535  0.735601  0.109599  1
  N  N32  1  0.417467  0.734689  0.822061  1
  N  N33  1  0.883535  0.264399  0.390401  1
  N  N34  1  0.917467  0.265311  0.677939  1
  N  N35  1  0.116465  0.735601  0.609599  1
  N  N36  1  0.091049  0.747509  0.389361  1
  N  N37  1  0.941096  0.271848  0.329392  1
  N  N38  1  0.486719  0.703719  0.056664  1
  N  N39  1  0.908951  0.252491  0.610639  1
  N  N40  1  0.591049  0.252491  0.110639  1
  N  N41  1  0.408951  0.747509  0.889361  1
  N  N42  1  0.616465  0.264399  0.890401  1
  N  N43  1  0.986719  0.296281  0.443336  1
  N  N44  1  0.506274  0.790156  0.794319  1
  N  N45  1  0.058904  0.728152  0.670608  1
  N  N46  1  0.082533  0.734689  0.322061  1
  N  N47  1  0.006274  0.209844  0.705681  1
  Cl  Cl48  1  0.843048  0.920386  0.646490  1
  Cl  Cl49  1  0.343048  0.079614  0.853510  1
  Cl  Cl50  1  0.395255  0.574092  0.452727  1
  Cl  Cl51  1  0.465879  0.621676  0.641111  1
  Cl  Cl52  1  0.156952  0.079614  0.353510  1
  Cl  Cl53  1  0.864037  0.538608  0.416456  1
  Cl  Cl54  1  0.101694  0.312026  0.156308  1
  Cl  Cl55  1  0.419900  0.894682  0.337493  1
  Cl  Cl56  1  0.865542  0.077063  0.818114  1
  Cl  Cl57  1  0.895255  0.425908  0.047273  1
  Cl  Cl58  1  0.261834  0.997042  0.026696  1
  Cl  Cl59  1  0.104745  0.574092  0.952727  1
  Cl  Cl60  1  0.738166  0.002958  0.973304  1
  Cl  Cl61  1  0.034121  0.621676  0.141111  1
  Cl  Cl62  1  0.534121  0.378324  0.358889  1
  Cl  Cl63  1  0.365542  0.922937  0.681886  1
  Cl  Cl64  1  0.135963  0.461392  0.583544  1
  Cl  Cl65  1  0.965879  0.378324  0.858889  1
  Cl  Cl66  1  0.761834  0.002958  0.473304  1
  Cl  Cl67  1  0.634458  0.077063  0.318114  1
  Cl  Cl68  1  0.635963  0.538608  0.916456  1
  Cl  Cl69  1  0.962677  0.806828  0.028294  1
  Cl  Cl70  1  0.919900  0.105318  0.162507  1
  Cl  Cl71  1  0.580100  0.105318  0.662507  1
  Cl  Cl72  1  0.037323  0.193172  0.971706  1
  Cl  Cl73  1  0.245331  0.521635  0.781336  1
  Cl  Cl74  1  0.398306  0.312026  0.656308  1
  Cl  Cl75  1  0.462677  0.193172  0.471706  1
  Cl  Cl76  1  0.656952  0.920386  0.146490  1
  Cl  Cl77  1  0.537323  0.806828  0.528294  1
  Cl  Cl78  1  0.254669  0.521635  0.281336  1
  Cl  Cl79  1  0.134458  0.922937  0.181886  1
  Cl  Cl80  1  0.898306  0.687974  0.843692  1
  Cl  Cl81  1  0.238166  0.997042  0.526696  1
  Cl  Cl82  1  0.604745  0.425908  0.547273  1
  Cl  Cl83  1  0.754669  0.478365  0.218664  1
  Cl  Cl84  1  0.745331  0.478365  0.718664  1
  Cl  Cl85  1  0.080100  0.894682  0.837493  1
  Cl  Cl86  1  0.364037  0.461392  0.083544  1
  Cl  Cl87  1  0.601694  0.687974  0.343692  1
