# generated using pymatgen
data_GeS2
_symmetry_space_group_name_H-M   'P 1'
_cell_length_a   11.27541779
_cell_length_b   11.27541811
_cell_length_c   12.47799256
_cell_angle_alpha   116.86000930
_cell_angle_beta   116.86001012
_cell_angle_gamma   90.00000003
_symmetry_Int_Tables_number   1
_chemical_formula_structural   GeS2
_chemical_formula_sum   'Ge16 S32'
_cell_volume   1220.31621511
_cell_formula_units_Z   16
loop_
 _symmetry_equiv_pos_site_id
 _symmetry_equiv_pos_as_xyz
  1  'x, y, z'
loop_
 _atom_site_type_symbol
 _atom_site_label
 _atom_site_symmetry_multiplicity
 _atom_site_fract_x
 _atom_site_fract_y
 _atom_site_fract_z
 _atom_site_occupancy
  Ge  Ge0  1  0.186281  0.903409  0.122151  1
  Ge  Ge1  1  0.564130  0.596591  0.877849  1
  Ge  Ge2  1  0.218742  0.435870  0.622151  1
  Ge  Ge3  1  0.096591  0.064130  0.377849  1
  Ge  Ge4  1  0.903409  0.935870  0.622151  1
  Ge  Ge5  1  0.596591  0.313719  0.377849  1
  Ge  Ge6  1  0.718742  0.186281  0.622151  1
  Ge  Ge7  1  0.435870  0.403409  0.122151  1
  Ge  Ge8  1  0.935870  0.718742  0.122151  1
  Ge  Ge9  1  0.686281  0.218742  0.122151  1
  Ge  Ge10  1  0.313719  0.781258  0.877849  1
  Ge  Ge11  1  0.813719  0.096591  0.877849  1
  Ge  Ge12  1  0.281258  0.813719  0.377849  1
  Ge  Ge13  1  0.781258  0.564130  0.377849  1
  Ge  Ge14  1  0.403409  0.686281  0.622151  1
  Ge  Ge15  1  0.064130  0.281258  0.877849  1
  S  S16  1  0.140761  0.591018  0.748943  1
  S  S17  1  0.542086  0.250000  0.500000  1
  S  S18  1  0.987239  0.737239  0.974478  1
  S  S19  1  0.957914  0.750000  0.500000  1
  S  S20  1  0.091018  0.640761  0.248943  1
  S  S21  1  0.842075  0.891818  0.751057  1
  S  S22  1  0.042086  0.250000  0.500000  1
  S  S23  1  0.750000  0.042086  1.000000  1
  S  S24  1  0.657925  0.140761  0.248943  1
  S  S25  1  0.457914  0.750000  0.500000  1
  S  S26  1  0.012761  0.262761  0.025522  1
  S  S27  1  0.859239  0.408982  0.251057  1
  S  S28  1  0.737239  0.987239  0.474478  1
  S  S29  1  0.608182  0.657925  0.748943  1
  S  S30  1  0.487239  0.237239  0.974478  1
  S  S31  1  0.512761  0.762761  0.025522  1
  S  S32  1  0.262761  0.012761  0.525522  1
  S  S33  1  0.891818  0.908982  0.251057  1
  S  S34  1  0.591018  0.608182  0.248943  1
  S  S35  1  0.408982  0.391818  0.751057  1
  S  S36  1  0.750000  0.542086  1.000000  1
  S  S37  1  0.762761  0.512761  0.525522  1
  S  S38  1  0.108182  0.091018  0.748943  1
  S  S39  1  0.157925  0.108182  0.248943  1
  S  S40  1  0.342075  0.859239  0.751057  1
  S  S41  1  0.640761  0.157925  0.748943  1
  S  S42  1  0.250000  0.957914  0.000000  1
  S  S43  1  0.237239  0.487239  0.474478  1
  S  S44  1  0.391818  0.342075  0.251057  1
  S  S45  1  0.359239  0.842075  0.251057  1
  S  S46  1  0.908982  0.359239  0.751057  1
  S  S47  1  0.250000  0.457914  0.000000  1
