# generated using pymatgen
data_Yb8In3
_symmetry_space_group_name_H-M   'P 1'
_cell_length_a   18.90186925
_cell_length_b   18.90186910
_cell_length_c   18.90186976
_cell_angle_alpha   29.30736191
_cell_angle_beta   29.30736269
_cell_angle_gamma   29.30736221
_symmetry_Int_Tables_number   1
_chemical_formula_structural   Yb8In3
_chemical_formula_sum   'Yb32 In12'
_cell_volume   1431.84383049
_cell_formula_units_Z   4
loop_
 _symmetry_equiv_pos_site_id
 _symmetry_equiv_pos_as_xyz
  1  'x, y, z'
loop_
 _atom_site_type_symbol
 _atom_site_label
 _atom_site_symmetry_multiplicity
 _atom_site_fract_x
 _atom_site_fract_y
 _atom_site_fract_z
 _atom_site_occupancy
  Yb  Yb0  1  0.382035  0.633216  0.140753  1
  Yb  Yb1  1  0.516113  0.141927  0.788532  1
  Yb  Yb2  1  0.866784  0.117965  0.359247  1
  Yb  Yb3  1  0.211468  0.483887  0.858073  1
  Yb  Yb4  1  0.279680  0.279680  0.279680  1
  Yb  Yb5  1  0.133216  0.882035  0.640753  1
  Yb  Yb6  1  0.939169  0.939169  0.939169  1
  Yb  Yb7  1  0.366784  0.859247  0.617965  1
  Yb  Yb8  1  0.060831  0.060831  0.060831  1
  Yb  Yb9  1  0.633216  0.140753  0.382035  1
  Yb  Yb10  1  0.359247  0.866784  0.117965  1
  Yb  Yb11  1  0.117965  0.359247  0.866784  1
  Yb  Yb12  1  0.641927  0.016113  0.288532  1
  Yb  Yb13  1  0.140753  0.382035  0.633216  1
  Yb  Yb14  1  0.141927  0.788532  0.516113  1
  Yb  Yb15  1  0.288532  0.641927  0.016113  1
  Yb  Yb16  1  0.779680  0.779680  0.779680  1
  Yb  Yb17  1  0.016113  0.288532  0.641927  1
  Yb  Yb18  1  0.640753  0.133216  0.882035  1
  Yb  Yb19  1  0.483887  0.858073  0.211468  1
  Yb  Yb20  1  0.220320  0.220320  0.220320  1
  Yb  Yb21  1  0.711468  0.358073  0.983887  1
  Yb  Yb22  1  0.983887  0.711468  0.358073  1
  Yb  Yb23  1  0.858073  0.211468  0.483887  1
  Yb  Yb24  1  0.439169  0.439169  0.439169  1
  Yb  Yb25  1  0.358073  0.983887  0.711468  1
  Yb  Yb26  1  0.560831  0.560831  0.560831  1
  Yb  Yb27  1  0.859247  0.617965  0.366784  1
  Yb  Yb28  1  0.720320  0.720320  0.720320  1
  Yb  Yb29  1  0.617965  0.366784  0.859247  1
  Yb  Yb30  1  0.882035  0.640753  0.133216  1
  Yb  Yb31  1  0.788532  0.516113  0.141927  1
  In  In32  1  0.160240  0.160240  0.160240  1
  In  In33  1  0.339760  0.339760  0.339760  1
  In  In34  1  0.750000  0.431756  0.068244  1
  In  In35  1  0.250000  0.568244  0.931756  1
  In  In36  1  0.931756  0.250000  0.568244  1
  In  In37  1  0.568244  0.931756  0.250000  1
  In  In38  1  0.660240  0.660240  0.660240  1
  In  In39  1  0.500000  0.500000  0.500000  1
  In  In40  1  0.839760  0.839760  0.839760  1
  In  In41  1  0.431756  0.068244  0.750000  1
  In  In42  1  0.068244  0.750000  0.431756  1
  In  In43  1  0.000000  0.000000  0.000000  1
