# generated using pymatgen
data_Sr3MgPtO6
_symmetry_space_group_name_H-M   'P 1'
_cell_length_a   6.75828737
_cell_length_b   6.75828737
_cell_length_c   6.75828737
_cell_angle_alpha   92.17215617
_cell_angle_beta   92.17215617
_cell_angle_gamma   92.17215614
_symmetry_Int_Tables_number   1
_chemical_formula_structural   Sr3MgPtO6
_chemical_formula_sum   'Sr6 Mg2 Pt2 O12'
_cell_volume   307.99831823
_cell_formula_units_Z   2
loop_
 _symmetry_equiv_pos_site_id
 _symmetry_equiv_pos_as_xyz
  1  'x, y, z'
loop_
 _atom_site_type_symbol
 _atom_site_label
 _atom_site_symmetry_multiplicity
 _atom_site_fract_x
 _atom_site_fract_y
 _atom_site_fract_z
 _atom_site_occupancy
  O  O0  1  0.788833  0.594816  0.464525  1
  O  O1  1  0.594816  0.464525  0.788833  1
  O  O2  1  0.464525  0.788833  0.594816  1
  O  O3  1  0.035475  0.905184  0.711167  1
  O  O4  1  0.905184  0.711167  0.035475  1
  O  O5  1  0.711167  0.035475  0.905184  1
  O  O6  1  0.211167  0.405184  0.535475  1
  O  O7  1  0.405184  0.535475  0.211167  1
  O  O8  1  0.535475  0.211167  0.405184  1
  O  O9  1  0.964525  0.094816  0.288833  1
  O  O10  1  0.288833  0.964525  0.094816  1
  O  O11  1  0.094816  0.288833  0.964525  1
  Mg  Mg12  1  0.250000  0.250000  0.250000  1
  Mg  Mg13  1  0.750000  0.750000  0.750000  1
  Sr  Sr14  1  0.250000  0.614720  0.885280  1
  Sr  Sr15  1  0.614720  0.885280  0.250000  1
  Sr  Sr16  1  0.114720  0.750000  0.385280  1
  Sr  Sr17  1  0.750000  0.385280  0.114720  1
  Sr  Sr18  1  0.385280  0.114720  0.750000  1
  Sr  Sr19  1  0.885280  0.250000  0.614720  1
  Pt  Pt20  1  0.000000  0.000000  0.000000  1
  Pt  Pt21  1  0.500000  0.500000  0.500000  1
