# generated using pymatgen
data_Ba2Na2B10H2O19
_symmetry_space_group_name_H-M   'P 1'
_cell_length_a   6.68982691
_cell_length_b   6.68982691
_cell_length_c   9.47919724
_cell_angle_alpha   87.06748959
_cell_angle_beta   92.93251041
_cell_angle_gamma   119.45349861
_symmetry_Int_Tables_number   1
_chemical_formula_structural   Ba2Na2B10H2O19
_chemical_formula_sum   'Ba2 Na2 B10 H2 O19'
_cell_volume   368.75166864
_cell_formula_units_Z   1
loop_
 _symmetry_equiv_pos_site_id
 _symmetry_equiv_pos_as_xyz
  1  'x, y, z'
loop_
 _atom_site_type_symbol
 _atom_site_label
 _atom_site_symmetry_multiplicity
 _atom_site_fract_x
 _atom_site_fract_y
 _atom_site_fract_z
 _atom_site_occupancy
  Ba  Ba0  1  0.331154  0.668487  0.107309  1
  Ba  Ba1  1  0.668487  0.331154  0.892691  1
  Na  Na2  1  0.307271  0.307271  0.500000  1
  Na  Na3  1  0.788572  0.788572  0.500000  1
  B  B4  1  0.307164  0.802505  0.532116  1
  B  B5  1  0.802505  0.307164  0.467884  1
  B  B6  1  0.353395  0.680807  0.777706  1
  B  B7  1  0.680807  0.353395  0.222294  1
  B  B8  1  0.177794  0.942848  0.731920  1
  B  B9  1  0.942848  0.177794  0.268080  1
  B  B10  1  0.795677  0.860803  0.827559  1
  B  B11  1  0.860803  0.795677  0.172441  1
  B  B12  1  0.141778  0.246581  0.864240  1
  B  B13  1  0.246581  0.141778  0.135760  1
  H  H14  1  0.942570  0.359168  0.664024  1
  H  H15  1  0.359168  0.942570  0.335976  1
  O  O16  1  0.925952  0.786589  0.761895  1
  O  O17  1  0.786589  0.925952  0.238105  1
  O  O18  1  0.077792  0.887917  0.123830  1
  O  O19  1  0.887917  0.077792  0.876170  1
  O  O20  1  0.198197  0.916326  0.574736  1
  O  O21  1  0.916326  0.198197  0.425264  1
  O  O22  1  0.331347  0.880155  0.814137  1
  O  O23  1  0.880155  0.331347  0.185863  1
  O  O24  1  0.381509  0.680668  0.619417  1
  O  O25  1  0.680668  0.381509  0.380583  1
  O  O26  1  0.808356  0.351518  0.610701  1
  O  O27  1  0.351518  0.808356  0.389299  1
  O  O28  1  0.240216  0.181465  0.749968  1
  O  O29  1  0.181465  0.240216  0.250032  1
  O  O30  1  0.151258  0.468937  0.826355  1
  O  O31  1  0.468937  0.151258  0.173645  1
  O  O32  1  0.566419  0.698701  0.848865  1
  O  O33  1  0.698701  0.566419  0.151135  1
  O  O34  1  0.265403  0.265403  0.000000  1
