# generated using pymatgen
data_Hf5ZrTe8
_symmetry_space_group_name_H-M   'P 1'
_cell_length_a   10.98042772
_cell_length_b   11.01525157
_cell_length_c   15.77775301
_cell_angle_alpha   90.00959212
_cell_angle_beta   89.98827483
_cell_angle_gamma   119.90940878
_symmetry_Int_Tables_number   1
_chemical_formula_structural   Hf5ZrTe8
_chemical_formula_sum   'Hf20 Zr4 Te32'
_cell_volume   1654.18918750
_cell_formula_units_Z   4
loop_
 _symmetry_equiv_pos_site_id
 _symmetry_equiv_pos_as_xyz
  1  'x, y, z'
loop_
 _atom_site_type_symbol
 _atom_site_label
 _atom_site_symmetry_multiplicity
 _atom_site_fract_x
 _atom_site_fract_y
 _atom_site_fract_z
 _atom_site_occupancy
  Hf  Hf0  1  0.122879  0.632932  0.062638  1
  Hf  Hf1  1  0.124968  0.634167  0.562066  1
  Hf  Hf2  1  0.123174  0.632953  0.812698  1
  Hf  Hf3  1  0.511530  0.878465  0.312238  1
  Hf  Hf4  1  0.511468  0.878728  0.062367  1
  Hf  Hf5  1  0.510613  0.877794  0.811924  1
  Hf  Hf6  1  0.368129  0.491429  0.062070  1
  Hf  Hf7  1  0.367072  0.490315  0.312390  1
  Hf  Hf8  1  0.367988  0.489948  0.562367  1
  Hf  Hf9  1  0.367981  0.490296  0.813113  1
  Hf  Hf10  1  0.632518  0.510015  0.187752  1
  Hf  Hf11  1  0.632348  0.508864  0.687090  1
  Hf  Hf12  1  0.631973  0.509830  0.937051  1
  Hf  Hf13  1  0.488718  0.122935  0.437166  1
  Hf  Hf14  1  0.488563  0.121248  0.687375  1
  Hf  Hf15  1  0.488993  0.122118  0.938329  1
  Hf  Hf16  1  0.877360  0.367103  0.436912  1
  Hf  Hf17  1  0.876732  0.366219  0.187236  1
  Hf  Hf18  1  0.876901  0.367014  0.688343  1
  Hf  Hf19  1  0.876532  0.367571  0.937349  1
  Zr  Zr20  1  0.123743  0.632158  0.312752  1
  Zr  Zr21  1  0.510338  0.878153  0.563455  1
  Zr  Zr22  1  0.631579  0.508669  0.438169  1
  Zr  Zr23  1  0.490324  0.122684  0.187074  1
  Te  Te24  1  0.286534  0.943605  0.061651  1
  Te  Te25  1  0.288286  0.945631  0.313441  1
  Te  Te26  1  0.285939  0.947511  0.562303  1
  Te  Te27  1  0.287718  0.945751  0.812688  1
  Te  Te28  1  0.054417  0.343236  0.062027  1
  Te  Te29  1  0.052758  0.339441  0.311919  1
  Te  Te30  1  0.054292  0.343485  0.562740  1
  Te  Te31  1  0.054583  0.343311  0.812962  1
  Te  Te32  1  0.335483  0.668063  0.186798  1
  Te  Te33  1  0.335690  0.667146  0.437627  1
  Te  Te34  1  0.333399  0.665898  0.688205  1
  Te  Te35  1  0.334539  0.667974  0.937367  1
  Te  Te36  1  0.341434  0.290319  0.187128  1
  Te  Te37  1  0.337832  0.286706  0.436989  1
  Te  Te38  1  0.341387  0.288366  0.687812  1
  Te  Te39  1  0.341419  0.288259  0.937903  1
  Te  Te40  1  0.658842  0.711710  0.062102  1
  Te  Te41  1  0.657587  0.712300  0.311931  1
  Te  Te42  1  0.658095  0.711227  0.564077  1
  Te  Te43  1  0.658549  0.711459  0.812089  1
  Te  Te44  1  0.666486  0.334073  0.061912  1
  Te  Te45  1  0.666771  0.333097  0.312291  1
  Te  Te46  1  0.664901  0.332111  0.812668  1
  Te  Te47  1  0.666051  0.331126  0.563088  1
  Te  Te48  1  0.943991  0.655743  0.186753  1
  Te  Te49  1  0.945886  0.656388  0.438951  1
  Te  Te50  1  0.946269  0.656787  0.687386  1
  Te  Te51  1  0.945674  0.657291  0.937339  1
  Te  Te52  1  0.714357  0.052957  0.186964  1
  Te  Te53  1  0.712673  0.056213  0.436700  1
  Te  Te54  1  0.713550  0.056563  0.689022  1
  Te  Te55  1  0.712184  0.054642  0.937242  1
