# generated using pymatgen
data_P2H6C5N2Cl4O
_symmetry_space_group_name_H-M   'P 1'
_cell_length_a   8.43064077
_cell_length_b   8.84307596
_cell_length_c   16.28837038
_cell_angle_alpha   90.16280812
_cell_angle_beta   90.00000000
_cell_angle_gamma   90.00000000
_symmetry_Int_Tables_number   1
_chemical_formula_structural   P2H6C5N2Cl4O
_chemical_formula_sum   'P8 H24 C20 N8 Cl16 O4'
_cell_volume   1214.33866322
_cell_formula_units_Z   4
loop_
 _symmetry_equiv_pos_site_id
 _symmetry_equiv_pos_as_xyz
  1  'x, y, z'
loop_
 _atom_site_type_symbol
 _atom_site_label
 _atom_site_symmetry_multiplicity
 _atom_site_fract_x
 _atom_site_fract_y
 _atom_site_fract_z
 _atom_site_occupancy
  P  P0  1  0.080840  0.709257  0.572295  1
  P  P1  1  0.818844  0.243407  0.812155  1
  P  P2  1  0.580840  0.290743  0.927705  1
  P  P3  1  0.919160  0.290743  0.427705  1
  P  P4  1  0.681156  0.243407  0.312155  1
  P  P5  1  0.419160  0.709257  0.072295  1
  P  P6  1  0.318844  0.756593  0.687845  1
  P  P7  1  0.181156  0.756593  0.187845  1
  H  H8  1  0.680374  0.736634  0.586740  1
  H  H9  1  0.286632  0.834386  0.882571  1
  H  H10  1  0.366726  0.066048  0.408155  1
  H  H11  1  0.069171  0.694726  0.408156  1
  H  H12  1  0.269511  0.639960  0.387456  1
  H  H13  1  0.133274  0.066048  0.908155  1
  H  H14  1  0.866726  0.933952  0.091845  1
  H  H15  1  0.930829  0.305274  0.591844  1
  H  H16  1  0.730489  0.360040  0.612544  1
  H  H17  1  0.819626  0.736634  0.086740  1
  H  H18  1  0.129355  0.178528  0.816991  1
  H  H19  1  0.633274  0.933952  0.591845  1
  H  H20  1  0.786632  0.165614  0.617429  1
  H  H21  1  0.870645  0.821472  0.183009  1
  H  H22  1  0.180374  0.263366  0.913260  1
  H  H23  1  0.370645  0.178528  0.316991  1
  H  H24  1  0.230489  0.639960  0.887456  1
  H  H25  1  0.629355  0.821472  0.683009  1
  H  H26  1  0.713368  0.165614  0.117429  1
  H  H27  1  0.213368  0.834386  0.382571  1
  H  H28  1  0.769511  0.360040  0.112544  1
  H  H29  1  0.430829  0.694726  0.908156  1
  H  H30  1  0.569171  0.305274  0.091844  1
  H  H31  1  0.319626  0.263366  0.413260  1
  C  C32  1  0.104999  0.178092  0.883196  1
  C  C33  1  0.604999  0.821908  0.616804  1
  C  C34  1  0.693920  0.272435  0.084719  1
  C  C35  1  0.865625  0.136422  0.349493  1
  C  C36  1  0.298082  0.586807  0.146374  1
  C  C37  1  0.610996  0.219226  0.479141  1
  C  C38  1  0.365625  0.863578  0.150507  1
  C  C39  1  0.895001  0.821908  0.116804  1
  C  C40  1  0.701918  0.413193  0.853626  1
  C  C41  1  0.806080  0.272435  0.584719  1
  C  C42  1  0.889004  0.219226  0.979141  1
  C  C43  1  0.306080  0.727565  0.915281  1
  C  C44  1  0.201918  0.586807  0.646374  1
  C  C45  1  0.395001  0.178092  0.383196  1
  C  C46  1  0.389004  0.780774  0.520859  1
  C  C47  1  0.798082  0.413193  0.353626  1
  C  C48  1  0.110996  0.780774  0.020859  1
  C  C49  1  0.134375  0.863578  0.650507  1
  C  C50  1  0.193920  0.727565  0.415281  1
  C  C51  1  0.634375  0.136422  0.849493  1
  N  N52  1  0.230787  0.744523  0.503285  1
  N  N53  1  0.564016  0.213345  0.396961  1
  N  N54  1  0.435984  0.786655  0.603039  1
  N  N55  1  0.935984  0.213345  0.896961  1
  N  N56  1  0.269213  0.744523  0.003285  1
  N  N57  1  0.730787  0.255477  0.996715  1
  N  N58  1  0.769213  0.255477  0.496715  1
  N  N59  1  0.064016  0.786655  0.103039  1
  Cl  Cl60  1  0.325235  0.043402  0.109466  1
  Cl  Cl61  1  0.419197  0.508184  0.225191  1
  Cl  Cl62  1  0.989064  0.875202  0.729654  1
  Cl  Cl63  1  0.825235  0.956598  0.390534  1
  Cl  Cl64  1  0.080803  0.508184  0.725191  1
  Cl  Cl65  1  0.580803  0.491816  0.774809  1
  Cl  Cl66  1  0.174765  0.043402  0.609466  1
  Cl  Cl67  1  0.919197  0.491816  0.274809  1
  Cl  Cl68  1  0.510936  0.875202  0.229654  1
  Cl  Cl69  1  0.815777  0.555961  0.900656  1
  Cl  Cl70  1  0.684223  0.555961  0.400656  1
  Cl  Cl71  1  0.010936  0.124798  0.270346  1
  Cl  Cl72  1  0.489064  0.124798  0.770346  1
  Cl  Cl73  1  0.674765  0.956598  0.890534  1
  Cl  Cl74  1  0.184223  0.444039  0.099344  1
  Cl  Cl75  1  0.315777  0.444039  0.599344  1
  O  O76  1  0.515199  0.194603  0.535285  1
  O  O77  1  0.015199  0.805397  0.964715  1
  O  O78  1  0.984801  0.194603  0.035285  1
  O  O79  1  0.484801  0.805397  0.464715  1
