# generated using pymatgen
data_CsZnAgC4(SN)4
_symmetry_space_group_name_H-M   'P 1'
_cell_length_a   9.14974398
_cell_length_b   9.21399373
_cell_length_c   16.87683970
_cell_angle_alpha   90.00000000
_cell_angle_beta   90.00000000
_cell_angle_gamma   98.26356736
_symmetry_Int_Tables_number   1
_chemical_formula_structural   CsZnAgC4(SN)4
_chemical_formula_sum   'Cs4 Zn4 Ag4 C16 S16 N16'
_cell_volume   1408.04097791
_cell_formula_units_Z   4
loop_
 _symmetry_equiv_pos_site_id
 _symmetry_equiv_pos_as_xyz
  1  'x, y, z'
loop_
 _atom_site_type_symbol
 _atom_site_label
 _atom_site_symmetry_multiplicity
 _atom_site_fract_x
 _atom_site_fract_y
 _atom_site_fract_z
 _atom_site_occupancy
  Cs  Cs0  1  0.392291  0.145061  0.124613  1
  Cs  Cs1  1  0.892291  0.645061  0.375387  1
  Cs  Cs2  1  0.607709  0.854939  0.875387  1
  Cs  Cs3  1  0.107709  0.354939  0.624613  1
  Zn  Zn4  1  0.408482  0.212693  0.447515  1
  Zn  Zn5  1  0.908482  0.712693  0.052485  1
  Zn  Zn6  1  0.091518  0.287307  0.947515  1
  Zn  Zn7  1  0.591518  0.787307  0.552485  1
  Ag  Ag8  1  0.922218  0.159078  0.260423  1
  Ag  Ag9  1  0.577782  0.340922  0.760423  1
  Ag  Ag10  1  0.077782  0.840922  0.739577  1
  Ag  Ag11  1  0.422218  0.659078  0.239577  1
  C  C12  1  0.288374  0.470100  0.819823  1
  C  C13  1  0.249683  0.756777  0.582173  1
  C  C14  1  0.638555  0.883158  0.375624  1
  C  C15  1  0.361445  0.116842  0.624376  1
  C  C16  1  0.788374  0.970100  0.680177  1
  C  C17  1  0.711626  0.529900  0.180177  1
  C  C18  1  0.138555  0.383158  0.124376  1
  C  C19  1  0.749683  0.256777  0.917827  1
  C  C20  1  0.316441  0.520356  0.409877  1
  C  C21  1  0.861445  0.616842  0.875624  1
  C  C22  1  0.211626  0.029900  0.319823  1
  C  C23  1  0.250317  0.743223  0.082173  1
  C  C24  1  0.750317  0.243223  0.417827  1
  C  C25  1  0.816441  0.020356  0.090123  1
  C  C26  1  0.183559  0.979644  0.909877  1
  C  C27  1  0.683559  0.479644  0.590123  1
  S  S28  1  0.900203  0.049126  0.747730  1
  S  S29  1  0.428634  0.752404  0.094018  1
  S  S30  1  0.714257  0.323991  0.627503  1
  S  S31  1  0.852284  0.587599  0.781073  1
  S  S32  1  0.099797  0.950874  0.252270  1
  S  S33  1  0.400203  0.549126  0.752270  1
  S  S34  1  0.214257  0.823991  0.872497  1
  S  S35  1  0.599797  0.450874  0.247730  1
  S  S36  1  0.785743  0.176009  0.127503  1
  S  S37  1  0.071366  0.747596  0.594018  1
  S  S38  1  0.571366  0.247596  0.905982  1
  S  S39  1  0.647716  0.912401  0.281073  1
  S  S40  1  0.147716  0.412401  0.218927  1
  S  S41  1  0.928634  0.252404  0.405982  1
  S  S42  1  0.285743  0.676009  0.372497  1
  S  S43  1  0.352284  0.087599  0.718927  1
  N  N44  1  0.161785  0.092094  0.938456  1
  N  N45  1  0.338215  0.407906  0.438456  1
  N  N46  1  0.621752  0.238694  0.426200  1
  N  N47  1  0.637862  0.859163  0.444736  1
  N  N48  1  0.121752  0.738694  0.073800  1
  N  N49  1  0.838215  0.907906  0.061544  1
  N  N50  1  0.137862  0.359163  0.055264  1
  N  N51  1  0.378248  0.761306  0.573800  1
  N  N52  1  0.795006  0.587234  0.132390  1
  N  N53  1  0.362138  0.140837  0.555264  1
  N  N54  1  0.862138  0.640837  0.944736  1
  N  N55  1  0.704994  0.912766  0.632390  1
  N  N56  1  0.295006  0.087234  0.367610  1
  N  N57  1  0.878248  0.261306  0.926200  1
  N  N58  1  0.204994  0.412766  0.867610  1
  N  N59  1  0.661785  0.592094  0.561544  1
