# generated using pymatgen
data_Na2Al2Si3(HO3)4
_symmetry_space_group_name_H-M   'P 1'
_cell_length_a   8.94236953
_cell_length_b   8.07982240
_cell_length_c   8.46159432
_cell_angle_alpha   96.66141605
_cell_angle_beta   76.82103678
_cell_angle_gamma   80.03589710
_symmetry_Int_Tables_number   1
_chemical_formula_structural   Na2Al2Si3(HO3)4
_chemical_formula_sum   'Na4 Al4 Si6 H8 O24'
_cell_volume   578.53842634
_cell_formula_units_Z   2
loop_
 _symmetry_equiv_pos_site_id
 _symmetry_equiv_pos_as_xyz
  1  'x, y, z'
loop_
 _atom_site_type_symbol
 _atom_site_label
 _atom_site_symmetry_multiplicity
 _atom_site_fract_x
 _atom_site_fract_y
 _atom_site_fract_z
 _atom_site_occupancy
  Na  Na0  1  0.285995  0.020132  0.253972  1
  Na  Na1  1  0.595456  0.398473  0.798220  1
  Na  Na2  1  0.676760  0.777444  0.023816  1
  Na  Na3  1  0.797445  0.018022  0.684613  1
  Al  Al4  1  0.403261  0.946661  0.864175  1
  Al  Al5  1  0.422700  0.140342  0.549509  1
  Al  Al6  1  0.571944  0.147870  0.142047  1
  Al  Al7  1  0.211011  0.447249  0.458236  1
  Si  Si8  1  0.232827  0.668418  0.054786  1
  Si  Si9  1  0.830682  0.595923  0.518946  1
  Si  Si10  1  0.228536  0.345100  0.821313  1
  Si  Si11  1  0.971884  0.305691  0.287427  1
  Si  Si12  1  0.364707  0.578879  0.252892  1
  Si  Si13  1  0.901105  0.082714  0.994990  1
  H  H14  1  0.059793  0.366365  0.893090  1
  H  H15  1  0.879637  0.800988  0.364875  1
  H  H16  1  0.023458  0.707767  0.625099  1
  H  H17  1  0.676808  0.176863  0.502239  1
  H  H18  1  0.425539  0.405571  0.147584  1
  H  H19  1  0.169647  0.921862  0.744916  1
  H  H20  1  0.601275  0.617347  0.289135  1
  H  H21  1  0.992531  0.606160  0.167792  1
  O  O22  1  0.141490  0.318585  0.318728  1
  O  O23  1  0.007394  0.960725  0.830383  1
  O  O24  1  0.013459  0.593929  0.578671  1
  O  O25  1  0.331272  0.955806  0.536458  1
  O  O26  1  0.994488  0.179691  0.118166  1
  O  O27  1  0.295255  0.875156  0.686977  1
  O  O28  1  0.298905  0.500631  0.902658  1
  O  O29  1  0.482504  0.030012  0.022501  1
  O  O30  1  0.598531  0.167149  0.600930  1
  O  O31  1  0.799205  0.237400  0.916693  1
  O  O32  1  0.336992  0.158461  0.806964  1
  O  O33  1  0.275011  0.839537  0.993234  1
  O  O34  1  0.520969  0.675473  0.242236  1
  O  O35  1  0.266318  0.349833  0.618895  1
  O  O36  1  0.038547  0.695247  0.116357  1
  O  O37  1  0.611487  0.816258  0.775142  1
  O  O38  1  0.644361  0.323140  0.044844  1
  O  O39  1  0.866905  0.503906  0.315317  1
  O  O40  1  0.763992  0.013717  0.115936  1
  O  O41  1  0.869033  0.232552  0.446790  1
  O  O42  1  0.456356  0.175151  0.343578  1
  O  O43  1  0.660653  0.639409  0.672823  1
  O  O44  1  0.833636  0.384899  0.579723  1
  O  O45  1  0.820237  0.797489  0.476326  1
