# generated using pymatgen
data_SiO2
_symmetry_space_group_name_H-M   'P 1'
_cell_length_a   8.77429315
_cell_length_b   20.20510305
_cell_length_c   10.23391916
_cell_angle_alpha   90.00000000
_cell_angle_beta   90.00000000
_cell_angle_gamma   90.00000000
_symmetry_Int_Tables_number   1
_chemical_formula_structural   SiO2
_chemical_formula_sum   'Si32 O64'
_cell_volume   1814.32544747
_cell_formula_units_Z   32
loop_
 _symmetry_equiv_pos_site_id
 _symmetry_equiv_pos_as_xyz
  1  'x, y, z'
loop_
 _atom_site_type_symbol
 _atom_site_label
 _atom_site_symmetry_multiplicity
 _atom_site_fract_x
 _atom_site_fract_y
 _atom_site_fract_z
 _atom_site_occupancy
  Si  Si0  1  0.181841  0.055129  0.889017  1
  Si  Si1  1  0.181841  0.944871  0.110983  1
  Si  Si2  1  0.318159  0.055129  0.610983  1
  Si  Si3  1  0.318159  0.944871  0.389017  1
  Si  Si4  1  0.818159  0.944871  0.110983  1
  Si  Si5  1  0.818159  0.055129  0.889017  1
  Si  Si6  1  0.681841  0.944871  0.389017  1
  Si  Si7  1  0.681841  0.055129  0.610983  1
  Si  Si8  1  0.681841  0.555129  0.889017  1
  Si  Si9  1  0.681841  0.444871  0.110983  1
  Si  Si10  1  0.818159  0.555129  0.610983  1
  Si  Si11  1  0.818159  0.444871  0.389017  1
  Si  Si12  1  0.318159  0.444871  0.110983  1
  Si  Si13  1  0.318159  0.555129  0.889017  1
  Si  Si14  1  0.181841  0.444871  0.389017  1
  Si  Si15  1  0.181841  0.555129  0.610983  1
  Si  Si16  1  0.316097  0.198852  0.893118  1
  Si  Si17  1  0.316097  0.801148  0.106882  1
  Si  Si18  1  0.183903  0.198852  0.606882  1
  Si  Si19  1  0.183903  0.801148  0.393118  1
  Si  Si20  1  0.683903  0.801148  0.106882  1
  Si  Si21  1  0.683903  0.198852  0.893118  1
  Si  Si22  1  0.816097  0.801148  0.393118  1
  Si  Si23  1  0.816097  0.198852  0.606882  1
  Si  Si24  1  0.816097  0.698852  0.893118  1
  Si  Si25  1  0.816097  0.301148  0.106882  1
  Si  Si26  1  0.683903  0.698852  0.606882  1
  Si  Si27  1  0.683903  0.301148  0.393118  1
  Si  Si28  1  0.183903  0.301148  0.106882  1
  Si  Si29  1  0.183903  0.698852  0.893118  1
  Si  Si30  1  0.316097  0.301148  0.393118  1
  Si  Si31  1  0.316097  0.698852  0.606882  1
  O  O32  1  0.214871  0.000000  0.000000  1
  O  O33  1  0.285129  0.000000  0.500000  1
  O  O34  1  0.785129  0.000000  0.000000  1
  O  O35  1  0.714871  0.000000  0.500000  1
  O  O36  1  0.714871  0.500000  0.000000  1
  O  O37  1  0.785129  0.500000  0.500000  1
  O  O38  1  0.285129  0.500000  0.000000  1
  O  O39  1  0.214871  0.500000  0.500000  1
  O  O40  1  0.000000  0.067640  0.873864  1
  O  O41  1  0.000000  0.932360  0.126136  1
  O  O42  1  0.500000  0.067640  0.626136  1
  O  O43  1  0.500000  0.932360  0.373864  1
  O  O44  1  0.500000  0.567640  0.873864  1
  O  O45  1  0.500000  0.432360  0.126136  1
  O  O46  1  0.000000  0.567640  0.626136  1
  O  O47  1  0.000000  0.432360  0.373864  1
  O  O48  1  0.250000  0.029320  0.750000  1
  O  O49  1  0.250000  0.970680  0.250000  1
  O  O50  1  0.750000  0.970680  0.250000  1
  O  O51  1  0.750000  0.029320  0.750000  1
  O  O52  1  0.750000  0.529320  0.750000  1
  O  O53  1  0.750000  0.470680  0.250000  1
  O  O54  1  0.250000  0.470680  0.250000  1
  O  O55  1  0.250000  0.529320  0.750000  1
  O  O56  1  0.263731  0.123903  0.931303  1
  O  O57  1  0.263731  0.876097  0.068697  1
  O  O58  1  0.236269  0.123903  0.568697  1
  O  O59  1  0.236269  0.876097  0.431303  1
  O  O60  1  0.736269  0.876097  0.068697  1
  O  O61  1  0.736269  0.123903  0.931303  1
  O  O62  1  0.763731  0.876097  0.431303  1
  O  O63  1  0.763731  0.123903  0.568697  1
  O  O64  1  0.763731  0.623903  0.931303  1
  O  O65  1  0.763731  0.376097  0.068697  1
  O  O66  1  0.736269  0.623903  0.568697  1
  O  O67  1  0.736269  0.376097  0.431303  1
  O  O68  1  0.236269  0.376097  0.068697  1
  O  O69  1  0.236269  0.623903  0.931303  1
  O  O70  1  0.263731  0.376097  0.431303  1
  O  O71  1  0.263731  0.623903  0.568697  1
  O  O72  1  0.500000  0.202864  0.890886  1
  O  O73  1  0.500000  0.797136  0.109114  1
  O  O74  1  0.000000  0.202864  0.609114  1
  O  O75  1  0.000000  0.797136  0.390886  1
  O  O76  1  0.000000  0.702864  0.890886  1
  O  O77  1  0.000000  0.297136  0.109114  1
  O  O78  1  0.500000  0.702864  0.609114  1
  O  O79  1  0.500000  0.297136  0.390886  1
  O  O80  1  0.250000  0.218679  0.750000  1
  O  O81  1  0.250000  0.781321  0.250000  1
  O  O82  1  0.750000  0.781321  0.250000  1
  O  O83  1  0.750000  0.218679  0.750000  1
  O  O84  1  0.750000  0.718679  0.750000  1
  O  O85  1  0.750000  0.281321  0.250000  1
  O  O86  1  0.250000  0.281321  0.250000  1
  O  O87  1  0.250000  0.718679  0.750000  1
  O  O88  1  0.250000  0.250000  0.000000  1
  O  O89  1  0.250000  0.750000  0.000000  1
  O  O90  1  0.250000  0.250000  0.500000  1
  O  O91  1  0.250000  0.750000  0.500000  1
  O  O92  1  0.750000  0.750000  0.000000  1
  O  O93  1  0.750000  0.250000  0.000000  1
  O  O94  1  0.750000  0.750000  0.500000  1
  O  O95  1  0.750000  0.250000  0.500000  1
