# generated using pymatgen
data_KNa2AlH6
_symmetry_space_group_name_H-M   'P 1'
_cell_length_a   7.01562365
_cell_length_b   4.60633336
_cell_length_c   11.05204574
_cell_angle_alpha   90.00000000
_cell_angle_beta   84.15768279
_cell_angle_gamma   90.00000000
_symmetry_Int_Tables_number   1
_chemical_formula_structural   KNa2AlH6
_chemical_formula_sum   'K2 Na4 Al2 H12'
_cell_volume   355.30607304
_cell_formula_units_Z   2
loop_
 _symmetry_equiv_pos_site_id
 _symmetry_equiv_pos_as_xyz
  1  'x, y, z'
loop_
 _atom_site_type_symbol
 _atom_site_label
 _atom_site_symmetry_multiplicity
 _atom_site_fract_x
 _atom_site_fract_y
 _atom_site_fract_z
 _atom_site_occupancy
  K  K0  1  0.648570  0.476401  0.235741  1
  K  K1  1  0.351430  0.976401  0.764259  1
  Na  Na2  1  0.807234  0.568205  0.799851  1
  Na  Na3  1  0.097561  0.656321  0.415979  1
  Na  Na4  1  0.192766  0.068205  0.200149  1
  Na  Na5  1  0.902439  0.156321  0.584021  1
  Al  Al6  1  0.096149  0.486540  0.990176  1
  Al  Al7  1  0.903851  0.986540  0.009824  1
  H  H8  1  0.506718  0.139770  0.445497  1
  H  H9  1  0.218007  0.474556  0.851787  1
  H  H10  1  0.448642  0.728282  0.506419  1
  H  H11  1  0.731805  0.973717  0.915118  1
  H  H12  1  0.493282  0.639770  0.554504  1
  H  H13  1  0.551358  0.228282  0.493581  1
  H  H14  1  0.781993  0.974556  0.148213  1
  H  H15  1  0.021080  0.698049  0.620591  1
  H  H16  1  0.646818  0.288158  0.692013  1
  H  H17  1  0.978920  0.198049  0.379409  1
  H  H18  1  0.353182  0.788158  0.307987  1
  H  H19  1  0.268195  0.473717  0.084882  1
