# generated using pymatgen
data_BaAl3P2(HO7)2
_symmetry_space_group_name_H-M   'P 1'
_cell_length_a   7.21142193
_cell_length_b   7.21142193
_cell_length_c   7.49954283
_cell_angle_alpha   60.68509505
_cell_angle_beta   119.31490495
_cell_angle_gamma   126.10530572
_symmetry_Int_Tables_number   1
_chemical_formula_structural   BaAl3P2(HO7)2
_chemical_formula_sum   'Ba1 Al3 P2 H2 O14'
_cell_volume   263.31992614
_cell_formula_units_Z   1
loop_
 _symmetry_equiv_pos_site_id
 _symmetry_equiv_pos_as_xyz
  1  'x, y, z'
loop_
 _atom_site_type_symbol
 _atom_site_label
 _atom_site_symmetry_multiplicity
 _atom_site_fract_x
 _atom_site_fract_y
 _atom_site_fract_z
 _atom_site_occupancy
  Ba  Ba0  1  0.999440  0.000560  0.000731  1
  Al  Al1  1  0.000803  0.999197  0.501837  1
  Al  Al2  1  0.500408  0.999518  0.501065  1
  Al  Al3  1  0.000482  0.499592  0.501065  1
  P  P4  1  0.284997  0.715003  0.886145  1
  P  P5  1  0.716063  0.283937  0.115935  1
  H  H6  1  0.331961  0.668039  0.357555  1
  H  H7  1  0.672104  0.327896  0.649405  1
  O  O8  1  0.360602  0.639398  0.127154  1
  O  O9  1  0.641145  0.358855  0.874391  1
  O  O10  1  0.140645  0.859355  0.787589  1
  O  O11  1  0.860366  0.139634  0.214591  1
  O  O12  1  0.125116  0.494558  0.794159  1
  O  O13  1  0.505442  0.874884  0.794159  1
  O  O14  1  0.494872  0.125023  0.206944  1
  O  O15  1  0.874977  0.505128  0.206944  1
  O  O16  1  0.311160  0.688840  0.466671  1
  O  O17  1  0.690381  0.309619  0.536840  1
  O  O18  1  0.788427  0.975828  0.593443  1
  O  O19  1  0.024172  0.211573  0.593443  1
  O  O20  1  0.976736  0.787496  0.408716  1
  O  O21  1  0.212504  0.023264  0.408716  1
