# generated using pymatgen
data_La2P3H7O11
_symmetry_space_group_name_H-M   'P 1'
_cell_length_a   8.14943914
_cell_length_b   8.83798329
_cell_length_c   9.68004948
_cell_angle_alpha   117.46815079
_cell_angle_beta   95.92363335
_cell_angle_gamma   107.89058946
_symmetry_Int_Tables_number   1
_chemical_formula_structural   La2P3H7O11
_chemical_formula_sum   'La4 P6 H14 O22'
_cell_volume   563.38617305
_cell_formula_units_Z   2
loop_
 _symmetry_equiv_pos_site_id
 _symmetry_equiv_pos_as_xyz
  1  'x, y, z'
loop_
 _atom_site_type_symbol
 _atom_site_label
 _atom_site_symmetry_multiplicity
 _atom_site_fract_x
 _atom_site_fract_y
 _atom_site_fract_z
 _atom_site_occupancy
  La  La0  1  0.402643  0.206021  0.647832  1
  La  La1  1  0.162517  0.238987  0.997622  1
  La  La2  1  0.837483  0.761013  0.002378  1
  La  La3  1  0.597357  0.793979  0.352168  1
  P  P4  1  0.016153  0.172455  0.344931  1
  P  P5  1  0.983847  0.827545  0.655069  1
  P  P6  1  0.833801  0.270972  0.740451  1
  P  P7  1  0.166199  0.729028  0.259549  1
  P  P8  1  0.605852  0.392236  0.099097  1
  P  P9  1  0.394148  0.607764  0.900903  1
  H  H10  1  0.672370  0.411799  0.525552  1
  H  H11  1  0.474986  0.352042  0.430683  1
  H  H12  1  0.716040  0.319247  0.146615  1
  H  H13  1  0.628006  0.836305  0.793087  1
  H  H14  1  0.947443  0.311978  0.404280  1
  H  H15  1  0.327630  0.588201  0.474448  1
  H  H16  1  0.422575  0.996258  0.131706  1
  H  H17  1  0.525014  0.647957  0.569317  1
  H  H18  1  0.032919  0.711830  0.338741  1
  H  H19  1  0.967081  0.288170  0.661259  1
  H  H20  1  0.577425  0.003742  0.868294  1
  H  H21  1  0.283960  0.680753  0.853385  1
  H  H22  1  0.052557  0.688022  0.595720  1
  H  H23  1  0.371994  0.163695  0.206913  1
  O  O24  1  0.479009  0.429839  0.209367  1
  O  O25  1  0.960619  0.859628  0.821996  1
  O  O26  1  0.219862  0.562871  0.214455  1
  O  O27  1  0.909639  0.258896  0.884135  1
  O  O28  1  0.335056  0.907634  0.386175  1
  O  O29  1  0.494015  0.248890  0.920544  1
  O  O30  1  0.806070  0.754720  0.529152  1
  O  O31  1  0.641645  0.940712  0.897431  1
  O  O32  1  0.442759  0.694579  0.537682  1
  O  O33  1  0.358355  0.059288  0.102569  1
  O  O34  1  0.780138  0.437129  0.785545  1
  O  O35  1  0.557241  0.305421  0.462318  1
  O  O36  1  0.272223  0.415408  0.867006  1
  O  O37  1  0.131892  0.008665  0.686708  1
  O  O38  1  0.727777  0.584592  0.132994  1
  O  O39  1  0.505985  0.751110  0.079456  1
  O  O40  1  0.520991  0.570161  0.790633  1
  O  O41  1  0.090361  0.741104  0.115865  1
  O  O42  1  0.664944  0.092366  0.613825  1
  O  O43  1  0.868108  0.991335  0.313292  1
  O  O44  1  0.039381  0.140372  0.178004  1
  O  O45  1  0.193930  0.245280  0.470848  1
