# generated using pymatgen
data_Li5Ca7Sn11
_symmetry_space_group_name_H-M   'P 1'
_cell_length_a   4.62840821
_cell_length_b   8.87102837
_cell_length_c   32.03243666
_cell_angle_alpha   90.00000000
_cell_angle_beta   90.00000000
_cell_angle_gamma   105.12181776
_symmetry_Int_Tables_number   1
_chemical_formula_structural   Li5Ca7Sn11
_chemical_formula_sum   'Li10 Ca14 Sn22'
_cell_volume   1269.67015414
_cell_formula_units_Z   2
loop_
 _symmetry_equiv_pos_site_id
 _symmetry_equiv_pos_as_xyz
  1  'x, y, z'
loop_
 _atom_site_type_symbol
 _atom_site_label
 _atom_site_symmetry_multiplicity
 _atom_site_fract_x
 _atom_site_fract_y
 _atom_site_fract_z
 _atom_site_occupancy
  Li  Li0  1  0.708338  0.416677  0.527918  1
  Li  Li1  1  0.291662  0.583323  0.027918  1
  Li  Li2  1  0.657842  0.315684  0.250000  1
  Li  Li3  1  0.342158  0.684316  0.750000  1
  Li  Li4  1  0.291662  0.583323  0.472082  1
  Li  Li5  1  0.788400  0.576800  0.616440  1
  Li  Li6  1  0.708338  0.416677  0.972082  1
  Li  Li7  1  0.211600  0.423200  0.383560  1
  Li  Li8  1  0.211600  0.423200  0.116440  1
  Li  Li9  1  0.788400  0.576800  0.883560  1
  Ca  Ca10  1  0.106436  0.212873  0.898818  1
  Ca  Ca11  1  0.893564  0.787127  0.101182  1
  Ca  Ca12  1  0.045600  0.091200  0.316504  1
  Ca  Ca13  1  0.954400  0.908800  0.683496  1
  Ca  Ca14  1  0.903369  0.806739  0.530181  1
  Ca  Ca15  1  0.096631  0.193261  0.469819  1
  Ca  Ca16  1  0.893564  0.787127  0.398818  1
  Ca  Ca17  1  0.851227  0.702454  0.250000  1
  Ca  Ca18  1  0.903369  0.806739  0.969819  1
  Ca  Ca19  1  0.096631  0.193261  0.030181  1
  Ca  Ca20  1  0.954400  0.908800  0.816504  1
  Ca  Ca21  1  0.148773  0.297546  0.750000  1
  Ca  Ca22  1  0.045600  0.091200  0.183496  1
  Ca  Ca23  1  0.106436  0.212873  0.601182  1
  Sn  Sn24  1  0.230662  0.461324  0.294430  1
  Sn  Sn25  1  0.391486  0.782971  0.325197  1
  Sn  Sn26  1  0.391486  0.782971  0.174803  1
  Sn  Sn27  1  0.571330  0.142659  0.107897  1
  Sn  Sn28  1  0.279421  0.558841  0.561633  1
  Sn  Sn29  1  0.454727  0.909453  0.461539  1
  Sn  Sn30  1  0.608514  0.217029  0.674803  1
  Sn  Sn31  1  0.545273  0.090547  0.961539  1
  Sn  Sn32  1  0.769338  0.538676  0.794430  1
  Sn  Sn33  1  0.428670  0.857341  0.607897  1
  Sn  Sn34  1  0.279421  0.558841  0.938367  1
  Sn  Sn35  1  0.571330  0.142659  0.392103  1
  Sn  Sn36  1  0.509512  0.019025  0.750000  1
  Sn  Sn37  1  0.428670  0.857341  0.892103  1
  Sn  Sn38  1  0.769338  0.538676  0.705570  1
  Sn  Sn39  1  0.454727  0.909453  0.038461  1
  Sn  Sn40  1  0.230662  0.461324  0.205570  1
  Sn  Sn41  1  0.545273  0.090547  0.538461  1
  Sn  Sn42  1  0.720579  0.441159  0.438367  1
  Sn  Sn43  1  0.608514  0.217029  0.825197  1
  Sn  Sn44  1  0.720579  0.441159  0.061633  1
  Sn  Sn45  1  0.490488  0.980975  0.250000  1
