# generated using pymatgen
data_Cr(InS2)2
_symmetry_space_group_name_H-M   'P 1'
_cell_length_a   7.60074213
_cell_length_b   7.60074200
_cell_length_c   7.49690662
_cell_angle_alpha   60.45089421
_cell_angle_beta   60.45089479
_cell_angle_gamma   61.37480410
_symmetry_Int_Tables_number   1
_chemical_formula_structural   Cr(InS2)2
_chemical_formula_sum   'Cr2 In4 S8'
_cell_volume   311.44234969
_cell_formula_units_Z   2
loop_
 _symmetry_equiv_pos_site_id
 _symmetry_equiv_pos_as_xyz
  1  'x, y, z'
loop_
 _atom_site_type_symbol
 _atom_site_label
 _atom_site_symmetry_multiplicity
 _atom_site_fract_x
 _atom_site_fract_y
 _atom_site_fract_z
 _atom_site_occupancy
  Cr  Cr0  1  0.625000  0.625000  0.125000  1
  Cr  Cr1  1  0.625000  0.625000  0.625000  1
  In  In2  1  0.008995  0.008995  0.991005  1
  In  In3  1  0.241005  0.241005  0.258995  1
  In  In4  1  0.125000  0.625000  0.625000  1
  In  In5  1  0.625000  0.125000  0.625000  1
  S  S6  1  0.396604  0.396604  0.365365  1
  S  S7  1  0.396604  0.396604  0.841428  1
  S  S8  1  0.411986  0.829139  0.379438  1
  S  S9  1  0.829139  0.411986  0.379438  1
  S  S10  1  0.420861  0.838014  0.870562  1
  S  S11  1  0.838014  0.420861  0.870562  1
  S  S12  1  0.853396  0.853396  0.408572  1
  S  S13  1  0.853396  0.853396  0.884635  1
