# generated using pymatgen
data_CoH2SO5
_symmetry_space_group_name_H-M   'P 1'
_cell_length_a   5.19084004
_cell_length_b   5.19084004
_cell_length_c   7.72922243
_cell_angle_alpha   71.37493622
_cell_angle_beta   108.62506378
_cell_angle_gamma   84.40284235
_symmetry_Int_Tables_number   1
_chemical_formula_structural   CoH2SO5
_chemical_formula_sum   'Co2 H4 S2 O10'
_cell_volume   182.34463103
_cell_formula_units_Z   2
loop_
 _symmetry_equiv_pos_site_id
 _symmetry_equiv_pos_as_xyz
  1  'x, y, z'
loop_
 _atom_site_type_symbol
 _atom_site_label
 _atom_site_symmetry_multiplicity
 _atom_site_fract_x
 _atom_site_fract_y
 _atom_site_fract_z
 _atom_site_occupancy
  Co  Co0  1  0.500000  0.500000  0.500000  1
  Co  Co1  1  0.500000  0.500000  0.000000  1
  H  H2  1  0.417784  0.154328  0.794928  1
  H  H3  1  0.154328  0.417784  0.705072  1
  H  H4  1  0.582216  0.845672  0.205072  1
  H  H5  1  0.845672  0.582216  0.294928  1
  S  S6  1  0.844290  0.844290  0.750000  1
  S  S7  1  0.155710  0.155710  0.250000  1
  O  O8  1  0.127996  0.782796  0.899531  1
  O  O9  1  0.782796  0.127996  0.600469  1
  O  O10  1  0.872004  0.217204  0.100469  1
  O  O11  1  0.217204  0.872004  0.399531  1
  O  O12  1  0.830693  0.633053  0.654415  1
  O  O13  1  0.633053  0.830693  0.845585  1
  O  O14  1  0.169307  0.366947  0.345585  1
  O  O15  1  0.366947  0.169307  0.154415  1
  O  O16  1  0.361205  0.361205  0.750000  1
  O  O17  1  0.638795  0.638795  0.250000  1
