# generated using pymatgen
data_Ba3In4(CuO4)3
_symmetry_space_group_name_H-M   'P 1'
_cell_length_a   8.62752067
_cell_length_b   9.73062065
_cell_length_c   9.73001031
_cell_angle_alpha   78.66142663
_cell_angle_beta   63.67694051
_cell_angle_gamma   63.68011838
_symmetry_Int_Tables_number   1
_chemical_formula_structural   Ba3In4(CuO4)3
_chemical_formula_sum   'Ba6 In8 Cu6 O24'
_cell_volume   656.24551519
_cell_formula_units_Z   2
loop_
 _symmetry_equiv_pos_site_id
 _symmetry_equiv_pos_as_xyz
  1  'x, y, z'
loop_
 _atom_site_type_symbol
 _atom_site_label
 _atom_site_symmetry_multiplicity
 _atom_site_fract_x
 _atom_site_fract_y
 _atom_site_fract_z
 _atom_site_occupancy
  Ba  Ba0  1  0.720413  0.500000  0.059155  1
  Ba  Ba1  1  0.779601  0.940814  0.500005  1
  Ba  Ba2  1  0.279569  0.500009  0.940827  1
  Ba  Ba3  1  0.999995  0.999996  -0.000001  1
  Ba  Ba4  1  0.220423  0.059181  0.499995  1
  Ba  Ba5  1  0.500001  0.000002  0.999998  1
  In  In6  1  0.492903  0.757105  0.757096  1
  In  In7  1  0.507104  0.242889  0.242897  1
  In  In8  1  0.250003  0.757111  0.242889  1
  In  In9  1  0.750000  0.242893  0.757106  1
  In  In10  1  0.992891  0.757114  0.757109  1
  In  In11  1  0.749999  0.757105  0.242901  1
  In  In12  1  0.007099  0.242895  0.242900  1
  In  In13  1  0.250006  0.242891  0.757102  1
  Cu  Cu14  1  0.604981  0.290278  0.499993  1
  Cu  Cu15  1  0.895065  0.499999  0.709637  1
  Cu  Cu16  1  0.395243  0.709714  0.500010  1
  Cu  Cu17  1  0.249947  0.500003  0.499999  1
  Cu  Cu18  1  0.104714  0.500007  0.290359  1
  Cu  Cu19  1  0.750036  0.500001  0.500004  1
  O  O20  1  0.230856  0.270891  0.267403  1
  O  O21  1  0.879816  0.000004  0.740391  1
  O  O22  1  0.001746  0.729116  0.267398  1
  O  O23  1  0.884773  0.499998  0.275156  1
  O  O24  1  0.120209  -0.000004  0.259607  1
  O  O25  1  0.115241  0.500003  0.724593  1
  O  O26  1  0.379789  0.000005  0.740394  1
  O  O27  1  0.730850  0.267402  0.270889  1
  O  O28  1  0.998259  0.270893  0.732598  1
  O  O29  1  0.160165  0.724576  0.500005  1
  O  O30  1  0.620208  -0.000005  0.259605  1
  O  O31  1  0.501738  0.267413  0.729108  1
  O  O32  1  0.498258  0.732586  0.270900  1
  O  O33  1  0.384738  0.275436  0.500004  1
  O  O34  1  0.879805  0.740386  0.000006  1
  O  O35  1  0.379785  0.740392  0.000002  1
  O  O36  1  0.120181  0.259595  -0.000002  1
  O  O37  1  0.339849  0.499994  0.275409  1
  O  O38  1  0.840082  0.275171  0.499992  1
  O  O39  1  0.659935  0.499996  0.724845  1
  O  O40  1  0.615226  0.724826  0.500004  1
  O  O41  1  0.269140  0.732603  0.729113  1
  O  O42  1  0.620207  0.259607  -0.000004  1
  O  O43  1  0.769151  0.729110  0.732600  1
