# generated using pymatgen
data_CeSI
_symmetry_space_group_name_H-M   'P 1'
_cell_length_a   7.04548274
_cell_length_b   7.31613684
_cell_length_c   14.43732665
_cell_angle_alpha   89.97422789
_cell_angle_beta   90.00523151
_cell_angle_gamma   89.99614201
_symmetry_Int_Tables_number   1
_chemical_formula_structural   CeSI
_chemical_formula_sum   'Ce8 S8 I8'
_cell_volume   744.18225683
_cell_formula_units_Z   8
loop_
 _symmetry_equiv_pos_site_id
 _symmetry_equiv_pos_as_xyz
  1  'x, y, z'
loop_
 _atom_site_type_symbol
 _atom_site_label
 _atom_site_symmetry_multiplicity
 _atom_site_fract_x
 _atom_site_fract_y
 _atom_site_fract_z
 _atom_site_occupancy
  Ce  Ce0  1  0.257647  0.470721  0.082186  1
  Ce  Ce1  1  0.757651  0.029281  0.082123  1
  Ce  Ce2  1  0.742381  0.029288  0.582113  1
  Ce  Ce3  1  0.257613  0.970704  0.417852  1
  Ce  Ce4  1  0.242364  0.970722  0.917836  1
  Ce  Ce5  1  0.757619  0.529285  0.417798  1
  Ce  Ce6  1  0.742346  0.529288  0.917884  1
  Ce  Ce7  1  0.242367  0.470726  0.582110  1
  S  S8  1  0.499341  0.257567  0.476574  1
  S  S9  1  0.499246  0.757473  0.023417  1
  S  S10  1  0.000762  0.257493  0.976610  1
  S  S11  1  0.500722  0.742435  0.523385  1
  S  S12  1  0.999277  0.242573  0.476577  1
  S  S13  1  0.999380  0.742487  0.023415  1
  S  S14  1  0.000675  0.757426  0.523382  1
  S  S15  1  0.500610  0.242513  0.976610  1
  I  I16  1  0.682730  0.905555  0.300859  1
  I  I17  1  0.182708  0.594399  0.300847  1
  I  I18  1  0.182734  0.094439  0.199170  1
  I  I19  1  0.317270  0.094397  0.699179  1
  I  I20  1  0.817285  0.905592  0.800855  1
  I  I21  1  0.317277  0.594425  0.800848  1
  I  I22  1  0.682715  0.405610  0.199197  1
  I  I23  1  0.817277  0.405600  0.699172  1
