# generated using pymatgen
data_Sr4NdNb2Al3O15
_symmetry_space_group_name_H-M   'P 1'
_cell_length_a   5.52837815
_cell_length_b   5.52837776
_cell_length_c   27.68157430
_cell_angle_alpha   60.04740933
_cell_angle_beta   60.04741168
_cell_angle_gamma   60.00000354
_symmetry_Int_Tables_number   1
_chemical_formula_structural   Sr4NdNb2Al3O15
_chemical_formula_sum   'Sr8 Nd2 Nb4 Al6 O30'
_cell_volume   598.66256197
_cell_formula_units_Z   2
loop_
 _symmetry_equiv_pos_site_id
 _symmetry_equiv_pos_as_xyz
  1  'x, y, z'
loop_
 _atom_site_type_symbol
 _atom_site_label
 _atom_site_symmetry_multiplicity
 _atom_site_fract_x
 _atom_site_fract_y
 _atom_site_fract_z
 _atom_site_occupancy
  Sr  Sr0  1  0.260281  0.260281  0.043831  1
  Sr  Sr1  1  0.250716  0.250716  0.249570  1
  Sr  Sr2  1  0.751239  0.751239  0.149257  1
  Sr  Sr3  1  0.249993  0.249993  0.450004  1
  Sr  Sr4  1  0.750007  0.750007  0.349996  1
  Sr  Sr5  1  0.248761  0.248761  0.650743  1
  Sr  Sr6  1  0.749284  0.749284  0.550430  1
  Sr  Sr7  1  0.739719  0.739719  0.756169  1
  Nd  Nd8  1  0.237752  0.237752  0.857349  1
  Nd  Nd9  1  0.762248  0.762248  0.942651  1
  Nb  Nb10  1  0.502228  0.502228  0.098663  1
  Nb  Nb11  1  0.500312  0.500312  0.299813  1
  Nb  Nb12  1  0.499688  0.499688  0.500187  1
  Nb  Nb13  1  0.497772  0.497772  0.701337  1
  Al  Al14  1  0.005646  0.005646  0.996612  1
  Al  Al15  1  0.001653  0.001653  0.199008  1
  Al  Al16  1  0.000000  0.000000  0.400000  1
  Al  Al17  1  0.998347  0.998347  0.600992  1
  Al  Al18  1  0.994354  0.994354  0.803388  1
  Al  Al19  1  0.500000  0.500000  0.900000  1
  O  O20  1  0.246736  0.246736  0.150027  1
  O  O21  1  0.252468  0.760176  0.045436  1
  O  O22  1  0.760176  0.252468  0.045436  1
  O  O23  1  0.246736  0.756396  0.150027  1
  O  O24  1  0.244513  0.756270  0.248589  1
  O  O25  1  0.244413  0.244413  0.351104  1
  O  O26  1  0.756396  0.246736  0.150027  1
  O  O27  1  0.760176  0.760176  0.045436  1
  O  O28  1  0.756270  0.244513  0.248589  1
  O  O29  1  0.244413  0.755652  0.351104  1
  O  O30  1  0.244348  0.755587  0.448896  1
  O  O31  1  0.243730  0.243730  0.551411  1
  O  O32  1  0.756270  0.756270  0.248589  1
  O  O33  1  0.755652  0.244413  0.351104  1
  O  O34  1  0.755587  0.244348  0.448896  1
  O  O35  1  0.243730  0.755487  0.551411  1
  O  O36  1  0.243604  0.753264  0.649973  1
  O  O37  1  0.239824  0.239824  0.754564  1
  O  O38  1  0.755587  0.755587  0.448896  1
  O  O39  1  0.755487  0.243730  0.551411  1
  O  O40  1  0.753264  0.243604  0.649973  1
  O  O41  1  0.239824  0.747532  0.754564  1
  O  O42  1  0.237380  0.747334  0.853590  1
  O  O43  1  0.252666  0.252666  0.946410  1
  O  O44  1  0.747532  0.239824  0.754564  1
  O  O45  1  0.753264  0.753264  0.649973  1
  O  O46  1  0.747334  0.237380  0.853590  1
  O  O47  1  0.252666  0.762620  0.946410  1
  O  O48  1  0.747334  0.747334  0.853590  1
  O  O49  1  0.762620  0.252666  0.946410  1
