# generated using pymatgen
data_Ni(HO)2
_symmetry_space_group_name_H-M   'P 1'
_cell_length_a   8.57750924
_cell_length_b   8.57750924
_cell_length_c   8.43199511
_cell_angle_alpha   21.13780598
_cell_angle_beta   21.13780598
_cell_angle_gamma   20.97244290
_symmetry_Int_Tables_number   1
_chemical_formula_structural   Ni(HO)2
_chemical_formula_sum   'Ni1 H2 O2'
_cell_volume   70.29965538
_cell_formula_units_Z   1
loop_
 _symmetry_equiv_pos_site_id
 _symmetry_equiv_pos_as_xyz
  1  'x, y, z'
loop_
 _atom_site_type_symbol
 _atom_site_label
 _atom_site_symmetry_multiplicity
 _atom_site_fract_x
 _atom_site_fract_y
 _atom_site_fract_z
 _atom_site_occupancy
  Ni  Ni0  1  0.974854  0.025146  0.000000  1
  H  H1  1  0.524809  0.721492  0.518542  1
  H  H2  1  0.278508  0.475191  0.481458  1
  O  O3  1  0.606314  0.670315  0.601635  1
  O  O4  1  0.329685  0.393686  0.398365  1
