# generated using pymatgen
data_Cs2NbAgS4
_symmetry_space_group_name_H-M   'P 1'
_cell_length_a   5.99617927
_cell_length_b   7.85136122
_cell_length_c   12.94237338
_cell_angle_alpha   84.92517345
_cell_angle_beta   76.60582052
_cell_angle_gamma   67.55130205
_symmetry_Int_Tables_number   1
_chemical_formula_structural   Cs2NbAgS4
_chemical_formula_sum   'Cs4 Nb2 Ag2 S8'
_cell_volume   547.81384891
_cell_formula_units_Z   2
loop_
 _symmetry_equiv_pos_site_id
 _symmetry_equiv_pos_as_xyz
  1  'x, y, z'
loop_
 _atom_site_type_symbol
 _atom_site_label
 _atom_site_symmetry_multiplicity
 _atom_site_fract_x
 _atom_site_fract_y
 _atom_site_fract_z
 _atom_site_occupancy
  Cs  Cs0  1  0.803564  0.750000  0.392872  1
  Cs  Cs1  1  0.446436  0.750000  0.107128  1
  Cs  Cs2  1  0.196436  0.250000  0.607128  1
  Cs  Cs3  1  0.553564  0.250000  0.892872  1
  Nb  Nb4  1  0.375000  0.250000  0.250000  1
  Nb  Nb5  1  0.625000  0.750000  0.750000  1
  Ag  Ag6  1  0.125000  0.750000  0.750000  1
  Ag  Ag7  1  0.875000  0.250000  0.250000  1
  S  S8  1  0.881472  0.561002  0.856717  1
  S  S9  1  0.200809  0.061002  0.356717  1
  S  S10  1  0.738190  0.061002  0.143283  1
  S  S11  1  0.442474  0.438998  0.356717  1
  S  S12  1  0.557526  0.561002  0.643283  1
  S  S13  1  0.261810  0.938998  0.856717  1
  S  S14  1  0.118528  0.438998  0.143283  1
  S  S15  1  0.799191  0.938998  0.643283  1
