# generated using pymatgen
data_PNCl2
_symmetry_space_group_name_H-M   'P 1'
_cell_length_a   7.72382391
_cell_length_b   13.56244231
_cell_length_c   13.55904803
_cell_angle_alpha   90.06074536
_cell_angle_beta   89.98269149
_cell_angle_gamma   89.99351595
_symmetry_Int_Tables_number   1
_chemical_formula_structural   PNCl2
_chemical_formula_sum   'P8 N8 Cl16'
_cell_volume   1420.36250759
_cell_formula_units_Z   8
loop_
 _symmetry_equiv_pos_site_id
 _symmetry_equiv_pos_as_xyz
  1  'x, y, z'
loop_
 _atom_site_type_symbol
 _atom_site_label
 _atom_site_symmetry_multiplicity
 _atom_site_fract_x
 _atom_site_fract_y
 _atom_site_fract_z
 _atom_site_occupancy
  P  P0  1  0.036268  0.182102  0.455410  1
  P  P1  1  0.963481  0.682164  0.955479  1
  P  P2  1  0.036537  0.317780  0.044680  1
  P  P3  1  0.963522  0.817858  0.544692  1
  P  P4  1  0.463525  0.044551  0.182165  1
  P  P5  1  0.536379  0.544872  0.681938  1
  P  P6  1  0.536228  0.955354  0.817901  1
  P  P7  1  0.463603  0.455420  0.317856  1
  N  N8  1  0.456973  0.906260  0.905971  1
  N  N9  1  0.457721  0.593296  0.593232  1
  N  N10  1  0.542860  0.406306  0.405933  1
  N  N11  1  0.957152  0.093658  0.406586  1
  N  N12  1  0.042786  0.906238  0.593506  1
  N  N13  1  0.957875  0.406618  0.093487  1
  N  N14  1  0.542298  0.093261  0.093348  1
  N  N15  1  0.042199  0.593241  0.906544  1
  Cl  Cl16  1  0.578513  0.995454  0.306309  1
  Cl  Cl17  1  0.789870  0.977142  0.789600  1
  Cl  Cl18  1  0.789877  0.522548  0.710102  1
  Cl  Cl19  1  0.289968  0.289497  0.022376  1
  Cl  Cl20  1  0.710113  0.789804  0.522717  1
  Cl  Cl21  1  0.077856  0.693519  0.495651  1
  Cl  Cl22  1  0.289867  0.210490  0.477133  1
  Cl  Cl23  1  0.921840  0.306445  0.504987  1
  Cl  Cl24  1  0.210204  0.022779  0.210645  1
  Cl  Cl25  1  0.422036  0.495981  0.806542  1
  Cl  Cl26  1  0.422039  0.004797  0.693558  1
  Cl  Cl27  1  0.710128  0.710814  0.977528  1
  Cl  Cl28  1  0.921748  0.193448  0.995691  1
  Cl  Cl29  1  0.577666  0.504581  0.193640  1
  Cl  Cl30  1  0.078606  0.806329  0.004786  1
  Cl  Cl31  1  0.210264  0.477394  0.290009  1
