# generated using pymatgen
data_Co6Ge2(CO)19
_symmetry_space_group_name_H-M   'P 1'
_cell_length_a   11.07788728
_cell_length_b   11.07788819
_cell_length_c   26.66706112
_cell_angle_alpha   90.00000000
_cell_angle_beta   90.00000000
_cell_angle_gamma   109.12174467
_symmetry_Int_Tables_number   1
_chemical_formula_structural   Co6Ge2(CO)19
_chemical_formula_sum   'Co24 Ge8 C76 O76'
_cell_volume   3092.00576587
_cell_formula_units_Z   4
loop_
 _symmetry_equiv_pos_site_id
 _symmetry_equiv_pos_as_xyz
  1  'x, y, z'
loop_
 _atom_site_type_symbol
 _atom_site_label
 _atom_site_symmetry_multiplicity
 _atom_site_fract_x
 _atom_site_fract_y
 _atom_site_fract_z
 _atom_site_occupancy
  Co  Co0  1  0.202838  0.202838  0.941931  1
  Co  Co1  1  0.048971  0.484120  0.883976  1
  Co  Co2  1  0.702838  0.702838  0.558069  1
  Co  Co3  1  0.697530  0.697530  0.193402  1
  Co  Co4  1  0.197530  0.197530  0.306598  1
  Co  Co5  1  0.111491  0.111491  0.402132  1
  Co  Co6  1  0.951029  0.515880  0.116024  1
  Co  Co7  1  0.114433  0.114433  0.850533  1
  Co  Co8  1  0.015880  0.451029  0.383976  1
  Co  Co9  1  0.451029  0.015880  0.383976  1
  Co  Co10  1  0.984120  0.548971  0.616024  1
  Co  Co11  1  0.614433  0.614433  0.649467  1
  Co  Co12  1  0.515880  0.951029  0.116024  1
  Co  Co13  1  0.611491  0.611491  0.097868  1
  Co  Co14  1  0.548971  0.984120  0.616024  1
  Co  Co15  1  0.385567  0.385567  0.350533  1
  Co  Co16  1  0.297162  0.297162  0.441931  1
  Co  Co17  1  0.484120  0.048971  0.883976  1
  Co  Co18  1  0.885567  0.885567  0.149467  1
  Co  Co19  1  0.302470  0.302470  0.806598  1
  Co  Co20  1  0.388509  0.388509  0.902132  1
  Co  Co21  1  0.797162  0.797162  0.058069  1
  Co  Co22  1  0.802470  0.802470  0.693402  1
  Co  Co23  1  0.888509  0.888509  0.597868  1
  Ge  Ge24  1  0.161296  0.328680  0.375420  1
  Ge  Ge25  1  0.171320  0.338704  0.875420  1
  Ge  Ge26  1  0.828680  0.661296  0.124580  1
  Ge  Ge27  1  0.671320  0.838704  0.624580  1
  Ge  Ge28  1  0.661296  0.828680  0.124580  1
  Ge  Ge29  1  0.838704  0.671320  0.624580  1
  Ge  Ge30  1  0.338704  0.171320  0.875420  1
  Ge  Ge31  1  0.328680  0.161296  0.375420  1
  C  C32  1  0.365241  0.515234  0.317373  1
  C  C33  1  0.484766  0.634759  0.682627  1
  C  C34  1  0.651106  0.800320  0.234022  1
  C  C35  1  0.418800  0.839685  0.612281  1
  C  C36  1  0.948832  0.099367  0.406337  1
  C  C37  1  0.199680  0.348894  0.765978  1
  C  C38  1  0.088584  0.456903  0.617476  1
  C  C39  1  0.466170  0.466170  0.403903  1
  C  C40  1  0.160315  0.581200  0.387719  1
  C  C41  1  0.737320  0.583013  0.522699  1
  C  C42  1  0.878678  0.469820  0.056240  1
  C  C43  1  0.438624  0.438624  0.806568  1
  C  C44  1  0.660315  0.081200  0.112281  1
  C  C45  1  0.051168  0.900633  0.593663  1
  C  C46  1  0.144776  0.565425  0.833149  1
  C  C47  1  0.416987  0.262680  0.477301  1
  C  C48  1  0.583013  0.737320  0.522699  1
  C  C49  1  0.400633  0.551168  0.906337  1
  C  C50  1  0.300320  0.151106  0.265978  1
  C  C51  1  0.515234  0.365241  0.317373  1
  C  C52  1  0.588584  0.956903  0.882524  1
  C  C53  1  0.533830  0.533830  0.596097  1
  C  C54  1  0.340988  0.340988  0.969023  1
  C  C55  1  0.378678  0.969820  0.443760  1
  C  C56  1  0.984766  0.134759  0.817373  1
  C  C57  1  0.083013  0.237320  0.977301  1
  C  C58  1  0.839685  0.418800  0.612281  1
  C  C59  1  0.469820  0.878678  0.056240  1
  C  C60  1  0.938624  0.938624  0.693432  1
  C  C61  1  0.411416  0.043097  0.117476  1
  C  C62  1  0.918800  0.339685  0.887719  1
  C  C63  1  0.855224  0.434575  0.166851  1
  C  C64  1  0.644776  0.065425  0.666851  1
  C  C65  1  0.565425  0.144776  0.833149  1
  C  C66  1  0.699680  0.848894  0.734022  1
  C  C67  1  0.530180  0.121322  0.943760  1
  C  C68  1  0.237320  0.083013  0.977301  1
  C  C69  1  0.134759  0.984766  0.817373  1
  C  C70  1  0.659012  0.659012  0.030977  1
  C  C71  1  0.081200  0.660315  0.112281  1
  C  C72  1  0.015234  0.865241  0.182627  1
  C  C73  1  0.121322  0.530180  0.943760  1
  C  C74  1  0.900633  0.051168  0.593663  1
  C  C75  1  0.159012  0.159012  0.469023  1
  C  C76  1  0.840988  0.840988  0.530977  1
  C  C77  1  0.551168  0.400633  0.906337  1
  C  C78  1  0.762680  0.916987  0.022699  1
  C  C79  1  0.561376  0.561376  0.193432  1
  C  C80  1  0.151106  0.300320  0.265978  1
  C  C81  1  0.966170  0.966170  0.096097  1
  C  C82  1  0.916987  0.762680  0.022699  1
  C  C83  1  0.456903  0.088584  0.617476  1
  C  C84  1  0.581200  0.160315  0.387719  1
  C  C85  1  0.043097  0.411416  0.117476  1
  C  C86  1  0.434575  0.855224  0.166851  1
  C  C87  1  0.865241  0.015234  0.182627  1
  C  C88  1  0.339685  0.918800  0.887719  1
  C  C89  1  0.956903  0.588584  0.882524  1
  C  C90  1  0.634759  0.484766  0.682627  1
  C  C91  1  0.543097  0.911416  0.382524  1
  C  C92  1  0.934575  0.355224  0.333149  1
  C  C93  1  0.065425  0.644776  0.666851  1
  C  C94  1  0.033830  0.033830  0.903903  1
  C  C95  1  0.848894  0.699680  0.734022  1
  C  C96  1  0.911416  0.543097  0.382524  1
  C  C97  1  0.969820  0.378678  0.443760  1
  C  C98  1  0.355224  0.934575  0.333149  1
  C  C99  1  0.099367  0.948832  0.406337  1
  C  C100  1  0.030180  0.621322  0.556240  1
  C  C101  1  0.348894  0.199680  0.765978  1
  C  C102  1  0.800320  0.651106  0.234022  1
  C  C103  1  0.262680  0.416987  0.477301  1
  C  C104  1  0.599367  0.448832  0.093663  1
  C  C105  1  0.621322  0.030180  0.556240  1
  C  C106  1  0.061376  0.061376  0.306568  1
  C  C107  1  0.448832  0.599367  0.093663  1
  O  O108  1  0.638088  0.397734  0.706096  1
  O  O109  1  0.125486  0.363701  0.235957  1
  O  O110  1  0.877573  0.877573  0.490262  1
  O  O111  1  0.659863  0.900937  0.881023  1
  O  O112  1  0.746008  0.334624  0.605945  1
  O  O113  1  0.165376  0.753992  0.105945  1
  O  O114  1  0.043095  0.043095  0.072769  1
  O  O115  1  0.543095  0.543095  0.427231  1
  O  O116  1  0.126223  0.708900  0.698136  1
  O  O117  1  0.973098  0.973098  0.296815  1
  O  O118  1  0.416615  0.659995  0.908315  1
  O  O119  1  0.138088  0.897734  0.793904  1
  O  O120  1  0.625486  0.863701  0.264043  1
  O  O121  1  0.840005  0.083385  0.408315  1
  O  O122  1  0.062110  0.666675  0.517380  1
  O  O123  1  0.753992  0.165376  0.105945  1
  O  O124  1  0.159863  0.400937  0.618977  1
  O  O125  1  0.861912  0.102266  0.206096  1
  O  O126  1  0.246007  0.834624  0.894055  1
  O  O127  1  0.873777  0.291100  0.301864  1
  O  O128  1  0.791100  0.373777  0.198136  1
  O  O129  1  0.363701  0.125486  0.235957  1
  O  O130  1  0.334624  0.746008  0.605945  1
  O  O131  1  0.956905  0.956905  0.927231  1
  O  O132  1  0.622427  0.622427  0.990262  1
  O  O133  1  0.562110  0.166675  0.982620  1
  O  O134  1  0.636299  0.874514  0.764043  1
  O  O135  1  0.377573  0.377573  0.009738  1
  O  O136  1  0.006566  0.256776  0.002820  1
  O  O137  1  0.602266  0.361912  0.293904  1
  O  O138  1  0.833325  0.437890  0.017380  1
  O  O139  1  0.916615  0.159995  0.591685  1
  O  O140  1  0.840137  0.599063  0.381023  1
  O  O141  1  0.291100  0.873777  0.301864  1
  O  O142  1  0.863701  0.625486  0.264043  1
  O  O143  1  0.708900  0.126223  0.698136  1
  O  O144  1  0.626223  0.208900  0.801864  1
  O  O145  1  0.897734  0.138088  0.793904  1
  O  O146  1  0.083385  0.840005  0.408315  1
  O  O147  1  0.993434  0.743224  0.997180  1
  O  O148  1  0.333325  0.937890  0.482620  1
  O  O149  1  0.136299  0.374514  0.735957  1
  O  O150  1  0.756776  0.506566  0.497180  1
  O  O151  1  0.900937  0.659863  0.881023  1
  O  O152  1  0.834624  0.246007  0.894055  1
  O  O153  1  0.159995  0.916615  0.591685  1
  O  O154  1  0.526902  0.526902  0.796815  1
  O  O155  1  0.122427  0.122427  0.509738  1
  O  O156  1  0.340005  0.583385  0.091685  1
  O  O157  1  0.743224  0.993434  0.997180  1
  O  O158  1  0.253993  0.665376  0.394055  1
  O  O159  1  0.102266  0.861912  0.206096  1
  O  O160  1  0.937890  0.333325  0.482620  1
  O  O161  1  0.506566  0.756776  0.497180  1
  O  O162  1  0.874514  0.636299  0.764043  1
  O  O163  1  0.166675  0.562110  0.982620  1
  O  O164  1  0.208900  0.626223  0.801864  1
  O  O165  1  0.373777  0.791100  0.198136  1
  O  O166  1  0.374514  0.136299  0.735957  1
  O  O167  1  0.493434  0.243224  0.502820  1
  O  O168  1  0.659995  0.416615  0.908315  1
  O  O169  1  0.340137  0.099063  0.118977  1
  O  O170  1  0.583385  0.340005  0.091685  1
  O  O171  1  0.256776  0.006566  0.002820  1
  O  O172  1  0.400937  0.159863  0.618977  1
  O  O173  1  0.665376  0.253993  0.394055  1
  O  O174  1  0.473098  0.473098  0.203185  1
  O  O175  1  0.666675  0.062110  0.517380  1
  O  O176  1  0.437890  0.833325  0.017380  1
  O  O177  1  0.099063  0.340137  0.118977  1
  O  O178  1  0.361912  0.602266  0.293904  1
  O  O179  1  0.397734  0.638088  0.706096  1
  O  O180  1  0.243224  0.493434  0.502820  1
  O  O181  1  0.599063  0.840137  0.381023  1
  O  O182  1  0.456905  0.456905  0.572769  1
  O  O183  1  0.026902  0.026902  0.703185  1
