# generated using pymatgen
data_Na5Zr4Si3(PO8)3
_symmetry_space_group_name_H-M   'P 1'
_cell_length_a   9.32687261
_cell_length_b   9.32687218
_cell_length_c   9.32687265
_cell_angle_alpha   58.53858021
_cell_angle_beta   58.53858181
_cell_angle_gamma   58.53858202
_symmetry_Int_Tables_number   1
_chemical_formula_structural   Na5Zr4Si3(PO8)3
_chemical_formula_sum   'Na5 Zr4 Si3 P3 O24'
_cell_volume   554.53523421
_cell_formula_units_Z   1
loop_
 _symmetry_equiv_pos_site_id
 _symmetry_equiv_pos_as_xyz
  1  'x, y, z'
loop_
 _atom_site_type_symbol
 _atom_site_label
 _atom_site_symmetry_multiplicity
 _atom_site_fract_x
 _atom_site_fract_y
 _atom_site_fract_z
 _atom_site_occupancy
  Na  Na0  1  0.994603  0.994603  0.994603  1
  Na  Na1  1  0.110387  0.389613  0.750000  1
  Na  Na2  1  0.389613  0.750000  0.110387  1
  Na  Na3  1  0.750000  0.110387  0.389613  1
  Na  Na4  1  0.505397  0.505397  0.505397  1
  Zr  Zr5  1  0.149046  0.149046  0.149046  1
  Zr  Zr6  1  0.350954  0.350954  0.350954  1
  Zr  Zr7  1  0.647319  0.647319  0.647319  1
  Zr  Zr8  1  0.852681  0.852681  0.852681  1
  Si  Si9  1  0.039740  0.750000  0.460260  1
  Si  Si10  1  0.460260  0.039740  0.750000  1
  Si  Si11  1  0.750000  0.460260  0.039740  1
  P  P12  1  0.250000  0.548002  0.951998  1
  P  P13  1  0.548002  0.951998  0.250000  1
  P  P14  1  0.951998  0.250000  0.548002  1
  O  O15  1  0.111228  0.293944  0.509102  1
  O  O16  1  0.293944  0.509102  0.111228  1
  O  O17  1  0.072479  0.923989  0.279098  1
  O  O18  1  0.509102  0.111228  0.293944  1
  O  O19  1  0.220902  0.576011  0.427521  1
  O  O20  1  0.013178  0.761688  0.641714  1
  O  O21  1  0.279098  0.072479  0.923989  1
  O  O22  1  0.427521  0.220902  0.576011  1
  O  O23  1  0.576011  0.427521  0.220902  1
  O  O24  1  0.206056  0.388772  0.990898  1
  O  O25  1  0.086108  0.721570  0.936685  1
  O  O26  1  0.388772  0.990898  0.206056  1
  O  O27  1  0.641714  0.013178  0.761688  1
  O  O28  1  0.923989  0.279098  0.072479  1
  O  O29  1  0.761688  0.641714  0.013178  1
  O  O30  1  0.413892  0.563315  0.778430  1
  O  O31  1  0.563315  0.778430  0.413892  1
  O  O32  1  0.721570  0.936685  0.086108  1
  O  O33  1  0.990898  0.206056  0.388772  1
  O  O34  1  0.778430  0.413892  0.563315  1
  O  O35  1  0.486822  0.858286  0.738312  1
  O  O36  1  0.936685  0.086108  0.721570  1
  O  O37  1  0.738312  0.486822  0.858286  1
  O  O38  1  0.858286  0.738312  0.486822  1
