# generated using pymatgen
data_K2Zn(CN)4
_symmetry_space_group_name_H-M   'P 1'
_cell_length_a   15.37969294
_cell_length_b   15.37969273
_cell_length_c   15.37969312
_cell_angle_alpha   32.44401073
_cell_angle_beta   32.44401201
_cell_angle_gamma   32.44401091
_symmetry_Int_Tables_number   1
_chemical_formula_structural   K2Zn(CN)4
_chemical_formula_sum   'K8 Zn4 C16 N16'
_cell_volume   930.89825023
_cell_formula_units_Z   4
loop_
 _symmetry_equiv_pos_site_id
 _symmetry_equiv_pos_as_xyz
  1  'x, y, z'
loop_
 _atom_site_type_symbol
 _atom_site_label
 _atom_site_symmetry_multiplicity
 _atom_site_fract_x
 _atom_site_fract_y
 _atom_site_fract_z
 _atom_site_occupancy
  K  K0  1  0.832379  0.250000  0.667621  1
  K  K1  1  0.750000  0.332379  0.167621  1
  K  K2  1  0.000000  0.000000  0.000000  1
  K  K3  1  0.332379  0.167621  0.750000  1
  K  K4  1  0.667621  0.832379  0.250000  1
  K  K5  1  0.500000  0.500000  0.500000  1
  K  K6  1  0.167621  0.750000  0.332379  1
  K  K7  1  0.250000  0.667621  0.832379  1
  Zn  Zn8  1  0.685099  0.685099  0.685099  1
  Zn  Zn9  1  0.185099  0.185099  0.185099  1
  Zn  Zn10  1  0.814901  0.814901  0.814901  1
  Zn  Zn11  1  0.314901  0.314901  0.314901  1
  C  C12  1  0.726077  0.047117  0.623277  1
  C  C13  1  0.623277  0.726077  0.047117  1
  C  C14  1  0.638988  0.638988  0.638988  1
  C  C15  1  0.452883  0.773923  0.876723  1
  C  C16  1  0.952883  0.376723  0.273923  1
  C  C17  1  0.138988  0.138988  0.138988  1
  C  C18  1  0.047117  0.623277  0.726077  1
  C  C19  1  0.876723  0.452883  0.773923  1
  C  C20  1  0.861012  0.861012  0.861012  1
  C  C21  1  0.273923  0.952883  0.376723  1
  C  C22  1  0.773923  0.876723  0.452883  1
  C  C23  1  0.123277  0.547117  0.226077  1
  C  C24  1  0.376723  0.273923  0.952883  1
  C  C25  1  0.361012  0.361012  0.361012  1
  C  C26  1  0.547117  0.226077  0.123277  1
  C  C27  1  0.226077  0.123277  0.547117  1
  N  N28  1  0.329731  0.816469  0.484381  1
  N  N29  1  0.515619  0.670269  0.183531  1
  N  N30  1  0.683531  0.170269  0.015619  1
  N  N31  1  0.316469  0.829731  0.984381  1
  N  N32  1  0.183531  0.515619  0.670269  1
  N  N33  1  0.387822  0.387822  0.387822  1
  N  N34  1  0.484381  0.329731  0.816469  1
  N  N35  1  0.887822  0.887822  0.887822  1
  N  N36  1  0.112178  0.112178  0.112178  1
  N  N37  1  0.170269  0.015619  0.683531  1
  N  N38  1  0.670269  0.183531  0.515619  1
  N  N39  1  0.829731  0.984381  0.316469  1
  N  N40  1  0.816469  0.484381  0.329731  1
  N  N41  1  0.984381  0.316469  0.829731  1
  N  N42  1  0.612178  0.612178  0.612178  1
  N  N43  1  0.015619  0.683531  0.170269  1
