# generated using pymatgen
data_K22Nb13In11(PO5)24
_symmetry_space_group_name_H-M   'P 1'
_cell_length_a   9.48454047
_cell_length_b   9.46199232
_cell_length_c   33.25314855
_cell_angle_alpha   89.88352346
_cell_angle_beta   89.89966741
_cell_angle_gamma   90.15907604
_symmetry_Int_Tables_number   1
_chemical_formula_structural   K22Nb13In11(PO5)24
_chemical_formula_sum   'K22 Nb13 In11 P24 O120'
_cell_volume   2984.20336877
_cell_formula_units_Z   1
loop_
 _symmetry_equiv_pos_site_id
 _symmetry_equiv_pos_as_xyz
  1  'x, y, z'
loop_
 _atom_site_type_symbol
 _atom_site_label
 _atom_site_symmetry_multiplicity
 _atom_site_fract_x
 _atom_site_fract_y
 _atom_site_fract_z
 _atom_site_occupancy
  K  K0  1  0.001220  0.218320  0.156555  1
  K  K1  1  0.004582  0.225741  0.490572  1
  K  K2  1  0.004770  0.225799  0.823883  1
  K  K3  1  0.225709  0.995655  0.407411  1
  K  K4  1  0.225940  0.995396  0.740579  1
  K  K5  1  0.271455  0.515118  0.240328  1
  K  K6  1  0.274025  0.516143  0.573646  1
  K  K7  1  0.273978  0.516541  0.907054  1
  K  K8  1  0.485708  0.274343  0.323485  1
  K  K9  1  0.483735  0.274151  0.656921  1
  K  K10  1  0.480484  0.272933  0.989875  1
  K  K11  1  0.518093  0.726218  0.156444  1
  K  K12  1  0.516425  0.726100  0.490273  1
  K  K13  1  0.516114  0.725941  0.823681  1
  K  K14  1  0.727053  0.485673  0.073405  1
  K  K15  1  0.725984  0.483694  0.406813  1
  K  K16  1  0.726006  0.483706  0.740314  1
  K  K17  1  0.774077  0.004622  0.573863  1
  K  K18  1  0.773965  0.004055  0.906986  1
  K  K19  1  0.992507  0.777971  0.322362  1
  K  K20  1  0.995266  0.774200  0.657226  1
  K  K21  1  0.999339  0.779617  0.991626  1
  Nb  Nb22  1  0.104691  0.386282  0.008399  1
  Nb  Nb23  1  0.102593  0.385257  0.341221  1
  Nb  Nb24  1  0.104009  0.385935  0.674697  1
  Nb  Nb25  1  0.374399  0.135645  0.173651  1
  Nb  Nb26  1  0.382654  0.889880  0.259716  1
  Nb  Nb27  1  0.386033  0.896103  0.591395  1
  Nb  Nb28  1  0.385507  0.896224  0.925107  1
  Nb  Nb29  1  0.618868  0.107953  0.089075  1
  Nb  Nb30  1  0.614376  0.103597  0.424345  1
  Nb  Nb31  1  0.613955  0.103950  0.758068  1
  Nb  Nb32  1  0.895699  0.614109  0.508013  1
  Nb  Nb33  1  0.896206  0.618492  0.175025  1
  Nb  Nb34  1  0.896015  0.614179  0.841338  1
  In  In35  1  0.143045  0.635978  0.091056  1
  In  In36  1  0.142460  0.629271  0.425088  1
  In  In37  1  0.143196  0.629157  0.758317  1
  In  In38  1  0.370733  0.143123  0.508159  1
  In  In39  1  0.370539  0.142807  0.841772  1
  In  In40  1  0.627483  0.853365  0.007864  1
  In  In41  1  0.634257  0.860718  0.340546  1
  In  In42  1  0.629425  0.857025  0.674947  1
  In  In43  1  0.854722  0.366042  0.257946  1
  In  In44  1  0.856884  0.370727  0.591622  1
  In  In45  1  0.857258  0.371281  0.925059  1
  P  P46  1  0.168902  0.177474  0.257437  1
  P  P47  1  0.167040  0.178748  0.590740  1
  P  P48  1  0.166726  0.178949  0.924177  1
  P  P49  1  0.182618  0.832571  0.174006  1
  P  P50  1  0.178968  0.832924  0.507417  1
  P  P51  1  0.179095  0.832991  0.840823  1
  P  P52  1  0.327873  0.325297  0.088582  1
  P  P53  1  0.328201  0.326819  0.421703  1
  P  P54  1  0.328198  0.326579  0.755239  1
  P  P55  1  0.326170  0.671788  0.005487  1
  P  P56  1  0.327863  0.671766  0.339053  1
  P  P57  1  0.326656  0.671959  0.671951  1
  P  P58  1  0.674694  0.325173  0.171959  1
  P  P59  1  0.673982  0.674544  0.255107  1
  P  P60  1  0.673337  0.327701  0.505233  1
  P  P61  1  0.671763  0.673375  0.588614  1
  P  P62  1  0.673471  0.327870  0.838683  1
  P  P63  1  0.672005  0.673311  0.921895  1
  P  P64  1  0.821964  0.166171  0.007025  1
  P  P65  1  0.820758  0.167258  0.340863  1
  P  P66  1  0.821172  0.166990  0.674119  1
  P  P67  1  0.832130  0.819963  0.090854  1
  P  P68  1  0.832874  0.821043  0.424002  1
  P  P69  1  0.833007  0.821326  0.757387  1
  O  O70  1  0.002566  0.536792  0.134471  1
  O  O71  1  0.003137  0.532996  0.467577  1
  O  O72  1  0.003258  0.533268  0.800886  1
  O  O73  1  0.010937  0.189229  0.249591  1
  O  O74  1  0.005814  0.184154  0.917889  1
  O  O75  1  0.006316  0.184187  0.584390  1
  O  O76  1  0.024846  0.792494  0.180471  1
  O  O77  1  0.021975  0.787069  0.514303  1
  O  O78  1  0.022034  0.787167  0.847687  1
  O  O79  1  0.035049  0.499571  0.048861  1
  O  O80  1  0.034730  0.499204  0.381740  1
  O  O81  1  0.034610  0.499396  0.715231  1
  O  O82  1  0.200387  0.995874  0.168738  1
  O  O83  1  0.184631  0.994073  0.500971  1
  O  O84  1  0.184567  0.994135  0.834319  1
  O  O85  1  0.212984  0.021577  0.597678  1
  O  O86  1  0.212637  0.020283  0.265239  1
  O  O87  1  0.212926  0.021732  0.930860  1
  O  O88  1  0.216820  0.263632  0.627917  1
  O  O89  1  0.221260  0.265711  0.293565  1
  O  O90  1  0.216316  0.263810  0.961273  1
  O  O91  1  0.245105  0.758261  0.136706  1
  O  O92  1  0.241985  0.759094  0.469532  1
  O  O93  1  0.242003  0.759003  0.802972  1
  O  O94  1  0.243582  0.736184  0.040980  1
  O  O95  1  0.243050  0.737448  0.374194  1
  O  O96  1  0.243374  0.736897  0.707748  1
  O  O97  1  0.249929  0.231436  0.218436  1
  O  O98  1  0.241139  0.241987  0.552837  1
  O  O99  1  0.240583  0.242301  0.886220  1
  O  O100  1  0.246064  0.279353  0.050848  1
  O  O101  1  0.248814  0.280219  0.382813  1
  O  O102  1  0.248644  0.279582  0.716444  1
  O  O103  1  0.273529  0.243176  0.127072  1
  O  O104  1  0.263071  0.243346  0.457599  1
  O  O105  1  0.263380  0.243028  0.791142  1
  O  O106  1  0.265460  0.783398  0.211581  1
  O  O107  1  0.263546  0.783029  0.544592  1
  O  O108  1  0.263725  0.783442  0.878025  1
  O  O109  1  0.280689  0.753391  0.299610  1
  O  O110  1  0.279660  0.751360  0.633083  1
  O  O111  1  0.280786  0.750433  0.966276  1
  O  O112  1  0.283208  0.515614  0.331536  1
  O  O113  1  0.282547  0.513975  0.665474  1
  O  O114  1  0.282625  0.513052  0.998727  1
  O  O115  1  0.320991  0.484714  0.097292  1
  O  O116  1  0.323217  0.487353  0.428906  1
  O  O117  1  0.323504  0.486999  0.762453  1
  O  O118  1  0.445847  0.014050  0.214901  1
  O  O119  1  0.466785  0.003618  0.550808  1
  O  O120  1  0.466653  0.003535  0.884455  1
  O  O121  1  0.486193  0.282486  0.081619  1
  O  O122  1  0.485696  0.282673  0.415256  1
  O  O123  1  0.485851  0.282545  0.748742  1
  O  O124  1  0.486665  0.674882  0.012516  1
  O  O125  1  0.486640  0.676703  0.679176  1
  O  O126  1  0.487346  0.680143  0.345454  1
  O  O127  1  0.495465  0.049143  0.134700  1
  O  O128  1  0.500041  0.034461  0.464940  1
  O  O129  1  0.500358  0.034240  0.798656  1
  O  O130  1  0.496535  0.968346  0.297519  1
  O  O131  1  0.499495  0.965598  0.631881  1
  O  O132  1  0.499962  0.966055  0.965568  1
  O  O133  1  0.510744  0.303513  0.178590  1
  O  O134  1  0.513234  0.323252  0.512551  1
  O  O135  1  0.513338  0.323073  0.845908  1
  O  O136  1  0.515375  0.723305  0.248307  1
  O  O137  1  0.514220  0.717519  0.582141  1
  O  O138  1  0.514605  0.717758  0.915566  1
  O  O139  1  0.536130  0.993762  0.052324  1
  O  O140  1  0.534115  0.996200  0.383613  1
  O  O141  1  0.533467  0.996413  0.717609  1
  O  O142  1  0.676470  0.512933  0.595902  1
  O  O143  1  0.673857  0.513743  0.262217  1
  O  O144  1  0.676590  0.512793  0.929228  1
  O  O145  1  0.708658  0.484445  0.165479  1
  O  O146  1  0.717607  0.485824  0.498773  1
  O  O147  1  0.717634  0.485925  0.832161  1
  O  O148  1  0.719916  0.248363  0.466381  1
  O  O149  1  0.719802  0.247287  0.132963  1
  O  O150  1  0.720364  0.248560  0.799819  1
  O  O151  1  0.735544  0.215017  0.045059  1
  O  O152  1  0.737087  0.217274  0.378354  1
  O  O153  1  0.736510  0.217017  0.711292  1
  O  O154  1  0.736626  0.756802  0.624409  1
  O  O155  1  0.736562  0.753556  0.291661  1
  O  O156  1  0.737504  0.756530  0.957676  1
  O  O157  1  0.751251  0.717480  0.215887  1
  O  O158  1  0.751454  0.720467  0.549731  1
  O  O159  1  0.751527  0.720348  0.883001  1
  O  O160  1  0.756885  0.758498  0.053039  1
  O  O161  1  0.758520  0.758132  0.386278  1
  O  O162  1  0.759031  0.758070  0.719590  1
  O  O163  1  0.753357  0.262702  0.208205  1
  O  O164  1  0.756540  0.262966  0.541079  1
  O  O165  1  0.756556  0.263120  0.874562  1
  O  O166  1  0.757544  0.243995  0.303886  1
  O  O167  1  0.758100  0.240952  0.636282  1
  O  O168  1  0.756222  0.241777  0.970040  1
  O  O169  1  0.780859  0.735767  0.128180  1
  O  O170  1  0.783300  0.736190  0.461355  1
  O  O171  1  0.783119  0.736327  0.794657  1
  O  O172  1  0.782257  0.977386  0.098253  1
  O  O173  1  0.786908  0.978112  0.431027  1
  O  O174  1  0.786989  0.978397  0.764284  1
  O  O175  1  0.813194  0.005597  0.001276  1
  O  O176  1  0.816426  0.006285  0.335607  1
  O  O177  1  0.815454  0.005933  0.667725  1
  O  O178  1  0.963125  0.501220  0.215049  1
  O  O179  1  0.965425  0.500605  0.548571  1
  O  O180  1  0.965693  0.500626  0.881876  1
  O  O181  1  0.975815  0.213948  0.014482  1
  O  O182  1  0.978725  0.212668  0.347531  1
  O  O183  1  0.978121  0.212640  0.681001  1
  O  O184  1  0.993795  0.815654  0.417688  1
  O  O185  1  0.991258  0.815116  0.084732  1
  O  O186  1  0.993754  0.815850  0.750976  1
  O  O187  1  0.996921  0.465027  0.300480  1
  O  O188  1  0.996763  0.466662  0.634239  1
  O  O189  1  0.996709  0.466079  0.967828  1
