# generated using pymatgen
data_Na2P2H2O7
_symmetry_space_group_name_H-M   'P 1'
_cell_length_a   15.22217412
_cell_length_b   7.11134081
_cell_length_c   14.32443254
_cell_angle_alpha   83.12054261
_cell_angle_beta   27.66863525
_cell_angle_gamma   68.99087236
_symmetry_Int_Tables_number   1
_chemical_formula_structural   Na2P2H2O7
_chemical_formula_sum   'Na8 P8 H8 O28'
_cell_volume   598.16909894
_cell_formula_units_Z   4
loop_
 _symmetry_equiv_pos_site_id
 _symmetry_equiv_pos_as_xyz
  1  'x, y, z'
loop_
 _atom_site_type_symbol
 _atom_site_label
 _atom_site_symmetry_multiplicity
 _atom_site_fract_x
 _atom_site_fract_y
 _atom_site_fract_z
 _atom_site_occupancy
  Na  Na0  1  0.715925  0.315151  0.634698  1
  Na  Na1  1  0.634238  0.831115  0.715331  1
  Na  Na2  1  0.318825  0.714003  0.832145  1
  Na  Na3  1  0.835386  0.630017  0.317464  1
  Na  Na4  1  0.282539  0.683474  0.366574  1
  Na  Na5  1  0.369007  0.168530  0.282502  1
  Na  Na6  1  0.684840  0.280077  0.164962  1
  Na  Na7  1  0.166498  0.370857  0.684944  1
  P  P8  1  0.214280  0.750586  0.180170  1
  P  P9  1  0.182557  0.353161  0.212498  1
  P  P10  1  0.750298  0.213154  0.355483  1
  P  P11  1  0.355871  0.179118  0.749664  1
  P  P12  1  0.787878  0.248257  0.817162  1
  P  P13  1  0.817932  0.645594  0.787245  1
  P  P14  1  0.249054  0.787734  0.646048  1
  P  P15  1  0.646282  0.818848  0.248016  1
  H  H16  1  0.244774  0.006295  0.235940  1
  H  H17  1  0.004743  0.240162  0.015500  1
  H  H18  1  0.758095  0.991993  0.760673  1
  H  H19  1  0.985896  0.763518  0.994875  1
  H  H20  1  0.947730  0.949462  0.302428  1
  H  H21  1  0.301451  0.299415  0.948242  1
  H  H22  1  0.052791  0.054210  0.698508  1
  H  H23  1  0.698366  0.698532  0.050057  1
  O  O24  1  0.263307  0.827329  0.221958  1
  O  O25  1  0.228072  0.182743  0.257656  1
  O  O26  1  0.830968  0.257150  0.184243  1
  O  O27  1  0.185251  0.224247  0.830346  1
  O  O28  1  0.744079  0.168251  0.770113  1
  O  O29  1  0.771769  0.816251  0.742884  1
  O  O30  1  0.168685  0.745111  0.816846  1
  O  O31  1  0.815547  0.774658  0.169844  1
  O  O32  1  0.967435  0.926823  0.369805  1
  O  O33  1  0.368616  0.235583  0.967686  1
  O  O34  1  0.926327  0.967468  0.238547  1
  O  O35  1  0.238674  0.366475  0.925364  1
  O  O36  1  0.033594  0.075681  0.630113  1
  O  O37  1  0.631269  0.762677  0.032883  1
  O  O38  1  0.073846  0.034566  0.762188  1
  O  O39  1  0.763454  0.630510  0.073198  1
  O  O40  1  0.385061  0.688169  0.946039  1
  O  O41  1  0.946320  0.482213  0.386574  1
  O  O42  1  0.687197  0.386628  0.480594  1
  O  O43  1  0.486439  0.943756  0.682252  1
  O  O44  1  0.613860  0.310801  0.052912  1
  O  O45  1  0.053410  0.517574  0.614545  1
  O  O46  1  0.312007  0.614581  0.520835  1
  O  O47  1  0.519443  0.054898  0.312365  1
  O  O48  1  0.225124  0.526245  0.218199  1
  O  O49  1  0.527997  0.222867  0.528335  1
  O  O50  1  0.775185  0.473701  0.781113  1
  O  O51  1  0.472427  0.778942  0.470579  1
