# generated using pymatgen
data_K3Ta2S11
_symmetry_space_group_name_H-M   'P 1'
_cell_length_a   8.06614965
_cell_length_b   12.54632047
_cell_length_c   18.48083420
_cell_angle_alpha   100.21175296
_cell_angle_beta   102.56927995
_cell_angle_gamma   90.06186192
_symmetry_Int_Tables_number   1
_chemical_formula_structural   K3Ta2S11
_chemical_formula_sum   'K12 Ta8 S44'
_cell_volume   1794.99758271
_cell_formula_units_Z   4
loop_
 _symmetry_equiv_pos_site_id
 _symmetry_equiv_pos_as_xyz
  1  'x, y, z'
loop_
 _atom_site_type_symbol
 _atom_site_label
 _atom_site_symmetry_multiplicity
 _atom_site_fract_x
 _atom_site_fract_y
 _atom_site_fract_z
 _atom_site_occupancy
  K  K0  1  0.291166  0.904857  0.935023  1
  K  K1  1  0.111209  0.170358  0.765084  1
  K  K2  1  0.059499  0.256117  0.420165  1
  K  K3  1  0.351767  0.591162  0.065625  1
  K  K4  1  0.716633  0.093324  0.064984  1
  K  K5  1  0.341573  0.327379  0.235224  1
  K  K6  1  0.651496  0.405917  0.935103  1
  K  K7  1  0.892750  0.828503  0.233741  1
  K  K8  1  0.639076  0.241865  0.581241  1
  K  K9  1  0.945397  0.744873  0.579560  1
  K  K10  1  0.656952  0.668139  0.764299  1
  K  K11  1  0.362663  0.757839  0.418933  1
  Ta  Ta12  1  0.383281  0.927488  0.166125  1
  Ta  Ta13  1  0.106685  0.420125  0.644826  1
  Ta  Ta14  1  0.461721  0.078767  0.355523  1
  Ta  Ta15  1  0.622146  0.071673  0.834024  1
  Ta  Ta16  1  0.539432  0.919194  0.644819  1
  Ta  Ta17  1  0.785360  0.427115  0.165727  1
  Ta  Ta18  1  0.216401  0.571349  0.834460  1
  Ta  Ta19  1  0.893254  0.579893  0.354924  1
  S  S20  1  0.464539  0.644964  0.909439  1
  S  S21  1  0.830702  0.502375  0.633092  1
  S  S22  1  0.171454  0.499725  0.366897  1
  S  S23  1  0.056273  0.243726  0.595525  1
  S  S24  1  0.026097  0.568741  0.921892  1
  S  S25  1  0.977720  0.429573  0.078850  1
  S  S26  1  0.537102  0.743012  0.594977  1
  S  S27  1  0.573958  0.092150  0.240065  1
  S  S28  1  0.106619  0.929872  0.078101  1
  S  S29  1  0.071690  0.725436  0.789254  1
  S  S30  1  0.194457  0.998638  0.366249  1
  S  S31  1  0.220515  0.641880  0.719621  1
  S  S32  1  0.404837  0.995761  0.531978  1
  S  S33  1  0.814919  0.947985  0.735461  1
  S  S34  1  0.537216  0.353738  0.090531  1
  S  S35  1  0.463882  0.255408  0.404957  1
  S  S36  1  0.251135  0.947105  0.672648  1
  S  S37  1  0.854611  0.574448  0.102211  1
  S  S38  1  0.666816  0.591811  0.238404  1
  S  S39  1  0.558153  0.854960  0.091828  1
  S  S40  1  0.148737  0.424090  0.898268  1
  S  S41  1  0.592030  0.002563  0.468709  1
  S  S42  1  0.780037  0.357694  0.280477  1
  S  S43  1  0.898927  0.071239  0.921856  1
  S  S44  1  0.333378  0.406167  0.761453  1
  S  S45  1  0.077384  0.551121  0.264091  1
  S  S46  1  0.187958  0.050887  0.263961  1
  S  S47  1  0.930459  0.273995  0.211547  1
  S  S48  1  0.500865  0.855989  0.280600  1
  S  S49  1  0.423247  0.446171  0.671400  1
  S  S50  1  0.921948  0.449229  0.735337  1
  S  S51  1  0.754568  0.925581  0.898204  1
  S  S52  1  0.447558  0.144566  0.908203  1
  S  S53  1  0.751613  0.050259  0.329687  1
  S  S54  1  0.940287  0.756846  0.403495  1
  S  S55  1  0.281504  0.773298  0.210695  1
  S  S56  1  0.431705  0.906170  0.761694  1
  S  S57  1  0.125960  0.495681  0.531347  1
  S  S58  1  0.502462  0.142083  0.719594  1
  S  S59  1  0.577710  0.551745  0.328476  1
  S  S60  1  0.875622  0.505091  0.468732  1
  S  S61  1  0.721620  0.225758  0.788822  1
  S  S62  1  0.252309  0.074928  0.102739  1
  S  S63  1  0.805832  0.999604  0.632723  1
