# generated using pymatgen
data_Ba(IrO3)2
_symmetry_space_group_name_H-M   'P 1'
_cell_length_a   8.26102085
_cell_length_b   8.21504401
_cell_length_c   8.26010014
_cell_angle_alpha   109.36932834
_cell_angle_beta   109.61665806
_cell_angle_gamma   109.34834418
_symmetry_Int_Tables_number   1
_chemical_formula_structural   Ba(IrO3)2
_chemical_formula_sum   'Ba3 Ir6 O18'
_cell_volume   431.94583780
_cell_formula_units_Z   3
loop_
 _symmetry_equiv_pos_site_id
 _symmetry_equiv_pos_as_xyz
  1  'x, y, z'
loop_
 _atom_site_type_symbol
 _atom_site_label
 _atom_site_symmetry_multiplicity
 _atom_site_fract_x
 _atom_site_fract_y
 _atom_site_fract_z
 _atom_site_occupancy
  Ba  Ba0  1  0.364073  0.360746  0.367050  1
  Ba  Ba1  1  0.002992  0.996556  0.636144  1
  Ba  Ba2  1  0.632943  0.993325  0.997366  1
  Ir  Ir3  1  0.155576  0.501748  0.663025  1
  Ir  Ir4  1  0.336621  0.838444  0.492350  1
  Ir  Ir5  1  0.507420  0.345791  0.843990  1
  Ir  Ir6  1  0.494571  0.656284  0.155824  1
  Ir  Ir7  1  0.660973  0.161624  0.505502  1
  Ir  Ir8  1  0.844572  0.500747  0.339350  1
  O  O9  1  0.999360  0.638910  0.632084  1
  O  O10  1  0.049342  0.719030  0.355051  1
  O  O11  1  0.305891  0.670136  0.950557  1
  O  O12  1  0.356678  0.687614  0.637479  1
  O  O13  1  0.280906  0.331050  0.643144  1
  O  O14  1  0.341471  0.641870  0.289150  1
  O  O15  1  0.362389  0.050120  0.718860  1
  O  O16  1  0.637375  0.998464  0.640254  1
  O  O17  1  0.359653  0.358017  0.996908  1
  O  O18  1  0.368080  0.006805  0.367170  1
  O  O19  1  0.668938  0.949975  0.310123  1
  O  O20  1  0.644906  0.364348  0.694564  1
  O  O21  1  0.690056  0.640011  0.359053  1
  O  O22  1  0.641067  0.281235  0.331172  1
  O  O23  1  0.632839  0.639719  0.001016  1
  O  O24  1  0.710313  0.352108  0.051766  1
  O  O25  1  0.948361  0.300669  0.658745  1
  O  O26  1  0.002632  0.360652  0.362303  1
