# generated using pymatgen
data_K2PtS15
_symmetry_space_group_name_H-M   'P 1'
_cell_length_a   9.32489830
_cell_length_b   9.32489839
_cell_length_c   12.92815922
_cell_angle_alpha   90.77924405
_cell_angle_beta   90.77924398
_cell_angle_gamma   65.37716750
_symmetry_Int_Tables_number   1
_chemical_formula_structural   K2PtS15
_chemical_formula_sum   'K4 Pt2 S30'
_cell_volume   1021.79927878
_cell_formula_units_Z   2
loop_
 _symmetry_equiv_pos_site_id
 _symmetry_equiv_pos_as_xyz
  1  'x, y, z'
loop_
 _atom_site_type_symbol
 _atom_site_label
 _atom_site_symmetry_multiplicity
 _atom_site_fract_x
 _atom_site_fract_y
 _atom_site_fract_z
 _atom_site_occupancy
  K  K0  1  0.351071  0.182079  0.146276  1
  K  K1  1  0.055370  0.724281  0.912918  1
  K  K2  1  0.724281  0.055370  0.412918  1
  K  K3  1  0.182079  0.351071  0.646276  1
  Pt  Pt4  1  0.803401  0.218894  0.749371  1
  Pt  Pt5  1  0.218894  0.803401  0.249371  1
  S  S6  1  0.862718  0.653071  0.355632  1
  S  S7  1  0.590141  0.450850  0.276627  1
  S  S8  1  0.862820  0.427904  0.826697  1
  S  S9  1  0.519635  0.353226  0.777730  1
  S  S10  1  0.998874  0.212790  0.332602  1
  S  S11  1  0.233380  0.198673  0.894076  1
  S  S12  1  0.053023  0.643965  0.446234  1
  S  S13  1  0.652871  0.448291  0.121139  1
  S  S14  1  0.450850  0.590141  0.776627  1
  S  S15  1  0.075826  0.079354  0.203165  1
  S  S16  1  0.687713  0.573943  0.596306  1
  S  S17  1  0.589908  0.966138  0.710631  1
  S  S18  1  0.448291  0.652871  0.621139  1
  S  S19  1  0.333868  0.006293  0.450719  1
  S  S20  1  0.994932  0.782209  0.162680  1
  S  S21  1  0.782209  0.994932  0.662680  1
  S  S22  1  0.573943  0.687713  0.096306  1
  S  S23  1  0.653071  0.862718  0.855632  1
  S  S24  1  0.966138  0.589908  0.210631  1
  S  S25  1  0.779407  0.335516  0.579494  1
  S  S26  1  0.006293  0.333868  0.950719  1
  S  S27  1  0.838279  0.091487  0.916702  1
  S  S28  1  0.353226  0.519635  0.277730  1
  S  S29  1  0.643965  0.053023  0.946234  1
  S  S30  1  0.079354  0.075826  0.703165  1
  S  S31  1  0.212790  0.998874  0.832602  1
  S  S32  1  0.198673  0.233380  0.394076  1
  S  S33  1  0.091487  0.838279  0.416702  1
  S  S34  1  0.335516  0.779407  0.079494  1
  S  S35  1  0.427904  0.862820  0.326697  1
