# generated using pymatgen
data_K3FeF3
_symmetry_space_group_name_H-M   'P 1'
_cell_length_a   6.49007003
_cell_length_b   5.94213196
_cell_length_c   12.23146635
_cell_angle_alpha   64.51929958
_cell_angle_beta   55.44003536
_cell_angle_gamma   59.36318116
_symmetry_Int_Tables_number   1
_chemical_formula_structural   K3FeF3
_chemical_formula_sum   'K6 Fe2 F6'
_cell_volume   327.54371017
_cell_formula_units_Z   2
loop_
 _symmetry_equiv_pos_site_id
 _symmetry_equiv_pos_as_xyz
  1  'x, y, z'
loop_
 _atom_site_type_symbol
 _atom_site_label
 _atom_site_symmetry_multiplicity
 _atom_site_fract_x
 _atom_site_fract_y
 _atom_site_fract_z
 _atom_site_occupancy
  K  K0  1  0.271898  0.259488  0.122504  1
  K  K1  1  0.243987  0.268203  0.621526  1
  K  K2  1  0.510238  0.509218  0.247099  1
  K  K3  1  0.505269  0.509879  0.751249  1
  K  K4  1  0.743853  0.755256  0.377850  1
  K  K5  1  0.764231  0.752105  0.864963  1
  Fe  Fe6  1  0.034708  0.029957  0.988054  1
  Fe  Fe7  1  0.017732  0.035537  0.490927  1
  F  F8  1  0.271166  0.768045  0.093632  1
  F  F9  1  0.220480  0.812476  0.619963  1
  F  F10  1  0.780030  0.804191  0.131118  1
  F  F11  1  0.744942  0.241485  0.404604  1
  F  F12  1  0.849991  0.730844  0.596141  1
  F  F13  1  0.761475  0.243316  0.900371  1
