# generated using pymatgen
data_CrSn2
_symmetry_space_group_name_H-M   'P 1'
_cell_length_a   5.42105212
_cell_length_b   5.40397381
_cell_length_c   9.61760566
_cell_angle_alpha   81.87344056
_cell_angle_beta   73.63056800
_cell_angle_gamma   59.89540212
_symmetry_Int_Tables_number   1
_chemical_formula_structural   CrSn2
_chemical_formula_sum   'Cr4 Sn8'
_cell_volume   233.86466200
_cell_formula_units_Z   4
loop_
 _symmetry_equiv_pos_site_id
 _symmetry_equiv_pos_as_xyz
  1  'x, y, z'
loop_
 _atom_site_type_symbol
 _atom_site_label
 _atom_site_symmetry_multiplicity
 _atom_site_fract_x
 _atom_site_fract_y
 _atom_site_fract_z
 _atom_site_occupancy
  Cr  Cr0  1  0.251656  0.750000  0.496689  1
  Cr  Cr1  1  0.998344  0.750000  0.003311  1
  Cr  Cr2  1  0.748344  0.250000  0.503311  1
  Cr  Cr3  1  0.001656  0.250000  0.996689  1
  Sn  Sn4  1  0.543656  0.750000  0.912687  1
  Sn  Sn5  1  0.706344  0.750000  0.587313  1
  Sn  Sn6  1  0.456344  0.250000  0.087313  1
  Sn  Sn7  1  0.293656  0.250000  0.412687  1
  Sn  Sn8  1  0.289908  0.420185  0.750000  1
  Sn  Sn9  1  0.960092  0.079815  0.750000  1
  Sn  Sn10  1  0.710092  0.579815  0.250000  1
  Sn  Sn11  1  0.039908  0.920185  0.250000  1
