# generated using pymatgen
data_Sr10Ga6O19
_symmetry_space_group_name_H-M   'P 1'
_cell_length_a   8.06341616
_cell_length_b   16.13634959
_cell_length_c   18.09661132
_cell_angle_alpha   102.82152237
_cell_angle_beta   102.88270984
_cell_angle_gamma   90.00303759
_symmetry_Int_Tables_number   1
_chemical_formula_structural   Sr10Ga6O19
_chemical_formula_sum   'Sr40 Ga24 O76'
_cell_volume   2235.08207672
_cell_formula_units_Z   4
loop_
 _symmetry_equiv_pos_site_id
 _symmetry_equiv_pos_as_xyz
  1  'x, y, z'
loop_
 _atom_site_type_symbol
 _atom_site_label
 _atom_site_symmetry_multiplicity
 _atom_site_fract_x
 _atom_site_fract_y
 _atom_site_fract_z
 _atom_site_occupancy
  Sr  Sr0  1  0.206507  0.977976  0.373637  1
  Sr  Sr1  1  0.375739  0.321676  0.251513  1
  Sr  Sr2  1  0.124216  0.667481  0.746394  1
  Sr  Sr3  1  0.144873  0.750239  0.000885  1
  Sr  Sr4  1  0.630976  0.441289  0.742904  1
  Sr  Sr5  1  0.526421  0.152940  0.502174  1
  Sr  Sr6  1  0.368916  0.559223  0.258950  1
  Sr  Sr7  1  0.762521  0.530635  0.009568  1
  Sr  Sr8  1  0.380578  0.832793  0.254180  1
  Sr  Sr9  1  0.820639  0.575770  0.238969  1
  Sr  Sr10  1  0.123139  0.178831  0.749990  1
  Sr  Sr11  1  0.168498  0.478431  0.374191  1
  Sr  Sr12  1  0.854558  0.249722  0.999974  1
  Sr  Sr13  1  0.613704  0.167827  0.129016  1
  Sr  Sr14  1  0.887450  0.057968  0.257572  1
  Sr  Sr15  1  0.993643  0.879101  0.491080  1
  Sr  Sr16  1  0.622726  0.677946  0.749347  1
  Sr  Sr17  1  0.503603  0.620974  0.511009  1
  Sr  Sr18  1  0.470833  0.846678  0.497913  1
  Sr  Sr19  1  0.236663  0.469526  0.992364  1
  Sr  Sr20  1  0.831863  0.520893  0.627132  1
  Sr  Sr21  1  0.484469  0.332260  0.871460  1
  Sr  Sr22  1  0.245146  0.030566  0.008208  1
  Sr  Sr23  1  0.110252  0.940859  0.741656  1
  Sr  Sr24  1  0.793712  0.021882  0.626929  1
  Sr  Sr25  1  0.875846  0.821361  0.251749  1
  Sr  Sr26  1  0.292134  0.249810  0.000725  1
  Sr  Sr27  1  0.384433  0.832136  0.871072  1
  Sr  Sr28  1  0.495419  0.378554  0.490161  1
  Sr  Sr29  1  0.582605  0.923259  0.761718  1
  Sr  Sr30  1  0.515087  0.667810  0.129612  1
  Sr  Sr31  1  0.008110  0.120590  0.509895  1
  Sr  Sr32  1  0.416194  0.075896  0.238155  1
  Sr  Sr33  1  0.751915  0.970129  0.991253  1
  Sr  Sr34  1  0.024425  0.345473  0.497292  1
  Sr  Sr35  1  0.706337  0.750354  0.999833  1
  Sr  Sr36  1  0.874078  0.332214  0.254204  1
  Sr  Sr37  1  0.177866  0.423817  0.762269  1
  Sr  Sr38  1  0.618033  0.168291  0.745323  1
  Sr  Sr39  1  0.971872  0.652535  0.502397  1
  Ga  Ga40  1  0.080869  0.152211  0.146012  1
  Ga  Ga41  1  0.687519  0.965433  0.387967  1
  Ga  Ga42  1  0.794090  0.786572  0.640355  1
  Ga  Ga43  1  0.948666  0.568750  0.874313  1
  Ga  Ga44  1  0.525345  0.910719  0.113951  1
  Ga  Ga45  1  0.680677  0.234581  0.370975  1
  Ga  Ga46  1  0.312978  0.034933  0.612979  1
  Ga  Ga47  1  0.073746  0.931706  0.126677  1
  Ga  Ga48  1  0.206243  0.212904  0.360285  1
  Ga  Ga49  1  0.586639  0.410909  0.114238  1
  Ga  Ga50  1  0.154175  0.713369  0.361001  1
  Ga  Ga51  1  0.051443  0.431542  0.127387  1
  Ga  Ga52  1  0.064721  0.652153  0.146863  1
  Ga  Ga53  1  0.934324  0.347794  0.854499  1
  Ga  Ga54  1  0.922718  0.068074  0.873127  1
  Ga  Ga55  1  0.701434  0.465238  0.388302  1
  Ga  Ga56  1  0.318667  0.765193  0.628924  1
  Ga  Ga57  1  0.472398  0.089130  0.886000  1
  Ga  Ga58  1  0.844859  0.286583  0.639732  1
  Ga  Ga59  1  0.309048  0.265333  0.628498  1
  Ga  Ga60  1  0.412118  0.589244  0.886652  1
  Ga  Ga61  1  0.690876  0.734818  0.372001  1
  Ga  Ga62  1  0.298320  0.534331  0.613079  1
  Ga  Ga63  1  0.918190  0.847638  0.854632  1
  O  O64  1  0.745361  0.519568  0.492628  1
  O  O65  1  0.208411  0.792673  0.539723  1
  O  O66  1  0.554147  0.765480  0.625401  1
  O  O67  1  0.179629  0.556739  0.875383  1
  O  O68  1  0.751399  0.368873  0.591038  1
  O  O69  1  0.492289  0.125626  0.992807  1
  O  O70  1  0.996394  0.962703  0.900848  1
  O  O71  1  0.071002  0.924026  0.226380  1
  O  O72  1  0.249385  0.630494  0.409326  1
  O  O73  1  0.152556  0.423909  0.227311  1
  O  O74  1  0.884372  0.963336  0.350338  1
  O  O75  1  0.633536  0.848529  0.380163  1
  O  O76  1  0.244308  0.820289  0.367339  1
  O  O77  1  0.165353  0.130522  0.409751  1
  O  O78  1  0.754363  0.179381  0.632445  1
  O  O79  1  0.903078  0.645160  0.958225  1
  O  O80  1  0.428766  0.673191  0.833402  1
  O  O81  1  0.296184  0.168532  0.127618  1
  O  O82  1  0.943929  0.855453  0.042481  1
  O  O83  1  0.499265  0.374037  0.007839  1
  O  O84  1  0.053158  0.144729  0.957219  1
  O  O85  1  0.445962  0.234880  0.374525  1
  O  O86  1  0.139402  0.150660  0.253961  1
  O  O87  1  0.901977  0.462886  0.901057  1
  O  O88  1  0.819061  0.443497  0.126142  1
  O  O89  1  0.884255  0.348139  0.746270  1
  O  O90  1  0.305016  0.942486  0.126922  1
  O  O91  1  0.925891  0.076074  0.773721  1
  O  O92  1  0.256099  0.980364  0.508650  1
  O  O93  1  0.521401  0.006473  0.666335  1
  O  O94  1  0.510909  0.517876  0.148920  1
  O  O95  1  0.500424  0.625561  0.992969  1
  O  O96  1  0.401815  0.173859  0.833540  1
  O  O97  1  0.070069  0.266248  0.624728  1
  O  O98  1  0.486288  0.481394  0.851328  1
  O  O99  1  0.840706  0.869325  0.592498  1
  O  O100  1  0.112377  0.651078  0.254644  1
  O  O101  1  0.504296  0.873893  0.007431  1
  O  O102  1  0.115134  0.037277  0.649797  1
  O  O103  1  0.585861  0.677823  0.272725  1
  O  O104  1  0.635403  0.018068  0.147501  1
  O  O105  1  0.597869  0.827020  0.167725  1
  O  O106  1  0.876792  0.678926  0.632550  1
  O  O107  1  0.167750  0.331554  0.872291  1
  O  O108  1  0.362259  0.981656  0.851839  1
  O  O109  1  0.930422  0.735256  0.377586  1
  O  O110  1  0.365846  0.151799  0.618888  1
  O  O111  1  0.846759  0.576254  0.774297  1
  O  O112  1  0.228272  0.721924  0.132320  1
  O  O113  1  0.746250  0.019100  0.492101  1
  O  O114  1  0.569495  0.326309  0.167318  1
  O  O115  1  0.693159  0.056159  0.874642  1
  O  O116  1  0.123357  0.320253  0.367760  1
  O  O117  1  0.770635  0.278287  0.868821  1
  O  O118  1  0.702007  0.831721  0.872273  1
  O  O119  1  0.748236  0.348434  0.380959  1
  O  O120  1  0.686467  0.178202  0.271568  1
  O  O121  1  0.860079  0.848506  0.746685  1
  O  O122  1  0.830828  0.667752  0.128556  1
  O  O123  1  0.793163  0.206848  0.460420  1
  O  O124  1  0.479286  0.994783  0.335243  1
  O  O125  1  0.096011  0.777814  0.869208  1
  O  O126  1  0.253101  0.479473  0.509028  1
  O  O127  1  0.468160  0.463181  0.349740  1
  O  O128  1  0.859030  0.495641  0.336711  1
  O  O129  1  0.253637  0.651003  0.619542  1
  O  O130  1  0.668188  0.707815  0.461640  1
  O  O131  1  0.097813  0.537324  0.100472  1
  O  O132  1  0.002383  0.037384  0.099055  1
  O  O133  1  0.533110  0.536097  0.650718  1
  O  O134  1  0.415503  0.322027  0.728261  1
  O  O135  1  0.330748  0.291393  0.538716  1
  O  O136  1  0.142876  0.506278  0.666204  1
  O  O137  1  0.902845  0.221928  0.131577  1
  O  O138  1  0.312092  0.821951  0.728397  1
  O  O139  1  0.097127  0.355320  0.043637  1
