# generated using pymatgen
data_MgIr
_symmetry_space_group_name_H-M   'P 1'
_cell_length_a   12.36168112
_cell_length_b   12.36168145
_cell_length_c   16.90591367
_cell_angle_alpha   90.00000000
_cell_angle_beta   90.00000000
_cell_angle_gamma   97.54794245
_symmetry_Int_Tables_number   1
_chemical_formula_structural   MgIr
_chemical_formula_sum   'Mg76 Ir76'
_cell_volume   2561.02784597
_cell_formula_units_Z   76
loop_
 _symmetry_equiv_pos_site_id
 _symmetry_equiv_pos_as_xyz
  1  'x, y, z'
loop_
 _atom_site_type_symbol
 _atom_site_label
 _atom_site_symmetry_multiplicity
 _atom_site_fract_x
 _atom_site_fract_y
 _atom_site_fract_z
 _atom_site_occupancy
  Mg  Mg0  1  0.641717  0.391642  0.830451  1
  Mg  Mg1  1  0.105085  0.840072  0.837427  1
  Mg  Mg2  1  0.625427  0.169291  0.405425  1
  Mg  Mg3  1  0.874573  0.330709  0.905425  1
  Mg  Mg4  1  0.965423  0.702292  0.231150  1
  Mg  Mg5  1  0.548834  0.548834  0.934222  1
  Mg  Mg6  1  0.762340  0.762340  0.997375  1
  Mg  Mg7  1  0.246801  0.246801  0.823652  1
  Mg  Mg8  1  0.454965  0.209336  0.061269  1
  Mg  Mg9  1  0.465423  0.202292  0.268850  1
  Mg  Mg10  1  0.659928  0.394915  0.337427  1
  Mg  Mg11  1  0.830709  0.374573  0.594575  1
  Mg  Mg12  1  0.997282  0.539202  0.835041  1
  Mg  Mg13  1  0.374573  0.830709  0.594575  1
  Mg  Mg14  1  0.534577  0.797708  0.731150  1
  Mg  Mg15  1  0.840072  0.105085  0.837427  1
  Mg  Mg16  1  0.360002  0.816406  0.075135  1
  Mg  Mg17  1  0.139998  0.683594  0.575135  1
  Mg  Mg18  1  0.951166  0.951166  0.434222  1
  Mg  Mg19  1  0.159928  0.894915  0.162573  1
  Mg  Mg20  1  0.608358  0.358283  0.169549  1
  Mg  Mg21  1  0.545035  0.790664  0.938731  1
  Mg  Mg22  1  0.209336  0.454965  0.061269  1
  Mg  Mg23  1  0.125427  0.669291  0.094575  1
  Mg  Mg24  1  0.237660  0.237660  0.002625  1
  Mg  Mg25  1  0.960798  0.502718  0.335041  1
  Mg  Mg26  1  0.502718  0.960798  0.335041  1
  Mg  Mg27  1  0.605085  0.340072  0.662573  1
  Mg  Mg28  1  0.860002  0.316406  0.424865  1
  Mg  Mg29  1  0.437704  0.437704  0.567542  1
  Mg  Mg30  1  0.790664  0.545035  0.938731  1
  Mg  Mg31  1  0.290664  0.045035  0.561269  1
  Mg  Mg32  1  0.709336  0.954965  0.438731  1
  Mg  Mg33  1  0.085146  0.085146  0.265325  1
  Mg  Mg34  1  0.914854  0.914854  0.734675  1
  Mg  Mg35  1  0.683594  0.139998  0.575135  1
  Mg  Mg36  1  0.297708  0.034577  0.768850  1
  Mg  Mg37  1  0.183594  0.639998  0.924865  1
  Mg  Mg38  1  0.562296  0.562296  0.432458  1
  Mg  Mg39  1  0.330709  0.874573  0.905425  1
  Mg  Mg40  1  0.460798  0.002718  0.164959  1
  Mg  Mg41  1  0.954965  0.709336  0.438731  1
  Mg  Mg42  1  0.394915  0.659928  0.337427  1
  Mg  Mg43  1  0.262340  0.262340  0.502625  1
  Mg  Mg44  1  0.891642  0.141717  0.669549  1
  Mg  Mg45  1  0.746801  0.746801  0.676348  1
  Mg  Mg46  1  0.048834  0.048834  0.565778  1
  Mg  Mg47  1  0.451166  0.451166  0.065778  1
  Mg  Mg48  1  0.358283  0.608358  0.169549  1
  Mg  Mg49  1  0.497282  0.039202  0.664959  1
  Mg  Mg50  1  0.816406  0.360002  0.075135  1
  Mg  Mg51  1  0.039202  0.497282  0.664959  1
  Mg  Mg52  1  0.316406  0.860002  0.424865  1
  Mg  Mg53  1  0.797708  0.534577  0.731150  1
  Mg  Mg54  1  0.108358  0.858283  0.330451  1
  Mg  Mg55  1  0.169291  0.625427  0.405425  1
  Mg  Mg56  1  0.753199  0.753199  0.176348  1
  Mg  Mg57  1  0.858283  0.108358  0.330451  1
  Mg  Mg58  1  0.669291  0.125427  0.094575  1
  Mg  Mg59  1  0.539202  0.997282  0.835041  1
  Mg  Mg60  1  0.737660  0.737660  0.497375  1
  Mg  Mg61  1  0.002718  0.460798  0.164959  1
  Mg  Mg62  1  0.391642  0.641717  0.830451  1
  Mg  Mg63  1  0.202292  0.465423  0.268850  1
  Mg  Mg64  1  0.639998  0.183594  0.924865  1
  Mg  Mg65  1  0.340072  0.605085  0.662573  1
  Mg  Mg66  1  0.937704  0.937704  0.932458  1
  Mg  Mg67  1  0.894915  0.159928  0.162573  1
  Mg  Mg68  1  0.414854  0.414854  0.765325  1
  Mg  Mg69  1  0.062296  0.062296  0.067542  1
  Mg  Mg70  1  0.702292  0.965423  0.231150  1
  Mg  Mg71  1  0.585146  0.585146  0.234675  1
  Mg  Mg72  1  0.045035  0.290664  0.561269  1
  Mg  Mg73  1  0.034577  0.297708  0.768850  1
  Mg  Mg74  1  0.141717  0.891642  0.669549  1
  Mg  Mg75  1  0.253199  0.253199  0.323652  1
  Ir  Ir76  1  0.959929  0.823630  0.086998  1
  Ir  Ir77  1  0.769123  0.625267  0.337759  1
  Ir  Ir78  1  0.884813  0.616125  0.087583  1
  Ir  Ir79  1  0.981586  0.706270  0.713998  1
  Ir  Ir80  1  0.823630  0.959929  0.086998  1
  Ir  Ir81  1  0.518414  0.793730  0.213998  1
  Ir  Ir82  1  0.329561  0.829561  0.250000  1
  Ir  Ir83  1  0.540071  0.676370  0.586998  1
  Ir  Ir84  1  0.730877  0.874733  0.837759  1
  Ir  Ir85  1  0.625267  0.769123  0.337759  1
  Ir  Ir86  1  0.334642  0.334642  0.170025  1
  Ir  Ir87  1  0.615187  0.883875  0.587583  1
  Ir  Ir88  1  0.362734  0.637266  0.500000  1
  Ir  Ir89  1  0.823050  0.323050  0.750000  1
  Ir  Ir90  1  0.670439  0.170439  0.750000  1
  Ir  Ir91  1  0.125847  0.874153  0.500000  1
  Ir  Ir92  1  0.017305  0.295097  0.042170  1
  Ir  Ir93  1  0.452053  0.318597  0.915856  1
  Ir  Ir94  1  0.374153  0.625847  0.000000  1
  Ir  Ir95  1  0.137266  0.862734  0.000000  1
  Ir  Ir96  1  0.795097  0.517305  0.457830  1
  Ir  Ir97  1  0.874153  0.125847  0.500000  1
  Ir  Ir98  1  0.931928  0.931928  0.217999  1
  Ir  Ir99  1  0.834642  0.834642  0.329975  1
  Ir  Ir100  1  0.384813  0.116125  0.412417  1
  Ir  Ir101  1  0.115187  0.383875  0.912417  1
  Ir  Ir102  1  0.318597  0.452053  0.915856  1
  Ir  Ir103  1  0.818597  0.952053  0.584144  1
  Ir  Ir104  1  0.676370  0.540071  0.586998  1
  Ir  Ir105  1  0.293730  0.018414  0.286002  1
  Ir  Ir106  1  0.047947  0.181403  0.415856  1
  Ir  Ir107  1  0.176950  0.676950  0.250000  1
  Ir  Ir108  1  0.181403  0.047947  0.415856  1
  Ir  Ir109  1  0.500000  0.000000  0.500000  1
  Ir  Ir110  1  0.165358  0.165358  0.670025  1
  Ir  Ir111  1  0.431928  0.431928  0.282001  1
  Ir  Ir112  1  0.547947  0.681403  0.084144  1
  Ir  Ir113  1  0.665358  0.665358  0.829975  1
  Ir  Ir114  1  0.681403  0.547947  0.084144  1
  Ir  Ir115  1  0.176370  0.040071  0.913002  1
  Ir  Ir116  1  0.874733  0.730877  0.837759  1
  Ir  Ir117  1  0.482695  0.204903  0.542170  1
  Ir  Ir118  1  0.459929  0.323630  0.413002  1
  Ir  Ir119  1  0.018414  0.293730  0.286002  1
  Ir  Ir120  1  0.517305  0.795097  0.457830  1
  Ir  Ir121  1  0.676950  0.176950  0.250000  1
  Ir  Ir122  1  0.206270  0.481586  0.786002  1
  Ir  Ir123  1  0.269123  0.125267  0.162241  1
  Ir  Ir124  1  0.829561  0.329561  0.250000  1
  Ir  Ir125  1  0.374733  0.230877  0.662241  1
  Ir  Ir126  1  0.295097  0.017305  0.042170  1
  Ir  Ir127  1  0.883875  0.615187  0.587583  1
  Ir  Ir128  1  0.616125  0.884813  0.087583  1
  Ir  Ir129  1  0.704903  0.982695  0.957830  1
  Ir  Ir130  1  0.230877  0.374733  0.662241  1
  Ir  Ir131  1  0.500000  0.000000  0.000000  1
  Ir  Ir132  1  0.000000  0.500000  0.000000  1
  Ir  Ir133  1  0.383875  0.115187  0.912417  1
  Ir  Ir134  1  0.706270  0.981586  0.713998  1
  Ir  Ir135  1  0.116125  0.384813  0.412417  1
  Ir  Ir136  1  0.204903  0.482695  0.542170  1
  Ir  Ir137  1  0.068072  0.068072  0.782001  1
  Ir  Ir138  1  0.481586  0.206270  0.786002  1
  Ir  Ir139  1  0.323630  0.459929  0.413002  1
  Ir  Ir140  1  0.982695  0.704903  0.957830  1
  Ir  Ir141  1  0.952053  0.818597  0.584144  1
  Ir  Ir142  1  0.862734  0.137266  0.000000  1
  Ir  Ir143  1  0.637266  0.362734  0.500000  1
  Ir  Ir144  1  0.793730  0.518414  0.213998  1
  Ir  Ir145  1  0.000000  0.500000  0.500000  1
  Ir  Ir146  1  0.040071  0.176370  0.913002  1
  Ir  Ir147  1  0.625847  0.374153  0.000000  1
  Ir  Ir148  1  0.170439  0.670439  0.750000  1
  Ir  Ir149  1  0.323050  0.823050  0.750000  1
  Ir  Ir150  1  0.568072  0.568072  0.717999  1
  Ir  Ir151  1  0.125267  0.269123  0.162241  1
