# generated using pymatgen
data_P6(Pb2O5)5
_symmetry_space_group_name_H-M   'P 1'
_cell_length_a   9.97008086
_cell_length_b   19.93579229
_cell_length_c   7.46443772
_cell_angle_alpha   89.99078524
_cell_angle_beta   89.99960986
_cell_angle_gamma   119.93576357
_symmetry_Int_Tables_number   1
_chemical_formula_structural   P6(Pb2O5)5
_chemical_formula_sum   'P12 Pb20 O50'
_cell_volume   1285.70298807
_cell_formula_units_Z   2
loop_
 _symmetry_equiv_pos_site_id
 _symmetry_equiv_pos_as_xyz
  1  'x, y, z'
loop_
 _atom_site_type_symbol
 _atom_site_label
 _atom_site_symmetry_multiplicity
 _atom_site_fract_x
 _atom_site_fract_y
 _atom_site_fract_z
 _atom_site_occupancy
  P  P0  1  0.031585  0.815860  0.750649  1
  P  P1  1  0.600665  0.986581  0.749501  1
  P  P2  1  0.377894  0.702209  0.749793  1
  P  P3  1  0.025800  0.311392  0.749443  1
  P  P4  1  0.622130  0.797841  0.249694  1
  P  P5  1  0.399288  0.513434  0.249529  1
  P  P6  1  0.595269  0.484731  0.750600  1
  P  P7  1  0.368066  0.199193  0.750392  1
  P  P8  1  0.968393  0.684206  0.250749  1
  P  P9  1  0.632122  0.300724  0.250496  1
  P  P10  1  0.404641  0.015219  0.250688  1
  P  P11  1  0.974246  0.188608  0.249323  1
  Pb  Pb12  1  0.002178  0.886818  0.267013  1
  Pb  Pb13  1  0.327955  0.833102  0.005879  1
  Pb  Pb14  1  0.327447  0.831943  0.494038  1
  Pb  Pb15  1  0.259143  0.625169  0.245662  1
  Pb  Pb16  1  0.991878  0.370849  0.245950  1
  Pb  Pb17  1  0.229260  0.499315  0.765695  1
  Pb  Pb18  1  0.770792  0.000641  0.266538  1
  Pb  Pb19  1  0.740679  0.874754  0.745628  1
  Pb  Pb20  1  0.671362  0.667002  0.506178  1
  Pb  Pb21  1  0.337629  0.333451  0.001028  1
  Pb  Pb22  1  0.672855  0.668083  0.994281  1
  Pb  Pb23  1  0.338569  0.334415  0.499378  1
  Pb  Pb24  1  0.228179  0.114525  0.266551  1
  Pb  Pb25  1  0.251525  0.997429  0.744197  1
  Pb  Pb26  1  0.748565  0.502598  0.246775  1
  Pb  Pb27  1  0.997526  0.613282  0.766911  1
  Pb  Pb28  1  0.771867  0.385419  0.766374  1
  Pb  Pb29  1  0.662524  0.166363  0.500727  1
  Pb  Pb30  1  0.661319  0.165424  0.999050  1
  Pb  Pb31  1  0.008197  0.129227  0.745687  1
  O  O32  1  0.084152  0.872098  0.913938  1
  O  O33  1  0.084462  0.869723  0.580538  1
  O  O34  1  0.119679  0.769775  0.753017  1
  O  O35  1  0.147361  0.740040  0.249156  1
  O  O36  1  0.340202  0.926209  0.253774  1
  O  O37  1  0.417736  0.945714  0.749646  1
  O  O38  1  0.001101  0.500312  0.829193  1
  O  O39  1  0.270262  0.674551  0.582816  1
  O  O40  1  0.273508  0.679005  0.920783  1
  O  O41  1  0.474805  0.793860  0.745856  1
  O  O42  1  0.510283  0.830374  0.253265  1
  O  O43  1  0.650116  0.957447  0.580756  1
  O  O44  1  0.651942  0.956650  0.913104  1
  O  O45  1  0.084349  0.363950  0.919895  1
  O  O46  1  0.078793  0.365455  0.582721  1
  O  O47  1  0.349905  0.542526  0.080749  1
  O  O48  1  0.348098  0.543366  0.413316  1
  O  O49  1  0.489812  0.669737  0.753369  1
  O  O50  1  0.525184  0.706157  0.245440  1
  O  O51  1  0.112068  0.262666  0.745405  1
  O  O52  1  0.150674  0.243917  0.253609  1
  O  O53  1  0.729986  0.825643  0.083049  1
  O  O54  1  0.726387  0.820939  0.420794  1
  O  O55  1  0.330197  0.424719  0.249356  1
  O  O56  1  0.414919  0.438591  0.748375  1
  O  O57  1  0.998875  -0.000230  0.332325  1
  O  O58  1  0.582115  0.554175  0.249570  1
  O  O59  1  0.659535  0.573706  0.753595  1
  O  O60  1  0.259992  0.171838  0.580708  1
  O  O61  1  0.255151  0.169483  0.913615  1
  O  O62  1  0.852591  0.760016  0.749006  1
  O  O63  1  0.880363  0.730279  0.253059  1
  O  O64  1  0.460357  0.289374  0.752419  1
  O  O65  1  0.521381  0.334813  0.249577  1
  O  O66  1  0.656994  0.461201  0.583431  1
  O  O67  1  0.649576  0.458794  0.921777  1
  O  O68  1  0.915976  0.627967  0.414262  1
  O  O69  1  0.915693  0.630342  0.080840  1
  O  O70  1  0.342791  0.038897  0.084121  1
  O  O71  1  0.350784  0.041306  0.422215  1
  O  O72  1  0.478750  0.165104  0.749409  1
  O  O73  1  0.539625  0.210590  0.252280  1
  O  O74  1  0.740202  0.328151  0.080912  1
  O  O75  1  0.744937  0.330443  0.413841  1
  O  O76  1  0.585040  0.061303  0.248162  1
  O  O77  1  0.669717  0.075314  0.749171  1
  O  O78  1  0.849430  0.255972  0.753296  1
  O  O79  1  0.888120  0.237374  0.244973  1
  O  O80  1  0.915151  0.136072  0.419924  1
  O  O81  1  0.921325  0.134489  0.082797  1
