# generated using pymatgen
data_K2Mn2(MoO4)3
_symmetry_space_group_name_H-M   'P 1'
_cell_length_a   10.89456081
_cell_length_b   12.48128801
_cell_length_c   18.35197970
_cell_angle_alpha   90.00000000
_cell_angle_beta   90.00000000
_cell_angle_gamma   90.00000000
_symmetry_Int_Tables_number   1
_chemical_formula_structural   K2Mn2(MoO4)3
_chemical_formula_sum   'K16 Mn16 Mo24 O96'
_cell_volume   2495.46827069
_cell_formula_units_Z   8
loop_
 _symmetry_equiv_pos_site_id
 _symmetry_equiv_pos_as_xyz
  1  'x, y, z'
loop_
 _atom_site_type_symbol
 _atom_site_label
 _atom_site_symmetry_multiplicity
 _atom_site_fract_x
 _atom_site_fract_y
 _atom_site_fract_z
 _atom_site_occupancy
  K  K0  1  0.250000  0.500000  0.943955  1
  K  K1  1  0.000000  0.496580  0.750000  1
  K  K2  1  0.274564  0.151201  0.462060  1
  K  K3  1  0.274564  0.848799  0.962060  1
  K  K4  1  0.774564  0.151201  0.537940  1
  K  K5  1  0.225436  0.151201  0.962060  1
  K  K6  1  0.750000  0.500000  0.556045  1
  K  K7  1  0.250000  0.500000  0.443955  1
  K  K8  1  0.000000  0.503420  0.250000  1
  K  K9  1  0.500000  0.496580  0.250000  1
  K  K10  1  0.725436  0.151201  0.037940  1
  K  K11  1  0.500000  0.503420  0.750000  1
  K  K12  1  0.225436  0.848799  0.462060  1
  K  K13  1  0.750000  0.500000  0.056045  1
  K  K14  1  0.725436  0.848799  0.537940  1
  K  K15  1  0.774564  0.848799  0.037940  1
  Mn  Mn16  1  0.000000  0.833096  0.250000  1
  Mn  Mn17  1  0.500000  0.833096  0.750000  1
  Mn  Mn18  1  0.750000  0.000000  0.714249  1
  Mn  Mn19  1  0.084481  0.324312  0.097040  1
  Mn  Mn20  1  0.000000  0.166904  0.750000  1
  Mn  Mn21  1  0.250000  0.000000  0.785751  1
  Mn  Mn22  1  0.415519  0.675688  0.097040  1
  Mn  Mn23  1  0.500000  0.166904  0.250000  1
  Mn  Mn24  1  0.084481  0.675688  0.597040  1
  Mn  Mn25  1  0.584481  0.675688  0.402960  1
  Mn  Mn26  1  0.584481  0.324312  0.902960  1
  Mn  Mn27  1  0.750000  0.000000  0.214249  1
  Mn  Mn28  1  0.250000  0.000000  0.285751  1
  Mn  Mn29  1  0.415519  0.324312  0.597040  1
  Mn  Mn30  1  0.915519  0.324312  0.402960  1
  Mn  Mn31  1  0.915519  0.675688  0.902960  1
  Mo  Mo32  1  0.219783  0.699567  0.795227  1
  Mo  Mo33  1  0.424053  0.356515  0.087113  1
  Mo  Mo34  1  0.780217  0.699567  0.704773  1
  Mo  Mo35  1  0.547096  0.022796  0.884086  1
  Mo  Mo36  1  0.280217  0.300433  0.795227  1
  Mo  Mo37  1  0.547096  0.977204  0.384086  1
  Mo  Mo38  1  0.075947  0.356515  0.587113  1
  Mo  Mo39  1  0.924053  0.356515  0.912887  1
  Mo  Mo40  1  0.075947  0.643485  0.087113  1
  Mo  Mo41  1  0.424053  0.643485  0.587113  1
  Mo  Mo42  1  0.952904  0.022796  0.384086  1
  Mo  Mo43  1  0.047096  0.022796  0.115914  1
  Mo  Mo44  1  0.575947  0.356515  0.412887  1
  Mo  Mo45  1  0.047096  0.977204  0.615914  1
  Mo  Mo46  1  0.575947  0.643485  0.912887  1
  Mo  Mo47  1  0.219783  0.300433  0.295227  1
  Mo  Mo48  1  0.719783  0.699567  0.204773  1
  Mo  Mo49  1  0.280217  0.699567  0.295227  1
  Mo  Mo50  1  0.924053  0.643485  0.412887  1
  Mo  Mo51  1  0.952904  0.977204  0.884086  1
  Mo  Mo52  1  0.452904  0.977204  0.115914  1
  Mo  Mo53  1  0.452904  0.022796  0.615914  1
  Mo  Mo54  1  0.719783  0.300433  0.704773  1
  Mo  Mo55  1  0.780217  0.300433  0.204773  1
  O  O56  1  0.059250  0.501244  0.101525  1
  O  O57  1  0.772709  0.662744  0.450237  1
  O  O58  1  0.803391  0.172554  0.702319  1
  O  O59  1  0.392250  0.025630  0.203071  1
  O  O60  1  0.036255  0.682945  0.479420  1
  O  O61  1  0.392729  0.847306  0.094642  1
  O  O62  1  0.618023  0.975003  0.126154  1
  O  O63  1  0.938771  0.716355  0.328377  1
  O  O64  1  0.463745  0.317055  0.479420  1
  O  O65  1  0.675881  0.402416  0.180455  1
  O  O66  1  0.606710  0.301484  0.633161  1
  O  O67  1  0.803391  0.827446  0.202319  1
  O  O68  1  0.892729  0.152694  0.405358  1
  O  O69  1  0.824119  0.402416  0.680455  1
  O  O70  1  0.648770  0.669143  0.290730  1
  O  O71  1  0.559250  0.498756  0.398475  1
  O  O72  1  0.088865  0.068784  0.546820  1
  O  O73  1  0.536255  0.317055  0.020580  1
  O  O74  1  0.963745  0.317055  0.520580  1
  O  O75  1  0.561229  0.716355  0.828377  1
  O  O76  1  0.411135  0.931216  0.546820  1
  O  O77  1  0.324119  0.597584  0.819545  1
  O  O78  1  0.393290  0.301484  0.866839  1
  O  O79  1  0.588865  0.068784  0.453180  1
  O  O80  1  0.963745  0.682945  0.020580  1
  O  O81  1  0.036255  0.317055  0.979420  1
  O  O82  1  0.851230  0.669143  0.790730  1
  O  O83  1  0.911135  0.068784  0.953180  1
  O  O84  1  0.607271  0.152694  0.905358  1
  O  O85  1  0.175881  0.597584  0.319545  1
  O  O86  1  0.227291  0.337256  0.549763  1
  O  O87  1  0.648770  0.330857  0.790730  1
  O  O88  1  0.324119  0.402416  0.319545  1
  O  O89  1  0.881977  0.024997  0.126154  1
  O  O90  1  0.196609  0.827446  0.297681  1
  O  O91  1  0.381977  0.975003  0.373846  1
  O  O92  1  0.175881  0.402416  0.819545  1
  O  O93  1  0.196609  0.172554  0.797681  1
  O  O94  1  0.061229  0.716355  0.171623  1
  O  O95  1  0.893290  0.301484  0.133161  1
  O  O96  1  0.107750  0.974370  0.203071  1
  O  O97  1  0.727291  0.337256  0.450237  1
  O  O98  1  0.536255  0.682945  0.520580  1
  O  O99  1  0.106710  0.301484  0.366839  1
  O  O100  1  0.881977  0.975003  0.626154  1
  O  O101  1  0.893290  0.698516  0.633161  1
  O  O102  1  0.061229  0.283645  0.671623  1
  O  O103  1  0.351230  0.330857  0.709270  1
  O  O104  1  0.107271  0.152694  0.094642  1
  O  O105  1  0.911135  0.931216  0.453180  1
  O  O106  1  0.940750  0.501244  0.398475  1
  O  O107  1  0.607271  0.847306  0.405358  1
  O  O108  1  0.588865  0.931216  0.953180  1
  O  O109  1  0.148770  0.330857  0.209270  1
  O  O110  1  0.727291  0.662744  0.950237  1
  O  O111  1  0.393290  0.698516  0.366839  1
  O  O112  1  0.411135  0.068784  0.046820  1
  O  O113  1  0.772709  0.337256  0.950237  1
  O  O114  1  0.938771  0.283645  0.828377  1
  O  O115  1  0.303391  0.827446  0.797681  1
  O  O116  1  0.107271  0.847306  0.594642  1
  O  O117  1  0.892250  0.025630  0.796929  1
  O  O118  1  0.303391  0.172554  0.297681  1
  O  O119  1  0.118023  0.024997  0.373846  1
  O  O120  1  0.148770  0.669143  0.709270  1
  O  O121  1  0.438771  0.283645  0.171623  1
  O  O122  1  0.463745  0.682945  0.979420  1
  O  O123  1  0.272709  0.337256  0.049763  1
  O  O124  1  0.607750  0.974370  0.796929  1
  O  O125  1  0.088865  0.931216  0.046820  1
  O  O126  1  0.392250  0.974370  0.703071  1
  O  O127  1  0.440750  0.498756  0.101525  1
  O  O128  1  0.440750  0.501244  0.601525  1
  O  O129  1  0.559250  0.501244  0.898475  1
  O  O130  1  0.606710  0.698516  0.133161  1
  O  O131  1  0.392729  0.152694  0.594642  1
  O  O132  1  0.607750  0.025630  0.296929  1
  O  O133  1  0.696609  0.827446  0.702319  1
  O  O134  1  0.940750  0.498756  0.898475  1
  O  O135  1  0.118023  0.975003  0.873846  1
  O  O136  1  0.106710  0.698516  0.866839  1
  O  O137  1  0.272709  0.662744  0.549763  1
  O  O138  1  0.851230  0.330857  0.290730  1
  O  O139  1  0.696609  0.172554  0.202319  1
  O  O140  1  0.059250  0.498756  0.601525  1
  O  O141  1  0.824119  0.597584  0.180455  1
  O  O142  1  0.107750  0.025630  0.703071  1
  O  O143  1  0.381977  0.024997  0.873846  1
  O  O144  1  0.892729  0.847306  0.905358  1
  O  O145  1  0.227291  0.662744  0.049763  1
  O  O146  1  0.351230  0.669143  0.209270  1
  O  O147  1  0.675881  0.597584  0.680455  1
  O  O148  1  0.438771  0.716355  0.671623  1
  O  O149  1  0.561229  0.283645  0.328377  1
  O  O150  1  0.618023  0.024997  0.626154  1
  O  O151  1  0.892250  0.974370  0.296929  1
