# generated using pymatgen
data_Ba19(InN)9
_symmetry_space_group_name_H-M   'P 1'
_cell_length_a   8.05968745
_cell_length_b   10.27859736
_cell_length_c   29.50974230
_cell_angle_alpha   96.88683606
_cell_angle_beta   97.91212260
_cell_angle_gamma   90.04129712
_symmetry_Int_Tables_number   1
_chemical_formula_structural   Ba19(InN)9
_chemical_formula_sum   'Ba38 In18 N18'
_cell_volume   2403.54278422
_cell_formula_units_Z   2
loop_
 _symmetry_equiv_pos_site_id
 _symmetry_equiv_pos_as_xyz
  1  'x, y, z'
loop_
 _atom_site_type_symbol
 _atom_site_label
 _atom_site_symmetry_multiplicity
 _atom_site_fract_x
 _atom_site_fract_y
 _atom_site_fract_z
 _atom_site_occupancy
  Ba  Ba0  1  0.059743  0.872520  0.117013  1
  Ba  Ba1  1  0.162513  0.810627  0.872531  1
  Ba  Ba2  1  0.248681  0.003889  0.495334  1
  Ba  Ba3  1  0.211317  0.639071  0.425343  1
  Ba  Ba4  1  0.144614  0.693517  0.282442  1
  Ba  Ba5  1  0.572227  0.053479  0.619030  1
  Ba  Ba6  1  0.939994  0.128450  0.882653  1
  Ba  Ba7  1  0.104229  0.040411  0.765505  1
  Ba  Ba8  1  0.787696  0.360983  0.574861  1
  Ba  Ba9  1  0.429251  0.946174  0.381098  1
  Ba  Ba10  1  0.523308  0.678116  0.536310  1
  Ba  Ba11  1  0.838198  0.189749  0.127764  1
  Ba  Ba12  1  0.895989  0.959377  0.234574  1
  Ba  Ba13  1  0.171288  0.203457  0.343148  1
  Ba  Ba14  1  0.048086  0.055907  0.619383  1
  Ba  Ba15  1  0.290816  0.190837  0.127718  1
  Ba  Ba16  1  0.228551  0.000887  0.999960  1
  Ba  Ba17  1  0.843087  0.581644  0.162853  1
  Ba  Ba18  1  0.953057  0.944949  0.380678  1
  Ba  Ba19  1  0.710179  0.809671  0.872245  1
  Ba  Ba20  1  0.771063  0.000223  0.999949  1
  Ba  Ba21  1  0.159953  0.419166  0.837328  1
  Ba  Ba22  1  0.114656  0.328015  0.229404  1
  Ba  Ba23  1  0.341746  0.962428  0.235080  1
  Ba  Ba24  1  0.679486  0.418761  0.837379  1
  Ba  Ba25  1  0.976067  0.626920  0.951981  1
  Ba  Ba26  1  0.288366  0.349603  0.573618  1
  Ba  Ba27  1  0.988466  0.321056  0.464202  1
  Ba  Ba28  1  0.476201  0.323212  0.464061  1
  Ba  Ba29  1  0.713071  0.650265  0.426895  1
  Ba  Ba30  1  0.831496  0.797061  0.657102  1
  Ba  Ba31  1  0.322638  0.582375  0.162603  1
  Ba  Ba32  1  0.012404  0.676473  0.536270  1
  Ba  Ba33  1  0.886723  0.672566  0.770781  1
  Ba  Ba34  1  0.753696  0.995826  0.504757  1
  Ba  Ba35  1  0.023895  0.373805  0.048257  1
  Ba  Ba36  1  0.657569  0.037896  0.764843  1
  Ba  Ba37  1  0.857514  0.306655  0.717727  1
  In  In38  1  0.364502  0.348823  0.722735  1
  In  In39  1  0.287466  0.333525  0.955463  1
  In  In40  1  0.333985  0.779855  0.667884  1
  In  In41  1  0.668768  0.220130  0.332562  1
  In  In42  1  0.331729  0.667999  0.044526  1
  In  In43  1  0.667541  0.334629  0.955700  1
  In  In44  1  0.867062  0.464319  0.325761  1
  In  In45  1  0.712732  0.665917  0.045001  1
  In  In46  1  0.460164  0.462745  0.325896  1
  In  In47  1  0.542904  0.538244  0.674538  1
  In  In48  1  0.383451  0.660698  0.764322  1
  In  In49  1  0.617878  0.338774  0.236026  1
  In  In50  1  0.522339  0.403687  0.048071  1
  In  In51  1  0.134841  0.535745  0.674528  1
  In  In52  1  0.638658  0.650403  0.276798  1
  In  In53  1  0.555538  0.869595  0.109421  1
  In  In54  1  0.444865  0.133311  0.889813  1
  In  In55  1  0.475607  0.598139  0.952451  1
  N  N56  1  0.906270  0.910429  0.813851  1
  N  N57  1  0.019847  0.191105  0.546145  1
  N  N58  1  0.099010  0.746077  0.195731  1
  N  N59  1  0.928899  0.602372  0.855643  1
  N  N60  1  0.472144  0.809020  0.454084  1
  N  N61  1  0.980643  0.810073  0.453900  1
  N  N62  1  0.245078  0.486518  0.493698  1
  N  N63  1  0.970261  0.891697  0.941274  1
  N  N64  1  0.528004  0.190841  0.545403  1
  N  N65  1  0.844888  0.056798  0.692754  1
  N  N66  1  0.093275  0.090110  0.186178  1
  N  N67  1  0.752010  0.514683  0.506996  1
  N  N68  1  0.156034  0.943439  0.307535  1
  N  N69  1  0.073577  0.398583  0.144597  1
  N  N70  1  0.903288  0.255185  0.804454  1
  N  N71  1  0.029618  0.108122  0.058932  1
  N  N72  1  0.790356  0.883654  0.580628  1
  N  N73  1  0.210025  0.118017  0.419751  1
