# generated using pymatgen
data_H4Pb(CO3)2
_symmetry_space_group_name_H-M   'P 1'
_cell_length_a   7.84958522
_cell_length_b   8.17656727
_cell_length_c   9.33779732
_cell_angle_alpha   89.99965322
_cell_angle_beta   90.00014391
_cell_angle_gamma   90.00015849
_symmetry_Int_Tables_number   1
_chemical_formula_structural   H4Pb(CO3)2
_chemical_formula_sum   'H16 Pb4 C8 O24'
_cell_volume   599.32468541
_cell_formula_units_Z   4
loop_
 _symmetry_equiv_pos_site_id
 _symmetry_equiv_pos_as_xyz
  1  'x, y, z'
loop_
 _atom_site_type_symbol
 _atom_site_label
 _atom_site_symmetry_multiplicity
 _atom_site_fract_x
 _atom_site_fract_y
 _atom_site_fract_z
 _atom_site_occupancy
  H  H0  1  0.848956  0.051736  0.178767  1
  H  H1  1  0.651146  0.312656  0.413559  1
  H  H2  1  0.651044  0.051736  0.178767  1
  H  H3  1  0.848956  0.448264  0.678767  1
  H  H4  1  0.348855  0.687344  0.586440  1
  H  H5  1  0.348957  0.551736  0.321232  1
  H  H6  1  0.151044  0.551736  0.321232  1
  H  H7  1  0.348956  0.948264  0.821233  1
  H  H8  1  0.151145  0.812654  0.086437  1
  H  H9  1  0.651044  0.448264  0.678767  1
  H  H10  1  0.651146  0.187345  0.913562  1
  H  H11  1  0.848855  0.187346  0.913562  1
  H  H12  1  0.151043  0.948264  0.821232  1
  H  H13  1  0.848855  0.312656  0.413559  1
  H  H14  1  0.348854  0.812655  0.086437  1
  H  H15  1  0.151145  0.687344  0.586440  1
  Pb  Pb16  1  0.750000  0.477865  0.104901  1
  Pb  Pb17  1  0.250000  0.522137  0.895099  1
  Pb  Pb18  1  0.249999  0.977856  0.395103  1
  Pb  Pb19  1  0.750000  0.022143  0.604900  1
  C  C20  1  0.150857  0.260199  0.643095  1
  C  C21  1  0.349142  0.239798  0.143099  1
  C  C22  1  0.150859  0.239797  0.143097  1
  C  C23  1  0.650876  0.760201  0.856901  1
  C  C24  1  0.849132  0.739801  0.356905  1
  C  C25  1  0.849122  0.760203  0.856904  1
  C  C26  1  0.650868  0.739800  0.356905  1
  C  C27  1  0.349142  0.260200  0.643094  1
  O  O28  1  0.075654  0.159175  0.561538  1
  O  O29  1  0.250000  0.767760  0.136611  1
  O  O30  1  0.750000  0.267762  0.363386  1
  O  O31  1  0.075895  0.362864  0.723059  1
  O  O32  1  0.250000  0.732238  0.636614  1
  O  O33  1  0.575894  0.637134  0.276941  1
  O  O34  1  0.250000  0.500674  0.367681  1
  O  O35  1  0.750000  0.499326  0.632319  1
  O  O36  1  0.075654  0.340820  0.061543  1
  O  O37  1  0.250000  0.999327  0.867679  1
  O  O38  1  0.075894  0.137133  0.223063  1
  O  O39  1  0.575654  0.840823  0.438463  1
  O  O40  1  0.924108  0.862870  0.776937  1
  O  O41  1  0.575891  0.862872  0.776938  1
  O  O42  1  0.424346  0.340818  0.061542  1
  O  O43  1  0.750000  0.232240  0.863388  1
  O  O44  1  0.924108  0.637133  0.276939  1
  O  O45  1  0.575650  0.659179  0.938463  1
  O  O46  1  0.924349  0.659178  0.938461  1
  O  O47  1  0.750000  0.000673  0.132320  1
  O  O48  1  0.424104  0.362865  0.723058  1
  O  O49  1  0.424107  0.137132  0.223061  1
  O  O50  1  0.924349  0.840824  0.438464  1
  O  O51  1  0.424345  0.159177  0.561537  1
