# generated using pymatgen
data_U3Ga5
_symmetry_space_group_name_H-M   'P 1'
_cell_length_a   5.99985062
_cell_length_b   5.99985079
_cell_length_c   9.37241803
_cell_angle_alpha   90.00000000
_cell_angle_beta   90.00000000
_cell_angle_gamma   101.11595658
_symmetry_Int_Tables_number   1
_chemical_formula_structural   U3Ga5
_chemical_formula_sum   'U6 Ga10'
_cell_volume   331.06048278
_cell_formula_units_Z   2
loop_
 _symmetry_equiv_pos_site_id
 _symmetry_equiv_pos_as_xyz
  1  'x, y, z'
loop_
 _atom_site_type_symbol
 _atom_site_label
 _atom_site_symmetry_multiplicity
 _atom_site_fract_x
 _atom_site_fract_y
 _atom_site_fract_z
 _atom_site_occupancy
  U  U0  1  0.369861  0.369861  0.750000  1
  U  U1  1  0.210521  0.789479  0.000000  1
  U  U2  1  0.630139  0.630139  0.250000  1
  U  U3  1  0.789479  0.210521  0.500000  1
  U  U4  1  0.210521  0.789479  0.500000  1
  U  U5  1  0.789479  0.210521  0.000000  1
  Ga  Ga6  1  0.983007  0.983007  0.750000  1
  Ga  Ga7  1  0.701290  0.701290  0.944179  1
  Ga  Ga8  1  0.927873  0.512094  0.750000  1
  Ga  Ga9  1  0.298710  0.298710  0.444179  1
  Ga  Ga10  1  0.487906  0.072127  0.250000  1
  Ga  Ga11  1  0.016993  0.016993  0.250000  1
  Ga  Ga12  1  0.298710  0.298710  0.055821  1
  Ga  Ga13  1  0.072127  0.487906  0.250000  1
  Ga  Ga14  1  0.701290  0.701290  0.555821  1
  Ga  Ga15  1  0.512094  0.927873  0.750000  1
