# generated using pymatgen
data_ZnS
_symmetry_space_group_name_H-M   'P 1'
_cell_length_a   3.85513237
_cell_length_b   3.85513227
_cell_length_c   201.48987551
_cell_angle_alpha   90.00000000
_cell_angle_beta   90.00000000
_cell_angle_gamma   120.00000094
_symmetry_Int_Tables_number   1
_chemical_formula_structural   ZnS
_chemical_formula_sum   'Zn64 S64'
_cell_volume   2593.35776766
_cell_formula_units_Z   64
loop_
 _symmetry_equiv_pos_site_id
 _symmetry_equiv_pos_as_xyz
  1  'x, y, z'
loop_
 _atom_site_type_symbol
 _atom_site_label
 _atom_site_symmetry_multiplicity
 _atom_site_fract_x
 _atom_site_fract_y
 _atom_site_fract_z
 _atom_site_occupancy
  Zn  Zn0  1  0.333333  0.666667  0.921876  1
  Zn  Zn1  1  0.000000  0.000000  0.421877  1
  Zn  Zn2  1  0.333333  0.666667  0.875000  1
  Zn  Zn3  1  0.333333  0.666667  0.749999  1
  Zn  Zn4  1  0.666667  0.333333  0.593749  1
  Zn  Zn5  1  0.000000  0.000000  0.187500  1
  Zn  Zn6  1  0.666667  0.333333  0.500000  1
  Zn  Zn7  1  0.333333  0.666667  0.015628  1
  Zn  Zn8  1  0.000000  0.000000  0.468749  1
  Zn  Zn9  1  0.666667  0.333333  0.843749  1
  Zn  Zn10  1  0.333333  0.666667  0.953129  1
  Zn  Zn11  1  0.333333  0.666667  0.671877  1
  Zn  Zn12  1  0.333333  0.666667  0.781252  1
  Zn  Zn13  1  0.333333  0.666667  0.531250  1
  Zn  Zn14  1  0.666667  0.333333  0.171877  1
  Zn  Zn15  1  0.666667  0.333333  0.890627  1
  Zn  Zn16  1  0.666667  0.333333  0.218749  1
  Zn  Zn17  1  0.000000  0.000000  0.281251  1
  Zn  Zn18  1  0.000000  0.000000  0.234377  1
  Zn  Zn19  1  0.333333  0.666667  0.156251  1
  Zn  Zn20  1  0.000000  0.000000  0.515627  1
  Zn  Zn21  1  0.000000  0.000000  0.609376  1
  Zn  Zn22  1  0.333333  0.666667  0.296878  1
  Zn  Zn23  1  0.333333  0.666667  0.484376  1
  Zn  Zn24  1  0.666667  0.333333  0.125000  1
  Zn  Zn25  1  0.333333  0.666667  0.828127  1
  Zn  Zn26  1  0.333333  0.666667  0.109377  1
  Zn  Zn27  1  0.666667  0.333333  0.031250  1
  Zn  Zn28  1  0.666667  0.333333  0.687499  1
  Zn  Zn29  1  0.000000  0.000000  0.093749  1
  Zn  Zn30  1  0.000000  0.000000  0.812500  1
  Zn  Zn31  1  0.666667  0.333333  0.453127  1
  Zn  Zn32  1  0.333333  0.666667  0.625000  1
  Zn  Zn33  1  0.333333  0.666667  0.703128  1
  Zn  Zn34  1  0.000000  0.000000  0.375000  1
  Zn  Zn35  1  0.666667  0.333333  0.984375  1
  Zn  Zn36  1  0.000000  0.000000  0.968748  1
  Zn  Zn37  1  0.000000  0.000000  0.046878  1
  Zn  Zn38  1  0.333333  0.666667  0.203127  1
  Zn  Zn39  1  0.000000  0.000000  0.859376  1
  Zn  Zn40  1  0.666667  0.333333  0.265628  1
  Zn  Zn41  1  0.666667  0.333333  0.078127  1
  Zn  Zn42  1  0.333333  0.666667  0.343749  1
  Zn  Zn43  1  0.666667  0.333333  0.359377  1
  Zn  Zn44  1  0.666667  0.333333  0.546878  1
  Zn  Zn45  1  0.666667  0.333333  0.734376  1
  Zn  Zn46  1  0.000000  0.000000  0.000002  1
  Zn  Zn47  1  0.333333  0.666667  0.437500  1
  Zn  Zn48  1  0.333333  0.666667  0.390627  1
  Zn  Zn49  1  0.000000  0.000000  0.140627  1
  Zn  Zn50  1  0.666667  0.333333  0.937499  1
  Zn  Zn51  1  0.666667  0.333333  0.312500  1
  Zn  Zn52  1  0.000000  0.000000  0.562500  1
  Zn  Zn53  1  0.000000  0.000000  0.906251  1
  Zn  Zn54  1  0.000000  0.000000  0.718749  1
  Zn  Zn55  1  0.666667  0.333333  0.640627  1
  Zn  Zn56  1  0.666667  0.333333  0.406251  1
  Zn  Zn57  1  0.333333  0.666667  0.062500  1
  Zn  Zn58  1  0.666667  0.333333  0.796878  1
  Zn  Zn59  1  0.000000  0.000000  0.656251  1
  Zn  Zn60  1  0.000000  0.000000  0.328127  1
  Zn  Zn61  1  0.333333  0.666667  0.250000  1
  Zn  Zn62  1  0.000000  0.000000  0.765626  1
  Zn  Zn63  1  0.333333  0.666667  0.578127  1
  S  S64  1  0.666667  0.333333  0.511720  1
  S  S65  1  0.666667  0.333333  0.605469  1
  S  S66  1  0.333333  0.666667  0.496094  1
  S  S67  1  0.333333  0.666667  0.839844  1
  S  S68  1  0.000000  0.000000  0.246093  1
  S  S69  1  0.333333  0.666667  0.121093  1
  S  S70  1  0.000000  0.000000  0.339843  1
  S  S71  1  0.000000  0.000000  0.386720  1
  S  S72  1  0.000000  0.000000  0.730470  1
  S  S73  1  0.666667  0.333333  0.230470  1
  S  S74  1  0.333333  0.666667  0.214843  1
  S  S75  1  0.333333  0.666667  0.761713  1
  S  S76  1  0.666667  0.333333  0.902343  1
  S  S77  1  0.666667  0.333333  0.808594  1
  S  S78  1  0.000000  0.000000  0.667970  1
  S  S79  1  0.000000  0.000000  0.058593  1
  S  S80  1  0.333333  0.666667  0.074220  1
  S  S81  1  0.000000  0.000000  0.152344  1
  S  S82  1  0.333333  0.666667  0.683587  1
  S  S83  1  0.000000  0.000000  0.480470  1
  S  S84  1  0.333333  0.666667  0.261720  1
  S  S85  1  0.333333  0.666667  0.792969  1
  S  S86  1  0.333333  0.666667  0.167970  1
  S  S87  1  0.666667  0.333333  0.699226  1
  S  S88  1  0.333333  0.666667  0.402343  1
  S  S89  1  0.000000  0.000000  0.433593  1
  S  S90  1  0.000000  0.000000  0.917970  1
  S  S91  1  0.333333  0.666667  0.308594  1
  S  S92  1  0.333333  0.666667  0.027344  1
  S  S93  1  0.333333  0.666667  0.589844  1
  S  S94  1  0.000000  0.000000  0.980463  1
  S  S95  1  0.333333  0.666667  0.933587  1
  S  S96  1  0.666667  0.333333  0.949226  1
  S  S97  1  0.000000  0.000000  0.011719  1
  S  S98  1  0.666667  0.333333  0.277344  1
  S  S99  1  0.000000  0.000000  0.824221  1
  S  S100  1  0.000000  0.000000  0.621093  1
  S  S101  1  0.666667  0.333333  0.464843  1
  S  S102  1  0.333333  0.666667  0.964841  1
  S  S103  1  0.666667  0.333333  0.558594  1
  S  S104  1  0.666667  0.333333  0.371094  1
  S  S105  1  0.666667  0.333333  0.746094  1
  S  S106  1  0.000000  0.000000  0.292970  1
  S  S107  1  0.666667  0.333333  0.652343  1
  S  S108  1  0.666667  0.333333  0.042970  1
  S  S109  1  0.333333  0.666667  0.886720  1
  S  S110  1  0.000000  0.000000  0.871094  1
  S  S111  1  0.333333  0.666667  0.636720  1
  S  S112  1  0.666667  0.333333  0.855469  1
  S  S113  1  0.000000  0.000000  0.527343  1
  S  S114  1  0.333333  0.666667  0.355469  1
  S  S115  1  0.000000  0.000000  0.777350  1
  S  S116  1  0.666667  0.333333  0.324220  1
  S  S117  1  0.333333  0.666667  0.449220  1
  S  S118  1  0.000000  0.000000  0.105470  1
  S  S119  1  0.333333  0.666667  0.714842  1
  S  S120  1  0.666667  0.333333  0.417970  1
  S  S121  1  0.666667  0.333333  0.089844  1
  S  S122  1  0.666667  0.333333  0.996101  1
  S  S123  1  0.000000  0.000000  0.199221  1
  S  S124  1  0.000000  0.000000  0.574220  1
  S  S125  1  0.666667  0.333333  0.183594  1
  S  S126  1  0.333333  0.666667  0.542970  1
  S  S127  1  0.666667  0.333333  0.136720  1
