# generated using pymatgen
data_Eu3(GaNi)4
_symmetry_space_group_name_H-M   'P 1'
_cell_length_a   6.45680922
_cell_length_b   6.45615628
_cell_length_c   6.45447849
_cell_angle_alpha   109.14458551
_cell_angle_beta   109.66107940
_cell_angle_gamma   109.61209856
_symmetry_Int_Tables_number   1
_chemical_formula_structural   Eu3(GaNi)4
_chemical_formula_sum   'Eu3 Ga4 Ni4'
_cell_volume   207.11007021
_cell_formula_units_Z   1
loop_
 _symmetry_equiv_pos_site_id
 _symmetry_equiv_pos_as_xyz
  1  'x, y, z'
loop_
 _atom_site_type_symbol
 _atom_site_label
 _atom_site_symmetry_multiplicity
 _atom_site_fract_x
 _atom_site_fract_y
 _atom_site_fract_z
 _atom_site_occupancy
  Eu  Eu0  1  0.000011  0.500015  0.499996  1
  Eu  Eu1  1  0.500002  0.000001  0.499983  1
  Eu  Eu2  1  0.499972  0.499969  0.999978  1
  Ga  Ga3  1  0.604445  0.604465  0.604442  1
  Ga  Ga4  1  0.000022  0.999958  0.395548  1
  Ga  Ga5  1  0.000068  0.395557  0.999939  1
  Ga  Ga6  1  0.395594  0.000083  0.000015  1
  Ni  Ni7  1  0.240589  0.239914  0.240076  1
  Ni  Ni8  1  0.999864  0.000603  0.759991  1
  Ni  Ni9  1  0.759341  0.999355  0.999281  1
  Ni  Ni10  1  0.000091  0.760079  0.000750  1
