# generated using pymatgen
data_Te3Au2
_symmetry_space_group_name_H-M   'P 1'
_cell_length_a   10.76804406
_cell_length_b   12.21042361
_cell_length_c   13.57579420
_cell_angle_alpha   108.89354252
_cell_angle_beta   104.24139211
_cell_angle_gamma   97.13597405
_symmetry_Int_Tables_number   1
_chemical_formula_structural   Te3Au2
_chemical_formula_sum   'Te36 Au24'
_cell_volume   1595.93743005
_cell_formula_units_Z   12
loop_
 _symmetry_equiv_pos_site_id
 _symmetry_equiv_pos_as_xyz
  1  'x, y, z'
loop_
 _atom_site_type_symbol
 _atom_site_label
 _atom_site_symmetry_multiplicity
 _atom_site_fract_x
 _atom_site_fract_y
 _atom_site_fract_z
 _atom_site_occupancy
  Te  Te0  1  0.994038  0.415398  0.081493  1
  Te  Te1  1  0.085616  0.084904  0.577777  1
  Te  Te2  1  0.115131  0.223763  0.405758  1
  Te  Te3  1  0.740988  0.331626  0.768299  1
  Te  Te4  1  0.568395  0.065837  0.794971  1
  Te  Te5  1  0.467969  0.401382  0.285090  1
  Te  Te6  1  0.040625  0.761997  0.322470  1
  Te  Te7  1  0.313598  0.972414  0.477849  1
  Te  Te8  1  0.126598  0.570152  0.664291  1
  Te  Te9  1  0.808932  0.821835  0.856556  1
  Te  Te10  1  0.957524  0.098352  0.809800  1
  Te  Te11  1  0.002212  0.581931  0.927706  1
  Te  Te12  1  0.421298  0.940395  0.216028  1
  Te  Te13  1  0.864019  0.484023  0.345926  1
  Te  Te14  1  0.160095  0.409049  0.834422  1
  Te  Te15  1  0.533329  0.728164  0.540219  1
  Te  Te16  1  0.911165  0.776443  0.590340  1
  Te  Te17  1  0.845413  0.139334  0.094794  1
  Te  Te18  1  0.692461  0.013219  0.519385  1
  Te  Te19  1  0.296480  0.853114  0.633314  1
  Te  Te20  1  0.670956  0.718766  0.294573  1
  Te  Te21  1  0.246351  0.511974  0.393975  1
  Te  Te22  1  0.369546  0.306243  0.726500  1
  Te  Te23  1  0.593821  0.390377  0.032175  1
  Te  Te24  1  0.722124  0.477961  0.599913  1
  Te  Te25  1  0.196602  0.880558  0.896920  1
  Te  Te26  1  0.633704  0.242168  0.189477  1
  Te  Te27  1  0.890945  0.327412  0.517747  1
  Te  Te28  1  0.238447  0.184955  0.120359  1
  Te  Te29  1  0.829382  0.999353  0.259895  1
  Te  Te30  1  0.786351  0.676429  0.021012  1
  Te  Te31  1  0.504691  0.595752  0.708442  1
  Te  Te32  1  0.408082  0.636934  0.993224  1
  Te  Te33  1  0.493789  0.247516  0.446651  1
  Te  Te34  1  0.272582  0.639258  0.231683  1
  Te  Te35  1  0.561285  0.921499  0.951373  1
  Au  Au36  1  0.830187  0.569071  0.176652  1
  Au  Au37  1  0.193127  0.299498  0.979094  1
  Au  Au38  1  0.146942  0.987858  0.740129  1
  Au  Au39  1  0.783383  0.239723  0.936321  1
  Au  Au40  1  0.258627  0.074931  0.302537  1
  Au  Au41  1  0.210437  0.759906  0.072366  1
  Au  Au42  1  0.043142  0.324473  0.248026  1
  Au  Au43  1  0.524109  0.158215  0.620886  1
  Au  Au44  1  0.474902  0.830597  0.376732  1
  Au  Au45  1  0.309500  0.408352  0.559394  1
  Au  Au46  1  0.735369  0.915622  0.691801  1
  Au  Au47  1  0.930300  0.229172  0.676531  1
  Au  Au48  1  0.090518  0.658569  0.489543  1
  Au  Au49  1  0.374469  0.183768  0.880598  1
  Au  Au50  1  0.409970  0.066183  0.039200  1
  Au  Au51  1  0.686361  0.587355  0.442173  1
  Au  Au52  1  0.885196  0.899333  0.429977  1
  Au  Au53  1  0.948282  0.673879  0.757455  1
  Au  Au54  1  0.621104  0.819723  0.118780  1
  Au  Au55  1  0.350626  0.740956  0.802942  1
  Au  Au56  1  0.674046  0.140082  0.357898  1
  Au  Au57  1  0.424662  0.504641  0.128891  1
  Au  Au58  1  0.573496  0.494019  0.870224  1
  Au  Au59  1  0.039702  0.883587  0.173445  1
