# generated using pymatgen
data_Hg2N2O3
_symmetry_space_group_name_H-M   'P 1'
_cell_length_a   9.29185356
_cell_length_b   15.72712508
_cell_length_c   15.72712508
_cell_angle_alpha   90.00000000
_cell_angle_beta   90.00000000
_cell_angle_gamma   90.00000000
_symmetry_Int_Tables_number   1
_chemical_formula_structural   Hg2N2O3
_chemical_formula_sum   'Hg40 N40 O60'
_cell_volume   2298.26994799
_cell_formula_units_Z   20
loop_
 _symmetry_equiv_pos_site_id
 _symmetry_equiv_pos_as_xyz
  1  'x, y, z'
loop_
 _atom_site_type_symbol
 _atom_site_label
 _atom_site_symmetry_multiplicity
 _atom_site_fract_x
 _atom_site_fract_y
 _atom_site_fract_z
 _atom_site_occupancy
  Hg  Hg0  1  0.750000  0.565732  0.434268  1
  Hg  Hg1  1  0.000000  0.588958  0.588958  1
  Hg  Hg2  1  0.425224  0.031819  0.605854  1
  Hg  Hg3  1  0.664988  0.676001  0.613345  1
  Hg  Hg4  1  0.835012  0.386655  0.323999  1
  Hg  Hg5  1  0.675224  0.105854  0.468181  1
  Hg  Hg6  1  0.332353  0.259228  0.029421  1
  Hg  Hg7  1  0.589607  0.677770  0.821186  1
  Hg  Hg8  1  0.910393  0.178814  0.322230  1
  Hg  Hg9  1  0.660393  0.177770  0.678814  1
  Hg  Hg10  1  0.089607  0.322230  0.178814  1
  Hg  Hg11  1  0.917647  0.759228  0.470579  1
  Hg  Hg12  1  0.925224  0.968181  0.394146  1
  Hg  Hg13  1  0.414988  0.886655  0.176001  1
  Hg  Hg14  1  0.832353  0.740772  0.970579  1
  Hg  Hg15  1  0.667647  0.029421  0.259228  1
  Hg  Hg16  1  0.085012  0.823999  0.113345  1
  Hg  Hg17  1  0.074776  0.394146  0.968181  1
  Hg  Hg18  1  0.839607  0.321186  0.822230  1
  Hg  Hg19  1  0.175224  0.894146  0.531819  1
  Hg  Hg20  1  0.167647  0.970579  0.740772  1
  Hg  Hg21  1  0.250000  0.088958  0.911042  1
  Hg  Hg22  1  0.914988  0.113345  0.823999  1
  Hg  Hg23  1  0.335012  0.613345  0.676001  1
  Hg  Hg24  1  0.082353  0.470579  0.759228  1
  Hg  Hg25  1  0.582353  0.529421  0.240772  1
  Hg  Hg26  1  0.250000  0.434268  0.565732  1
  Hg  Hg27  1  0.417647  0.240772  0.529421  1
  Hg  Hg28  1  0.574776  0.605854  0.031819  1
  Hg  Hg29  1  0.410393  0.821186  0.677770  1
  Hg  Hg30  1  0.164988  0.323999  0.386655  1
  Hg  Hg31  1  0.824776  0.531819  0.894146  1
  Hg  Hg32  1  0.500000  0.411042  0.411042  1
  Hg  Hg33  1  0.585012  0.176001  0.886655  1
  Hg  Hg34  1  0.160393  0.822230  0.321186  1
  Hg  Hg35  1  0.750000  0.911042  0.088958  1
  Hg  Hg36  1  0.500000  0.065732  0.065732  1
  Hg  Hg37  1  0.000000  0.934268  0.934268  1
  Hg  Hg38  1  0.339607  0.678814  0.177770  1
  Hg  Hg39  1  0.324776  0.468181  0.105854  1
  N  N40  1  0.500000  0.255085  0.255085  1
  N  N41  1  0.750000  0.755085  0.244915  1
  N  N42  1  0.170839  0.525325  0.649863  1
  N  N43  1  0.250000  0.798535  0.201465  1
  N  N44  1  0.794670  0.071511  0.360571  1
  N  N45  1  0.433116  0.451768  0.863350  1
  N  N46  1  0.183116  0.636650  0.951768  1
  N  N47  1  0.455330  0.571511  0.139429  1
  N  N48  1  0.000000  0.298535  0.298535  1
  N  N49  1  0.544670  0.139429  0.571511  1
  N  N50  1  0.649396  0.458057  0.666892  1
  N  N51  1  0.920839  0.850137  0.025325  1
  N  N52  1  0.579161  0.974675  0.149863  1
  N  N53  1  0.850604  0.333108  0.541943  1
  N  N54  1  0.399396  0.833108  0.958057  1
  N  N55  1  0.294670  0.928489  0.639429  1
  N  N56  1  0.000000  0.744915  0.744915  1
  N  N57  1  0.899396  0.166892  0.041943  1
  N  N58  1  0.816884  0.951768  0.636650  1
  N  N59  1  0.350604  0.666892  0.458057  1
  N  N60  1  0.566884  0.863350  0.451768  1
  N  N61  1  0.100604  0.041943  0.166892  1
  N  N62  1  0.829161  0.649863  0.525325  1
  N  N63  1  0.683116  0.363350  0.048232  1
  N  N64  1  0.149396  0.541943  0.333108  1
  N  N65  1  0.420839  0.149863  0.974675  1
  N  N66  1  0.316884  0.048232  0.363350  1
  N  N67  1  0.044670  0.860571  0.428489  1
  N  N68  1  0.329161  0.350137  0.474675  1
  N  N69  1  0.933116  0.548232  0.136650  1
  N  N70  1  0.079161  0.025325  0.850137  1
  N  N71  1  0.500000  0.701465  0.701465  1
  N  N72  1  0.066884  0.136650  0.548232  1
  N  N73  1  0.750000  0.201465  0.798535  1
  N  N74  1  0.670839  0.474675  0.350137  1
  N  N75  1  0.705330  0.639429  0.928489  1
  N  N76  1  0.955330  0.428489  0.860571  1
  N  N77  1  0.250000  0.244915  0.755085  1
  N  N78  1  0.205330  0.360571  0.071511  1
  N  N79  1  0.600604  0.958057  0.833108  1
  O  O80  1  0.332630  0.396957  0.862607  1
  O  O81  1  0.917370  0.896957  0.637393  1
  O  O82  1  0.850630  0.810616  0.241759  1
  O  O83  1  0.872888  0.303009  0.614589  1
  O  O84  1  0.622888  0.885411  0.803009  1
  O  O85  1  0.417370  0.103043  0.362607  1
  O  O86  1  0.195255  0.697016  0.004649  1
  O  O87  1  0.750000  0.698762  0.301238  1
  O  O88  1  0.695255  0.302984  0.995351  1
  O  O89  1  0.582630  0.362607  0.103043  1
  O  O90  1  0.945255  0.495351  0.197016  1
  O  O91  1  0.082630  0.637393  0.896957  1
  O  O92  1  0.021943  0.546737  0.075286  1
  O  O93  1  0.122888  0.114589  0.196991  1
  O  O94  1  0.149370  0.241759  0.810616  1
  O  O95  1  0.250000  0.301238  0.698762  1
  O  O96  1  0.600630  0.258241  0.310616  1
  O  O97  1  0.425042  0.604083  0.485638  1
  O  O98  1  0.054745  0.197016  0.495351  1
  O  O99  1  0.324958  0.895917  0.985638  1
  O  O100  1  0.899370  0.689384  0.741759  1
  O  O101  1  0.445255  0.504649  0.802984  1
  O  O102  1  0.100630  0.741759  0.689384  1
  O  O103  1  0.521943  0.453263  0.924714  1
  O  O104  1  0.175042  0.014362  0.104083  1
  O  O105  1  0.746105  0.506670  0.698615  1
  O  O106  1  0.496105  0.801385  0.006670  1
  O  O107  1  0.167370  0.137393  0.603043  1
  O  O108  1  0.925042  0.395917  0.514362  1
  O  O109  1  0.304745  0.995351  0.302984  1
  O  O110  1  0.074958  0.514362  0.395917  1
  O  O111  1  0.000000  0.801238  0.801238  1
  O  O112  1  0.996105  0.198615  0.993330  1
  O  O113  1  0.127112  0.614589  0.303009  1
  O  O114  1  0.824958  0.104083  0.014362  1
  O  O115  1  0.478057  0.924714  0.453263  1
  O  O116  1  0.832630  0.603043  0.137393  1
  O  O117  1  0.753895  0.301385  0.493330  1
  O  O118  1  0.728057  0.953263  0.575286  1
  O  O119  1  0.771943  0.424714  0.046737  1
  O  O120  1  0.372888  0.696991  0.385411  1
  O  O121  1  0.978057  0.075286  0.546737  1
  O  O122  1  0.003895  0.993330  0.198615  1
  O  O123  1  0.253895  0.698615  0.506670  1
  O  O124  1  0.649370  0.758241  0.189384  1
  O  O125  1  0.399370  0.310616  0.258241  1
  O  O126  1  0.377112  0.803009  0.885411  1
  O  O127  1  0.246105  0.493330  0.301385  1
  O  O128  1  0.271943  0.575286  0.953263  1
  O  O129  1  0.500000  0.198762  0.198762  1
  O  O130  1  0.228057  0.046737  0.424714  1
  O  O131  1  0.627112  0.385411  0.696991  1
  O  O132  1  0.554745  0.802984  0.504649  1
  O  O133  1  0.675042  0.985638  0.895917  1
  O  O134  1  0.667370  0.862607  0.396957  1
  O  O135  1  0.503895  0.006670  0.801385  1
  O  O136  1  0.804745  0.004649  0.697016  1
  O  O137  1  0.877112  0.196991  0.114589  1
  O  O138  1  0.350630  0.189384  0.758241  1
  O  O139  1  0.574958  0.485638  0.604083  1
