# generated using pymatgen
data_Ge3Pb11O17
_symmetry_space_group_name_H-M   'P 1'
_cell_length_a   7.48772656
_cell_length_b   20.26390763
_cell_length_c   22.61864394
_cell_angle_alpha   92.38406799
_cell_angle_beta   95.14934497
_cell_angle_gamma   97.44520207
_symmetry_Int_Tables_number   1
_chemical_formula_structural   Ge3Pb11O17
_chemical_formula_sum   'Ge18 Pb66 O102'
_cell_volume   3384.34602793
_cell_formula_units_Z   6
loop_
 _symmetry_equiv_pos_site_id
 _symmetry_equiv_pos_as_xyz
  1  'x, y, z'
loop_
 _atom_site_type_symbol
 _atom_site_label
 _atom_site_symmetry_multiplicity
 _atom_site_fract_x
 _atom_site_fract_y
 _atom_site_fract_z
 _atom_site_occupancy
  Ge  Ge0  1  0.112658  0.222169  0.576698  1
  Ge  Ge1  1  0.114716  0.028709  0.854468  1
  Ge  Ge2  1  0.165259  0.445648  0.423595  1
  Ge  Ge3  1  0.885284  0.971291  0.145532  1
  Ge  Ge4  1  0.517902  0.110182  0.417205  1
  Ge  Ge5  1  0.080035  0.506540  0.845343  1
  Ge  Ge6  1  0.782212  0.359907  0.850403  1
  Ge  Ge7  1  0.834741  0.554352  0.576405  1
  Ge  Ge8  1  0.408212  0.175772  0.853692  1
  Ge  Ge9  1  0.919965  0.493460  0.154657  1
  Ge  Ge10  1  0.217788  0.640093  0.149597  1
  Ge  Ge11  1  0.761378  0.840874  0.855415  1
  Ge  Ge12  1  0.549440  0.305020  0.149937  1
  Ge  Ge13  1  0.591788  0.824228  0.146308  1
  Ge  Ge14  1  0.482098  0.889818  0.582795  1
  Ge  Ge15  1  0.450560  0.694980  0.850063  1
  Ge  Ge16  1  0.887342  0.777831  0.423302  1
  Ge  Ge17  1  0.238622  0.159126  0.144585  1
  Pb  Pb18  1  0.088535  0.416235  0.995097  1
  Pb  Pb19  1  0.307458  0.460555  0.722032  1
  Pb  Pb20  1  0.918953  0.884608  0.294297  1
  Pb  Pb21  1  0.111771  0.710189  0.298741  1
  Pb  Pb22  1  0.252221  0.749073  0.008049  1
  Pb  Pb23  1  0.660014  0.622248  0.720133  1
  Pb  Pb24  1  0.947562  0.611250  0.420752  1
  Pb  Pb25  1  0.319767  0.274407  0.413437  1
  Pb  Pb26  1  0.680233  0.725593  0.586563  1
  Pb  Pb27  1  0.408317  0.883175  0.281159  1
  Pb  Pb28  1  0.588480  0.519287  0.862940  1
  Pb  Pb29  1  0.293781  0.953659  0.726848  1
  Pb  Pb30  1  0.287622  0.351566  0.863859  1
  Pb  Pb31  1  0.629891  0.015425  0.863416  1
  Pb  Pb32  1  0.712378  0.648434  0.136141  1
  Pb  Pb33  1  0.986561  0.787798  0.721539  1
  Pb  Pb34  1  0.013439  0.212202  0.278461  1
  Pb  Pb35  1  0.832435  0.370620  0.301247  1
  Pb  Pb36  1  0.920942  0.196384  0.862060  1
  Pb  Pb37  1  0.512652  0.377685  0.572100  1
  Pb  Pb38  1  0.434987  0.286158  0.718124  1
  Pb  Pb39  1  0.692542  0.539445  0.277968  1
  Pb  Pb40  1  0.339986  0.377752  0.279867  1
  Pb  Pb41  1  0.585364  0.417846  0.007637  1
  Pb  Pb42  1  0.706219  0.046341  0.273152  1
  Pb  Pb43  1  0.370109  0.984575  0.136584  1
  Pb  Pb44  1  0.411520  0.480713  0.137060  1
  Pb  Pb45  1  0.913650  0.086902  0.006635  1
  Pb  Pb46  1  0.565013  0.713842  0.281876  1
  Pb  Pb47  1  0.166339  0.725478  0.557667  1
  Pb  Pb48  1  0.081047  0.115392  0.705703  1
  Pb  Pb49  1  0.221585  0.954814  0.441805  1
  Pb  Pb50  1  0.643537  0.456173  0.424530  1
  Pb  Pb51  1  0.167565  0.629380  0.698753  1
  Pb  Pb52  1  0.789143  0.454694  0.703859  1
  Pb  Pb53  1  0.747843  0.149822  0.134652  1
  Pb  Pb54  1  0.052438  0.388750  0.579248  1
  Pb  Pb55  1  0.987007  0.877344  0.578503  1
  Pb  Pb56  1  0.717033  0.953353  0.414685  1
  Pb  Pb57  1  0.414636  0.582154  0.992363  1
  Pb  Pb58  1  0.210857  0.545306  0.296141  1
  Pb  Pb59  1  0.356463  0.543827  0.575470  1
  Pb  Pb60  1  0.252157  0.850178  0.865348  1
  Pb  Pb61  1  0.754887  0.748495  0.997484  1
  Pb  Pb62  1  0.051050  0.323546  0.136935  1
  Pb  Pb63  1  0.591683  0.116825  0.718841  1
  Pb  Pb64  1  0.487348  0.622315  0.427900  1
  Pb  Pb65  1  0.086350  0.913098  0.993365  1
  Pb  Pb66  1  0.888229  0.289811  0.701259  1
  Pb  Pb67  1  0.410730  0.081477  0.997755  1
  Pb  Pb68  1  0.522625  0.213399  0.288328  1
  Pb  Pb69  1  0.199145  0.048085  0.286017  1
  Pb  Pb70  1  0.477375  0.786601  0.711672  1
  Pb  Pb71  1  0.833661  0.274522  0.442333  1
  Pb  Pb72  1  0.948950  0.676454  0.863065  1
  Pb  Pb73  1  0.800855  0.951915  0.713983  1
  Pb  Pb74  1  0.282967  0.046647  0.585315  1
  Pb  Pb75  1  0.589270  0.918523  0.002245  1
  Pb  Pb76  1  0.079058  0.803616  0.137940  1
  Pb  Pb77  1  0.012993  0.122656  0.421497  1
  Pb  Pb78  1  0.584566  0.202631  0.574725  1
  Pb  Pb79  1  0.245113  0.251505  0.002516  1
  Pb  Pb80  1  0.778415  0.045186  0.558195  1
  Pb  Pb81  1  0.747779  0.250927  0.991951  1
  Pb  Pb82  1  0.911465  0.583765  0.004903  1
  Pb  Pb83  1  0.415434  0.797369  0.425275  1
  O  O84  1  0.299163  0.688152  0.216015  1
  O  O85  1  0.239042  0.302249  0.601012  1
  O  O86  1  0.362355  0.477242  0.038786  1
  O  O87  1  0.968689  0.591312  0.315706  1
  O  O88  1  0.920299  0.431105  0.823931  1
  O  O89  1  0.392081  0.783659  0.321190  1
  O  O90  1  0.623947  0.179360  0.893236  1
  O  O91  1  0.277666  0.234057  0.883469  1
  O  O92  1  0.313398  0.058379  0.689767  1
  O  O93  1  0.590780  0.773418  0.869179  1
  O  O94  1  0.976907  0.105230  0.310659  1
  O  O95  1  0.267569  0.483845  0.890215  1
  O  O96  1  0.879925  0.791826  0.499756  1
  O  O97  1  0.315409  0.854512  0.963144  1
  O  O98  1  0.423626  0.903403  0.395606  1
  O  O99  1  0.641830  0.060340  0.372950  1
  O  O100  1  0.926910  0.433323  0.402129  1
  O  O101  1  0.385751  0.565638  0.682105  1
  O  O102  1  0.197951  0.962740  0.891641  1
  O  O103  1  0.969118  0.193333  0.960976  1
  O  O104  1  0.552394  0.633748  0.888647  1
  O  O105  1  0.031311  0.408688  0.684294  1
  O  O106  1  0.637645  0.522758  0.961214  1
  O  O107  1  0.358170  0.939660  0.627050  1
  O  O108  1  0.706224  0.730767  0.691394  1
  O  O109  1  0.030882  0.806667  0.039024  1
  O  O110  1  0.604741  0.390310  0.885889  1
  O  O111  1  0.043889  0.437428  0.117649  1
  O  O112  1  0.397389  0.056270  0.464205  1
  O  O113  1  0.308074  0.357991  0.962110  1
  O  O114  1  0.802049  0.037260  0.108359  1
  O  O115  1  0.040021  0.178368  0.103468  1
  O  O116  1  0.981235  0.773484  0.616415  1
  O  O117  1  0.576374  0.096597  0.604394  1
  O  O118  1  0.741167  0.475507  0.601149  1
  O  O119  1  0.108360  0.769466  0.400289  1
  O  O120  1  0.018765  0.226516  0.383585  1
  O  O121  1  0.376053  0.820640  0.106764  1
  O  O122  1  0.594801  0.821984  0.224728  1
  O  O123  1  0.930349  0.061805  0.883482  1
  O  O124  1  0.073090  0.566677  0.597871  1
  O  O125  1  0.433546  0.683129  0.771032  1
  O  O126  1  0.334548  0.707129  0.641563  1
  O  O127  1  0.639558  0.849139  0.627769  1
  O  O128  1  0.956111  0.562572  0.882351  1
  O  O129  1  0.690135  0.907798  0.130795  1
  O  O130  1  0.139176  0.532628  0.775143  1
  O  O131  1  0.654469  0.351757  0.663274  1
  O  O132  1  0.602611  0.943730  0.535795  1
  O  O133  1  0.409220  0.226582  0.130821  1
  O  O134  1  0.667214  0.908794  0.886652  1
  O  O135  1  0.345531  0.648243  0.336726  1
  O  O136  1  0.614249  0.434362  0.317895  1
  O  O137  1  0.079701  0.568895  0.176069  1
  O  O138  1  0.747373  0.617758  0.619129  1
  O  O139  1  0.924153  0.315032  0.895789  1
  O  O140  1  0.023093  0.894770  0.689341  1
  O  O141  1  0.917794  0.026735  0.646511  1
  O  O142  1  0.405199  0.178016  0.775272  1
  O  O143  1  0.311782  0.831545  0.540847  1
  O  O144  1  0.228121  0.442020  0.500169  1
  O  O145  1  0.360442  0.150861  0.372231  1
  O  O146  1  0.309865  0.092202  0.869205  1
  O  O147  1  0.891640  0.230534  0.599711  1
  O  O148  1  0.063165  0.011857  0.776126  1
  O  O149  1  0.750572  0.285116  0.121785  1
  O  O150  1  0.252627  0.382242  0.380871  1
  O  O151  1  0.700837  0.311848  0.783985  1
  O  O152  1  0.120075  0.208174  0.500244  1
  O  O153  1  0.370626  0.974871  0.038909  1
  O  O154  1  0.760958  0.697751  0.398988  1
  O  O155  1  0.038517  0.314235  0.039006  1
  O  O156  1  0.771879  0.557980  0.499831  1
  O  O157  1  0.332851  0.442373  0.617353  1
  O  O158  1  0.395259  0.609690  0.114111  1
  O  O159  1  0.959979  0.821632  0.896532  1
  O  O160  1  0.684591  0.145488  0.036856  1
  O  O161  1  0.075847  0.684968  0.104211  1
  O  O162  1  0.332786  0.091206  0.113348  1
  O  O163  1  0.722334  0.765943  0.116531  1
  O  O164  1  0.211528  0.153643  0.220937  1
  O  O165  1  0.686602  0.941621  0.310233  1
  O  O166  1  0.936835  0.988143  0.223874  1
  O  O167  1  0.961483  0.685765  0.960994  1
  O  O168  1  0.788472  0.846357  0.779063  1
  O  O169  1  0.205787  0.159376  0.618419  1
  O  O170  1  0.607919  0.216341  0.678810  1
  O  O171  1  0.732431  0.516155  0.109785  1
  O  O172  1  0.688218  0.168455  0.459153  1
  O  O173  1  0.069651  0.938195  0.116518  1
  O  O174  1  0.082206  0.973265  0.353489  1
  O  O175  1  0.293776  0.269233  0.308606  1
  O  O176  1  0.665452  0.292871  0.358437  1
  O  O177  1  0.794213  0.840624  0.381581  1
  O  O178  1  0.667149  0.557627  0.382647  1
  O  O179  1  0.566454  0.316871  0.228968  1
  O  O180  1  0.629374  0.025129  0.961091  1
  O  O181  1  0.860824  0.467372  0.224857  1
  O  O182  1  0.447606  0.366252  0.111353  1
  O  O183  1  0.258833  0.524493  0.398851  1
  O  O184  1  0.249428  0.714884  0.878215  1
  O  O185  1  0.691926  0.642009  0.037890  1
