# generated using pymatgen
data_Sm8CrTe13Cl
_symmetry_space_group_name_H-M   'P 1'
_cell_length_a   4.10609861
_cell_length_b   13.75179788
_cell_length_c   24.45925595
_cell_angle_alpha   90.00000000
_cell_angle_beta   90.00000000
_cell_angle_gamma   98.58596612
_symmetry_Int_Tables_number   1
_chemical_formula_structural   Sm8CrTe13Cl
_chemical_formula_sum   'Sm16 Cr2 Te26 Cl2'
_cell_volume   1365.64390527
_cell_formula_units_Z   2
loop_
 _symmetry_equiv_pos_site_id
 _symmetry_equiv_pos_as_xyz
  1  'x, y, z'
loop_
 _atom_site_type_symbol
 _atom_site_label
 _atom_site_symmetry_multiplicity
 _atom_site_fract_x
 _atom_site_fract_y
 _atom_site_fract_z
 _atom_site_occupancy
  Sm  Sm0  1  0.275051  0.550103  0.405845  1
  Sm  Sm1  1  0.724949  0.449897  0.905845  1
  Sm  Sm2  1  0.851475  0.702949  0.216727  1
  Sm  Sm3  1  0.693213  0.386426  0.231157  1
  Sm  Sm4  1  0.017144  0.034287  0.221998  1
  Sm  Sm5  1  0.306787  0.613574  0.731157  1
  Sm  Sm6  1  0.148525  0.297051  0.716727  1
  Sm  Sm7  1  0.440131  0.880261  0.397337  1
  Sm  Sm8  1  0.946729  0.893459  0.056563  1
  Sm  Sm9  1  0.892387  0.784774  0.885122  1
  Sm  Sm10  1  0.982856  0.965713  0.721998  1
  Sm  Sm11  1  0.367336  0.734672  0.564809  1
  Sm  Sm12  1  0.053271  0.106541  0.556563  1
  Sm  Sm13  1  0.107613  0.215226  0.385122  1
  Sm  Sm14  1  0.559869  0.119739  0.897337  1
  Sm  Sm15  1  0.632664  0.265328  0.064809  1
  Cr  Cr16  1  0.290975  0.581949  0.059210  1
  Cr  Cr17  1  0.709025  0.418051  0.559210  1
  Te  Te18  1  0.244527  0.489054  0.623596  1
  Te  Te19  1  0.433666  0.867332  0.259369  1
  Te  Te20  1  0.725479  0.450958  0.766463  1
  Te  Te21  1  0.062099  0.124198  0.999769  1
  Te  Te22  1  0.173076  0.346152  0.495703  1
  Te  Te23  1  0.481717  0.963434  0.621438  1
  Te  Te24  1  0.129373  0.258746  0.163553  1
  Te  Te25  1  0.586863  0.173726  0.285453  1
  Te  Te26  1  0.826924  0.653848  0.995703  1
  Te  Te27  1  0.304818  0.609636  0.863147  1
  Te  Te28  1  0.144468  0.288935  0.858398  1
  Te  Te29  1  0.870627  0.741254  0.663553  1
  Te  Te30  1  0.375558  0.751117  0.118966  1
  Te  Te31  1  0.450157  0.900314  0.958621  1
  Te  Te32  1  0.855532  0.711065  0.358398  1
  Te  Te33  1  0.695182  0.390364  0.363147  1
  Te  Te34  1  0.624442  0.248883  0.618966  1
  Te  Te35  1  0.203769  0.407537  0.002807  1
  Te  Te36  1  0.796231  0.592463  0.502807  1
  Te  Te37  1  0.549843  0.099686  0.458621  1
  Te  Te38  1  0.937901  0.875802  0.499769  1
  Te  Te39  1  0.566334  0.132668  0.759369  1
  Te  Te40  1  0.755473  0.510946  0.123596  1
  Te  Te41  1  0.518283  0.036566  0.121438  1
  Te  Te42  1  0.274521  0.549042  0.266463  1
  Te  Te43  1  0.413137  0.826274  0.785453  1
  Cl  Cl44  1  0.999304  0.998608  0.353449  1
  Cl  Cl45  1  0.000696  0.001392  0.853449  1
