# generated using pymatgen
data_H8RuC5N(ClO)3
_symmetry_space_group_name_H-M   'P 1'
_cell_length_a   9.99865979
_cell_length_b   11.79406952
_cell_length_c   11.76637937
_cell_angle_alpha   119.10001908
_cell_angle_beta   90.00000000
_cell_angle_gamma   90.00000000
_symmetry_Int_Tables_number   1
_chemical_formula_structural   H8RuC5N(ClO)3
_chemical_formula_sum   'H32 Ru4 C20 N4 Cl12 O12'
_cell_volume   1212.40153006
_cell_formula_units_Z   4
loop_
 _symmetry_equiv_pos_site_id
 _symmetry_equiv_pos_as_xyz
  1  'x, y, z'
loop_
 _atom_site_type_symbol
 _atom_site_label
 _atom_site_symmetry_multiplicity
 _atom_site_fract_x
 _atom_site_fract_y
 _atom_site_fract_z
 _atom_site_occupancy
  H  H0  1  0.343650  0.461097  0.477433  1
  H  H1  1  0.613366  0.674434  0.499226  1
  H  H2  1  0.730700  0.378331  0.738686  1
  H  H3  1  0.386634  0.325566  0.500774  1
  H  H4  1  0.427081  0.650326  0.344243  1
  H  H5  1  0.275095  0.639916  0.421821  1
  H  H6  1  0.072919  0.150326  0.344243  1
  H  H7  1  0.606442  0.691823  0.659276  1
  H  H8  1  0.572919  0.349674  0.655757  1
  H  H9  1  0.346022  0.843055  0.352150  1
  H  H10  1  0.846022  0.656945  0.647850  1
  H  H11  1  0.269300  0.621669  0.261314  1
  H  H12  1  0.843650  0.038903  0.522567  1
  H  H13  1  0.153978  0.343055  0.352150  1
  H  H14  1  0.775095  0.860084  0.578179  1
  H  H15  1  0.850940  0.639526  0.496963  1
  H  H16  1  0.653978  0.156945  0.647850  1
  H  H17  1  0.156350  0.961097  0.477433  1
  H  H18  1  0.224905  0.139916  0.421821  1
  H  H19  1  0.724905  0.360084  0.578179  1
  H  H20  1  0.893558  0.191823  0.659276  1
  H  H21  1  0.113366  0.825566  0.500774  1
  H  H22  1  0.927081  0.849674  0.655757  1
  H  H23  1  0.656350  0.538903  0.522567  1
  H  H24  1  0.106442  0.808177  0.340724  1
  H  H25  1  0.350940  0.860474  0.503037  1
  H  H26  1  0.230700  0.121669  0.261314  1
  H  H27  1  0.149060  0.360474  0.503037  1
  H  H28  1  0.886634  0.174434  0.499226  1
  H  H29  1  0.649060  0.139526  0.496963  1
  H  H30  1  0.769300  0.878331  0.738686  1
  H  H31  1  0.393558  0.308177  0.340724  1
  Ru  Ru32  1  0.626278  0.862196  0.171633  1
  Ru  Ru33  1  0.373722  0.137804  0.828367  1
  Ru  Ru34  1  0.873722  0.362196  0.171633  1
  Ru  Ru35  1  0.126278  0.637804  0.828367  1
  C  C36  1  0.120105  0.631090  0.985923  1
  C  C37  1  0.634448  0.678579  0.086606  1
  C  C38  1  0.186184  0.120015  0.813586  1
  C  C39  1  0.134447  0.821421  0.913394  1
  C  C40  1  0.841431  0.144735  0.565576  1
  C  C41  1  0.365553  0.321421  0.913394  1
  C  C42  1  0.319544  0.670608  0.355931  1
  C  C43  1  0.379895  0.131090  0.985923  1
  C  C44  1  0.680456  0.329392  0.644069  1
  C  C45  1  0.341431  0.355265  0.434424  1
  C  C46  1  0.813816  0.879985  0.186414  1
  C  C47  1  0.313816  0.620015  0.813586  1
  C  C48  1  0.620105  0.868910  0.014077  1
  C  C49  1  0.686184  0.379985  0.186414  1
  C  C50  1  0.180456  0.170608  0.355931  1
  C  C51  1  0.158569  0.855265  0.434424  1
  C  C52  1  0.879895  0.368910  0.014077  1
  C  C53  1  0.658569  0.644735  0.565576  1
  C  C54  1  0.819544  0.829392  0.644069  1
  C  C55  1  0.865552  0.178579  0.086606  1
  N  N56  1  0.698834  0.186445  0.586319  1
  N  N57  1  0.198834  0.313555  0.413681  1
  N  N58  1  0.801166  0.686445  0.586319  1
  N  N59  1  0.301166  0.813555  0.413681  1
  Cl  Cl60  1  0.619601  0.153423  0.838012  1
  Cl  Cl61  1  0.878661  0.365068  0.380282  1
  Cl  Cl62  1  0.380399  0.846577  0.161988  1
  Cl  Cl63  1  0.121339  0.634932  0.619718  1
  Cl  Cl64  1  0.890612  0.599103  0.288838  1
  Cl  Cl65  1  0.880399  0.653423  0.838012  1
  Cl  Cl66  1  0.109388  0.400897  0.711162  1
  Cl  Cl67  1  0.119601  0.346577  0.161988  1
  Cl  Cl68  1  0.621339  0.865068  0.380282  1
  Cl  Cl69  1  0.390612  0.900897  0.711162  1
  Cl  Cl70  1  0.378661  0.134932  0.619718  1
  Cl  Cl71  1  0.609388  0.099103  0.288838  1
  O  O72  1  0.071532  0.107088  0.801104  1
  O  O73  1  0.386915  0.124794  0.080455  1
  O  O74  1  0.137560  0.933366  0.964100  1
  O  O75  1  0.862440  0.066634  0.035900  1
  O  O76  1  0.362440  0.433366  0.964100  1
  O  O77  1  0.613085  0.875206  0.919545  1
  O  O78  1  0.637560  0.566634  0.035900  1
  O  O79  1  0.113085  0.624794  0.080455  1
  O  O80  1  0.571532  0.392912  0.198896  1
  O  O81  1  0.428468  0.607088  0.801104  1
  O  O82  1  0.886915  0.375206  0.919545  1
  O  O83  1  0.928468  0.892912  0.198896  1
