# generated using pymatgen
data_Nd6MnS10
_symmetry_space_group_name_H-M   'P 1'
_cell_length_a   7.42725932
_cell_length_b   7.38743943
_cell_length_c   37.08630636
_cell_angle_alpha   109.71911712
_cell_angle_beta   110.34018699
_cell_angle_gamma   108.41327470
_symmetry_Int_Tables_number   1
_chemical_formula_structural   Nd6MnS10
_chemical_formula_sum   'Nd24 Mn4 S40'
_cell_volume   1564.95666799
_cell_formula_units_Z   4
loop_
 _symmetry_equiv_pos_site_id
 _symmetry_equiv_pos_as_xyz
  1  'x, y, z'
loop_
 _atom_site_type_symbol
 _atom_site_label
 _atom_site_symmetry_multiplicity
 _atom_site_fract_x
 _atom_site_fract_y
 _atom_site_fract_z
 _atom_site_occupancy
  Nd  Nd0  1  0.111818  0.739697  0.971547  1
  Nd  Nd1  1  0.252311  0.613317  0.872784  1
  Nd  Nd2  1  0.123889  0.761060  0.775523  1
  Nd  Nd3  1  0.383461  0.242526  0.924834  1
  Nd  Nd4  1  0.256547  0.623158  0.673476  1
  Nd  Nd5  1  0.087577  0.729871  0.568595  1
  Nd  Nd6  1  0.383462  0.249801  0.729150  1
  Nd  Nd7  1  0.747625  0.887973  0.827339  1
  Nd  Nd8  1  0.252812  0.612812  0.475536  1
  Nd  Nd9  1  0.135025  0.761651  0.375971  1
  Nd  Nd10  1  0.758620  0.892150  0.626541  1
  Nd  Nd11  1  0.390963  0.258267  0.527005  1
  Nd  Nd12  1  0.623415  0.374657  0.651256  1
  Nd  Nd13  1  0.256436  0.629517  0.275563  1
  Nd  Nd14  1  0.118974  0.745111  0.173482  1
  Nd  Nd15  1  0.748274  0.887478  0.430091  1
  Nd  Nd16  1  0.386788  0.259257  0.330197  1
  Nd  Nd17  1  0.246004  0.628740  0.075312  1
  Nd  Nd18  1  0.737957  0.850862  0.220555  1
  Nd  Nd19  1  0.613565  0.366641  0.245922  1
  Nd  Nd20  1  0.877029  0.134321  0.351461  1
  Nd  Nd21  1  0.764446  0.884231  0.026416  1
  Nd  Nd22  1  0.606758  0.364481  0.050478  1
  Nd  Nd23  1  0.868790  0.123624  0.146906  1
  Mn  Mn24  1  0.632661  0.382547  0.851933  1
  Mn  Mn25  1  0.879648  0.124890  0.949113  1
  Mn  Mn26  1  0.876583  0.135356  0.752687  1
  Mn  Mn27  1  0.866795  0.099541  0.542484  1
  S  S28  1  0.990597  0.868841  0.702560  1
  S  S29  1  0.110868  0.132901  0.822811  1
  S  S30  1  0.014737  0.372637  0.700193  1
  S  S31  1  0.389579  0.500648  0.804984  1
  S  S32  1  0.633086  0.605998  0.921294  1
  S  S33  1  0.008810  0.887893  0.505174  1
  S  S34  1  0.488712  0.986278  0.970143  1
  S  S35  1  0.514022  0.997708  0.875184  1
  S  S36  1  0.147693  0.147979  0.627545  1
  S  S37  1  0.013888  0.352933  0.501628  1
  S  S38  1  0.383325  0.524141  0.604391  1
  S  S39  1  0.999039  0.880881  0.902084  1
  S  S40  1  0.636145  0.632674  0.729761  1
  S  S41  1  0.499028  0.021685  0.777094  1
  S  S42  1  0.872404  0.480678  0.796349  1
  S  S43  1  0.975342  0.362254  0.894508  1
  S  S44  1  0.538003  0.021550  0.680314  1
  S  S45  1  0.124348  0.131958  0.428266  1
  S  S46  1  0.341510  0.502433  0.399758  1
  S  S47  1  0.648270  0.658157  0.533095  1
  S  S48  1  0.503070  0.996590  0.368582  1
  S  S49  1  0.477646  0.996157  0.573632  1
  S  S50  1  0.859947  0.478510  0.598987  1
  S  S51  1  0.517724  0.995791  0.477838  1
  S  S52  1  0.142390  0.145825  0.228836  1
  S  S53  1  0.344715  0.505050  0.200970  1
  S  S54  1  0.647920  0.635301  0.327159  1
  S  S55  1  0.866396  0.514525  0.399657  1
  S  S56  1  0.500966  0.007461  0.271459  1
  S  S57  1  0.112977  0.137874  0.017889  1
  S  S58  1  0.371659  0.507934  0.998443  1
  S  S59  1  0.001399  0.861381  0.300756  1
  S  S60  1  0.652612  0.657242  0.129850  1
  S  S61  1  0.495409  0.986908  0.171009  1
  S  S62  1  0.864861  0.505496  0.201720  1
  S  S63  1  0.995542  0.355309  0.298329  1
  S  S64  1  0.491894  0.990468  0.067533  1
  S  S65  1  0.992642  0.837493  0.098529  1
  S  S66  1  0.856568  0.475238  0.996464  1
  S  S67  1  0.986022  0.350680  0.098069  1
