# generated using pymatgen
data_Tl5SnF9
_symmetry_space_group_name_H-M   'P 1'
_cell_length_a   7.22337793
_cell_length_b   8.32358029
_cell_length_c   9.84076648
_cell_angle_alpha   90.00016111
_cell_angle_beta   89.98596768
_cell_angle_gamma   90.00003027
_symmetry_Int_Tables_number   1
_chemical_formula_structural   Tl5SnF9
_chemical_formula_sum   'Tl10 Sn2 F18'
_cell_volume   591.66982926
_cell_formula_units_Z   2
loop_
 _symmetry_equiv_pos_site_id
 _symmetry_equiv_pos_as_xyz
  1  'x, y, z'
loop_
 _atom_site_type_symbol
 _atom_site_label
 _atom_site_symmetry_multiplicity
 _atom_site_fract_x
 _atom_site_fract_y
 _atom_site_fract_z
 _atom_site_occupancy
  Tl  Tl0  1  0.051722  0.274346  0.823305  1
  Tl  Tl1  1  0.051721  0.725656  0.823305  1
  Tl  Tl2  1  0.454475  0.500001  0.016752  1
  Tl  Tl3  1  0.438168  0.730878  0.336599  1
  Tl  Tl4  1  0.438170  0.269125  0.336598  1
  Tl  Tl5  1  0.551686  0.725652  0.676706  1
  Tl  Tl6  1  0.551684  0.274351  0.676707  1
  Tl  Tl7  1  0.954356  0.500002  0.483301  1
  Tl  Tl8  1  0.938145  0.269124  0.163420  1
  Tl  Tl9  1  0.938141  0.730879  0.163419  1
  Sn  Sn10  1  0.495760  -0.000003  0.000143  1
  Sn  Sn11  1  0.995723  0.000001  0.499881  1
  F  F12  1  0.106887  -0.000004  0.313994  1
  F  F13  1  0.172824  0.176246  0.552274  1
  F  F14  1  0.172820  0.823748  0.552275  1
  F  F15  1  0.211035  0.500003  0.267440  1
  F  F16  1  0.308000  0.500003  0.765609  1
  F  F17  1  0.316651  0.174703  0.053653  1
  F  F18  1  0.316644  0.825297  0.053654  1
  F  F19  1  0.385052  -0.000003  0.814948  1
  F  F20  1  0.533734  0.500000  0.496827  1
  F  F21  1  0.606906  -0.000003  0.185984  1
  F  F22  1  0.672865  0.176239  0.947717  1
  F  F23  1  0.672870  0.823757  0.947725  1
  F  F24  1  0.710742  0.499998  0.232403  1
  F  F25  1  0.808122  0.500002  0.734336  1
  F  F26  1  0.816633  0.174704  0.446388  1
  F  F27  1  0.816628  0.825298  0.446387  1
  F  F28  1  0.885000  1.000000  0.685091  1
  F  F29  1  0.033435  0.500000  0.003159  1
