# generated using pymatgen
data_Bi2O3
_symmetry_space_group_name_H-M   'P 1'
_cell_length_a   5.59223666
_cell_length_b   7.91620866
_cell_length_c   7.91620866
_cell_angle_alpha   90.00000000
_cell_angle_beta   90.00000000
_cell_angle_gamma   90.00000000
_symmetry_Int_Tables_number   1
_chemical_formula_structural   Bi2O3
_chemical_formula_sum   'Bi8 O12'
_cell_volume   350.44511322
_cell_formula_units_Z   4
loop_
 _symmetry_equiv_pos_site_id
 _symmetry_equiv_pos_as_xyz
  1  'x, y, z'
loop_
 _atom_site_type_symbol
 _atom_site_label
 _atom_site_symmetry_multiplicity
 _atom_site_fract_x
 _atom_site_fract_y
 _atom_site_fract_z
 _atom_site_occupancy
  Bi  Bi0  1  0.249001  0.249333  0.507411  1
  Bi  Bi1  1  0.750999  0.507411  0.750667  1
  Bi  Bi2  1  0.249001  0.750667  0.492589  1
  Bi  Bi3  1  0.249001  0.749333  0.992589  1
  Bi  Bi4  1  0.249001  0.250667  0.007411  1
  Bi  Bi5  1  0.750999  0.007411  0.749333  1
  Bi  Bi6  1  0.750999  0.992589  0.250667  1
  Bi  Bi7  1  0.750999  0.492589  0.249333  1
  O  O8  1  0.000000  0.251466  0.248534  1
  O  O9  1  0.500000  0.244716  0.744716  1
  O  O10  1  0.000000  0.748534  0.751466  1
  O  O11  1  0.000000  0.500000  0.000000  1
  O  O12  1  0.500000  0.755284  0.255284  1
  O  O13  1  0.000000  0.248534  0.748534  1
  O  O14  1  0.500000  0.000000  0.000000  1
  O  O15  1  0.500000  0.744716  0.755284  1
  O  O16  1  0.500000  0.255284  0.244716  1
  O  O17  1  0.000000  0.751466  0.251466  1
  O  O18  1  0.000000  0.000000  0.500000  1
  O  O19  1  0.500000  0.500000  0.500000  1
