# generated using pymatgen
data_In2Se3
_symmetry_space_group_name_H-M   'P 1'
_cell_length_a   8.18707993
_cell_length_b   8.18708041
_cell_length_c   21.48252531
_cell_angle_alpha   90.00000000
_cell_angle_beta   90.00000000
_cell_angle_gamma   119.99999810
_symmetry_Int_Tables_number   1
_chemical_formula_structural   In2Se3
_chemical_formula_sum   'In12 Se18'
_cell_volume   1247.02183579
_cell_formula_units_Z   6
loop_
 _symmetry_equiv_pos_site_id
 _symmetry_equiv_pos_as_xyz
  1  'x, y, z'
loop_
 _atom_site_type_symbol
 _atom_site_label
 _atom_site_symmetry_multiplicity
 _atom_site_fract_x
 _atom_site_fract_y
 _atom_site_fract_z
 _atom_site_occupancy
  In  In0  1  0.300111  0.041367  0.467700  1
  In  In1  1  0.041367  0.741256  0.634367  1
  In  In2  1  0.339287  0.023335  0.131758  1
  In  In3  1  0.315952  0.339287  0.965091  1
  In  In4  1  0.684048  0.660713  0.465091  1
  In  In5  1  0.699889  0.958633  0.967700  1
  In  In6  1  0.741256  0.699889  0.801034  1
  In  In7  1  0.258744  0.300111  0.301034  1
  In  In8  1  0.976665  0.315952  0.798425  1
  In  In9  1  0.958633  0.258744  0.134367  1
  In  In10  1  0.660713  0.976665  0.631758  1
  In  In11  1  0.023335  0.684048  0.298425  1
  Se  Se12  1  0.971055  0.650584  0.500696  1
  Se  Se13  1  0.610750  0.328604  0.004018  1
  Se  Se14  1  0.665385  0.657946  0.338494  1
  Se  Se15  1  0.389250  0.671396  0.504018  1
  Se  Se16  1  0.671396  0.282146  0.670685  1
  Se  Se17  1  0.650584  0.679530  0.667363  1
  Se  Se18  1  0.342054  0.007439  0.005161  1
  Se  Se19  1  0.328604  0.717854  0.170685  1
  Se  Se20  1  0.007439  0.665385  0.171828  1
  Se  Se21  1  0.657946  0.992561  0.505161  1
  Se  Se22  1  0.992561  0.334615  0.671828  1
  Se  Se23  1  0.334615  0.342054  0.838494  1
  Se  Se24  1  0.282146  0.610750  0.837351  1
  Se  Se25  1  0.028945  0.349416  0.000696  1
  Se  Se26  1  0.679530  0.028945  0.834029  1
  Se  Se27  1  0.320470  0.971055  0.334029  1
  Se  Se28  1  0.717854  0.389250  0.337351  1
  Se  Se29  1  0.349416  0.320470  0.167363  1
