# generated using pymatgen
data_Cs2MgH4
_symmetry_space_group_name_H-M   'P 1'
_cell_length_a   8.65690776
_cell_length_b   11.70448524
_cell_length_c   6.63419727
_cell_angle_alpha   90.00000000
_cell_angle_beta   90.00000000
_cell_angle_gamma   90.00000000
_symmetry_Int_Tables_number   1
_chemical_formula_structural   Cs2MgH4
_chemical_formula_sum   'Cs8 Mg4 H16'
_cell_volume   672.20771045
_cell_formula_units_Z   4
loop_
 _symmetry_equiv_pos_site_id
 _symmetry_equiv_pos_as_xyz
  1  'x, y, z'
loop_
 _atom_site_type_symbol
 _atom_site_label
 _atom_site_symmetry_multiplicity
 _atom_site_fract_x
 _atom_site_fract_y
 _atom_site_fract_z
 _atom_site_occupancy
  Cs  Cs0  1  0.158884  0.081906  0.250000  1
  Cs  Cs1  1  0.658884  0.418094  0.250000  1
  Cs  Cs2  1  0.841116  0.918094  0.750000  1
  Cs  Cs3  1  0.341116  0.581906  0.750000  1
  Cs  Cs4  1  0.491624  0.809401  0.250000  1
  Cs  Cs5  1  0.991624  0.690599  0.250000  1
  Cs  Cs6  1  0.508376  0.190599  0.750000  1
  Cs  Cs7  1  0.008376  0.309401  0.750000  1
  Mg  Mg8  1  0.735810  0.088491  0.250000  1
  Mg  Mg9  1  0.235810  0.411509  0.250000  1
  Mg  Mg10  1  0.264190  0.911509  0.750000  1
  Mg  Mg11  1  0.764190  0.588491  0.750000  1
  H  H12  1  0.521853  0.087287  0.250000  1
  H  H13  1  0.021853  0.412713  0.250000  1
  H  H14  1  0.478147  0.912713  0.750000  1
  H  H15  1  0.978147  0.587287  0.750000  1
  H  H16  1  0.818151  0.940353  0.250000  1
  H  H17  1  0.318151  0.559647  0.250000  1
  H  H18  1  0.181849  0.059647  0.750000  1
  H  H19  1  0.681849  0.440353  0.750000  1
  H  H20  1  0.812809  0.159372  0.020534  1
  H  H21  1  0.312808  0.340628  0.479466  1
  H  H22  1  0.187192  0.840628  0.520534  1
  H  H23  1  0.687191  0.659372  0.979466  1
  H  H24  1  0.187192  0.840628  0.979466  1
  H  H25  1  0.687191  0.659372  0.520534  1
  H  H26  1  0.812809  0.159372  0.479466  1
  H  H27  1  0.312808  0.340628  0.020534  1
