# generated using pymatgen
data_FeSiGe
_symmetry_space_group_name_H-M   'P 1'
_cell_length_a   6.46673196
_cell_length_b   6.46673201
_cell_length_c   8.02976052
_cell_angle_alpha   90.00000000
_cell_angle_beta   90.00000000
_cell_angle_gamma   104.51390164
_symmetry_Int_Tables_number   1
_chemical_formula_structural   FeSiGe
_chemical_formula_sum   'Fe8 Si8 Ge8'
_cell_volume   325.07729936
_cell_formula_units_Z   8
loop_
 _symmetry_equiv_pos_site_id
 _symmetry_equiv_pos_as_xyz
  1  'x, y, z'
loop_
 _atom_site_type_symbol
 _atom_site_label
 _atom_site_symmetry_multiplicity
 _atom_site_fract_x
 _atom_site_fract_y
 _atom_site_fract_z
 _atom_site_occupancy
  Fe  Fe0  1  0.282701  0.717299  0.500000  1
  Fe  Fe1  1  0.805474  0.805474  0.185233  1
  Fe  Fe2  1  0.717299  0.282701  0.500000  1
  Fe  Fe3  1  0.305474  0.305474  0.314767  1
  Fe  Fe4  1  0.217299  0.782701  0.000000  1
  Fe  Fe5  1  0.194526  0.194526  0.814767  1
  Fe  Fe6  1  0.694526  0.694526  0.685233  1
  Fe  Fe7  1  0.782701  0.217299  0.000000  1
  Si  Si8  1  0.101862  0.356954  0.544390  1
  Si  Si9  1  0.356954  0.101862  0.544390  1
  Si  Si10  1  0.856954  0.601862  0.955610  1
  Si  Si11  1  0.398138  0.143046  0.044390  1
  Si  Si12  1  0.898138  0.643046  0.455610  1
  Si  Si13  1  0.143046  0.398138  0.044390  1
  Si  Si14  1  0.601862  0.856954  0.955610  1
  Si  Si15  1  0.643046  0.898138  0.455610  1
  Ge  Ge16  1  0.669607  0.416953  0.226894  1
  Ge  Ge17  1  0.583047  0.330393  0.773106  1
  Ge  Ge18  1  0.083047  0.830393  0.726894  1
  Ge  Ge19  1  0.416953  0.669607  0.226894  1
  Ge  Ge20  1  0.916953  0.169607  0.273106  1
  Ge  Ge21  1  0.830393  0.083047  0.726894  1
  Ge  Ge22  1  0.169607  0.916953  0.273106  1
  Ge  Ge23  1  0.330393  0.583047  0.773106  1
