# generated using pymatgen
data_LaSiAs3
_symmetry_space_group_name_H-M   'P 1'
_cell_length_a   5.95093921
_cell_length_b   6.07905599
_cell_length_c   26.60325174
_cell_angle_alpha   90.00007441
_cell_angle_beta   90.00000000
_cell_angle_gamma   90.00000000
_symmetry_Int_Tables_number   1
_chemical_formula_structural   LaSiAs3
_chemical_formula_sum   'La8 Si8 As24'
_cell_volume   962.40169976
_cell_formula_units_Z   8
loop_
 _symmetry_equiv_pos_site_id
 _symmetry_equiv_pos_as_xyz
  1  'x, y, z'
loop_
 _atom_site_type_symbol
 _atom_site_label
 _atom_site_symmetry_multiplicity
 _atom_site_fract_x
 _atom_site_fract_y
 _atom_site_fract_z
 _atom_site_occupancy
  La  La0  1  0.502416  0.000015  0.409037  1
  La  La1  1  0.502419  0.500031  0.090964  1
  La  La2  1  0.497581  0.499969  0.909036  1
  La  La3  1  0.997581  0.500031  0.590964  1
  La  La4  1  0.497584  -0.000015  0.590963  1
  La  La5  1  0.002419  0.499969  0.409036  1
  La  La6  1  0.002416  -0.000015  0.090963  1
  La  La7  1  0.997584  0.000015  0.909037  1
  Si  Si8  1  0.420885  0.413716  0.293295  1
  Si  Si9  1  0.079115  0.413716  0.793295  1
  Si  Si10  1  0.420885  0.913715  0.206705  1
  Si  Si11  1  0.579115  0.086285  0.793295  1
  Si  Si12  1  0.920885  0.586284  0.206705  1
  Si  Si13  1  0.579115  0.586284  0.706705  1
  Si  Si14  1  0.920885  0.086285  0.293295  1
  Si  Si15  1  0.079115  0.913715  0.706705  1
  As  As16  1  0.753334  0.747278  0.999702  1
  As  As17  1  0.523545  0.539595  0.211453  1
  As  As18  1  0.023545  0.460405  0.288547  1
  As  As19  1  0.523545  0.039595  0.288547  1
  As  As20  1  0.994984  0.004427  0.623686  1
  As  As21  1  0.994984  0.504426  0.876314  1
  As  As22  1  0.746666  0.747278  0.499702  1
  As  As23  1  0.246666  0.752721  0.499702  1
  As  As24  1  0.976455  0.539595  0.711453  1
  As  As25  1  0.005016  0.495574  0.123686  1
  As  As26  1  0.246666  0.252722  0.000298  1
  As  As27  1  0.494984  0.495574  0.623686  1
  As  As28  1  0.505016  0.004427  0.123686  1
  As  As29  1  0.023545  0.960405  0.211453  1
  As  As30  1  0.476455  0.460405  0.788547  1
  As  As31  1  0.253334  0.252722  0.500298  1
  As  As32  1  0.005016  0.995573  0.376314  1
  As  As33  1  0.505016  0.504426  0.376314  1
  As  As34  1  0.976455  0.039595  0.788547  1
  As  As35  1  0.476455  0.960405  0.711453  1
  As  As36  1  0.494984  0.995573  0.876314  1
  As  As37  1  0.746666  0.247279  0.000298  1
  As  As38  1  0.753334  0.247279  0.500298  1
  As  As39  1  0.253334  0.752721  0.999702  1
