# generated using pymatgen
data_Ce(PPt2)2
_symmetry_space_group_name_H-M   'P 1'
_cell_length_a   4.19973351
_cell_length_b   7.40679097
_cell_length_c   15.56579069
_cell_angle_alpha   90.01553177
_cell_angle_beta   90.00006677
_cell_angle_gamma   89.99978461
_symmetry_Int_Tables_number   1
_chemical_formula_structural   Ce(PPt2)2
_chemical_formula_sum   'Ce4 P8 Pt16'
_cell_volume   484.19800114
_cell_formula_units_Z   4
loop_
 _symmetry_equiv_pos_site_id
 _symmetry_equiv_pos_as_xyz
  1  'x, y, z'
loop_
 _atom_site_type_symbol
 _atom_site_label
 _atom_site_symmetry_multiplicity
 _atom_site_fract_x
 _atom_site_fract_y
 _atom_site_fract_z
 _atom_site_occupancy
  Ce  Ce0  1  0.750000  0.853110  0.681720  1
  Ce  Ce1  1  0.249999  0.146901  0.318227  1
  Ce  Ce2  1  0.749999  0.353070  0.818205  1
  Ce  Ce3  1  0.249999  0.646858  0.181789  1
  P  P4  1  0.749999  0.310135  0.191410  1
  P  P5  1  0.750000  0.786452  0.056412  1
  P  P6  1  0.250000  0.213523  0.943711  1
  P  P7  1  0.250001  0.189958  0.691462  1
  P  P8  1  0.749999  0.809856  0.308483  1
  P  P9  1  0.749999  0.286528  0.443725  1
  P  P10  1  0.250001  0.713513  0.556340  1
  P  P11  1  0.250001  0.690052  0.808536  1
  Pt  Pt12  1  0.749998  0.980182  0.182168  1
  Pt  Pt13  1  0.749998  0.480249  0.317853  1
  Pt  Pt14  1  0.249999  0.372777  0.497440  1
  Pt  Pt15  1  0.250000  0.737839  0.376387  1
  Pt  Pt16  1  0.249998  0.528061  0.941838  1
  Pt  Pt17  1  0.249999  0.237892  0.123581  1
  Pt  Pt18  1  0.250001  0.519821  0.682110  1
  Pt  Pt19  1  0.249999  0.028086  0.558122  1
  Pt  Pt20  1  0.750000  0.762136  0.876425  1
  Pt  Pt21  1  0.750001  0.262131  0.623572  1
  Pt  Pt22  1  0.750004  0.971849  0.441836  1
  Pt  Pt23  1  0.750000  0.127253  0.997390  1
  Pt  Pt24  1  0.250001  0.872743  0.002685  1
  Pt  Pt25  1  0.250000  0.019777  0.817820  1
  Pt  Pt26  1  0.750000  0.627255  0.502575  1
  Pt  Pt27  1  0.750003  0.471995  0.058179  1
