# generated using pymatgen
data_YbMoClO4
_symmetry_space_group_name_H-M   'P 1'
_cell_length_a   6.45102506
_cell_length_b   6.45102533
_cell_length_c   6.78995942
_cell_angle_alpha   77.50018001
_cell_angle_beta   77.50017933
_cell_angle_gamma   69.33787246
_symmetry_Int_Tables_number   1
_chemical_formula_structural   YbMoClO4
_chemical_formula_sum   'Yb2 Mo2 Cl2 O8'
_cell_volume   255.07424905
_cell_formula_units_Z   2
loop_
 _symmetry_equiv_pos_site_id
 _symmetry_equiv_pos_as_xyz
  1  'x, y, z'
loop_
 _atom_site_type_symbol
 _atom_site_label
 _atom_site_symmetry_multiplicity
 _atom_site_fract_x
 _atom_site_fract_y
 _atom_site_fract_z
 _atom_site_occupancy
  Yb  Yb0  1  0.232575  0.232575  0.889157  1
  Yb  Yb1  1  0.767425  0.767425  0.110843  1
  Mo  Mo2  1  0.363760  0.363760  0.268032  1
  Mo  Mo3  1  0.636240  0.636240  0.731968  1
  Cl  Cl4  1  0.992203  0.992203  0.759550  1
  Cl  Cl5  1  0.007797  0.007797  0.240450  1
  O  O6  1  0.491901  0.113526  0.154821  1
  O  O7  1  0.460002  0.460002  0.793390  1
  O  O8  1  0.113526  0.491901  0.154821  1
  O  O9  1  0.539998  0.539998  0.206610  1
  O  O10  1  0.508099  0.886474  0.845179  1
  O  O11  1  0.886474  0.508099  0.845179  1
  O  O12  1  0.300240  0.300240  0.539982  1
  O  O13  1  0.699760  0.699760  0.460018  1
