# generated using pymatgen
data_CoH16C4(NCl2)2
_symmetry_space_group_name_H-M   'P 1'
_cell_length_a   8.57081124
_cell_length_b   11.52592363
_cell_length_c   13.62148060
_cell_angle_alpha   90.00000000
_cell_angle_beta   90.14403899
_cell_angle_gamma   90.00000000
_symmetry_Int_Tables_number   1
_chemical_formula_structural   CoH16C4(NCl2)2
_chemical_formula_sum   'Co4 H64 C16 N8 Cl16'
_cell_volume   1345.61435565
_cell_formula_units_Z   4
loop_
 _symmetry_equiv_pos_site_id
 _symmetry_equiv_pos_as_xyz
  1  'x, y, z'
loop_
 _atom_site_type_symbol
 _atom_site_label
 _atom_site_symmetry_multiplicity
 _atom_site_fract_x
 _atom_site_fract_y
 _atom_site_fract_z
 _atom_site_occupancy
  Co  Co0  1  0.673472  0.296437  0.579505  1
  Co  Co1  1  0.173472  0.203563  0.079505  1
  Co  Co2  1  0.326528  0.703563  0.420495  1
  Co  Co3  1  0.826528  0.796437  0.920495  1
  H  H4  1  0.157561  0.738707  0.158700  1
  H  H5  1  0.425434  0.718404  0.163898  1
  H  H6  1  0.284284  0.017006  0.446626  1
  H  H7  1  0.342439  0.238707  0.341300  1
  H  H8  1  0.913758  0.525769  0.425375  1
  H  H9  1  0.816139  0.927072  0.123070  1
  H  H10  1  0.526557  0.484680  0.238888  1
  H  H11  1  0.928649  0.843109  0.542399  1
  H  H12  1  0.686445  0.574866  0.198043  1
  H  H13  1  0.186445  0.925134  0.698043  1
  H  H14  1  0.784284  0.482994  0.946626  1
  H  H15  1  0.973443  0.984680  0.261112  1
  H  H16  1  0.145169  0.719950  0.035910  1
  H  H17  1  0.408493  0.890048  0.814981  1
  H  H18  1  0.039542  0.557343  0.115375  1
  H  H19  1  0.683861  0.427072  0.376930  1
  H  H20  1  0.571351  0.343109  0.957601  1
  H  H21  1  0.183861  0.072928  0.876930  1
  H  H22  1  0.707925  0.419487  0.203104  1
  H  H23  1  0.960458  0.442657  0.884625  1
  H  H24  1  0.117444  0.307125  0.440445  1
  H  H25  1  0.215716  0.517006  0.053374  1
  H  H26  1  0.217361  0.537764  0.183907  1
  H  H27  1  0.842439  0.261293  0.841300  1
  H  H28  1  0.150625  0.929134  0.874681  1
  H  H29  1  0.591507  0.109952  0.185019  1
  H  H30  1  0.574566  0.281596  0.836102  1
  H  H31  1  0.813555  0.074866  0.301957  1
  H  H32  1  0.715716  0.982994  0.553374  1
  H  H33  1  0.354831  0.219950  0.464090  1
  H  H34  1  0.586242  0.025769  0.074625  1
  H  H35  1  0.782639  0.462236  0.816093  1
  H  H36  1  0.056746  0.543860  0.690826  1
  H  H37  1  0.882556  0.692875  0.559555  1
  H  H38  1  0.026557  0.015320  0.738888  1
  H  H39  1  0.074566  0.218404  0.336102  1
  H  H40  1  0.071351  0.156891  0.457601  1
  H  H41  1  0.313555  0.425134  0.801957  1
  H  H42  1  0.717361  0.962236  0.683907  1
  H  H43  1  0.792075  0.919487  0.296896  1
  H  H44  1  0.282639  0.037764  0.316093  1
  H  H45  1  0.443254  0.043860  0.809174  1
  H  H46  1  0.556746  0.956140  0.190826  1
  H  H47  1  0.382556  0.807125  0.059555  1
  H  H48  1  0.086242  0.474231  0.574625  1
  H  H49  1  0.428649  0.656891  0.042399  1
  H  H50  1  0.925434  0.781596  0.663898  1
  H  H51  1  0.617444  0.192875  0.940445  1
  H  H52  1  0.413758  0.974231  0.925375  1
  H  H53  1  0.316139  0.572928  0.623070  1
  H  H54  1  0.091507  0.390048  0.685019  1
  H  H55  1  0.943254  0.456140  0.309174  1
  H  H56  1  0.645169  0.780050  0.535910  1
  H  H57  1  0.292075  0.580513  0.796896  1
  H  H58  1  0.854831  0.280050  0.964090  1
  H  H59  1  0.207926  0.080513  0.703104  1
  H  H60  1  0.650625  0.570866  0.374681  1
  H  H61  1  0.473443  0.515320  0.761112  1
  H  H62  1  0.657561  0.761293  0.658700  1
  H  H63  1  0.908493  0.609952  0.314981  1
  H  H64  1  0.349375  0.429134  0.625319  1
  H  H65  1  0.539542  0.942657  0.615375  1
  H  H66  1  0.849375  0.070866  0.125319  1
  H  H67  1  0.460458  0.057343  0.384625  1
  C  C68  1  0.127900  0.220043  0.409186  1
  C  C69  1  0.333437  0.067022  0.385650  1
  C  C70  1  0.833437  0.432978  0.885650  1
  C  C71  1  0.627900  0.279957  0.909186  1
  C  C72  1  0.346749  0.504577  0.762813  1
  C  C73  1  0.872100  0.779957  0.590814  1
  C  C74  1  0.381129  0.974462  0.847770  1
  C  C75  1  0.153251  0.004577  0.737187  1
  C  C76  1  0.846749  0.995423  0.262813  1
  C  C77  1  0.166563  0.567022  0.114350  1
  C  C78  1  0.653251  0.495423  0.237187  1
  C  C79  1  0.372100  0.720043  0.090814  1
  C  C80  1  0.881129  0.525538  0.347770  1
  C  C81  1  0.666563  0.932978  0.614350  1
  C  C82  1  0.618871  0.025538  0.152230  1
  C  C83  1  0.118871  0.474462  0.652230  1
  N  N84  1  0.702520  0.807645  0.599316  1
  N  N85  1  0.289544  0.495995  0.659973  1
  N  N86  1  0.710456  0.504005  0.340027  1
  N  N87  1  0.202520  0.692355  0.099316  1
  N  N88  1  0.210456  0.995995  0.840027  1
  N  N89  1  0.797480  0.307645  0.900684  1
  N  N90  1  0.297480  0.192355  0.400684  1
  N  N91  1  0.789544  0.004005  0.159973  1
  Cl  Cl92  1  0.197134  0.259342  0.920282  1
  Cl  Cl93  1  0.816325  0.990943  0.908937  1
  Cl  Cl94  1  0.316325  0.509057  0.408937  1
  Cl  Cl95  1  0.639709  0.716326  0.826583  1
  Cl  Cl96  1  0.070134  0.734252  0.874656  1
  Cl  Cl97  1  0.697134  0.240658  0.420282  1
  Cl  Cl98  1  0.139709  0.783674  0.326583  1
  Cl  Cl99  1  0.802866  0.740658  0.079718  1
  Cl  Cl100  1  0.360291  0.283674  0.173417  1
  Cl  Cl101  1  0.570134  0.765748  0.374656  1
  Cl  Cl102  1  0.302866  0.759342  0.579718  1
  Cl  Cl103  1  0.429866  0.234252  0.625344  1
  Cl  Cl104  1  0.683675  0.490943  0.591063  1
  Cl  Cl105  1  0.929866  0.265748  0.125344  1
  Cl  Cl106  1  0.183675  0.009057  0.091063  1
  Cl  Cl107  1  0.860291  0.216326  0.673417  1
