# generated using pymatgen
data_Cu3(Mo3S4)4
_symmetry_space_group_name_H-M   'P 1'
_cell_length_a   6.52035475
_cell_length_b   12.98058150
_cell_length_c   8.84288620
_cell_angle_alpha   47.28983606
_cell_angle_beta   96.16945292
_cell_angle_gamma   93.19924139
_symmetry_Int_Tables_number   1
_chemical_formula_structural   Cu3(Mo3S4)4
_chemical_formula_sum   'Cu3 Mo12 S16'
_cell_volume   546.61780920
_cell_formula_units_Z   1
loop_
 _symmetry_equiv_pos_site_id
 _symmetry_equiv_pos_as_xyz
  1  'x, y, z'
loop_
 _atom_site_type_symbol
 _atom_site_label
 _atom_site_symmetry_multiplicity
 _atom_site_fract_x
 _atom_site_fract_y
 _atom_site_fract_z
 _atom_site_occupancy
  Cu  Cu0  1  0.073189  0.424478  0.038756  1
  Cu  Cu1  1  0.931970  0.076527  0.962504  1
  Cu  Cu2  1  0.985222  0.808491  0.057869  1
  Mo  Mo3  1  0.212943  0.932480  0.540486  1
  Mo  Mo4  1  0.218397  0.430354  0.544684  1
  Mo  Mo5  1  0.401910  0.663248  0.215620  1
  Mo  Mo6  1  0.458149  0.594031  0.594701  1
  Mo  Mo7  1  0.544202  0.907060  0.404901  1
  Mo  Mo8  1  0.594972  0.835793  0.782206  1
  Mo  Mo9  1  0.403571  0.163625  0.218566  1
  Mo  Mo10  1  0.449128  0.094653  0.593975  1
  Mo  Mo11  1  0.547120  0.402796  0.409563  1
  Mo  Mo12  1  0.597044  0.336386  0.781731  1
  Mo  Mo13  1  0.782286  0.567953  0.458400  1
  Mo  Mo14  1  0.783992  0.070848  0.452917  1
  S  S15  1  0.129996  0.669084  0.390768  1
  S  S16  1  0.272167  0.879521  0.860837  1
  S  S17  1  0.128369  0.178217  0.373345  1
  S  S18  1  0.274640  0.381930  0.863841  1
  S  S19  1  0.210650  0.496012  0.207934  1
  S  S20  1  0.380779  0.707520  0.721932  1
  S  S21  1  0.202958  0.005665  0.202128  1
  S  S22  1  0.382100  0.205993  0.723568  1
  S  S23  1  0.614296  0.793605  0.276181  1
  S  S24  1  0.797074  0.008827  0.787043  1
  S  S25  1  0.616067  0.292826  0.278833  1
  S  S26  1  0.796201  0.493931  0.799382  1
  S  S27  1  0.719426  0.619467  0.135178  1
  S  S28  1  0.865121  0.828933  0.619988  1
  S  S29  1  0.726473  0.118940  0.135190  1
  S  S30  1  0.872589  0.322308  0.624972  1
