# generated using pymatgen
data_HgS4(NCl)3
_symmetry_space_group_name_H-M   'P 1'
_cell_length_a   6.37405471
_cell_length_b   10.20882209
_cell_length_c   17.72675543
_cell_angle_alpha   90.00000000
_cell_angle_beta   90.00000000
_cell_angle_gamma   110.00582867
_symmetry_Int_Tables_number   1
_chemical_formula_structural   HgS4(NCl)3
_chemical_formula_sum   'Hg4 S16 N12 Cl12'
_cell_volume   1083.90297563
_cell_formula_units_Z   4
loop_
 _symmetry_equiv_pos_site_id
 _symmetry_equiv_pos_as_xyz
  1  'x, y, z'
loop_
 _atom_site_type_symbol
 _atom_site_label
 _atom_site_symmetry_multiplicity
 _atom_site_fract_x
 _atom_site_fract_y
 _atom_site_fract_z
 _atom_site_occupancy
  Hg  Hg0  1  0.233242  0.444050  0.427626  1
  Hg  Hg1  1  0.766758  0.555950  0.572374  1
  Hg  Hg2  1  0.733242  0.944050  0.072374  1
  Hg  Hg3  1  0.266758  0.055950  0.927626  1
  S  S4  1  0.201032  0.901884  0.452986  1
  S  S5  1  0.816437  0.472333  0.263777  1
  S  S6  1  0.298968  0.598116  0.952986  1
  S  S7  1  0.798968  0.098116  0.547014  1
  S  S8  1  0.394999  0.321042  0.177126  1
  S  S9  1  0.701032  0.401884  0.047014  1
  S  S10  1  0.605001  0.678958  0.822874  1
  S  S11  1  0.035183  0.535170  0.170014  1
  S  S12  1  0.183563  0.527667  0.736223  1
  S  S13  1  0.683563  0.027667  0.763777  1
  S  S14  1  0.535183  0.035170  0.329986  1
  S  S15  1  0.316437  0.972333  0.236223  1
  S  S16  1  0.964817  0.464830  0.829986  1
  S  S17  1  0.464817  0.964830  0.670014  1
  S  S18  1  0.105001  0.178958  0.677126  1
  S  S19  1  0.894999  0.821042  0.322874  1
  N  N20  1  0.085938  0.518651  0.907189  1
  N  N21  1  0.914062  0.481349  0.092811  1
  N  N22  1  0.974385  0.835287  0.408040  1
  N  N23  1  0.070503  0.890044  0.260938  1
  N  N24  1  0.570503  0.390044  0.239062  1
  N  N25  1  0.429497  0.609956  0.760938  1
  N  N26  1  0.414062  0.981349  0.407189  1
  N  N27  1  0.929497  0.109956  0.739062  1
  N  N28  1  0.525615  0.664713  0.908040  1
  N  N29  1  0.585938  0.018651  0.592811  1
  N  N30  1  0.025615  0.164713  0.591960  1
  N  N31  1  0.474385  0.335287  0.091960  1
  Cl  Cl32  1  0.710397  0.371932  0.677479  1
  Cl  Cl33  1  0.292712  0.567547  0.548373  1
  Cl  Cl34  1  0.594816  0.710508  0.123571  1
  Cl  Cl35  1  0.207288  0.932453  0.048373  1
  Cl  Cl36  1  0.289603  0.628068  0.322521  1
  Cl  Cl37  1  0.405184  0.289492  0.876429  1
  Cl  Cl38  1  0.792712  0.067547  0.951627  1
  Cl  Cl39  1  0.210397  0.871932  0.822521  1
  Cl  Cl40  1  0.707288  0.432453  0.451627  1
  Cl  Cl41  1  0.789603  0.128068  0.177479  1
  Cl  Cl42  1  0.905184  0.789492  0.623571  1
  Cl  Cl43  1  0.094816  0.210508  0.376429  1
