# generated using pymatgen
data_Zr2Cr2F3
_symmetry_space_group_name_H-M   'P 1'
_cell_length_a   5.84927524
_cell_length_b   8.63582043
_cell_length_c   9.00023770
_cell_angle_alpha   58.96264777
_cell_angle_beta   47.12334911
_cell_angle_gamma   49.79538518
_symmetry_Int_Tables_number   1
_chemical_formula_structural   Zr2Cr2F3
_chemical_formula_sum   'Zr4 Cr4 F6'
_cell_volume   252.07144301
_cell_formula_units_Z   2
loop_
 _symmetry_equiv_pos_site_id
 _symmetry_equiv_pos_as_xyz
  1  'x, y, z'
loop_
 _atom_site_type_symbol
 _atom_site_label
 _atom_site_symmetry_multiplicity
 _atom_site_fract_x
 _atom_site_fract_y
 _atom_site_fract_z
 _atom_site_occupancy
  Zr  Zr0  1  0.304220  0.336280  0.163720  1
  Zr  Zr1  1  0.589680  0.814731  0.224428  1
  Zr  Zr2  1  0.667999  0.275572  0.685269  1
  Zr  Zr3  1  0.307608  0.713363  0.786637  1
  Cr  Cr4  1  0.106531  0.033583  0.967258  1
  Cr  Cr5  1  0.911199  0.485163  0.014837  1
  Cr  Cr6  1  0.867754  0.832766  0.667234  1
  Cr  Cr7  1  0.108213  0.532742  0.466417  1
  F  F8  1  0.149881  0.108234  0.391766  1
  F  F9  1  0.424479  0.301768  0.572849  1
  F  F10  1  0.173712  0.927151  0.198232  1
  F  F11  1  0.128525  0.078274  0.710428  1
  F  F12  1  0.705929  0.789572  0.421726  1
  F  F13  1  0.554271  0.526800  0.973200  1
