# generated using pymatgen
data_SrAlSi5N7O2
_symmetry_space_group_name_H-M   'P 1'
_cell_length_a   6.60251746
_cell_length_b   12.02637480
_cell_length_c   9.69953399
_cell_angle_alpha   36.24251502
_cell_angle_beta   56.90462881
_cell_angle_gamma   63.87132355
_symmetry_Int_Tables_number   1
_chemical_formula_structural   SrAlSi5N7O2
_chemical_formula_sum   'Sr2 Al2 Si10 N14 O4'
_cell_volume   381.46423740
_cell_formula_units_Z   2
loop_
 _symmetry_equiv_pos_site_id
 _symmetry_equiv_pos_as_xyz
  1  'x, y, z'
loop_
 _atom_site_type_symbol
 _atom_site_label
 _atom_site_symmetry_multiplicity
 _atom_site_fract_x
 _atom_site_fract_y
 _atom_site_fract_z
 _atom_site_occupancy
  Sr  Sr0  1  0.897172  0.054847  0.897088  1
  Sr  Sr1  1  0.897172  0.445153  0.006781  1
  Al  Al2  1  0.458124  0.259357  0.053340  1
  Al  Al3  1  0.458124  0.240643  0.572055  1
  Si  Si4  1  0.332066  0.603764  0.862563  1
  Si  Si5  1  0.034106  0.206410  0.423386  1
  Si  Si6  1  0.332066  0.896236  0.070091  1
  Si  Si7  1  0.034106  0.293590  0.836207  1
  Si  Si8  1  0.972399  0.690883  0.384356  1
  Si  Si9  1  0.460454  0.557617  0.168004  1
  Si  Si10  1  0.635153  0.893804  0.660625  1
  Si  Si11  1  0.972399  0.809117  0.766122  1
  Si  Si12  1  0.460454  0.942383  0.283238  1
  Si  Si13  1  0.635153  0.606196  0.448234  1
  N  N14  1  0.116369  0.150443  0.280522  1
  N  N15  1  0.116369  0.349557  0.581407  1
  N  N16  1  0.168347  0.551994  0.341318  1
  N  N17  1  0.439319  -0.010390  0.773320  1
  N  N18  1  0.504080  0.822545  0.226566  1
  N  N19  1  0.168347  0.948006  0.445306  1
  N  N20  1  0.439319  0.510390  0.752540  1
  N  N21  1  0.709496  0.499889  0.358080  1
  N  N22  1  0.765041  0.301313  0.498049  1
  N  N23  1  0.504080  0.677455  0.871656  1
  N  N24  1  0.709496  0.000111  0.357859  1
  N  N25  1  0.765041  0.198687  0.100676  1
  N  N26  1  0.713836  0.862771  0.378277  1
  N  N27  1  0.713836  0.637229  0.103818  1
  O  O28  1  0.259782  0.372549  0.183150  1
  O  O29  1  0.259782  0.127451  0.928249  1
  O  O30  1  0.003156  0.520761  0.672797  1
  O  O31  1  0.003156  0.979239  0.714319  1
