# generated using pymatgen
data_Mo(HO2)2
_symmetry_space_group_name_H-M   'P 1'
_cell_length_a   7.84978810
_cell_length_b   3.72964978
_cell_length_c   6.74667264
_cell_angle_alpha   109.29383273
_cell_angle_beta   114.11295463
_cell_angle_gamma   92.15435961
_symmetry_Int_Tables_number   1
_chemical_formula_structural   Mo(HO2)2
_chemical_formula_sum   'Mo2 H4 O8'
_cell_volume   166.71180410
_cell_formula_units_Z   2
loop_
 _symmetry_equiv_pos_site_id
 _symmetry_equiv_pos_as_xyz
  1  'x, y, z'
loop_
 _atom_site_type_symbol
 _atom_site_label
 _atom_site_symmetry_multiplicity
 _atom_site_fract_x
 _atom_site_fract_y
 _atom_site_fract_z
 _atom_site_occupancy
  Mo  Mo0  1  0.796393  0.204364  0.952858  1
  Mo  Mo1  1  0.203607  0.795636  0.047142  1
  H  H2  1  0.671450  0.984824  0.453232  1
  H  H3  1  0.839922  0.764981  0.508194  1
  H  H4  1  0.160078  0.235019  0.491806  1
  H  H5  1  0.328550  0.015176  0.546768  1
  O  O6  1  0.551169  0.101791  0.793907  1
  O  O7  1  0.448831  0.898209  0.206093  1
  O  O8  1  0.126078  0.297130  0.061107  1
  O  O9  1  0.873922  0.702870  0.938893  1
  O  O10  1  0.827892  0.375628  0.239161  1
  O  O11  1  0.172108  0.624372  0.760839  1
  O  O12  1  0.792600  0.987070  0.581800  1
  O  O13  1  0.207400  0.012930  0.418200  1
