# generated using pymatgen
data_FeBiO3
_symmetry_space_group_name_H-M   'P 1'
_cell_length_a   5.61006342
_cell_length_b   5.60603205
_cell_length_c   5.60395096
_cell_angle_alpha   59.42209467
_cell_angle_beta   59.54915089
_cell_angle_gamma   59.53081450
_symmetry_Int_Tables_number   1
_chemical_formula_structural   FeBiO3
_chemical_formula_sum   'Fe2 Bi2 O6'
_cell_volume   123.20873139
_cell_formula_units_Z   2
loop_
 _symmetry_equiv_pos_site_id
 _symmetry_equiv_pos_as_xyz
  1  'x, y, z'
loop_
 _atom_site_type_symbol
 _atom_site_label
 _atom_site_symmetry_multiplicity
 _atom_site_fract_x
 _atom_site_fract_y
 _atom_site_fract_z
 _atom_site_occupancy
  O  O0  1  0.012895  0.476343  0.611655  1
  O  O1  1  0.967067  0.520318  0.108066  1
  Fe  Fe2  1  0.298313  0.297449  0.297604  1
  Bi  Bi3  1  0.074730  0.072205  0.074830  1
  O  O4  1  0.612602  0.014737  0.476372  1
  O  O5  1  0.474585  0.612072  0.016781  1
  O  O6  1  0.519937  0.108170  0.968969  1
  O  O7  1  0.107605  0.969691  0.518147  1
  Bi  Bi8  1  0.573915  0.570227  0.569534  1
  Fe  Fe9  1  0.791972  0.792408  0.791661  1
