# generated using pymatgen
data_BiSeCl
_symmetry_space_group_name_H-M   'P 1'
_cell_length_a   4.19157894
_cell_length_b   9.33547283
_cell_length_c   9.36168313
_cell_angle_alpha   90.00000000
_cell_angle_beta   90.00000000
_cell_angle_gamma   90.00000000
_symmetry_Int_Tables_number   1
_chemical_formula_structural   BiSeCl
_chemical_formula_sum   'Bi4 Se4 Cl4'
_cell_volume   366.32613696
_cell_formula_units_Z   4
loop_
 _symmetry_equiv_pos_site_id
 _symmetry_equiv_pos_as_xyz
  1  'x, y, z'
loop_
 _atom_site_type_symbol
 _atom_site_label
 _atom_site_symmetry_multiplicity
 _atom_site_fract_x
 _atom_site_fract_y
 _atom_site_fract_z
 _atom_site_occupancy
  Bi  Bi0  1  0.250000  0.170857  0.079108  1
  Bi  Bi1  1  0.750000  0.329143  0.579108  1
  Bi  Bi2  1  0.750000  0.829143  0.920892  1
  Bi  Bi3  1  0.250000  0.670857  0.420892  1
  Se  Se4  1  0.250000  0.519181  0.672983  1
  Se  Se5  1  0.250000  0.019181  0.827017  1
  Se  Se6  1  0.750000  0.480819  0.327017  1
  Se  Se7  1  0.750000  0.980819  0.172983  1
  Cl  Cl8  1  0.750000  0.329591  0.931494  1
  Cl  Cl9  1  0.750000  0.829591  0.568506  1
  Cl  Cl10  1  0.250000  0.670409  0.068506  1
  Cl  Cl11  1  0.250000  0.170409  0.431494  1
