# generated using pymatgen
data_Yb16S29
_symmetry_space_group_name_H-M   'P 1'
_cell_length_a   15.77308923
_cell_length_b   11.14015064
_cell_length_c   11.64166194
_cell_angle_alpha   61.62632584
_cell_angle_beta   49.82202786
_cell_angle_gamma   44.94825021
_symmetry_Int_Tables_number   1
_chemical_formula_structural   Yb16S29
_chemical_formula_sum   'Yb16 S29'
_cell_volume   1103.50780775
_cell_formula_units_Z   1
loop_
 _symmetry_equiv_pos_site_id
 _symmetry_equiv_pos_as_xyz
  1  'x, y, z'
loop_
 _atom_site_type_symbol
 _atom_site_label
 _atom_site_symmetry_multiplicity
 _atom_site_fract_x
 _atom_site_fract_y
 _atom_site_fract_z
 _atom_site_occupancy
  Yb  Yb0  1  0.046892  0.001009  0.659509  1
  Yb  Yb1  1  0.209873  0.257836  0.317648  1
  Yb  Yb2  1  0.297086  -0.001834  0.662575  1
  Yb  Yb3  1  0.044498  0.495684  0.675123  1
  Yb  Yb4  1  0.453171  0.248825  0.337852  1
  Yb  Yb5  1  0.206300  0.754686  0.327229  1
  Yb  Yb6  1  0.548637  -0.005687  0.667494  1
  Yb  Yb7  1  0.303714  0.496007  0.650780  1
  Yb  Yb8  1  0.699783  0.251474  0.346475  1
  Yb  Yb9  1  0.449692  0.755805  0.336274  1
  Yb  Yb10  1  0.800324  -0.007080  0.666193  1
  Yb  Yb11  1  0.551389  0.500164  0.652654  1
  Yb  Yb12  1  0.953434  0.256305  0.334461  1
  Yb  Yb13  1  0.698693  0.756286  0.343300  1
  Yb  Yb14  1  0.795263  0.494644  0.673046  1
  Yb  Yb15  1  0.948593  0.754343  0.349988  1
  S  S16  1  0.942934  0.111909  0.018876  1
  S  S17  1  0.029876  0.222519  -0.052112  1
  S  S18  1  0.061139  0.500983  0.961775  1
  S  S19  1  0.193883  0.008867  0.347343  1
  S  S20  1  0.184330  0.301112  0.047100  1
  S  S21  1  0.974001  0.726509  0.030806  1
  S  S22  1  0.472985  0.980588  -0.014012  1
  S  S23  1  0.062063  0.249897  0.631141  1
  S  S24  1  0.446325  0.003940  0.345611  1
  S  S25  1  0.475454  0.277315  0.043582  1
  S  S26  1  0.191816  0.502322  0.361144  1
  S  S27  1  0.263583  0.698621  0.040892  1
  S  S28  1  0.792833  0.903002  0.008639  1
  S  S29  1  0.303651  0.244679  0.653410  1
  S  S30  1  0.454625  0.495126  0.988348  1
  S  S31  1  0.063728  0.747080  0.635335  1
  S  S32  1  0.698076  0.002128  0.351345  1
  S  S33  1  0.811152  0.230876  0.951089  1
  S  S34  1  0.455292  0.499292  0.334112  1
  S  S35  1  0.507065  0.762781  0.022303  1
  S  S36  1  0.550100  0.247320  0.660777  1
  S  S37  1  0.297820  0.748475  0.658854  1
  S  S38  1  0.948323  0.003576  0.348411  1
  S  S39  1  0.700569  0.505481  0.337969  1
  S  S40  1  0.770790  0.780000  -0.038458  1
  S  S41  1  0.801532  0.249301  0.653382  1
  S  S42  1  0.550631  0.748202  0.657354  1
  S  S43  1  0.941436  0.508044  0.358726  1
  S  S44  1  0.804005  0.742145  0.659057  1
