# generated using pymatgen
data_MoPN(Cl3O)2
_symmetry_space_group_name_H-M   'P 1'
_cell_length_a   8.40906344
_cell_length_b   11.36503521
_cell_length_c   12.69187359
_cell_angle_alpha   89.94669464
_cell_angle_beta   108.99989650
_cell_angle_gamma   90.09692087
_symmetry_Int_Tables_number   1
_chemical_formula_structural   MoPN(Cl3O)2
_chemical_formula_sum   'Mo4 P4 N4 Cl24 O8'
_cell_volume   1146.86904685
_cell_formula_units_Z   4
loop_
 _symmetry_equiv_pos_site_id
 _symmetry_equiv_pos_as_xyz
  1  'x, y, z'
loop_
 _atom_site_type_symbol
 _atom_site_label
 _atom_site_symmetry_multiplicity
 _atom_site_fract_x
 _atom_site_fract_y
 _atom_site_fract_z
 _atom_site_occupancy
  Mo  Mo0  1  0.544193  0.383744  0.622023  1
  Mo  Mo1  1  0.955617  0.883357  0.877849  1
  Mo  Mo2  1  0.459792  0.618453  0.379785  1
  Mo  Mo3  1  0.046328  0.115877  0.123106  1
  P  P4  1  0.857292  0.241013  0.524565  1
  P  P5  1  0.357612  0.257882  0.026312  1
  P  P6  1  0.140605  0.757949  0.474181  1
  P  P7  1  0.642510  0.742783  0.975053  1
  N  N8  1  0.872635  0.069835  0.165433  1
  N  N9  1  0.368796  0.428655  0.662276  1
  N  N10  1  0.634468  0.573666  0.338988  1
  N  N11  1  0.129029  0.928661  0.835868  1
  Cl  Cl12  1  0.748179  0.902361  0.703729  1
  Cl  Cl13  1  0.021194  0.682350  0.880948  1
  Cl  Cl14  1  0.010845  0.692864  0.566738  1
  Cl  Cl15  1  0.508934  0.805099  0.065854  1
  Cl  Cl16  1  0.119707  0.905061  0.083941  1
  Cl  Cl17  1  0.619665  0.596094  0.585973  1
  Cl  Cl18  1  0.251921  0.101222  0.297985  1
  Cl  Cl19  1  0.723483  0.110526  0.434708  1
  Cl  Cl20  1  0.988335  0.308672  0.434187  1
  Cl  Cl21  1  0.223644  0.388600  0.936794  1
  Cl  Cl22  1  0.275154  0.889172  0.562289  1
  Cl  Cl23  1  0.526138  0.819390  0.384289  1
  Cl  Cl24  1  0.256961  0.598583  0.203704  1
  Cl  Cl25  1  0.879986  0.093232  0.917187  1
  Cl  Cl26  1  0.486670  0.192537  0.933630  1
  Cl  Cl27  1  0.475290  0.669081  0.843421  1
  Cl  Cl28  1  0.525684  0.332103  0.157695  1
  Cl  Cl29  1  0.972594  0.832149  0.343186  1
  Cl  Cl30  1  0.025679  0.167975  0.655877  1
  Cl  Cl31  1  0.780341  0.613188  0.063186  1
  Cl  Cl32  1  0.748636  0.400446  0.797595  1
  Cl  Cl33  1  0.980371  0.316611  0.117997  1
  Cl  Cl34  1  0.382228  0.407694  0.416301  1
  Cl  Cl35  1  0.482884  0.182653  0.618067  1
  O  O36  1  0.256913  0.164509  0.057420  1
  O  O37  1  0.754708  0.332707  0.555637  1
  O  O38  1  0.242589  0.666102  0.442911  1
  O  O39  1  0.249747  0.456844  0.687194  1
  O  O40  1  0.247446  0.959521  0.810774  1
  O  O41  1  0.755198  0.040048  0.191122  1
  O  O42  1  0.752162  0.544774  0.313234  1
  O  O43  1  0.743124  0.836658  0.944913  1
