# generated using pymatgen
data_K2ThF6
_symmetry_space_group_name_H-M   'P 1'
_cell_length_a   8.67024808
_cell_length_b   12.84764169
_cell_length_c   7.42698339
_cell_angle_alpha   29.87407872
_cell_angle_beta   53.11780393
_cell_angle_gamma   58.63942404
_symmetry_Int_Tables_number   1
_chemical_formula_structural   K2ThF6
_chemical_formula_sum   'K4 Th2 F12'
_cell_volume   329.60975929
_cell_formula_units_Z   2
loop_
 _symmetry_equiv_pos_site_id
 _symmetry_equiv_pos_as_xyz
  1  'x, y, z'
loop_
 _atom_site_type_symbol
 _atom_site_label
 _atom_site_symmetry_multiplicity
 _atom_site_fract_x
 _atom_site_fract_y
 _atom_site_fract_z
 _atom_site_occupancy
  K  K0  1  0.000000  0.995671  0.006493  1
  K  K1  1  0.000000  0.652051  0.021924  1
  K  K2  1  0.500000  0.337662  0.993507  1
  K  K3  1  0.500000  0.681283  0.978076  1
  Th  Th4  1  0.000000  0.335236  0.997145  1
  Th  Th5  1  0.500000  0.998097  0.002855  1
  F  F6  1  0.114522  0.319335  0.227277  1
  F  F7  1  0.122686  0.620348  0.342002  1
  F  F8  1  0.385478  0.013998  0.772723  1
  F  F9  1  0.642224  0.307680  0.301070  1
  F  F10  1  0.357776  0.307680  0.775889  1
  F  F11  1  0.142224  0.025653  0.224111  1
  F  F12  1  0.622686  0.712986  0.203044  1
  F  F13  1  0.857776  0.025653  0.698930  1
  F  F14  1  0.377314  0.712986  0.657998  1
  F  F15  1  0.614522  0.013998  0.185283  1
  F  F16  1  0.885478  0.319335  0.814717  1
  F  F17  1  0.877314  0.620348  0.796956  1
