# generated using pymatgen
data_As2Pb14Cl4O17
_symmetry_space_group_name_H-M   'P 1'
_cell_length_a   11.50358155
_cell_length_b   12.57516674
_cell_length_c   13.19017092
_cell_angle_alpha   106.89021669
_cell_angle_beta   103.44890131
_cell_angle_gamma   115.26974426
_symmetry_Int_Tables_number   1
_chemical_formula_structural   As2Pb14Cl4O17
_chemical_formula_sum   'As4 Pb28 Cl8 O34'
_cell_volume   1504.33510269
_cell_formula_units_Z   2
loop_
 _symmetry_equiv_pos_site_id
 _symmetry_equiv_pos_as_xyz
  1  'x, y, z'
loop_
 _atom_site_type_symbol
 _atom_site_label
 _atom_site_symmetry_multiplicity
 _atom_site_fract_x
 _atom_site_fract_y
 _atom_site_fract_z
 _atom_site_occupancy
  As  As0  1  0.218236  0.540881  0.356255  1
  As  As1  1  0.781764  0.459119  0.643745  1
  As  As2  1  0.638019  0.815374  0.356255  1
  As  As3  1  0.361981  0.184626  0.643745  1
  Pb  Pb4  1  0.793309  0.717580  0.172821  1
  Pb  Pb5  1  0.346844  0.040270  0.835664  1
  Pb  Pb6  1  0.988820  0.795394  0.835664  1
  Pb  Pb7  1  0.859737  0.158836  0.610459  1
  Pb  Pb8  1  0.653156  0.959730  0.164336  1
  Pb  Pb9  1  0.402041  0.451234  0.156265  1
  Pb  Pb10  1  0.254224  0.705031  0.156265  1
  Pb  Pb11  1  0.483038  0.801553  0.830352  1
  Pb  Pb12  1  0.142996  0.703736  0.606638  1
  Pb  Pb13  1  0.120487  0.544759  0.827179  1
  Pb  Pb14  1  0.011180  0.204606  0.164336  1
  Pb  Pb15  1  0.152686  0.971200  0.169648  1
  Pb  Pb16  1  0.206691  0.282420  0.827179  1
  Pb  Pb17  1  0.498983  0.074457  0.397163  1
  Pb  Pb18  1  0.601819  0.677294  0.602837  1
  Pb  Pb19  1  0.501017  0.925543  0.602837  1
  Pb  Pb20  1  0.250722  0.451623  0.610459  1
  Pb  Pb21  1  0.140263  0.841164  0.389541  1
  Pb  Pb22  1  0.398181  0.322706  0.397163  1
  Pb  Pb23  1  0.745776  0.294969  0.843735  1
  Pb  Pb24  1  0.749278  0.548377  0.389541  1
  Pb  Pb25  1  0.516961  0.198447  0.169648  1
  Pb  Pb26  1  0.857004  0.296264  0.393362  1
  Pb  Pb27  1  0.963642  0.902901  0.606638  1
  Pb  Pb28  1  0.036358  0.097099  0.393362  1
  Pb  Pb29  1  0.879513  0.455241  0.172821  1
  Pb  Pb30  1  0.847314  0.028800  0.830352  1
  Pb  Pb31  1  0.597959  0.548766  0.843735  1
  Cl  Cl32  1  0.811511  0.873751  0.000207  1
  Cl  Cl33  1  0.311304  0.873544  0.999793  1
  Cl  Cl34  1  0.942997  0.634259  0.028964  1
  Cl  Cl35  1  0.414033  0.605295  0.971036  1
  Cl  Cl36  1  0.688696  0.126456  0.000207  1
  Cl  Cl37  1  0.188489  0.126249  0.999793  1
  Cl  Cl38  1  0.585967  0.394705  0.028964  1
  Cl  Cl39  1  0.057003  0.365741  0.971036  1
  O  O40  1  0.629332  0.115565  0.284786  1
  O  O41  1  0.303786  0.473454  0.296314  1
  O  O42  1  0.507472  0.177140  0.703686  1
  O  O43  1  0.947841  0.592645  0.681664  1
  O  O44  1  0.767765  0.378890  0.285819  1
  O  O45  1  0.696214  0.526546  0.703686  1
  O  O46  1  0.116976  0.866976  0.733952  1
  O  O47  1  0.605745  0.855745  0.711490  1
  O  O48  1  0.106360  0.356360  0.712719  1
  O  O49  1  0.688382  0.369013  0.495475  1
  O  O50  1  0.394255  0.144255  0.288510  1
  O  O51  1  0.155454  0.169221  0.284786  1
  O  O52  1  0.981946  0.093072  0.714181  1
  O  O53  1  0.766177  0.910981  0.318336  1
  O  O54  1  0.018054  0.906928  0.285819  1
  O  O55  1  0.893640  0.643640  0.287281  1
  O  O56  1  0.262950  0.882775  0.275001  1
  O  O57  1  0.487950  0.607775  0.724999  1
  O  O58  1  0.512050  0.392225  0.275001  1
  O  O59  1  0.820480  0.366427  0.706582  1
  O  O60  1  0.311618  0.630987  0.504525  1
  O  O61  1  0.844546  0.830779  0.715214  1
  O  O62  1  0.052159  0.407355  0.318336  1
  O  O63  1  0.232235  0.621110  0.714181  1
  O  O64  1  0.307093  0.126461  0.495475  1
  O  O65  1  0.233823  0.089019  0.681664  1
  O  O66  1  0.613898  0.659846  0.293418  1
  O  O67  1  0.692907  0.873539  0.504525  1
  O  O68  1  0.370668  0.884435  0.715214  1
  O  O69  1  0.179520  0.633573  0.293418  1
  O  O70  1  0.386102  0.340154  0.706582  1
  O  O71  1  0.883024  0.133024  0.266048  1
  O  O72  1  0.737050  0.117225  0.724999  1
  O  O73  1  0.492528  0.822860  0.296314  1
