# generated using pymatgen
data_Ir3(CO)8
_symmetry_space_group_name_H-M   'P 1'
_cell_length_a   9.76250190
_cell_length_b   9.80022978
_cell_length_c   15.80513331
_cell_angle_alpha   97.84773531
_cell_angle_beta   100.43145172
_cell_angle_gamma   119.22035659
_symmetry_Int_Tables_number   1
_chemical_formula_structural   Ir3(CO)8
_chemical_formula_sum   'Ir12 C32 O32'
_cell_volume   1252.55828509
_cell_formula_units_Z   4
loop_
 _symmetry_equiv_pos_site_id
 _symmetry_equiv_pos_as_xyz
  1  'x, y, z'
loop_
 _atom_site_type_symbol
 _atom_site_label
 _atom_site_symmetry_multiplicity
 _atom_site_fract_x
 _atom_site_fract_y
 _atom_site_fract_z
 _atom_site_occupancy
  Ir  Ir0  1  0.586798  0.833992  0.749195  1
  Ir  Ir1  1  0.482525  0.462686  0.213581  1
  Ir  Ir2  1  0.749402  0.268199  0.286028  1
  Ir  Ir3  1  0.582113  0.274722  0.120770  1
  Ir  Ir4  1  0.413700  0.163300  0.249951  1
  Ir  Ir5  1  0.651563  0.458212  0.379522  1
  Ir  Ir6  1  0.344644  0.540545  0.620679  1
  Ir  Ir7  1  0.251138  0.732329  0.715000  1
  Ir  Ir8  1  0.421511  0.726195  0.879121  1
  Ir  Ir9  1  0.819098  0.568036  0.251026  1
  Ir  Ir10  1  0.516699  0.534754  0.785236  1
  Ir  Ir11  1  0.179393  0.431625  0.749650  1
  C  C12  1  0.499330  0.336190  0.739015  1
  C  C13  1  0.716048  0.613275  0.874547  1
  C  C14  1  0.631464  0.365345  0.477818  1
  C  C15  1  0.001258  0.395802  0.795436  1
  C  C16  1  0.466668  0.931096  0.823463  1
  C  C17  1  0.096990  0.758146  0.761204  1
  C  C18  1  0.369369  0.633355  0.522518  1
  C  C19  1  0.608217  0.639943  0.676653  1
  C  C20  1  0.762114  0.156983  0.373900  1
  C  C21  1  0.902481  0.511150  0.372691  1
  C  C22  1  0.199691  0.034291  0.169682  1
  C  C23  1  0.499414  0.660587  0.259359  1
  C  C24  1  0.391580  0.358103  0.323807  1
  C  C25  1  0.236528  0.842634  0.626815  1
  C  C26  1  0.903804  0.243041  0.240114  1
  C  C27  1  0.898084  0.791295  0.294092  1
  C  C28  1  0.365686  0.029262  0.329649  1
  C  C29  1  0.730645  0.670531  0.448236  1
  C  C30  1  0.634103  0.965910  0.668233  1
  C  C31  1  0.096032  0.487896  0.626410  1
  C  C32  1  0.726896  0.281470  0.052775  1
  C  C33  1  0.282165  0.383644  0.124829  1
  C  C34  1  0.799925  0.963729  0.830478  1
  C  C35  1  0.535768  0.067999  0.175325  1
  C  C36  1  0.271481  0.330192  0.552092  1
  C  C37  1  0.998217  0.604763  0.206408  1
  C  C38  1  0.613694  0.845828  0.978209  1
  C  C39  1  0.098569  0.208587  0.706121  1
  C  C40  1  0.390185  0.154461  0.022186  1
  C  C41  1  0.358183  0.471175  0.872268  1
  C  C42  1  0.279001  0.719138  0.948340  1
  C  C43  1  0.638608  0.528316  0.127240  1
  O  O44  1  0.709681  0.642056  0.643368  1
  O  O45  1  0.942693  0.927380  0.317862  1
  O  O46  1  0.052166  0.072148  0.681346  1
  O  O47  1  0.966245  0.418587  0.571490  1
  O  O48  1  0.817054  0.291357  0.011748  1
  O  O49  1  0.609322  0.300554  0.534471  1
  O  O50  1  0.288063  0.354396  0.355597  1
  O  O51  1  0.226466  0.907583  0.572155  1
  O  O52  1  0.505536  0.067067  0.855567  1
  O  O53  1  0.929174  0.044175  0.881061  1
  O  O54  1  0.108675  0.627307  0.179561  1
  O  O55  1  0.495315  0.219154  0.708615  1
  O  O56  1  0.394516  0.696500  0.465520  1
  O  O57  1  0.163517  0.339037  0.069290  1
  O  O58  1  0.786725  0.803335  0.487849  1
  O  O59  1  0.662758  0.045912  0.618468  1
  O  O60  1  0.890765  0.374731  0.821696  1
  O  O61  1  0.774506  0.093507  0.428811  1
  O  O62  1  0.221583  0.200089  0.510827  1
  O  O63  1  0.499365  0.933347  0.142126  1
  O  O64  1  0.336355  0.949696  0.379462  1
  O  O65  1  0.341776  0.396963  0.927286  1
  O  O66  1  0.732857  0.925125  0.036379  1
  O  O67  1  0.268559  0.074164  0.965559  1
  O  O68  1  0.654106  0.603801  0.072871  1
  O  O69  1  0.031312  0.579614  0.428311  1
  O  O70  1  0.836583  0.659095  0.929045  1
  O  O71  1  0.188238  0.705723  0.989714  1
  O  O72  1  0.992075  0.221060  0.208936  1
  O  O73  1  0.069618  0.954490  0.119749  1
  O  O74  1  0.507139  0.779306  0.289966  1
  O  O75  1  0.007280  0.778342  0.791989  1
