# generated using pymatgen
data_Ba2CeC3O9F
_symmetry_space_group_name_H-M   'P 1'
_cell_length_a   5.16227356
_cell_length_b   6.70326329
_cell_length_c   13.30148590
_cell_angle_alpha   102.64784693
_cell_angle_beta   90.00000000
_cell_angle_gamma   90.00000000
_symmetry_Int_Tables_number   1
_chemical_formula_structural   Ba2CeC3O9F
_chemical_formula_sum   'Ba4 Ce2 C6 O18 F2'
_cell_volume   449.11649153
_cell_formula_units_Z   2
loop_
 _symmetry_equiv_pos_site_id
 _symmetry_equiv_pos_as_xyz
  1  'x, y, z'
loop_
 _atom_site_type_symbol
 _atom_site_label
 _atom_site_symmetry_multiplicity
 _atom_site_fract_x
 _atom_site_fract_y
 _atom_site_fract_z
 _atom_site_occupancy
  C  C0  1  0.250000  0.253948  0.425802  1
  C  C1  1  0.250000  0.331560  0.129008  1
  C  C2  1  0.750000  0.668440  0.870992  1
  C  C3  1  0.750000  0.746052  0.574198  1
  C  C4  1  0.250000  0.214388  0.727268  1
  C  C5  1  0.750000  0.785612  0.272732  1
  O  O6  1  0.534072  0.879137  0.262707  1
  O  O7  1  0.034072  0.120863  0.737293  1
  O  O8  1  0.965928  0.879137  0.262707  1
  O  O9  1  0.465928  0.120863  0.737293  1
  O  O10  1  0.030574  0.401049  0.104548  1
  O  O11  1  0.469426  0.401049  0.104548  1
  O  O12  1  0.530574  0.598951  0.895452  1
  O  O13  1  0.969426  0.598951  0.895452  1
  O  O14  1  0.750000  0.807802  0.815947  1
  O  O15  1  0.250000  0.192198  0.184053  1
  O  O16  1  0.750000  0.608696  0.297053  1
  O  O17  1  0.250000  0.391304  0.702947  1
  O  O18  1  0.750000  0.864022  0.509713  1
  O  O19  1  0.250000  0.135978  0.490287  1
  O  O20  1  0.968358  0.679627  0.603895  1
  O  O21  1  0.468358  0.320373  0.396105  1
  O  O22  1  0.031642  0.320373  0.396105  1
  O  O23  1  0.531642  0.679627  0.603895  1
  F  F24  1  0.250000  0.012614  0.925677  1
  F  F25  1  0.750000  0.987386  0.074323  1
  Ba  Ba26  1  0.250000  0.726909  0.416278  1
  Ba  Ba27  1  0.750000  0.214923  0.925283  1
  Ba  Ba28  1  0.750000  0.273091  0.583722  1
  Ba  Ba29  1  0.250000  0.785077  0.074717  1
  Ce  Ce30  1  0.250000  0.772441  0.760793  1
  Ce  Ce31  1  0.750000  0.227559  0.239207  1
