# generated using pymatgen
data_YbZr7Si7PO32
_symmetry_space_group_name_H-M   'P 1'
_cell_length_a   5.64581845
_cell_length_b   5.64581876
_cell_length_c   45.17511176
_cell_angle_alpha   106.58050723
_cell_angle_beta   106.58050821
_cell_angle_gamma   115.41471064
_symmetry_Int_Tables_number   1
_chemical_formula_structural   YbZr7Si7PO32
_chemical_formula_sum   'Yb2 Zr14 Si14 P2 O64'
_cell_volume   1099.53357289
_cell_formula_units_Z   2
loop_
 _symmetry_equiv_pos_site_id
 _symmetry_equiv_pos_as_xyz
  1  'x, y, z'
loop_
 _atom_site_type_symbol
 _atom_site_label
 _atom_site_symmetry_multiplicity
 _atom_site_fract_x
 _atom_site_fract_y
 _atom_site_fract_z
 _atom_site_occupancy
  Yb  Yb0  1  0.877424  0.127424  0.969356  1
  Yb  Yb1  1  0.872576  0.122576  0.843144  1
  Zr  Zr2  1  0.125000  0.875000  0.906250  1
  Zr  Zr3  1  0.125607  0.875607  0.781402  1
  Zr  Zr4  1  0.125280  0.875280  0.656320  1
  Zr  Zr5  1  0.124965  0.874965  0.531241  1
  Zr  Zr6  1  0.125000  0.875000  0.406250  1
  Zr  Zr7  1  0.125035  0.875035  0.281259  1
  Zr  Zr8  1  0.874369  0.124369  0.718592  1
  Zr  Zr9  1  0.124720  0.874720  0.156180  1
  Zr  Zr10  1  0.874985  0.124985  0.593746  1
  Zr  Zr11  1  0.124393  0.874393  0.031098  1
  Zr  Zr12  1  0.874971  0.124971  0.468743  1
  Zr  Zr13  1  0.875029  0.125029  0.343757  1
  Zr  Zr14  1  0.875015  0.125015  0.218754  1
  Zr  Zr15  1  0.875631  0.125631  0.093908  1
  Si  Si16  1  0.625000  0.375000  0.906250  1
  Si  Si17  1  0.375677  0.625677  0.718919  1
  Si  Si18  1  0.619972  0.369972  0.779993  1
  Si  Si19  1  0.374814  0.624814  0.593703  1
  Si  Si20  1  0.624556  0.374556  0.656139  1
  Si  Si21  1  0.374917  0.624917  0.468729  1
  Si  Si22  1  0.624837  0.374837  0.531209  1
  Si  Si23  1  0.375083  0.625083  0.343771  1
  Si  Si24  1  0.625000  0.375000  0.406250  1
  Si  Si25  1  0.375186  0.625186  0.218797  1
  Si  Si26  1  0.625163  0.375163  0.281291  1
  Si  Si27  1  0.374323  0.624323  0.093581  1
  Si  Si28  1  0.625444  0.375444  0.156361  1
  Si  Si29  1  0.630028  0.380028  0.032507  1
  P  P30  1  0.374169  0.624169  0.968542  1
  P  P31  1  0.375831  0.625831  0.843958  1
  O  O32  1  0.219331  0.651323  0.991442  1
  O  O33  1  0.347193  0.780159  0.945767  1
  O  O34  1  0.218945  0.285979  0.945767  1
  O  O35  1  0.219841  0.652807  0.866733  1
  O  O36  1  0.712204  0.780212  0.991442  1
  O  O37  1  0.348677  0.780669  0.821058  1
  O  O38  1  0.263505  0.191374  0.884049  1
  O  O39  1  0.219788  0.287796  0.821058  1
  O  O40  1  0.194515  0.628872  0.741652  1
  O  O41  1  0.808626  0.736495  0.928451  1
  O  O42  1  0.714021  0.781055  0.866733  1
  O  O43  1  0.618984  0.191115  0.928451  1
  O  O44  1  0.371217  0.803557  0.695861  1
  O  O45  1  0.256975  0.195368  0.757234  1
  O  O46  1  0.195667  0.263327  0.695861  1
  O  O47  1  0.194814  0.627711  0.616586  1
  O  O48  1  0.808885  0.381016  0.884049  1
  O  O49  1  0.809267  0.731389  0.802275  1
  O  O50  1  0.738704  0.804347  0.741652  1
  O  O51  1  0.608930  0.186808  0.802275  1
  O  O52  1  0.372217  0.804818  0.570908  1
  O  O53  1  0.262181  0.194895  0.633356  1
  O  O54  1  0.195050  0.262450  0.570908  1
  O  O55  1  0.194924  0.627700  0.491589  1
  O  O56  1  0.800896  0.362503  0.757234  1
  O  O57  1  0.804612  0.737049  0.678963  1
  O  O58  1  0.737877  0.804980  0.616586  1
  O  O59  1  0.627093  0.194656  0.678963  1
  O  O60  1  0.372288  0.804974  0.445912  1
  O  O61  1  0.262371  0.195020  0.508411  1
  O  O62  1  0.195007  0.262321  0.445912  1
  O  O63  1  0.195026  0.627712  0.366588  1
  O  O64  1  0.804671  0.371956  0.633356  1
  O  O65  1  0.805005  0.737809  0.554084  1
  O  O66  1  0.737790  0.805014  0.491589  1
  O  O67  1  0.627671  0.194867  0.554084  1
  O  O68  1  0.372300  0.805076  0.320911  1
  O  O69  1  0.262265  0.194996  0.383411  1
  O  O70  1  0.194986  0.262210  0.320911  1
  O  O71  1  0.195182  0.627783  0.241592  1
  O  O72  1  0.804917  0.372269  0.508411  1
  O  O73  1  0.805004  0.737735  0.429089  1
  O  O74  1  0.737679  0.804993  0.366588  1
  O  O75  1  0.627709  0.194978  0.429089  1
  O  O76  1  0.372289  0.805186  0.195914  1
  O  O77  1  0.262191  0.194995  0.258416  1
  O  O78  1  0.195020  0.262123  0.195914  1
  O  O79  1  0.196443  0.628783  0.116639  1
  O  O80  1  0.805022  0.372291  0.383411  1
  O  O81  1  0.804980  0.737629  0.304089  1
  O  O82  1  0.737550  0.804950  0.241592  1
  O  O83  1  0.627731  0.195083  0.304089  1
  O  O84  1  0.371128  0.805485  0.070848  1
  O  O85  1  0.262951  0.195388  0.133537  1
  O  O86  1  0.195653  0.261296  0.070848  1
  O  O87  1  0.805133  0.372329  0.258416  1
  O  O88  1  0.805105  0.737819  0.179144  1
  O  O89  1  0.736673  0.804333  0.116639  1
  O  O90  1  0.628044  0.195329  0.179144  1
  O  O91  1  0.268611  0.190733  0.010225  1
  O  O92  1  0.805344  0.372907  0.133537  1
  O  O93  1  0.804632  0.743025  0.055266  1
  O  O94  1  0.637497  0.199104  0.055266  1
  O  O95  1  0.813192  0.391070  0.010225  1
