# generated using pymatgen
data_As3Pb5ClO9
_symmetry_space_group_name_H-M   'P 1'
_cell_length_a   10.81108831
_cell_length_b   10.81108816
_cell_length_c   7.36676143
_cell_angle_alpha   90.00000000
_cell_angle_beta   90.00000000
_cell_angle_gamma   120.00000047
_symmetry_Int_Tables_number   1
_chemical_formula_structural   As3Pb5ClO9
_chemical_formula_sum   'As6 Pb10 Cl2 O18'
_cell_volume   745.66894957
_cell_formula_units_Z   2
loop_
 _symmetry_equiv_pos_site_id
 _symmetry_equiv_pos_as_xyz
  1  'x, y, z'
loop_
 _atom_site_type_symbol
 _atom_site_label
 _atom_site_symmetry_multiplicity
 _atom_site_fract_x
 _atom_site_fract_y
 _atom_site_fract_z
 _atom_site_occupancy
  As  As0  1  0.699283  0.646890  0.267654  1
  As  As1  1  0.353110  0.052393  0.267654  1
  As  As2  1  0.947607  0.300717  0.267654  1
  As  As3  1  0.300717  0.353110  0.767654  1
  As  As4  1  0.052393  0.699283  0.767654  1
  As  As5  1  0.646890  0.947607  0.767654  1
  Pb  Pb6  1  0.307450  0.373733  0.252912  1
  Pb  Pb7  1  0.933717  0.307450  0.752912  1
  Pb  Pb8  1  0.373733  0.066283  0.752912  1
  Pb  Pb9  1  0.626267  0.933717  0.252912  1
  Pb  Pb10  1  0.333333  0.666667  0.631867  1
  Pb  Pb11  1  0.066283  0.692550  0.252912  1
  Pb  Pb12  1  0.666667  0.333333  0.131867  1
  Pb  Pb13  1  0.692550  0.626267  0.752912  1
  Pb  Pb14  1  0.000000  0.000000  0.019501  1
  Pb  Pb15  1  0.000000  0.000000  0.519501  1
  Cl  Cl16  1  0.666667  0.333333  0.732136  1
  Cl  Cl17  1  0.333333  0.666667  0.232136  1
  O  O18  1  0.810383  0.839367  0.225100  1
  O  O19  1  0.839367  0.028984  0.725100  1
  O  O20  1  0.561499  0.929358  0.552053  1
  O  O21  1  0.632141  0.561499  0.052053  1
  O  O22  1  0.929358  0.367859  0.052053  1
  O  O23  1  0.176185  0.414902  0.794445  1
  O  O24  1  0.367859  0.438501  0.552053  1
  O  O25  1  0.761283  0.176185  0.294445  1
  O  O26  1  0.585098  0.761283  0.794445  1
  O  O27  1  0.028984  0.189617  0.225100  1
  O  O28  1  0.160633  0.971016  0.225100  1
  O  O29  1  0.238717  0.823815  0.794445  1
  O  O30  1  0.414902  0.238717  0.294445  1
  O  O31  1  0.438501  0.070642  0.052053  1
  O  O32  1  0.189617  0.160633  0.725100  1
  O  O33  1  0.070642  0.632141  0.552053  1
  O  O34  1  0.823815  0.585098  0.294445  1
  O  O35  1  0.971016  0.810383  0.725100  1
