# generated using pymatgen
data_Al(HO)3
_symmetry_space_group_name_H-M   'P 1'
_cell_length_a   8.85796941
_cell_length_b   5.15616430
_cell_length_c   9.55002812
_cell_angle_alpha   88.83811416
_cell_angle_beta   88.65294291
_cell_angle_gamma   90.46451582
_symmetry_Int_Tables_number   1
_chemical_formula_structural   Al(HO)3
_chemical_formula_sum   'Al8 H24 O24'
_cell_volume   435.95354786
_cell_formula_units_Z   8
loop_
 _symmetry_equiv_pos_site_id
 _symmetry_equiv_pos_as_xyz
  1  'x, y, z'
loop_
 _atom_site_type_symbol
 _atom_site_label
 _atom_site_symmetry_multiplicity
 _atom_site_fract_x
 _atom_site_fract_y
 _atom_site_fract_z
 _atom_site_occupancy
  Al  Al0  1  0.329645  0.988777  0.489281  1
  Al  Al1  1  0.665725  0.019552  0.505554  1
  Al  Al2  1  0.835220  0.524093  0.508845  1
  Al  Al3  1  0.166874  0.487773  0.491206  1
  Al  Al4  1  0.828818  0.970094  0.009438  1
  Al  Al5  1  0.162968  0.025034  0.989877  1
  Al  Al6  1  0.330459  0.526380  0.988558  1
  Al  Al7  1  0.662833  0.465381  0.007761  1
  H  H8  1  0.023708  0.826663  0.596589  1
  H  H9  1  0.988559  0.239508  0.342058  1
  H  H10  1  0.489911  0.736524  0.335497  1
  H  H11  1  0.470982  0.323795  0.601610  1
  H  H12  1  0.149798  0.153360  0.691463  1
  H  H13  1  0.861251  0.872356  0.315196  1
  H  H14  1  0.592487  0.432230  0.398081  1
  H  H15  1  0.340473  0.654016  0.690644  1
  H  H16  1  0.861495  0.160337  0.693739  1
  H  H17  1  0.228329  0.785964  0.283652  1
  H  H18  1  0.258994  0.272650  0.285222  1
  H  H19  1  0.629517  0.666378  0.697691  1
  H  H20  1  0.962873  0.319508  0.892561  1
  H  H21  1  0.021424  0.749724  0.179503  1
  H  H22  1  0.466963  0.331053  0.203786  1
  H  H23  1  0.533918  0.817891  0.895023  1
  H  H24  1  0.663701  0.155817  0.802896  1
  H  H25  1  0.404568  0.947490  0.104582  1
  H  H26  1  0.077557  0.421817  0.102509  1
  H  H27  1  0.844529  0.656333  0.807506  1
  H  H28  1  0.772068  0.278680  0.217051  1
  H  H29  1  0.134824  0.677347  0.801949  1
  H  H30  1  0.365003  0.171507  0.803149  1
  H  H31  1  0.643618  0.823112  0.199675  1
  O  O32  1  0.010542  0.637443  0.611066  1
  O  O33  1  0.992807  0.405975  0.387989  1
  O  O34  1  0.507522  0.900099  0.381131  1
  O  O35  1  0.483937  0.134525  0.602443  1
  O  O36  1  0.169627  0.161238  0.590683  1
  O  O37  1  0.818767  0.843786  0.408453  1
  O  O38  1  0.687371  0.338605  0.398929  1
  O  O39  1  0.326580  0.658990  0.589667  1
  O  O40  1  0.797325  0.222325  0.619120  1
  O  O41  1  0.196081  0.798576  0.381728  1
  O  O42  1  0.306409  0.300121  0.375876  1
  O  O43  1  0.689926  0.718180  0.614743  1
  O  O44  1  0.983281  0.132936  0.891256  1
  O  O45  1  0.006865  0.887034  0.111316  1
  O  O46  1  0.479756  0.371340  0.104319  1
  O  O47  1  0.513549  0.630399  0.887306  1
  O  O48  1  0.669404  0.148640  0.904726  1
  O  O49  1  0.313050  0.841974  0.096722  1
  O  O50  1  0.176675  0.341171  0.096222  1
  O  O51  1  0.828270  0.649396  0.908769  1
  O  O52  1  0.795746  0.270179  0.116425  1
  O  O53  1  0.196902  0.731632  0.879395  1
  O  O54  1  0.299044  0.231622  0.878187  1
  O  O55  1  0.693909  0.765621  0.114728  1
