# generated using pymatgen
data_KTaPS6
_symmetry_space_group_name_H-M   'P 1'
_cell_length_a   14.22487572
_cell_length_b   16.08377625
_cell_length_c   18.05985761
_cell_angle_alpha   90.00000000
_cell_angle_beta   90.00000000
_cell_angle_gamma   108.26005104
_symmetry_Int_Tables_number   1
_chemical_formula_structural   KTaPS6
_chemical_formula_sum   'K16 Ta16 P16 S96'
_cell_volume   3923.84401170
_cell_formula_units_Z   16
loop_
 _symmetry_equiv_pos_site_id
 _symmetry_equiv_pos_as_xyz
  1  'x, y, z'
loop_
 _atom_site_type_symbol
 _atom_site_label
 _atom_site_symmetry_multiplicity
 _atom_site_fract_x
 _atom_site_fract_y
 _atom_site_fract_z
 _atom_site_occupancy
  K  K0  1  0.658865  0.484316  0.677158  1
  K  K1  1  0.051650  0.536857  0.875998  1
  K  K2  1  0.484562  0.631879  0.983775  1
  K  K3  1  0.551650  0.036857  0.624002  1
  K  K4  1  0.343137  0.040360  0.072042  1
  K  K5  1  0.341135  0.515684  0.322842  1
  K  K6  1  0.156863  0.459640  0.572042  1
  K  K7  1  0.015438  0.868121  0.483775  1
  K  K8  1  0.948350  0.463143  0.124002  1
  K  K9  1  0.515438  0.368121  0.016225  1
  K  K10  1  0.843137  0.540360  0.427958  1
  K  K11  1  0.448350  0.963143  0.375998  1
  K  K12  1  0.841135  0.015684  0.177158  1
  K  K13  1  0.158865  0.984316  0.822842  1
  K  K14  1  0.984562  0.131879  0.516225  1
  K  K15  1  0.656863  0.959640  0.927958  1
  Ta  Ta16  1  0.359931  0.701105  0.782354  1
  Ta  Ta17  1  0.140069  0.798895  0.282354  1
  Ta  Ta18  1  0.248484  0.749731  0.117026  1
  Ta  Ta19  1  0.327069  0.173067  0.617858  1
  Ta  Ta20  1  0.208050  0.227027  0.284140  1
  Ta  Ta21  1  0.640069  0.298895  0.217646  1
  Ta  Ta22  1  0.748484  0.249731  0.382974  1
  Ta  Ta23  1  0.672931  0.826933  0.382142  1
  Ta  Ta24  1  0.708050  0.727027  0.215860  1
  Ta  Ta25  1  0.251516  0.750269  0.617026  1
  Ta  Ta26  1  0.291950  0.272973  0.784140  1
  Ta  Ta27  1  0.751516  0.250269  0.882974  1
  Ta  Ta28  1  0.791950  0.772973  0.715860  1
  Ta  Ta29  1  0.859931  0.201105  0.717646  1
  Ta  Ta30  1  0.172931  0.326933  0.117858  1
  Ta  Ta31  1  0.827069  0.673067  0.882142  1
  P  P32  1  0.664617  0.511259  0.209061  1
  P  P33  1  0.835383  0.988741  0.709061  1
  P  P34  1  0.280621  0.309225  0.450650  1
  P  P35  1  0.750253  0.456766  0.891475  1
  P  P36  1  0.249747  0.543234  0.108525  1
  P  P37  1  0.305436  0.835502  0.947965  1
  P  P38  1  0.694564  0.164498  0.052035  1
  P  P39  1  0.164617  0.011259  0.290939  1
  P  P40  1  0.749747  0.043234  0.391475  1
  P  P41  1  0.719379  0.690775  0.549350  1
  P  P42  1  0.805436  0.335502  0.552035  1
  P  P43  1  0.335383  0.488741  0.790939  1
  P  P44  1  0.219379  0.190775  0.950650  1
  P  P45  1  0.780621  0.809225  0.049350  1
  P  P46  1  0.194564  0.664498  0.447965  1
  P  P47  1  0.250253  0.956766  0.608525  1
  S  S48  1  0.283180  0.106416  0.245605  1
  S  S49  1  0.947556  0.681771  0.961484  1
  S  S50  1  0.839883  0.687184  0.615903  1
  S  S51  1  0.385863  0.786585  0.024165  1
  S  S52  1  0.874126  0.925712  0.024867  1
  S  S53  1  0.909013  0.082489  0.784127  1
  S  S54  1  0.928770  0.269709  0.842628  1
  S  S55  1  0.195727  0.044041  0.554896  1
  S  S56  1  0.666039  0.961133  0.310427  1
  S  S57  1  0.862690  0.342092  0.780371  1
  S  S58  1  0.783180  0.606416  0.254395  1
  S  S59  1  0.688613  0.330812  0.479790  1
  S  S60  1  0.447556  0.181771  0.538516  1
  S  S61  1  0.286261  0.257583  0.046301  1
  S  S62  1  0.114137  0.713415  0.524165  1
  S  S63  1  0.328299  0.226352  0.382317  1
  S  S64  1  0.940986  0.738290  0.771365  1
  S  S65  1  0.333961  0.038867  0.689573  1
  S  S66  1  0.311387  0.669188  0.520210  1
  S  S67  1  0.660117  0.812816  0.115903  1
  S  S68  1  0.339883  0.187184  0.884097  1
  S  S69  1  0.071230  0.730291  0.157372  1
  S  S70  1  0.317705  0.328476  0.212351  1
  S  S71  1  0.188613  0.830812  0.020210  1
  S  S72  1  0.855875  0.149767  0.347527  1
  S  S73  1  0.164910  0.599020  0.046133  1
  S  S74  1  0.171701  0.273648  0.882317  1
  S  S75  1  0.409013  0.582489  0.715873  1
  S  S76  1  0.124968  0.546542  0.407831  1
  S  S77  1  0.614137  0.213415  0.975835  1
  S  S78  1  0.599921  0.672428  0.333954  1
  S  S79  1  0.216820  0.393584  0.745605  1
  S  S80  1  0.695727  0.544041  0.945104  1
  S  S81  1  0.900079  0.827572  0.833954  1
  S  S82  1  0.817705  0.828476  0.287649  1
  S  S83  1  0.505694  0.230221  0.153655  1
  S  S84  1  0.764265  0.257514  0.132081  1
  S  S85  1  0.211051  0.932704  0.364234  1
  S  S86  1  0.828299  0.726352  0.117683  1
  S  S87  1  0.682702  0.147618  0.794683  1
  S  S88  1  0.578154  0.579018  0.165297  1
  S  S89  1  0.494306  0.769779  0.846345  1
  S  S90  1  0.786261  0.757583  0.453699  1
  S  S91  1  0.182295  0.171524  0.712351  1
  S  S92  1  0.317298  0.852382  0.205317  1
  S  S93  1  0.682295  0.671524  0.787649  1
  S  S94  1  0.362690  0.842092  0.719629  1
  S  S95  1  0.099921  0.172428  0.166046  1
  S  S96  1  0.590987  0.417511  0.284127  1
  S  S97  1  0.374126  0.425712  0.475133  1
  S  S98  1  0.994306  0.269779  0.653655  1
  S  S99  1  0.788949  0.067296  0.635766  1
  S  S100  1  0.711051  0.432704  0.135766  1
  S  S101  1  0.440986  0.238290  0.728635  1
  S  S102  1  0.144125  0.850233  0.652473  1
  S  S103  1  0.078154  0.079018  0.334703  1
  S  S104  1  0.811387  0.169188  0.979790  1
  S  S105  1  0.571230  0.230291  0.342628  1
  S  S106  1  0.664910  0.099020  0.453867  1
  S  S107  1  0.804273  0.955959  0.445104  1
  S  S108  1  0.875032  0.453458  0.592169  1
  S  S109  1  0.735735  0.242486  0.632081  1
  S  S110  1  0.005694  0.730221  0.346345  1
  S  S111  1  0.637310  0.157908  0.280371  1
  S  S112  1  0.264265  0.757514  0.367919  1
  S  S113  1  0.671701  0.773648  0.617683  1
  S  S114  1  0.400079  0.327572  0.666046  1
  S  S115  1  0.552444  0.818229  0.461484  1
  S  S116  1  0.921846  0.920982  0.665297  1
  S  S117  1  0.052444  0.318229  0.038516  1
  S  S118  1  0.166039  0.461133  0.189573  1
  S  S119  1  0.288949  0.567296  0.864234  1
  S  S120  1  0.644125  0.350233  0.847527  1
  S  S121  1  0.355875  0.649767  0.152473  1
  S  S122  1  0.304273  0.455959  0.054896  1
  S  S123  1  0.885863  0.286585  0.475835  1
  S  S124  1  0.716820  0.893584  0.754395  1
  S  S125  1  0.833961  0.538867  0.810427  1
  S  S126  1  0.421846  0.420982  0.834703  1
  S  S127  1  0.559014  0.761710  0.271365  1
  S  S128  1  0.059014  0.261710  0.228635  1
  S  S129  1  0.713739  0.742417  0.953699  1
  S  S130  1  0.125874  0.074288  0.975133  1
  S  S131  1  0.182702  0.647618  0.705317  1
  S  S132  1  0.090987  0.917511  0.215873  1
  S  S133  1  0.375032  0.953458  0.907831  1
  S  S134  1  0.625874  0.574288  0.524867  1
  S  S135  1  0.213739  0.242417  0.546301  1
  S  S136  1  0.160117  0.312816  0.384097  1
  S  S137  1  0.835090  0.400980  0.953867  1
  S  S138  1  0.624968  0.046542  0.092169  1
  S  S139  1  0.335090  0.900980  0.546133  1
  S  S140  1  0.428770  0.769709  0.657372  1
  S  S141  1  0.817298  0.352382  0.294683  1
  S  S142  1  0.235735  0.742486  0.867919  1
  S  S143  1  0.137310  0.657908  0.219629  1
