# generated using pymatgen
data_UNiSn
_symmetry_space_group_name_H-M   'P 1'
_cell_length_a   4.72514617
_cell_length_b   4.72516541
_cell_length_c   4.72517717
_cell_angle_alpha   59.99852541
_cell_angle_beta   59.99937927
_cell_angle_gamma   59.99858490
_symmetry_Int_Tables_number   1
_chemical_formula_structural   UNiSn
_chemical_formula_sum   'U1 Ni1 Sn1'
_cell_volume   74.59742572
_cell_formula_units_Z   1
loop_
 _symmetry_equiv_pos_site_id
 _symmetry_equiv_pos_as_xyz
  1  'x, y, z'
loop_
 _atom_site_type_symbol
 _atom_site_label
 _atom_site_symmetry_multiplicity
 _atom_site_fract_x
 _atom_site_fract_y
 _atom_site_fract_z
 _atom_site_occupancy
  U  U0  1  0.500001  0.500002  0.500000  1
  Ni  Ni1  1  0.999997  -0.000001  0.999999  1
  Sn  Sn2  1  0.250002  0.250000  0.250001  1
