# generated using pymatgen
data_Cr3H8(NO5)2
_symmetry_space_group_name_H-M   'P 1'
_cell_length_a   9.44305041
_cell_length_b   11.40735590
_cell_length_c   19.25781281
_cell_angle_alpha   90.00000000
_cell_angle_beta   90.00000000
_cell_angle_gamma   90.00000000
_symmetry_Int_Tables_number   1
_chemical_formula_structural   Cr3H8(NO5)2
_chemical_formula_sum   'Cr24 H64 N16 O80'
_cell_volume   2074.45615631
_cell_formula_units_Z   8
loop_
 _symmetry_equiv_pos_site_id
 _symmetry_equiv_pos_as_xyz
  1  'x, y, z'
loop_
 _atom_site_type_symbol
 _atom_site_label
 _atom_site_symmetry_multiplicity
 _atom_site_fract_x
 _atom_site_fract_y
 _atom_site_fract_z
 _atom_site_occupancy
  Cr  Cr0  1  0.002545  0.804881  0.476749  1
  Cr  Cr1  1  0.797524  0.630267  0.113712  1
  Cr  Cr2  1  0.997455  0.195119  0.523251  1
  Cr  Cr3  1  0.991591  0.001729  0.266922  1
  Cr  Cr4  1  0.991591  0.501729  0.233078  1
  Cr  Cr5  1  0.491591  0.998271  0.233078  1
  Cr  Cr6  1  0.002545  0.304881  0.023251  1
  Cr  Cr7  1  0.502545  0.195119  0.023251  1
  Cr  Cr8  1  0.502545  0.695119  0.476749  1
  Cr  Cr9  1  0.702476  0.130267  0.886288  1
  Cr  Cr10  1  0.497455  0.804881  0.976749  1
  Cr  Cr11  1  0.702476  0.630267  0.613712  1
  Cr  Cr12  1  0.508409  0.001729  0.766922  1
  Cr  Cr13  1  0.008409  0.998271  0.733078  1
  Cr  Cr14  1  0.202476  0.869733  0.613712  1
  Cr  Cr15  1  0.008409  0.498271  0.766922  1
  Cr  Cr16  1  0.202476  0.369733  0.886288  1
  Cr  Cr17  1  0.297524  0.869733  0.113712  1
  Cr  Cr18  1  0.997455  0.695119  0.976749  1
  Cr  Cr19  1  0.491591  0.498271  0.266922  1
  Cr  Cr20  1  0.497455  0.304881  0.523251  1
  Cr  Cr21  1  0.508409  0.501729  0.733078  1
  Cr  Cr22  1  0.797524  0.130267  0.386288  1
  Cr  Cr23  1  0.297524  0.369733  0.386288  1
  H  H24  1  0.287616  0.062025  0.458199  1
  H  H25  1  0.699746  0.213920  0.692244  1
  H  H26  1  0.854420  0.775039  0.782404  1
  H  H27  1  0.209025  0.040423  0.871268  1
  H  H28  1  0.212384  0.562025  0.541801  1
  H  H29  1  0.761812  0.854367  0.329272  1
  H  H30  1  0.403296  0.464026  0.076597  1
  H  H31  1  0.596704  0.035974  0.576597  1
  H  H32  1  0.290975  0.040423  0.371268  1
  H  H33  1  0.712384  0.437975  0.958199  1
  H  H34  1  0.300254  0.286080  0.192244  1
  H  H35  1  0.596704  0.535974  0.923403  1
  H  H36  1  0.738188  0.854367  0.829272  1
  H  H37  1  0.073423  0.108956  0.911231  1
  H  H38  1  0.926577  0.891044  0.088769  1
  H  H39  1  0.709025  0.459577  0.871268  1
  H  H40  1  0.426577  0.108956  0.411231  1
  H  H41  1  0.787616  0.937975  0.041801  1
  H  H42  1  0.800254  0.213920  0.192244  1
  H  H43  1  0.073423  0.608956  0.588769  1
  H  H44  1  0.926577  0.391044  0.411231  1
  H  H45  1  0.761812  0.354367  0.170728  1
  H  H46  1  0.645580  0.275039  0.217596  1
  H  H47  1  0.287616  0.562025  0.041801  1
  H  H48  1  0.238188  0.145633  0.670728  1
  H  H49  1  0.800254  0.713920  0.307756  1
  H  H50  1  0.828044  0.243291  0.633337  1
  H  H51  1  0.096704  0.464026  0.576597  1
  H  H52  1  0.096704  0.964026  0.923403  1
  H  H53  1  0.671956  0.743291  0.366663  1
  H  H54  1  0.261812  0.145633  0.170728  1
  H  H55  1  0.212384  0.062025  0.958199  1
  H  H56  1  0.328044  0.256709  0.633337  1
  H  H57  1  0.903296  0.535974  0.423403  1
  H  H58  1  0.354420  0.224961  0.717596  1
  H  H59  1  0.787616  0.437975  0.458199  1
  H  H60  1  0.171956  0.256709  0.133337  1
  H  H61  1  0.671956  0.243291  0.133337  1
  H  H62  1  0.261812  0.645633  0.329272  1
  H  H63  1  0.645580  0.775039  0.282404  1
  H  H64  1  0.328044  0.756709  0.866663  1
  H  H65  1  0.903296  0.035974  0.076597  1
  H  H66  1  0.199746  0.786080  0.807756  1
  H  H67  1  0.209025  0.540423  0.628732  1
  H  H68  1  0.854420  0.275039  0.717596  1
  H  H69  1  0.199746  0.286080  0.692244  1
  H  H70  1  0.290975  0.540423  0.128732  1
  H  H71  1  0.573423  0.891044  0.588769  1
  H  H72  1  0.300254  0.786080  0.307756  1
  H  H73  1  0.145580  0.724961  0.282404  1
  H  H74  1  0.790975  0.459577  0.371268  1
  H  H75  1  0.238188  0.645633  0.829272  1
  H  H76  1  0.709025  0.959577  0.628732  1
  H  H77  1  0.573423  0.391044  0.911231  1
  H  H78  1  0.354420  0.724961  0.782404  1
  H  H79  1  0.171956  0.756709  0.366663  1
  H  H80  1  0.145580  0.224961  0.217596  1
  H  H81  1  0.426577  0.608956  0.088769  1
  H  H82  1  0.712384  0.937975  0.541801  1
  H  H83  1  0.828044  0.743291  0.866663  1
  H  H84  1  0.790975  0.959577  0.128732  1
  H  H85  1  0.738188  0.354367  0.670728  1
  H  H86  1  0.699746  0.713920  0.807756  1
  H  H87  1  0.403296  0.964026  0.423403  1
  N  N88  1  0.148030  0.043673  0.915989  1
  N  N89  1  0.720177  0.271633  0.178505  1
  N  N90  1  0.779823  0.271633  0.678505  1
  N  N91  1  0.648030  0.956327  0.584011  1
  N  N92  1  0.648030  0.456327  0.915989  1
  N  N93  1  0.779823  0.771633  0.821495  1
  N  N94  1  0.279823  0.228367  0.678505  1
  N  N95  1  0.148030  0.543673  0.584011  1
  N  N96  1  0.279823  0.728367  0.821495  1
  N  N97  1  0.220177  0.728367  0.321495  1
  N  N98  1  0.720177  0.771633  0.321495  1
  N  N99  1  0.220177  0.228367  0.178505  1
  N  N100  1  0.351970  0.543673  0.084011  1
  N  N101  1  0.851970  0.956327  0.084011  1
  N  N102  1  0.851970  0.456327  0.415989  1
  N  N103  1  0.351970  0.043673  0.415989  1
  O  O104  1  0.474307  0.629144  0.235351  1
  O  O105  1  0.673633  0.582372  0.064474  1
  O  O106  1  0.766212  0.724597  0.666457  1
  O  O107  1  0.025693  0.129144  0.764649  1
  O  O108  1  0.600467  0.606497  0.431550  1
  O  O109  1  0.866459  0.511161  0.160422  1
  O  O110  1  0.011843  0.174304  0.057912  1
  O  O111  1  0.100467  0.893503  0.431550  1
  O  O112  1  0.952867  0.101239  0.208609  1
  O  O113  1  0.929539  0.201104  0.434244  1
  O  O114  1  0.673633  0.082372  0.435526  1
  O  O115  1  0.326367  0.417628  0.935526  1
  O  O116  1  0.733788  0.724597  0.166457  1
  O  O117  1  0.974307  0.870856  0.235351  1
  O  O118  1  0.133541  0.488839  0.839578  1
  O  O119  1  0.429539  0.298896  0.434244  1
  O  O120  1  0.399533  0.393503  0.568450  1
  O  O121  1  0.173633  0.417628  0.435526  1
  O  O122  1  0.547133  0.601239  0.791391  1
  O  O123  1  0.525693  0.370856  0.764649  1
  O  O124  1  0.974307  0.370856  0.264649  1
  O  O125  1  0.652507  0.978574  0.205441  1
  O  O126  1  0.899533  0.106497  0.568450  1
  O  O127  1  0.766212  0.224597  0.833543  1
  O  O128  1  0.899533  0.606497  0.931550  1
  O  O129  1  0.070461  0.298896  0.934244  1
  O  O130  1  0.173633  0.917628  0.064474  1
  O  O131  1  0.266212  0.275403  0.833543  1
  O  O132  1  0.547133  0.101239  0.708609  1
  O  O133  1  0.152507  0.021426  0.294559  1
  O  O134  1  0.988157  0.825696  0.942088  1
  O  O135  1  0.525693  0.870856  0.735351  1
  O  O136  1  0.660601  0.850057  0.978784  1
  O  O137  1  0.366459  0.988839  0.160422  1
  O  O138  1  0.652507  0.478574  0.294559  1
  O  O139  1  0.326367  0.917628  0.564474  1
  O  O140  1  0.839399  0.350057  0.021216  1
  O  O141  1  0.047133  0.898761  0.791391  1
  O  O142  1  0.152507  0.521426  0.205441  1
  O  O143  1  0.011843  0.674304  0.442088  1
  O  O144  1  0.366459  0.488839  0.339578  1
  O  O145  1  0.570461  0.701104  0.565756  1
  O  O146  1  0.733788  0.224597  0.333543  1
  O  O147  1  0.025693  0.629144  0.735351  1
  O  O148  1  0.660601  0.350057  0.521216  1
  O  O149  1  0.233788  0.275403  0.333543  1
  O  O150  1  0.160601  0.649943  0.978784  1
  O  O151  1  0.160601  0.149943  0.521216  1
  O  O152  1  0.452867  0.898761  0.291391  1
  O  O153  1  0.100467  0.393503  0.068450  1
  O  O154  1  0.133541  0.988839  0.660422  1
  O  O155  1  0.266212  0.775403  0.666457  1
  O  O156  1  0.570461  0.201104  0.934244  1
  O  O157  1  0.452867  0.398761  0.208609  1
  O  O158  1  0.488157  0.174304  0.557912  1
  O  O159  1  0.847493  0.478574  0.794559  1
  O  O160  1  0.826367  0.082372  0.935526  1
  O  O161  1  0.826367  0.582372  0.564474  1
  O  O162  1  0.839399  0.850057  0.478784  1
  O  O163  1  0.070461  0.798896  0.565756  1
  O  O164  1  0.474307  0.129144  0.264649  1
  O  O165  1  0.847493  0.978574  0.705441  1
  O  O166  1  0.399533  0.893503  0.931550  1
  O  O167  1  0.511843  0.825696  0.442088  1
  O  O168  1  0.929539  0.701104  0.065756  1
  O  O169  1  0.600467  0.106497  0.068450  1
  O  O170  1  0.047133  0.398761  0.708609  1
  O  O171  1  0.511843  0.325696  0.057912  1
  O  O172  1  0.633541  0.011161  0.839578  1
  O  O173  1  0.952867  0.601239  0.291391  1
  O  O174  1  0.429539  0.798896  0.065756  1
  O  O175  1  0.633541  0.511161  0.660422  1
  O  O176  1  0.347493  0.521426  0.705441  1
  O  O177  1  0.866459  0.011161  0.339578  1
  O  O178  1  0.347493  0.021426  0.794559  1
  O  O179  1  0.488157  0.674304  0.942088  1
  O  O180  1  0.988157  0.325696  0.557912  1
  O  O181  1  0.233788  0.775403  0.166457  1
  O  O182  1  0.339399  0.149943  0.021216  1
  O  O183  1  0.339399  0.649943  0.478784  1
