# generated using pymatgen
data_BaB2F8
_symmetry_space_group_name_H-M   'P 1'
_cell_length_a   8.47906245
_cell_length_b   10.62185570
_cell_length_c   16.59428770
_cell_angle_alpha   90.00000000
_cell_angle_beta   90.00000000
_cell_angle_gamma   110.75999183
_symmetry_Int_Tables_number   1
_chemical_formula_structural   BaB2F8
_chemical_formula_sum   'Ba8 B16 F64'
_cell_volume   1397.50237412
_cell_formula_units_Z   8
loop_
 _symmetry_equiv_pos_site_id
 _symmetry_equiv_pos_as_xyz
  1  'x, y, z'
loop_
 _atom_site_type_symbol
 _atom_site_label
 _atom_site_symmetry_multiplicity
 _atom_site_fract_x
 _atom_site_fract_y
 _atom_site_fract_z
 _atom_site_occupancy
  Ba  Ba0  1  0.742351  0.263662  0.095940  1
  Ba  Ba1  1  0.274627  0.274080  0.842824  1
  Ba  Ba2  1  0.774627  0.774080  0.657176  1
  Ba  Ba3  1  0.225373  0.225920  0.342824  1
  Ba  Ba4  1  0.242351  0.763662  0.404060  1
  Ba  Ba5  1  0.725373  0.725920  0.157176  1
  Ba  Ba6  1  0.257649  0.736338  0.904060  1
  Ba  Ba7  1  0.757649  0.236338  0.595940  1
  B  B8  1  0.786329  0.065381  0.245646  1
  B  B9  1  0.802982  0.562925  0.991143  1
  B  B10  1  0.302982  0.062925  0.508857  1
  B  B11  1  0.823241  0.070339  0.762630  1
  B  B12  1  0.713671  0.434619  0.745646  1
  B  B13  1  0.213671  0.934619  0.754354  1
  B  B14  1  0.323241  0.570339  0.737370  1
  B  B15  1  0.697018  0.937075  0.491143  1
  B  B16  1  0.185700  0.424616  0.492584  1
  B  B17  1  0.286329  0.565381  0.254354  1
  B  B18  1  0.814300  0.575384  0.507416  1
  B  B19  1  0.676759  0.429661  0.262630  1
  B  B20  1  0.685700  0.924616  0.007416  1
  B  B21  1  0.314300  0.075384  0.992584  1
  B  B22  1  0.197018  0.437075  0.008857  1
  B  B23  1  0.176759  0.929661  0.237370  1
  F  F24  1  0.376710  0.067957  0.429050  1
  F  F25  1  0.427512  0.144928  0.561533  1
  F  F26  1  0.093874  0.921999  0.315130  1
  F  F27  1  0.667767  0.608103  0.999120  1
  F  F28  1  0.602389  0.363073  0.807113  1
  F  F29  1  0.649292  0.109510  0.237208  1
  F  F30  1  0.325533  0.384800  0.480529  1
  F  F31  1  0.269441  0.433874  0.712523  1
  F  F32  1  0.876710  0.567957  0.070950  1
  F  F33  1  0.313010  0.887536  0.249431  1
  F  F34  1  0.123290  0.432043  0.929050  1
  F  F35  1  0.917245  0.648380  0.442825  1
  F  F36  1  0.622184  0.407985  0.670296  1
  F  F37  1  0.850708  0.390490  0.737208  1
  F  F38  1  0.262455  0.935251  0.007669  1
  F  F39  1  0.441508  0.654078  0.682510  1
  F  F40  1  0.247676  0.926287  0.533808  1
  F  F41  1  0.085841  0.392807  0.420033  1
  F  F42  1  0.167767  0.108103  0.500880  1
  F  F43  1  0.623290  0.932043  0.570950  1
  F  F44  1  0.674467  0.615200  0.519471  1
  F  F45  1  0.397611  0.636927  0.192887  1
  F  F46  1  0.122184  0.907985  0.829704  1
  F  F47  1  0.237545  0.564749  0.507669  1
  F  F48  1  0.906126  0.078001  0.684870  1
  F  F49  1  0.737545  0.064749  0.992331  1
  F  F50  1  0.593874  0.421999  0.184870  1
  F  F51  1  0.230533  0.424874  0.238510  1
  F  F52  1  0.769467  0.575126  0.761490  1
  F  F53  1  0.082755  0.351620  0.557175  1
  F  F54  1  0.572488  0.855072  0.438467  1
  F  F55  1  0.186990  0.612464  0.749431  1
  F  F56  1  0.350708  0.890490  0.762792  1
  F  F57  1  0.825533  0.884800  0.019471  1
  F  F58  1  0.769441  0.933874  0.787477  1
  F  F59  1  0.377816  0.592015  0.329704  1
  F  F60  1  0.914159  0.607193  0.579967  1
  F  F61  1  0.832233  0.891897  0.499120  1
  F  F62  1  0.174467  0.115200  0.980529  1
  F  F63  1  0.582755  0.851620  0.942825  1
  F  F64  1  0.269467  0.075126  0.738510  1
  F  F65  1  0.941508  0.154078  0.817490  1
  F  F66  1  0.585841  0.892807  0.079967  1
  F  F67  1  0.058492  0.845922  0.182510  1
  F  F68  1  0.897611  0.136927  0.307113  1
  F  F69  1  0.558492  0.345922  0.317490  1
  F  F70  1  0.332233  0.391897  0.000880  1
  F  F71  1  0.072488  0.355072  0.061533  1
  F  F72  1  0.417245  0.148380  0.057175  1
  F  F73  1  0.414159  0.107193  0.920033  1
  F  F74  1  0.752324  0.073713  0.466192  1
  F  F75  1  0.747676  0.426287  0.966192  1
  F  F76  1  0.927512  0.644928  0.938467  1
  F  F77  1  0.406126  0.578001  0.815130  1
  F  F78  1  0.730559  0.566126  0.287477  1
  F  F79  1  0.102389  0.863073  0.692887  1
  F  F80  1  0.730533  0.924874  0.261490  1
  F  F81  1  0.686990  0.112464  0.750569  1
  F  F82  1  0.149292  0.609510  0.262792  1
  F  F83  1  0.230559  0.066126  0.212523  1
  F  F84  1  0.762455  0.435251  0.492331  1
  F  F85  1  0.252324  0.573713  0.033808  1
  F  F86  1  0.877816  0.092015  0.170296  1
  F  F87  1  0.813010  0.387536  0.250569  1
