# generated using pymatgen
data_CdI2
_symmetry_space_group_name_H-M   'P 1'
_cell_length_a   4.34475138
_cell_length_b   4.34475165
_cell_length_c   80.96423967
_cell_angle_alpha   90.00000000
_cell_angle_beta   90.00000000
_cell_angle_gamma   119.99999794
_symmetry_Int_Tables_number   1
_chemical_formula_structural   CdI2
_chemical_formula_sum   'Cd11 I22'
_cell_volume   1323.59088943
_cell_formula_units_Z   11
loop_
 _symmetry_equiv_pos_site_id
 _symmetry_equiv_pos_as_xyz
  1  'x, y, z'
loop_
 _atom_site_type_symbol
 _atom_site_label
 _atom_site_symmetry_multiplicity
 _atom_site_fract_x
 _atom_site_fract_y
 _atom_site_fract_z
 _atom_site_occupancy
  Cd  Cd0  1  0.666667  0.333333  0.204541  1
  Cd  Cd1  1  0.333333  0.666667  0.840895  1
  Cd  Cd2  1  0.666667  0.333333  0.022733  1
  Cd  Cd3  1  0.333333  0.666667  0.113659  1
  Cd  Cd4  1  0.666667  0.333333  0.386391  1
  Cd  Cd5  1  0.333333  0.666667  0.295460  1
  Cd  Cd6  1  0.666667  0.333333  0.749988  1
  Cd  Cd7  1  0.333333  0.666667  0.477281  1
  Cd  Cd8  1  0.333333  0.666667  0.931807  1
  Cd  Cd9  1  0.666667  0.333333  0.568173  1
  Cd  Cd10  1  0.333333  0.666667  0.659066  1
  I  I11  1  0.000000  0.000000  0.092274  1
  I  I12  1  0.333333  0.666667  0.589531  1
  I  I13  1  0.666667  0.333333  0.862275  1
  I  I14  1  0.666667  0.333333  0.680441  1
  I  I15  1  0.000000  0.000000  0.455897  1
  I  I16  1  0.333333  0.666667  0.407763  1
  I  I17  1  0.000000  0.000000  0.183169  1
  I  I18  1  0.000000  0.000000  0.637703  1
  I  I19  1  0.666667  0.333333  0.953170  1
  I  I20  1  0.000000  0.000000  0.728606  1
  I  I21  1  0.000000  0.000000  0.546810  1
  I  I22  1  0.333333  0.666667  0.771358  1
  I  I23  1  0.000000  0.000000  0.819533  1
  I  I24  1  0.333333  0.666667  0.044107  1
  I  I25  1  0.333333  0.666667  0.225911  1
  I  I26  1  0.000000  0.000000  0.910418  1
  I  I27  1  0.000000  0.000000  0.274101  1
  I  I28  1  0.000000  0.000000  0.001394  1
  I  I29  1  0.000000  0.000000  0.365023  1
  I  I30  1  0.666667  0.333333  0.498647  1
  I  I31  1  0.666667  0.333333  0.316844  1
  I  I32  1  0.666667  0.333333  0.135028  1
