# generated using pymatgen
data_SiO2
_symmetry_space_group_name_H-M   'P 1'
_cell_length_a   8.17882044
_cell_length_b   8.17881747
_cell_length_c   8.17881931
_cell_angle_alpha   59.99996273
_cell_angle_beta   59.99995002
_cell_angle_gamma   59.99995196
_symmetry_Int_Tables_number   1
_chemical_formula_structural   SiO2
_chemical_formula_sum   'Si12 O24'
_cell_volume   386.86225726
_cell_formula_units_Z   12
loop_
 _symmetry_equiv_pos_site_id
 _symmetry_equiv_pos_as_xyz
  1  'x, y, z'
loop_
 _atom_site_type_symbol
 _atom_site_label
 _atom_site_symmetry_multiplicity
 _atom_site_fract_x
 _atom_site_fract_y
 _atom_site_fract_z
 _atom_site_occupancy
  Si  Si0  1  0.883385  0.366615  0.625001  1
  Si  Si1  1  0.366614  0.625001  0.883385  1
  Si  Si2  1  0.125000  0.366614  0.883386  1
  Si  Si3  1  0.883385  0.625001  0.125000  1
  Si  Si4  1  0.125000  0.883386  0.625001  1
  Si  Si5  1  0.125000  0.625000  0.366614  1
  Si  Si6  1  0.625001  0.125000  0.883386  1
  Si  Si7  1  0.625000  0.883385  0.366614  1
  Si  Si8  1  0.366614  0.883386  0.125000  1
  Si  Si9  1  0.625000  0.366614  0.125000  1
  Si  Si10  1  0.366615  0.125000  0.625000  1
  Si  Si11  1  0.883386  0.125000  0.366614  1
  O  O12  1  0.962027  0.125000  0.625000  1
  O  O13  1  0.962027  0.287972  0.124999  1
  O  O14  1  0.287972  0.625001  0.125000  1
  O  O15  1  0.591857  0.591857  0.908143  1
  O  O16  1  0.341857  0.658142  0.341857  1
  O  O17  1  0.658143  0.341858  0.658143  1
  O  O18  1  0.287972  0.962027  0.625001  1
  O  O19  1  0.908144  0.908143  0.591857  1
  O  O20  1  0.962027  0.625001  0.287972  1
  O  O21  1  0.125000  0.287973  0.625001  1
  O  O22  1  0.591857  0.908143  0.908143  1
  O  O23  1  0.658143  0.658143  0.341857  1
  O  O24  1  0.125000  0.962027  0.287972  1
  O  O25  1  0.908143  0.591857  0.591857  1
  O  O26  1  0.341858  0.658143  0.658143  1
  O  O27  1  0.908143  0.591857  0.908144  1
  O  O28  1  0.591857  0.908143  0.591857  1
  O  O29  1  0.625002  0.287972  0.962027  1
  O  O30  1  0.125000  0.625000  0.962027  1
  O  O31  1  0.658143  0.341857  0.341857  1
  O  O32  1  0.625000  0.962027  0.125000  1
  O  O33  1  0.287973  0.125000  0.962027  1
  O  O34  1  0.341858  0.341857  0.658143  1
  O  O35  1  0.625001  0.125000  0.287973  1
