# generated using pymatgen
data_Ta3Ge
_symmetry_space_group_name_H-M   'P 1'
_cell_length_a   5.24800625
_cell_length_b   10.34020843
_cell_length_c   10.34021048
_cell_angle_alpha   89.99980329
_cell_angle_beta   89.99985752
_cell_angle_gamma   89.99974683
_symmetry_Int_Tables_number   1
_chemical_formula_structural   Ta3Ge
_chemical_formula_sum   'Ta24 Ge8'
_cell_volume   561.11646914
_cell_formula_units_Z   8
loop_
 _symmetry_equiv_pos_site_id
 _symmetry_equiv_pos_as_xyz
  1  'x, y, z'
loop_
 _atom_site_type_symbol
 _atom_site_label
 _atom_site_symmetry_multiplicity
 _atom_site_fract_x
 _atom_site_fract_y
 _atom_site_fract_z
 _atom_site_occupancy
  Ta  Ta0  1  0.976833  0.898997  0.766223  1
  Ta  Ta1  1  0.476834  0.233776  0.398997  1
  Ta  Ta2  1  0.777445  0.664350  0.347522  1
  Ta  Ta3  1  0.722553  0.152478  0.664349  1
  Ta  Ta4  1  0.738606  0.060739  0.962473  1
  Ta  Ta5  1  0.238605  0.462474  0.939260  1
  Ta  Ta6  1  0.023167  0.101006  0.233780  1
  Ta  Ta7  1  0.761391  0.962474  0.439263  1
  Ta  Ta8  1  0.277446  0.847522  0.335649  1
  Ta  Ta9  1  0.023165  0.398995  0.266220  1
  Ta  Ta10  1  0.976833  0.601003  0.733777  1
  Ta  Ta11  1  0.238606  0.037526  0.560740  1
  Ta  Ta12  1  0.523168  0.733780  0.898994  1
  Ta  Ta13  1  0.222555  0.335651  0.652478  1
  Ta  Ta14  1  0.261391  0.560737  0.462474  1
  Ta  Ta15  1  0.523167  0.766220  0.601005  1
  Ta  Ta16  1  0.476834  0.266223  0.101003  1
  Ta  Ta17  1  0.277446  0.652478  0.164351  1
  Ta  Ta18  1  0.261392  0.939263  0.037526  1
  Ta  Ta19  1  0.222555  0.164349  0.847522  1
  Ta  Ta20  1  0.722552  0.347522  0.835652  1
  Ta  Ta21  1  0.761392  0.537526  0.060737  1
  Ta  Ta22  1  0.738605  0.439261  0.537527  1
  Ta  Ta23  1  0.777446  0.835649  0.152478  1
  Ge  Ge24  1  0.526279  0.045579  0.223873  1
  Ge  Ge25  1  0.026276  0.776127  0.545579  1
  Ge  Ge26  1  0.973726  0.276125  0.045573  1
  Ge  Ge27  1  0.026276  0.723873  0.954421  1
  Ge  Ge28  1  0.973727  0.223875  0.454427  1
  Ge  Ge29  1  0.473727  0.545573  0.723875  1
  Ge  Ge30  1  0.526276  0.454421  0.276127  1
  Ge  Ge31  1  0.473727  0.954426  0.776125  1
