# generated using pymatgen
data_PH2NO2
_symmetry_space_group_name_H-M   'P 1'
_cell_length_a   3.82146281
_cell_length_b   6.91661645
_cell_length_c   6.91661645
_cell_angle_alpha   67.06414525
_cell_angle_beta   90.00000000
_cell_angle_gamma   90.00000000
_symmetry_Int_Tables_number   1
_chemical_formula_structural   PH2NO2
_chemical_formula_sum   'P2 H4 N2 O4'
_cell_volume   168.36397508
_cell_formula_units_Z   2
loop_
 _symmetry_equiv_pos_site_id
 _symmetry_equiv_pos_as_xyz
  1  'x, y, z'
loop_
 _atom_site_type_symbol
 _atom_site_label
 _atom_site_symmetry_multiplicity
 _atom_site_fract_x
 _atom_site_fract_y
 _atom_site_fract_z
 _atom_site_occupancy
  P  P0  1  0.452308  0.750000  0.750000  1
  P  P1  1  0.547692  0.250000  0.250000  1
  H  H2  1  0.784796  0.104405  0.395595  1
  H  H3  1  0.215204  0.604405  0.895595  1
  H  H4  1  0.215204  0.895595  0.604405  1
  H  H5  1  0.784796  0.395595  0.104405  1
  N  N6  1  0.000000  0.750000  0.250000  1
  N  N7  1  0.000000  0.250000  0.750000  1
  O  O8  1  0.638324  0.633288  0.633288  1
  O  O9  1  0.361676  0.366712  0.366712  1
  O  O10  1  0.361676  0.133288  0.133288  1
  O  O11  1  0.638324  0.866712  0.866712  1
