# generated using pymatgen
data_Sr18ThCl40
_symmetry_space_group_name_H-M   'P 1'
_cell_length_a   4.97431973
_cell_length_b   4.97431972
_cell_length_c   94.93835306
_cell_angle_alpha   60.14490021
_cell_angle_beta   60.14490032
_cell_angle_gamma   59.99889787
_symmetry_Int_Tables_number   1
_chemical_formula_structural   Sr18ThCl40
_chemical_formula_sum   'Sr18 Th1 Cl40'
_cell_volume   1664.70838848
_cell_formula_units_Z   1
loop_
 _symmetry_equiv_pos_site_id
 _symmetry_equiv_pos_as_xyz
  1  'x, y, z'
loop_
 _atom_site_type_symbol
 _atom_site_label
 _atom_site_symmetry_multiplicity
 _atom_site_fract_x
 _atom_site_fract_y
 _atom_site_fract_z
 _atom_site_occupancy
  Sr  Sr0  1  0.996249  0.996249  0.053225  1
  Sr  Sr1  1  0.997296  0.997296  0.105689  1
  Sr  Sr2  1  0.999958  0.999958  0.157900  1
  Sr  Sr3  1  -0.000005  -0.000005  0.210525  1
  Sr  Sr4  1  0.999996  0.999996  0.263159  1
  Sr  Sr5  1  0.999996  0.999996  0.315793  1
  Sr  Sr6  1  0.999986  0.999986  0.368421  1
  Sr  Sr7  1  0.999990  0.999990  0.421053  1
  Sr  Sr8  1  0.000000  0.000000  0.473686  1
  Sr  Sr9  1  -0.000000  -0.000000  0.526314  1
  Sr  Sr10  1  0.000010  0.000010  0.578947  1
  Sr  Sr11  1  0.000014  0.000014  0.631579  1
  Sr  Sr12  1  0.000004  0.000004  0.684207  1
  Sr  Sr13  1  0.000004  0.000004  0.736841  1
  Sr  Sr14  1  0.000005  0.000005  0.789475  1
  Sr  Sr15  1  0.000042  0.000042  0.842100  1
  Sr  Sr16  1  0.002704  0.002704  0.894311  1
  Sr  Sr17  1  0.003751  0.003751  0.946775  1
  Th  Th18  1  0.000000  0.000000  0.000000  1
  Cl  Cl19  1  0.248269  0.248269  0.013428  1
  Cl  Cl20  1  0.520392  0.520392  0.023092  1
  Cl  Cl21  1  0.241560  0.241560  0.067126  1
  Cl  Cl22  1  0.753163  0.753163  0.038972  1
  Cl  Cl23  1  0.248425  0.248425  0.118671  1
  Cl  Cl24  1  0.748760  0.748760  0.092304  1
  Cl  Cl25  1  0.249553  0.249553  0.171123  1
  Cl  Cl26  1  0.749360  0.749360  0.144840  1
  Cl  Cl27  1  0.249546  0.249546  0.223755  1
  Cl  Cl28  1  0.750453  0.750453  0.197298  1
  Cl  Cl29  1  0.249552  0.249552  0.276386  1
  Cl  Cl30  1  0.750440  0.750440  0.249932  1
  Cl  Cl31  1  0.249574  0.249574  0.329014  1
  Cl  Cl32  1  0.750477  0.750477  0.302558  1
  Cl  Cl33  1  0.249514  0.249514  0.381649  1
  Cl  Cl34  1  0.249526  0.249526  0.434283  1
  Cl  Cl35  1  0.750455  0.750455  0.355190  1
  Cl  Cl36  1  0.249543  0.249543  0.486913  1
  Cl  Cl37  1  0.750428  0.750428  0.407826  1
  Cl  Cl38  1  0.750449  0.750449  0.460458  1
  Cl  Cl39  1  0.249551  0.249551  0.539542  1
  Cl  Cl40  1  0.750457  0.750457  0.513087  1
  Cl  Cl41  1  0.249572  0.249572  0.592174  1
  Cl  Cl42  1  0.750474  0.750474  0.565717  1
  Cl  Cl43  1  0.249545  0.249545  0.644810  1
  Cl  Cl44  1  0.750486  0.750486  0.618351  1
  Cl  Cl45  1  0.249523  0.249523  0.697442  1
  Cl  Cl46  1  0.249560  0.249560  0.750068  1
  Cl  Cl47  1  0.750426  0.750426  0.670986  1
  Cl  Cl48  1  0.750448  0.750448  0.723614  1
  Cl  Cl49  1  0.249547  0.249547  0.802702  1
  Cl  Cl50  1  0.250640  0.250640  0.855160  1
  Cl  Cl51  1  0.750454  0.750454  0.776245  1
  Cl  Cl52  1  0.251240  0.251240  0.907696  1
  Cl  Cl53  1  0.750447  0.750447  0.828877  1
  Cl  Cl54  1  0.246837  0.246837  0.961028  1
  Cl  Cl55  1  0.751575  0.751575  0.881329  1
  Cl  Cl56  1  0.479608  0.479608  0.976908  1
  Cl  Cl57  1  0.758440  0.758440  0.932874  1
  Cl  Cl58  1  0.751731  0.751731  0.986572  1
