# generated using pymatgen
data_H8C2IN
_symmetry_space_group_name_H-M   'P 1'
_cell_length_a   7.48798799
_cell_length_b   7.48798799
_cell_length_c   5.54765676
_cell_angle_alpha   75.24881187
_cell_angle_beta   104.75118813
_cell_angle_gamma   95.58022682
_symmetry_Int_Tables_number   1
_chemical_formula_structural   H8C2IN
_chemical_formula_sum   'H16 C4 I2 N2'
_cell_volume   290.71564563
_cell_formula_units_Z   2
loop_
 _symmetry_equiv_pos_site_id
 _symmetry_equiv_pos_as_xyz
  1  'x, y, z'
loop_
 _atom_site_type_symbol
 _atom_site_label
 _atom_site_symmetry_multiplicity
 _atom_site_fract_x
 _atom_site_fract_y
 _atom_site_fract_z
 _atom_site_occupancy
  H  H0  1  0.217892  0.084680  0.633798  1
  H  H1  1  0.915320  0.782108  0.633798  1
  H  H2  1  0.782108  0.915320  0.366202  1
  H  H3  1  0.084680  0.217892  0.366202  1
  H  H4  1  0.355538  0.358274  0.221146  1
  H  H5  1  0.641726  0.644462  0.221146  1
  H  H6  1  0.644462  0.641726  0.778854  1
  H  H7  1  0.358274  0.355538  0.778854  1
  H  H8  1  0.496910  0.218881  0.505434  1
  H  H9  1  0.781119  0.503090  0.505434  1
  H  H10  1  0.503090  0.781119  0.494566  1
  H  H11  1  0.218881  0.496910  0.494566  1
  H  H12  1  0.346223  0.111285  0.269817  1
  H  H13  1  0.888715  0.653777  0.269817  1
  H  H14  1  0.653777  0.888715  0.730183  1
  H  H15  1  0.111285  0.346223  0.730183  1
  C  C16  1  0.363763  0.225892  0.364092  1
  C  C17  1  0.774108  0.636237  0.364092  1
  C  C18  1  0.636237  0.774108  0.635908  1
  C  C19  1  0.225892  0.363763  0.635908  1
  I  I20  1  0.217121  0.782879  0.957547  1
  I  I21  1  0.782879  0.217121  0.042453  1
  N  N22  1  0.213328  0.213328  0.500000  1
  N  N23  1  0.786672  0.786672  0.500000  1
