# generated using pymatgen
data_H4N2O3
_symmetry_space_group_name_H-M   'P 1'
_cell_length_a   6.52073067
_cell_length_b   7.29235008
_cell_length_c   6.40612715
_cell_angle_alpha   90.00000000
_cell_angle_beta   90.00000000
_cell_angle_gamma   90.00000000
_symmetry_Int_Tables_number   1
_chemical_formula_structural   H4N2O3
_chemical_formula_sum   'H16 N8 O12'
_cell_volume   304.62064014
_cell_formula_units_Z   4
loop_
 _symmetry_equiv_pos_site_id
 _symmetry_equiv_pos_as_xyz
  1  'x, y, z'
loop_
 _atom_site_type_symbol
 _atom_site_label
 _atom_site_symmetry_multiplicity
 _atom_site_fract_x
 _atom_site_fract_y
 _atom_site_fract_z
 _atom_site_occupancy
  H  H0  1  0.673488  0.503698  0.916252  1
  H  H1  1  0.826512  0.003698  0.916252  1
  H  H2  1  0.326512  0.496302  0.416252  1
  H  H3  1  0.173488  0.996302  0.416252  1
  H  H4  1  0.621174  0.206311  0.008068  1
  H  H5  1  0.864150  0.642829  0.438565  1
  H  H6  1  0.816992  0.979813  0.661084  1
  H  H7  1  0.378826  0.793689  0.508068  1
  H  H8  1  0.135850  0.357171  0.938565  1
  H  H9  1  0.183008  0.020187  0.161084  1
  H  H10  1  0.364150  0.857171  0.938565  1
  H  H11  1  0.316992  0.520187  0.161084  1
  H  H12  1  0.121174  0.293689  0.508068  1
  H  H13  1  0.683008  0.479813  0.661084  1
  H  H14  1  0.635850  0.142829  0.438565  1
  H  H15  1  0.878826  0.706311  0.008068  1
  N  N16  1  0.184373  0.923581  0.277975  1
  N  N17  1  0.315627  0.423581  0.277975  1
  N  N18  1  0.815627  0.076419  0.777975  1
  N  N19  1  0.684373  0.576419  0.777975  1
  N  N20  1  0.514647  0.330806  0.259495  1
  N  N21  1  0.985353  0.830806  0.259495  1
  N  N22  1  0.485353  0.669194  0.759495  1
  N  N23  1  0.014647  0.169194  0.759495  1
  O  O24  1  0.677048  0.424480  0.252524  1
  O  O25  1  0.822952  0.924480  0.252524  1
  O  O26  1  0.322952  0.575520  0.752524  1
  O  O27  1  0.177048  0.075520  0.752524  1
  O  O28  1  0.482391  0.215818  0.070630  1
  O  O29  1  0.998810  0.703411  0.439988  1
  O  O30  1  0.517609  0.784182  0.570630  1
  O  O31  1  0.001190  0.296589  0.939988  1
  O  O32  1  0.498810  0.796589  0.939988  1
  O  O33  1  0.982391  0.284182  0.570630  1
  O  O34  1  0.501190  0.203411  0.439988  1
  O  O35  1  0.017609  0.715818  0.070630  1
