# generated using pymatgen
data_In2S3
_symmetry_space_group_name_H-M   'P 1'
_cell_length_a   7.72642441
_cell_length_b   7.72642438
_cell_length_c   15.91503993
_cell_angle_alpha   59.34472686
_cell_angle_beta   59.34472703
_cell_angle_gamma   59.33668016
_symmetry_Int_Tables_number   1
_chemical_formula_structural   In2S3
_chemical_formula_sum   'In8 S12'
_cell_volume   661.75283233
_cell_formula_units_Z   4
loop_
 _symmetry_equiv_pos_site_id
 _symmetry_equiv_pos_as_xyz
  1  'x, y, z'
loop_
 _atom_site_type_symbol
 _atom_site_label
 _atom_site_symmetry_multiplicity
 _atom_site_fract_x
 _atom_site_fract_y
 _atom_site_fract_z
 _atom_site_occupancy
  In  In0  1  0.100156  0.100156  0.606046  1
  In  In1  1  0.554387  0.554387  0.250114  1
  In  In2  1  0.524722  0.524722  0.478062  1
  In  In3  1  0.491308  0.491308  0.763261  1
  In  In4  1  0.486154  0.992142  0.761622  1
  In  In5  1  0.845641  0.845641  0.444764  1
  In  In6  1  0.992142  0.486154  0.761622  1
  In  In7  1  0.874345  0.874345  0.919395  1
  S  S8  1  0.256027  0.746595  0.373296  1
  S  S9  1  0.268204  0.268204  0.624969  1
  S  S10  1  0.746595  0.256027  0.373296  1
  S  S11  1  0.258604  0.258604  0.858555  1
  S  S12  1  0.264315  0.722464  0.625339  1
  S  S13  1  0.763867  0.763867  0.109506  1
  S  S14  1  0.751882  0.751882  0.355130  1
  S  S15  1  0.722464  0.264315  0.625339  1
  S  S16  1  0.269410  0.736966  0.872560  1
  S  S17  1  0.736966  0.269410  0.872560  1
  S  S18  1  0.738791  0.738791  0.639524  1
  S  S19  1  0.729020  0.729020  0.872539  1
