# generated using pymatgen
data_Lu6CuTe2
_symmetry_space_group_name_H-M   'P 1'
_cell_length_a   3.94432108
_cell_length_b   11.31651823
_cell_length_c   21.14473704
_cell_angle_alpha   89.99639376
_cell_angle_beta   90.00167090
_cell_angle_gamma   89.99924810
_symmetry_Int_Tables_number   1
_chemical_formula_structural   Lu6CuTe2
_chemical_formula_sum   'Lu24 Cu4 Te8'
_cell_volume   943.81608691
_cell_formula_units_Z   4
loop_
 _symmetry_equiv_pos_site_id
 _symmetry_equiv_pos_as_xyz
  1  'x, y, z'
loop_
 _atom_site_type_symbol
 _atom_site_label
 _atom_site_symmetry_multiplicity
 _atom_site_fract_x
 _atom_site_fract_y
 _atom_site_fract_z
 _atom_site_occupancy
  Lu  Lu0  1  0.749994  0.939999  0.641370  1
  Lu  Lu1  1  0.250002  0.380348  0.475705  1
  Lu  Lu2  1  0.249999  0.119702  0.975752  1
  Lu  Lu3  1  0.249952  0.309444  0.108657  1
  Lu  Lu4  1  0.750018  0.236891  0.231907  1
  Lu  Lu5  1  0.250013  0.763131  0.768078  1
  Lu  Lu6  1  0.749994  0.690541  0.891331  1
  Lu  Lu7  1  0.249968  0.029721  0.154529  1
  Lu  Lu8  1  0.750042  0.112331  0.493689  1
  Lu  Lu9  1  0.250023  0.470306  0.654501  1
  Lu  Lu10  1  0.750006  0.880322  0.024285  1
  Lu  Lu11  1  0.750040  0.560015  0.141399  1
  Lu  Lu12  1  0.749965  0.809403  0.391368  1
  Lu  Lu13  1  0.750000  0.619693  0.524218  1
  Lu  Lu14  1  0.249990  0.439976  0.858634  1
  Lu  Lu15  1  0.250011  0.059985  0.358606  1
  Lu  Lu16  1  0.249992  0.190563  0.608650  1
  Lu  Lu17  1  0.249968  0.736861  0.268072  1
  Lu  Lu18  1  0.749997  0.387657  0.993689  1
  Lu  Lu19  1  0.750047  0.529765  0.345495  1
  Lu  Lu20  1  0.250008  0.612342  0.006319  1
  Lu  Lu21  1  0.749996  0.263104  0.731949  1
  Lu  Lu22  1  0.749978  0.970278  0.845472  1
  Lu  Lu23  1  0.249994  0.887631  0.506308  1
  Cu  Cu24  1  0.750019  0.136216  0.076660  1
  Cu  Cu25  1  0.250002  0.636208  0.423356  1
  Cu  Cu26  1  0.249960  0.863776  0.923371  1
  Cu  Cu27  1  0.749980  0.363815  0.576638  1
  Te  Te28  1  0.250025  0.733109  0.625777  1
  Te  Te29  1  0.750007  0.266888  0.374204  1
  Te  Te30  1  0.250015  0.045918  0.738718  1
  Te  Te31  1  0.250017  0.454081  0.238739  1
  Te  Te32  1  0.750009  0.233114  0.874211  1
  Te  Te33  1  0.750001  0.545921  0.761260  1
  Te  Te34  1  0.249993  0.766877  0.125803  1
  Te  Te35  1  0.749979  0.954069  0.261278  1
