# generated using pymatgen
data_BaTa2O6
_symmetry_space_group_name_H-M   'P 1'
_cell_length_a   10.06195144
_cell_length_b   9.29065839
_cell_length_c   14.19785104
_cell_angle_alpha   91.91654240
_cell_angle_beta   89.95377777
_cell_angle_gamma   118.93728441
_symmetry_Int_Tables_number   1
_chemical_formula_structural   BaTa2O6
_chemical_formula_sum   'Ba6 Ta12 O36'
_cell_volume   1160.70973757
_cell_formula_units_Z   6
loop_
 _symmetry_equiv_pos_site_id
 _symmetry_equiv_pos_as_xyz
  1  'x, y, z'
loop_
 _atom_site_type_symbol
 _atom_site_label
 _atom_site_symmetry_multiplicity
 _atom_site_fract_x
 _atom_site_fract_y
 _atom_site_fract_z
 _atom_site_occupancy
  Ba  Ba0  1  0.430731  0.421749  0.262621  1
  Ba  Ba1  1  0.417321  0.533473  0.747803  1
  Ba  Ba2  1  0.597021  0.969936  0.267430  1
  Ba  Ba3  1  0.620897  0.045562  0.756129  1
  Ba  Ba4  1  0.946392  0.512345  0.256208  1
  Ba  Ba5  1  0.892968  0.542960  0.730570  1
  Ta  Ta6  1  0.212547  0.962516  0.370666  1
  Ta  Ta7  1  0.202078  0.915489  0.875629  1
  Ta  Ta8  1  0.236867  0.966373  0.117019  1
  Ta  Ta9  1  0.188448  0.981469  0.632606  1
  Ta  Ta10  1  0.764648  0.751409  0.120680  1
  Ta  Ta11  1  0.774972  0.735819  0.363699  1
  Ta  Ta12  1  0.746519  0.788597  0.622173  1
  Ta  Ta13  1  0.762596  0.799919  0.868583  1
  Ta  Ta14  1  0.051571  0.261053  0.373888  1
  Ta  Ta15  1  0.997177  0.160374  0.109153  1
  Ta  Ta16  1  0.040675  0.379308  0.886342  1
  Ta  Ta17  1  0.051539  0.287485  0.639206  1
  O  O18  1  0.098908  0.280733  0.216018  1
  O  O19  1  0.162060  0.481229  0.368396  1
  O  O20  1  0.159767  0.508472  0.642518  1
  O  O21  1  0.133866  0.601391  0.862287  1
  O  O22  1  0.180236  0.143225  0.353730  1
  O  O23  1  0.559859  0.654921  0.137776  1
  O  O24  1  0.570146  0.801830  0.635418  1
  O  O25  1  0.583762  0.720187  0.350912  1
  O  O26  1  0.579119  0.805451  0.859282  1
  O  O27  1  0.264461  0.875291  0.999739  1
  O  O28  1  0.206009  0.847680  0.226822  1
  O  O29  1  0.241716  0.955546  0.508501  1
  O  O30  1  0.283079  0.937053  0.740726  1
  O  O31  1  0.395319  0.165131  0.145241  1
  O  O32  1  0.207255  0.189700  0.644605  1
  O  O33  1  0.416273  0.049281  0.350862  1
  O  O34  1  0.266349  0.128029  0.896344  1
  O  O35  1  0.835141  0.861078  0.244869  1
  O  O36  1  0.809199  0.867897  0.001615  1
  O  O37  1  0.823575  0.914138  0.746630  1
  O  O38  1  0.804618  0.826960  0.492912  1
  O  O39  1  0.815933  0.589655  0.116842  1
  O  O40  1  0.708406  0.515876  0.337053  1
  O  O41  1  0.685059  0.580565  0.843752  1
  O  O42  1  0.669753  0.570012  0.642738  1
  O  O43  1  0.059456  0.989768  0.105070  1
  O  O44  1  0.987576  0.831802  0.637706  1
  O  O45  1  0.004265  0.777243  0.365339  1
  O  O46  1  -0.004928  0.830017  0.862875  1
  O  O47  1  0.857647  0.212041  0.338241  1
  O  O48  1  0.800945  0.103121  0.130595  1
  O  O49  1  0.839641  0.304577  0.862284  1
  O  O50  1  0.855535  0.249051  0.660010  1
  O  O51  1  0.071426  0.312859  0.010303  1
  O  O52  1  0.033319  0.223244  0.506441  1
  O  O53  1  0.100283  0.289109  0.785143  1
