# generated using pymatgen
data_Fe6Sn2(CO)23
_symmetry_space_group_name_H-M   'P 1'
_cell_length_a   8.97468024
_cell_length_b   12.67073557
_cell_length_c   16.63837175
_cell_angle_alpha   95.52997827
_cell_angle_beta   104.39067406
_cell_angle_gamma   100.60199022
_symmetry_Int_Tables_number   1
_chemical_formula_structural   Fe6Sn2(CO)23
_chemical_formula_sum   'Fe12 Sn4 C46 O46'
_cell_volume   1781.21972927
_cell_formula_units_Z   2
loop_
 _symmetry_equiv_pos_site_id
 _symmetry_equiv_pos_as_xyz
  1  'x, y, z'
loop_
 _atom_site_type_symbol
 _atom_site_label
 _atom_site_symmetry_multiplicity
 _atom_site_fract_x
 _atom_site_fract_y
 _atom_site_fract_z
 _atom_site_occupancy
  Fe  Fe0  1  0.644742  0.770610  0.735001  1
  Fe  Fe1  1  0.174357  0.864590  0.143367  1
  Fe  Fe2  1  0.726477  0.877463  0.599128  1
  Fe  Fe3  1  0.273523  0.122537  0.400872  1
  Fe  Fe4  1  0.103057  0.081441  0.838449  1
  Fe  Fe5  1  0.355258  0.229390  0.264999  1
  Fe  Fe6  1  0.825643  0.135410  0.856633  1
  Fe  Fe7  1  0.171549  0.457921  0.834773  1
  Fe  Fe8  1  0.023836  0.633576  0.334189  1
  Fe  Fe9  1  0.828451  0.542079  0.165227  1
  Fe  Fe10  1  0.896943  0.918559  0.161551  1
  Fe  Fe11  1  0.976164  0.366424  0.665811  1
  Sn  Sn12  1  0.176740  0.036957  0.243954  1
  Sn  Sn13  1  0.987580  0.740341  0.207423  1
  Sn  Sn14  1  0.823260  0.963043  0.756046  1
  Sn  Sn15  1  0.012420  0.259659  0.792577  1
  C  C16  1  0.185811  0.020616  0.450906  1
  C  C17  1  0.869206  0.692943  0.357830  1
  C  C18  1  0.814189  0.979384  0.549094  1
  C  C19  1  0.706467  0.041296  0.900545  1
  C  C20  1  0.160045  0.713905  0.424807  1
  C  C21  1  0.507026  0.152986  0.265583  1
  C  C22  1  0.143123  0.066006  0.737594  1
  C  C23  1  0.668317  0.591771  0.192393  1
  C  C24  1  0.000460  0.487623  0.862801  1
  C  C25  1  0.293533  0.958704  0.099455  1
  C  C26  1  0.435887  0.056737  0.403868  1
  C  C27  1  0.387362  0.237285  0.478776  1
  C  C28  1  0.812491  0.405967  0.696360  1
  C  C29  1  0.093032  0.170918  0.383906  1
  C  C30  1  0.520937  0.653227  0.663687  1
  C  C31  1  0.492974  0.847014  0.734417  1
  C  C32  1  0.292222  0.164583  0.892411  1
  C  C33  1  0.231565  0.590923  0.809730  1
  C  C34  1  0.331683  0.408229  0.807607  1
  C  C35  1  0.768435  0.409077  0.190270  1
  C  C36  1  0.855497  0.043938  0.131686  1
  C  C37  1  0.964609  0.508806  0.371560  1
  C  C38  1  0.838663  0.248949  0.931889  1
  C  C39  1  0.564113  0.943263  0.596132  1
  C  C40  1  0.839955  0.286095  0.575193  1
  C  C41  1  0.612638  0.762715  0.521224  1
  C  C42  1  0.328489  0.839535  0.226385  1
  C  C43  1  0.130794  0.307057  0.642170  1
  C  C44  1  0.906968  0.829082  0.616094  1
  C  C45  1  0.639395  0.740633  0.836261  1
  C  C46  1  0.268206  0.466407  0.942680  1
  C  C47  1  0.707778  0.835417  0.107589  1
  C  C48  1  0.971670  0.888211  0.062079  1
  C  C49  1  0.035391  0.491194  0.628440  1
  C  C50  1  0.856877  0.933994  0.262406  1
  C  C51  1  0.821272  0.719936  0.746201  1
  C  C52  1  0.028330  0.111789  0.937921  1
  C  C53  1  0.999540  0.512377  0.137199  1
  C  C54  1  0.360605  0.259367  0.163739  1
  C  C55  1  0.479063  0.346773  0.336313  1
  C  C56  1  0.187509  0.594033  0.303640  1
  C  C57  1  0.161337  0.751051  0.068112  1
  C  C58  1  0.671511  0.160465  0.773615  1
  C  C59  1  0.731794  0.533593  0.057320  1
  C  C60  1  0.144503  0.956062  0.868314  1
  C  C61  1  0.178728  0.280064  0.253799  1
  O  O62  1  0.750944  0.240526  0.512969  1
  O  O63  1  0.557167  0.618987  0.202878  1
  O  O64  1  0.101685  0.487916  0.113810  1
  O  O65  1  0.442833  0.381013  0.797122  1
  O  O66  1  0.223386  0.268090  0.619515  1
  O  O67  1  0.556521  0.424768  0.380130  1
  O  O68  1  0.434898  0.819843  0.274567  1
  O  O69  1  0.419806  0.212920  0.925509  1
  O  O70  1  0.724862  0.321965  0.203084  1
  O  O71  1  0.124930  0.954021  0.482528  1
  O  O72  1  0.163077  0.682815  0.016458  1
  O  O73  1  0.069464  0.319318  0.243856  1
  O  O74  1  0.605327  0.105779  0.262906  1
  O  O75  1  0.898315  0.512084  0.886190  1
  O  O76  1  0.929218  0.881161  0.988111  1
  O  O77  1  0.976037  0.199984  0.377919  1
  O  O78  1  0.394673  0.894221  0.737094  1
  O  O79  1  0.334990  0.476846  0.013182  1
  O  O80  1  0.023963  0.800016  0.622081  1
  O  O81  1  0.275138  0.678035  0.796916  1
  O  O82  1  0.665010  0.523154  0.986818  1
  O  O83  1  0.443479  0.575232  0.619870  1
  O  O84  1  0.632298  0.716308  0.900861  1
  O  O85  1  0.622036  0.987518  0.930768  1
  O  O86  1  0.819770  0.946561  0.324331  1
  O  O87  1  0.182830  0.877349  0.887964  1
  O  O88  1  0.367702  0.283692  0.099139  1
  O  O89  1  0.565102  0.180157  0.725433  1
  O  O90  1  0.460814  0.988021  0.589568  1
  O  O91  1  0.702248  0.432662  0.708691  1
  O  O92  1  0.297752  0.567338  0.291309  1
  O  O93  1  0.540680  0.688871  0.471265  1
  O  O94  1  0.929827  0.430851  0.400054  1
  O  O95  1  0.377964  0.012482  0.069232  1
  O  O96  1  0.875070  0.045979  0.517472  1
  O  O97  1  0.776614  0.731910  0.380485  1
  O  O98  1  0.180230  0.053439  0.675669  1
  O  O99  1  0.836923  0.317185  0.983542  1
  O  O100  1  0.459320  0.311129  0.528735  1
  O  O101  1  0.539186  0.011979  0.410432  1
  O  O102  1  0.930536  0.680682  0.756144  1
  O  O103  1  0.070173  0.569149  0.599946  1
  O  O104  1  0.817170  0.122651  0.112036  1
  O  O105  1  0.249056  0.759474  0.487031  1
  O  O106  1  0.070782  0.118839  0.011889  1
  O  O107  1  0.580194  0.787080  0.074491  1
