# generated using pymatgen
data_K2Cd2(SO4)3
_symmetry_space_group_name_H-M   'P 1'
_cell_length_a   10.48117945
_cell_length_b   10.48117945
_cell_length_c   10.48117945
_cell_angle_alpha   90.00000000
_cell_angle_beta   90.00000000
_cell_angle_gamma   90.00000000
_symmetry_Int_Tables_number   1
_chemical_formula_structural   K2Cd2(SO4)3
_chemical_formula_sum   'K8 Cd8 S12 O48'
_cell_volume   1151.41125413
_cell_formula_units_Z   4
loop_
 _symmetry_equiv_pos_site_id
 _symmetry_equiv_pos_as_xyz
  1  'x, y, z'
loop_
 _atom_site_type_symbol
 _atom_site_label
 _atom_site_symmetry_multiplicity
 _atom_site_fract_x
 _atom_site_fract_y
 _atom_site_fract_z
 _atom_site_occupancy
  O  O0  1  0.583325  0.763442  0.981087  1
  O  O1  1  0.083325  0.736558  0.018913  1
  O  O2  1  0.416675  0.263442  0.518913  1
  O  O3  1  0.736558  0.018913  0.083325  1
  O  O4  1  0.518913  0.416675  0.263442  1
  O  O5  1  0.018913  0.083325  0.736558  1
  O  O6  1  0.763442  0.981087  0.583325  1
  O  O7  1  0.981087  0.583325  0.763442  1
  O  O8  1  0.263442  0.518913  0.416675  1
  O  O9  1  0.236558  0.481087  0.916675  1
  O  O10  1  0.481087  0.916675  0.236558  1
  O  O11  1  0.916675  0.236558  0.481087  1
  O  O12  1  0.074584  0.859775  0.761717  1
  O  O13  1  0.574584  0.640225  0.238283  1
  O  O14  1  0.925416  0.359775  0.738283  1
  O  O15  1  0.640225  0.238283  0.574584  1
  O  O16  1  0.738283  0.925416  0.359775  1
  O  O17  1  0.238283  0.574584  0.640225  1
  O  O18  1  0.674455  0.778031  0.528945  1
  O  O19  1  0.859775  0.761717  0.074584  1
  O  O20  1  0.359775  0.738283  0.925416  1
  O  O21  1  0.140225  0.261717  0.425416  1
  O  O22  1  0.261717  0.425416  0.140225  1
  O  O23  1  0.425416  0.140225  0.261717  1
  O  O24  1  0.221969  0.028945  0.825545  1
  O  O25  1  0.721969  0.471055  0.174455  1
  O  O26  1  0.778031  0.528945  0.674455  1
  O  O27  1  0.471055  0.174455  0.721969  1
  O  O28  1  0.099855  0.316663  0.010293  1
  O  O29  1  0.010293  0.099855  0.316663  1
  O  O30  1  0.316663  0.010293  0.099855  1
  O  O31  1  0.183337  0.989707  0.599855  1
  O  O32  1  0.510293  0.400145  0.683337  1
  O  O33  1  0.683337  0.510293  0.400145  1
  O  O34  1  0.489707  0.900145  0.816663  1
  O  O35  1  0.989707  0.599855  0.183337  1
  O  O36  1  0.816663  0.489707  0.900145  1
  O  O37  1  0.599855  0.183337  0.989707  1
  O  O38  1  0.900145  0.816663  0.489707  1
  O  O39  1  0.400145  0.683337  0.510293  1
  O  O40  1  0.278031  0.971055  0.325545  1
  O  O41  1  0.325545  0.278031  0.971055  1
  O  O42  1  0.971055  0.325545  0.278031  1
  O  O43  1  0.528945  0.674455  0.778031  1
  O  O44  1  0.825545  0.221969  0.028945  1
  O  O45  1  0.028945  0.825545  0.221969  1
  O  O46  1  0.174455  0.721969  0.471055  1
  O  O47  1  0.761717  0.074584  0.859775  1
  S  S48  1  0.269497  0.624932  0.510416  1
  S  S49  1  0.769497  0.875068  0.489584  1
  S  S50  1  0.730503  0.124932  0.989584  1
  S  S51  1  0.875068  0.489584  0.769497  1
  S  S52  1  0.989584  0.730503  0.124932  1
  S  S53  1  0.489584  0.769497  0.875068  1
  S  S54  1  0.624932  0.510416  0.269497  1
  S  S55  1  0.510416  0.269497  0.624932  1
  S  S56  1  0.124932  0.989584  0.730503  1
  S  S57  1  0.230503  0.375068  0.010416  1
  S  S58  1  0.010416  0.230503  0.375068  1
  S  S59  1  0.375068  0.010416  0.230503  1
  K  K60  1  0.688365  0.188365  0.311635  1
  K  K61  1  0.311635  0.688365  0.188365  1
  K  K62  1  0.945855  0.554145  0.445855  1
  K  K63  1  0.811635  0.811635  0.811635  1
  K  K64  1  0.054145  0.054145  0.054145  1
  K  K65  1  0.445855  0.945855  0.554145  1
  K  K66  1  0.554145  0.445855  0.945855  1
  K  K67  1  0.188365  0.311635  0.688365  1
  Cd  Cd68  1  0.326724  0.326724  0.326724  1
  Cd  Cd69  1  0.173276  0.673276  0.826724  1
  Cd  Cd70  1  0.826724  0.173276  0.673276  1
  Cd  Cd71  1  0.673276  0.826724  0.173276  1
  Cd  Cd72  1  0.417627  0.082373  0.917627  1
  Cd  Cd73  1  0.082373  0.917627  0.417627  1
  Cd  Cd74  1  0.582373  0.582373  0.582373  1
  Cd  Cd75  1  0.917627  0.417627  0.082373  1
