# generated using pymatgen
data_HCN
_symmetry_space_group_name_H-M   'P 1'
_cell_length_a   3.85751430
_cell_length_b   3.85751430
_cell_length_c   3.85751430
_cell_angle_alpha   114.97702845
_cell_angle_beta   101.74645797
_cell_angle_gamma   111.97264689
_symmetry_Int_Tables_number   1
_chemical_formula_structural   HCN
_chemical_formula_sum   'H1 C1 N1'
_cell_volume   43.56190128
_cell_formula_units_Z   1
loop_
 _symmetry_equiv_pos_site_id
 _symmetry_equiv_pos_as_xyz
  1  'x, y, z'
loop_
 _atom_site_type_symbol
 _atom_site_label
 _atom_site_symmetry_multiplicity
 _atom_site_fract_x
 _atom_site_fract_y
 _atom_site_fract_z
 _atom_site_occupancy
  H  H0  1  0.751865  0.751865  0.000000  1
  C  C1  1  0.003483  0.003483  0.000000  1
  N  N2  1  0.272352  0.272352  0.000000  1
