# generated using pymatgen
data_NaCa3ScZn3(SiO3)8
_symmetry_space_group_name_H-M   'P 1'
_cell_length_a   5.33745828
_cell_length_b   26.96408894
_cell_length_c   9.97909498
_cell_angle_alpha   42.25353142
_cell_angle_beta   73.89794172
_cell_angle_gamma   78.15367706
_symmetry_Int_Tables_number   1
_chemical_formula_structural   NaCa3ScZn3(SiO3)8
_chemical_formula_sum   'Na2 Ca6 Sc2 Zn6 Si16 O48'
_cell_volume   927.82528029
_cell_formula_units_Z   2
loop_
 _symmetry_equiv_pos_site_id
 _symmetry_equiv_pos_as_xyz
  1  'x, y, z'
loop_
 _atom_site_type_symbol
 _atom_site_label
 _atom_site_symmetry_multiplicity
 _atom_site_fract_x
 _atom_site_fract_y
 _atom_site_fract_z
 _atom_site_occupancy
  Na  Na0  1  0.250000  0.846974  0.306053  1
  Na  Na1  1  0.750000  0.903026  0.693947  1
  Ca  Ca2  1  0.250000  0.100095  0.299810  1
  Ca  Ca3  1  0.250000  0.351363  0.297274  1
  Ca  Ca4  1  0.250000  0.598941  0.302119  1
  Ca  Ca5  1  0.750000  0.151059  0.697881  1
  Ca  Ca6  1  0.750000  0.398637  0.702726  1
  Ca  Ca7  1  0.750000  0.649905  0.700190  1
  Sc  Sc8  1  0.250000  0.801393  0.897214  1
  Sc  Sc9  1  0.750000  0.948607  0.102786  1
  Zn  Zn10  1  0.250000  0.049299  0.901403  1
  Zn  Zn11  1  0.250000  0.297119  0.905763  1
  Zn  Zn12  1  0.750000  0.201641  0.096718  1
  Zn  Zn13  1  0.250000  0.548359  0.903282  1
  Zn  Zn14  1  0.750000  0.452881  0.094237  1
  Zn  Zn15  1  0.750000  0.700701  0.098597  1
  Si  Si16  1  0.267070  0.204692  0.376932  1
  Si  Si17  1  0.232930  0.204692  0.804299  1
  Si  Si18  1  0.267198  0.453134  0.379123  1
  Si  Si19  1  0.762672  0.045805  0.195959  1
  Si  Si20  1  0.232802  0.453134  0.808340  1
  Si  Si21  1  0.262672  0.704195  0.379181  1
  Si  Si22  1  0.737328  0.045805  0.620819  1
  Si  Si23  1  0.767198  0.296866  0.191660  1
  Si  Si24  1  0.237328  0.704195  0.804041  1
  Si  Si25  1  0.262268  0.955030  0.376392  1
  Si  Si26  1  0.732802  0.296866  0.620877  1
  Si  Si27  1  0.767070  0.545308  0.195701  1
  Si  Si28  1  0.237732  0.955030  0.803487  1
  Si  Si29  1  0.732930  0.545308  0.623068  1
  Si  Si30  1  0.762268  0.794970  0.196513  1
  Si  Si31  1  0.737732  0.794970  0.623608  1
  O  O32  1  0.998034  0.008738  0.328820  1
  O  O33  1  0.999551  0.259230  0.329632  1
  O  O34  1  0.174701  0.127708  0.609601  1
  O  O35  1  0.000181  0.507653  0.332828  1
  O  O36  1  0.353525  0.205057  0.206998  1
  O  O37  1  0.146475  0.205057  0.972775  1
  O  O38  1  0.175195  0.375487  0.610664  1
  O  O39  1  0.991772  0.755899  0.337113  1
  O  O40  1  0.501966  0.008738  0.636230  1
  O  O41  1  0.325299  0.127708  0.879568  1
  O  O42  1  0.354500  0.454930  0.206506  1
  O  O43  1  0.676499  0.124085  0.113399  1
  O  O44  1  0.500181  0.242347  0.363441  1
  O  O45  1  0.847952  0.043419  0.030575  1
  O  O46  1  0.145500  0.454930  0.973776  1
  O  O47  1  0.176499  0.625915  0.609740  1
  O  O48  1  0.500449  0.259230  0.633450  1
  O  O49  1  0.324805  0.375487  0.887387  1
  O  O50  1  0.652048  0.043419  0.795749  1
  O  O51  1  0.347952  0.706581  0.204251  1
  O  O52  1  0.675195  0.374513  0.112613  1
  O  O53  1  0.499551  0.490770  0.366550  1
  O  O54  1  0.823501  0.124085  0.390260  1
  O  O55  1  0.854500  0.295070  0.026224  1
  O  O56  1  0.152048  0.706581  0.969425  1
  O  O57  1  0.186897  0.876298  0.608642  1
  O  O58  1  0.499819  0.507653  0.636559  1
  O  O59  1  0.323501  0.625915  0.886601  1
  O  O60  1  0.645500  0.295070  0.793494  1
  O  O61  1  0.355474  0.957697  0.202014  1
  O  O62  1  0.674701  0.622292  0.120432  1
  O  O63  1  0.498034  0.741262  0.363770  1
  O  O64  1  0.824805  0.374513  0.389336  1
  O  O65  1  0.853525  0.544943  0.027225  1
  O  O66  1  0.144526  0.957697  0.967197  1
  O  O67  1  0.508228  0.755899  0.639292  1
  O  O68  1  0.313103  0.876298  0.886166  1
  O  O69  1  0.646475  0.544943  0.793002  1
  O  O70  1  0.686897  0.873702  0.113834  1
  O  O71  1  0.491772  0.994101  0.360708  1
  O  O72  1  -0.000181  0.242347  0.667172  1
  O  O73  1  0.825299  0.622292  0.390399  1
  O  O74  1  0.855474  0.792303  0.032803  1
  O  O75  1  0.644526  0.792303  0.797986  1
  O  O76  1  0.000449  0.490770  0.670368  1
  O  O77  1  0.813103  0.873702  0.391358  1
  O  O78  1  0.001966  0.741262  0.671180  1
  O  O79  1  0.008228  0.994101  0.662887  1
