# generated using pymatgen
data_Rb14Si6Ge4O17
_symmetry_space_group_name_H-M   'P 1'
_cell_length_a   8.01408791
_cell_length_b   14.74205847
_cell_length_c   33.08476166
_cell_angle_alpha   102.21766098
_cell_angle_beta   90.00000000
_cell_angle_gamma   90.00000000
_symmetry_Int_Tables_number   1
_chemical_formula_structural   Rb14Si6Ge4O17
_chemical_formula_sum   'Rb56 Si24 Ge16 O68'
_cell_volume   3820.24023229
_cell_formula_units_Z   4
loop_
 _symmetry_equiv_pos_site_id
 _symmetry_equiv_pos_as_xyz
  1  'x, y, z'
loop_
 _atom_site_type_symbol
 _atom_site_label
 _atom_site_symmetry_multiplicity
 _atom_site_fract_x
 _atom_site_fract_y
 _atom_site_fract_z
 _atom_site_occupancy
  Rb  Rb0  1  0.485533  0.951464  0.108402  1
  Rb  Rb1  1  0.137897  0.299061  0.360145  1
  Rb  Rb2  1  0.135161  0.643665  0.528817  1
  Rb  Rb3  1  0.552837  0.447047  0.111062  1
  Rb  Rb4  1  0.052432  0.795583  0.242589  1
  Rb  Rb5  1  0.985533  0.548536  0.391598  1
  Rb  Rb6  1  0.051531  0.320676  0.116938  1
  Rb  Rb7  1  0.989807  0.294367  0.242130  1
  Rb  Rb8  1  0.363524  0.073742  0.784679  1
  Rb  Rb9  1  0.862103  0.700939  0.639855  1
  Rb  Rb10  1  0.514467  0.048536  0.891598  1
  Rb  Rb11  1  0.542380  0.949464  0.432697  1
  Rb  Rb12  1  0.957620  0.449464  0.932697  1
  Rb  Rb13  1  0.948469  0.679324  0.883062  1
  Rb  Rb14  1  0.468965  0.677826  0.370581  1
  Rb  Rb15  1  0.448469  0.820676  0.616938  1
  Rb  Rb16  1  0.551531  0.179324  0.383062  1
  Rb  Rb17  1  0.947568  0.204417  0.757411  1
  Rb  Rb18  1  0.447163  0.552953  0.888938  1
  Rb  Rb19  1  0.011545  0.008179  0.067257  1
  Rb  Rb20  1  0.488455  0.508179  0.567257  1
  Rb  Rb21  1  0.489807  0.205633  0.257870  1
  Rb  Rb22  1  0.531035  0.322174  0.629419  1
  Rb  Rb23  1  0.042380  0.550536  0.067303  1
  Rb  Rb24  1  0.097517  0.921348  0.712697  1
  Rb  Rb25  1  0.136476  0.573742  0.284679  1
  Rb  Rb26  1  0.901163  0.790998  0.355082  1
  Rb  Rb27  1  0.636476  0.926258  0.215321  1
  Rb  Rb28  1  0.098837  0.209002  0.644918  1
  Rb  Rb29  1  0.364839  0.143665  0.028817  1
  Rb  Rb30  1  0.510193  0.794367  0.742130  1
  Rb  Rb31  1  0.401163  0.709002  0.144918  1
  Rb  Rb32  1  0.598837  0.290998  0.855082  1
  Rb  Rb33  1  0.869510  0.124066  0.533821  1
  Rb  Rb34  1  0.010193  0.705633  0.757870  1
  Rb  Rb35  1  0.864839  0.356335  0.471183  1
  Rb  Rb36  1  0.863524  0.426258  0.715321  1
  Rb  Rb37  1  0.457620  0.050536  0.567303  1
  Rb  Rb38  1  0.988455  0.991821  0.932743  1
  Rb  Rb39  1  0.552432  0.704417  0.257411  1
  Rb  Rb40  1  0.130490  0.875934  0.466179  1
  Rb  Rb41  1  0.902483  0.078652  0.287303  1
  Rb  Rb42  1  0.511545  0.491821  0.432743  1
  Rb  Rb43  1  0.597517  0.578652  0.787303  1
  Rb  Rb44  1  0.014467  0.451464  0.608402  1
  Rb  Rb45  1  0.947163  0.947047  0.611062  1
  Rb  Rb46  1  0.052837  0.052953  0.388938  1
  Rb  Rb47  1  0.369510  0.375934  0.966179  1
  Rb  Rb48  1  0.630490  0.624066  0.033821  1
  Rb  Rb49  1  0.637897  0.200939  0.139855  1
  Rb  Rb50  1  0.402483  0.421348  0.212697  1
  Rb  Rb51  1  0.635161  0.856335  0.971183  1
  Rb  Rb52  1  0.362103  0.799061  0.860145  1
  Rb  Rb53  1  0.447568  0.295583  0.742589  1
  Rb  Rb54  1  0.968965  0.822174  0.129419  1
  Rb  Rb55  1  0.031035  0.177826  0.870581  1
  Si  Si56  1  0.142358  0.560708  0.174001  1
  Si  Si57  1  0.357642  0.060708  0.674001  1
  Si  Si58  1  0.103804  0.935355  0.823914  1
  Si  Si59  1  0.603804  0.564645  0.676086  1
  Si  Si60  1  0.772463  0.013385  0.798103  1
  Si  Si61  1  0.261686  0.646726  0.654492  1
  Si  Si62  1  0.857642  0.439292  0.825999  1
  Si  Si63  1  0.706850  0.145228  0.659771  1
  Si  Si64  1  0.727537  0.513385  0.298103  1
  Si  Si65  1  0.682262  0.974314  0.699087  1
  Si  Si66  1  0.396196  0.435355  0.323914  1
  Si  Si67  1  0.738314  0.353274  0.345508  1
  Si  Si68  1  0.817738  0.474314  0.199087  1
  Si  Si69  1  0.793150  0.645228  0.159771  1
  Si  Si70  1  0.317738  0.025686  0.300913  1
  Si  Si71  1  0.761686  0.853274  0.845508  1
  Si  Si72  1  0.182262  0.525686  0.800913  1
  Si  Si73  1  0.293150  0.854772  0.340229  1
  Si  Si74  1  0.272463  0.486615  0.701897  1
  Si  Si75  1  0.896196  0.064645  0.176086  1
  Si  Si76  1  0.238314  0.146726  0.154492  1
  Si  Si77  1  0.642358  0.939292  0.325999  1
  Si  Si78  1  0.206850  0.354772  0.840229  1
  Si  Si79  1  0.227537  0.986615  0.201897  1
  Ge  Ge80  1  0.712456  0.677282  0.526018  1
  Ge  Ge81  1  0.233010  0.647314  0.978540  1
  Ge  Ge82  1  0.524444  0.247424  0.508393  1
  Ge  Ge83  1  0.212456  0.822718  0.973982  1
  Ge  Ge84  1  0.264293  0.774383  0.044700  1
  Ge  Ge85  1  0.235707  0.274383  0.544700  1
  Ge  Ge86  1  0.733010  0.852686  0.521460  1
  Ge  Ge87  1  0.764293  0.725617  0.455300  1
  Ge  Ge88  1  0.975556  0.747424  0.008393  1
  Ge  Ge89  1  0.024444  0.252576  0.991607  1
  Ge  Ge90  1  0.287544  0.322718  0.473982  1
  Ge  Ge91  1  0.266990  0.147314  0.478540  1
  Ge  Ge92  1  0.735707  0.225617  0.955300  1
  Ge  Ge93  1  0.787544  0.177282  0.026018  1
  Ge  Ge94  1  0.766990  0.352686  0.021460  1
  Ge  Ge95  1  0.475556  0.752576  0.491607  1
  O  O96  1  0.234699  0.116107  0.709192  1
  O  O97  1  0.495639  0.136546  0.660322  1
  O  O98  1  0.704284  0.751510  0.821486  1
  O  O99  1  0.227912  0.500893  0.132561  1
  O  O100  1  0.221373  0.875449  0.788678  1
  O  O101  1  0.795716  0.251510  0.321486  1
  O  O102  1  0.238683  0.753184  0.315046  1
  O  O103  1  0.723290  0.979509  0.748506  1
  O  O104  1  0.520994  0.504134  0.300614  1
  O  O105  1  0.186096  0.566340  0.680042  1
  O  O106  1  0.304904  0.502068  0.362761  1
  O  O107  1  0.276710  0.020491  0.251494  1
  O  O108  1  0.772088  0.499107  0.867439  1
  O  O109  1  0.721373  0.624551  0.711322  1
  O  O110  1  0.248042  0.622114  0.828382  1
  O  O111  1  0.023022  0.487518  0.196100  1
  O  O112  1  0.686096  0.933660  0.819958  1
  O  O113  1  0.273945  0.383117  0.887334  1
  O  O114  1  0.028657  0.136097  0.157808  1
  O  O115  1  0.251958  0.122114  0.328382  1
  O  O116  1  0.738683  0.746816  0.184954  1
  O  O117  1  0.207215  0.383907  0.682230  1
  O  O118  1  0.223290  0.520491  0.751494  1
  O  O119  1  0.734699  0.383893  0.790808  1
  O  O120  1  0.476978  0.987518  0.696100  1
  O  O121  1  0.748042  0.877886  0.671618  1
  O  O122  1  0.765301  0.883893  0.290808  1
  O  O123  1  0.751958  0.377886  0.171618  1
  O  O124  1  0.292785  0.883907  0.182230  1
  O  O125  1  0.479006  0.495866  0.699386  1
  O  O126  1  0.226099  0.934590  0.313391  1
  O  O127  1  0.261317  0.253184  0.815046  1
  O  O128  1  0.702526  0.883952  0.893328  1
  O  O129  1  0.204284  0.748490  0.678514  1
  O  O130  1  0.971343  0.863903  0.842192  1
  O  O131  1  0.726055  0.616883  0.112666  1
  O  O132  1  0.695096  0.497932  0.637239  1
  O  O133  1  0.773901  0.065410  0.686609  1
  O  O134  1  0.995639  0.363454  0.839678  1
  O  O135  1  0.295716  0.248490  0.178514  1
  O  O136  1  0.272088  0.000893  0.632561  1
  O  O137  1  0.004361  0.636546  0.160322  1
  O  O138  1  0.813904  0.433660  0.319958  1
  O  O139  1  0.273901  0.434590  0.813391  1
  O  O140  1  0.313904  0.066340  0.180042  1
  O  O141  1  0.797474  0.383952  0.393328  1
  O  O142  1  0.195096  0.002068  0.862761  1
  O  O143  1  0.202526  0.616048  0.606672  1
  O  O144  1  0.265301  0.616107  0.209192  1
  O  O145  1  0.528657  0.363903  0.342192  1
  O  O146  1  0.761317  0.246816  0.684954  1
  O  O147  1  0.471343  0.636097  0.657808  1
  O  O148  1  0.773945  0.116883  0.612666  1
  O  O149  1  0.727912  0.999107  0.367439  1
  O  O150  1  0.020994  0.995866  0.199386  1
  O  O151  1  0.726099  0.565410  0.186609  1
  O  O152  1  0.297474  0.116048  0.106672  1
  O  O153  1  0.504361  0.863454  0.339678  1
  O  O154  1  0.707215  0.116093  0.817770  1
  O  O155  1  0.776710  0.479509  0.248506  1
  O  O156  1  0.523022  0.012482  0.303900  1
  O  O157  1  0.792785  0.616093  0.317770  1
  O  O158  1  0.778627  0.124551  0.211322  1
  O  O159  1  0.976978  0.512482  0.803900  1
  O  O160  1  0.804904  0.997932  0.137239  1
  O  O161  1  0.979006  0.004134  0.800614  1
  O  O162  1  0.278627  0.375449  0.288678  1
  O  O163  1  0.226055  0.883117  0.387334  1
