# generated using pymatgen
data_W2C7Br4O7
_symmetry_space_group_name_H-M   'P 1'
_cell_length_a   8.27735027
_cell_length_b   9.92943811
_cell_length_c   20.81091601
_cell_angle_alpha   90.00000000
_cell_angle_beta   90.00000000
_cell_angle_gamma   90.00000000
_symmetry_Int_Tables_number   1
_chemical_formula_structural   W2C7Br4O7
_chemical_formula_sum   'W8 C28 Br16 O28'
_cell_volume   1710.43747491
_cell_formula_units_Z   4
loop_
 _symmetry_equiv_pos_site_id
 _symmetry_equiv_pos_as_xyz
  1  'x, y, z'
loop_
 _atom_site_type_symbol
 _atom_site_label
 _atom_site_symmetry_multiplicity
 _atom_site_fract_x
 _atom_site_fract_y
 _atom_site_fract_z
 _atom_site_occupancy
  W  W0  1  0.750000  0.216036  0.645487  1
  W  W1  1  0.750000  0.849365  0.595578  1
  W  W2  1  0.250000  0.150635  0.404422  1
  W  W3  1  0.750000  0.650635  0.095578  1
  W  W4  1  0.750000  0.283964  0.145487  1
  W  W5  1  0.250000  0.716036  0.854513  1
  W  W6  1  0.250000  0.349365  0.904422  1
  W  W7  1  0.250000  0.783964  0.354513  1
  C  C8  1  0.250000  0.626168  0.418355  1
  C  C9  1  0.750000  0.373832  0.581645  1
  C  C10  1  0.250000  0.199169  0.498717  1
  C  C11  1  0.945201  0.769833  0.081383  1
  C  C12  1  0.250000  0.739544  0.257153  1
  C  C13  1  0.539910  0.173806  0.159162  1
  C  C14  1  0.460090  0.673806  0.340838  1
  C  C15  1  0.960090  0.326194  0.659162  1
  C  C16  1  0.445201  0.230167  0.918617  1
  C  C17  1  0.960090  0.173806  0.159162  1
  C  C18  1  0.750000  0.260456  0.742847  1
  C  C19  1  0.945201  0.730167  0.581383  1
  C  C20  1  0.460090  0.826194  0.840838  1
  C  C21  1  0.750000  0.699169  0.001283  1
  C  C22  1  0.039910  0.673806  0.340838  1
  C  C23  1  0.054799  0.269833  0.418617  1
  C  C24  1  0.539910  0.326194  0.659162  1
  C  C25  1  0.250000  0.873832  0.918355  1
  C  C26  1  0.445201  0.269833  0.418617  1
  C  C27  1  0.250000  0.760456  0.757153  1
  C  C28  1  0.554799  0.730167  0.581383  1
  C  C29  1  0.750000  0.800831  0.501283  1
  C  C30  1  0.750000  0.126168  0.081645  1
  C  C31  1  0.039910  0.826194  0.840838  1
  C  C32  1  0.054799  0.230167  0.918617  1
  C  C33  1  0.750000  0.239544  0.242847  1
  C  C34  1  0.250000  0.300831  0.998717  1
  C  C35  1  0.554799  0.769833  0.081383  1
  Br  Br36  1  0.537176  0.011656  0.662797  1
  Br  Br37  1  0.250000  0.590793  0.971780  1
  Br  Br38  1  0.250000  0.317724  0.302404  1
  Br  Br39  1  0.037176  0.988344  0.337203  1
  Br  Br40  1  0.962824  0.011656  0.662797  1
  Br  Br41  1  0.750000  0.409207  0.028220  1
  Br  Br42  1  0.037176  0.511656  0.837203  1
  Br  Br43  1  0.750000  0.090793  0.528220  1
  Br  Br44  1  0.537176  0.488344  0.162797  1
  Br  Br45  1  0.250000  0.909207  0.471780  1
  Br  Br46  1  0.250000  0.182276  0.802404  1
  Br  Br47  1  0.462824  0.988344  0.337203  1
  Br  Br48  1  0.462824  0.511656  0.837203  1
  Br  Br49  1  0.750000  0.817724  0.197596  1
  Br  Br50  1  0.750000  0.682276  0.697596  1
  Br  Br51  1  0.962824  0.488344  0.162797  1
  O  O52  1  0.426709  0.390476  0.668630  1
  O  O53  1  0.750000  0.218995  0.297356  1
  O  O54  1  0.750000  0.766645  0.447589  1
  O  O55  1  0.750000  0.281005  0.797356  1
  O  O56  1  0.556571  0.160678  0.926126  1
  O  O57  1  0.943429  0.339322  0.426126  1
  O  O58  1  0.073291  0.109524  0.168630  1
  O  O59  1  0.250000  0.539841  0.455482  1
  O  O60  1  0.926709  0.890476  0.831370  1
  O  O61  1  0.056571  0.839322  0.073874  1
  O  O62  1  0.426709  0.109524  0.168630  1
  O  O63  1  0.250000  0.233355  0.552411  1
  O  O64  1  0.250000  0.266645  0.052411  1
  O  O65  1  0.250000  0.781005  0.702644  1
  O  O66  1  0.926709  0.609524  0.331370  1
  O  O67  1  0.443429  0.660678  0.573874  1
  O  O68  1  0.573291  0.890476  0.831370  1
  O  O69  1  0.750000  0.039841  0.044518  1
  O  O70  1  0.073291  0.390476  0.668630  1
  O  O71  1  0.750000  0.460159  0.544518  1
  O  O72  1  0.750000  0.733355  0.947589  1
  O  O73  1  0.250000  0.718995  0.202644  1
  O  O74  1  0.056571  0.660678  0.573874  1
  O  O75  1  0.943429  0.160678  0.926126  1
  O  O76  1  0.573291  0.609524  0.331370  1
  O  O77  1  0.250000  0.960159  0.955482  1
  O  O78  1  0.443429  0.839322  0.073874  1
  O  O79  1  0.556571  0.339322  0.426126  1
