# generated using pymatgen
data_Mo2HO6
_symmetry_space_group_name_H-M   'P 1'
_cell_length_a   7.83253089
_cell_length_b   7.83253089
_cell_length_c   3.90488097
_cell_angle_alpha   90.01649713
_cell_angle_beta   90.01649713
_cell_angle_gamma   28.25384181
_symmetry_Int_Tables_number   1
_chemical_formula_structural   Mo2HO6
_chemical_formula_sum   'Mo2 H1 O6'
_cell_volume   113.40201108
_cell_formula_units_Z   1
loop_
 _symmetry_equiv_pos_site_id
 _symmetry_equiv_pos_as_xyz
  1  'x, y, z'
loop_
 _atom_site_type_symbol
 _atom_site_label
 _atom_site_symmetry_multiplicity
 _atom_site_fract_x
 _atom_site_fract_y
 _atom_site_fract_z
 _atom_site_occupancy
  Mo  Mo0  1  0.089634  0.089634  0.246980  1
  Mo  Mo1  1  0.907202  0.907202  0.747729  1
  H  H2  1  0.753549  0.753549  0.961984  1
  O  O3  1  0.926209  0.926209  0.247199  1
  O  O4  1  0.058812  0.058812  0.747088  1
  O  O5  1  0.574710  0.574710  0.247752  1
  O  O6  1  0.420881  0.420881  0.746766  1
  O  O7  1  0.201671  0.201671  0.234299  1
  O  O8  1  0.781335  0.781335  0.734900  1
