# generated using pymatgen
data_Li3MnP2
_symmetry_space_group_name_H-M   'P 1'
_cell_length_a   5.88337401
_cell_length_b   11.76915928
_cell_length_c   11.78383621
_cell_angle_alpha   90.00000000
_cell_angle_beta   90.00000000
_cell_angle_gamma   90.00000000
_symmetry_Int_Tables_number   1
_chemical_formula_structural   Li3MnP2
_chemical_formula_sum   'Li24 Mn8 P16'
_cell_volume   815.94069770
_cell_formula_units_Z   8
loop_
 _symmetry_equiv_pos_site_id
 _symmetry_equiv_pos_as_xyz
  1  'x, y, z'
loop_
 _atom_site_type_symbol
 _atom_site_label
 _atom_site_symmetry_multiplicity
 _atom_site_fract_x
 _atom_site_fract_y
 _atom_site_fract_z
 _atom_site_occupancy
  Li  Li0  1  0.003854  1.000324  0.004358  1
  Li  Li1  1  0.003128  0.249919  0.999624  1
  Li  Li2  1  0.996872  0.249919  0.500376  1
  Li  Li3  1  0.995125  0.750227  0.994200  1
  Li  Li4  1  0.004875  0.750227  0.505800  1
  Li  Li5  1  0.500000  0.743932  0.250000  1
  Li  Li6  1  0.505387  0.250364  0.998848  1
  Li  Li7  1  0.504875  -0.000227  0.994200  1
  Li  Li8  1  0.494613  0.250364  0.501152  1
  Li  Li9  1  0.500000  0.505978  0.250000  1
  Li  Li10  1  0.496146  0.749676  0.004358  1
  Li  Li11  1  0.503128  0.500081  0.500376  1
  Li  Li12  1  0.496872  0.500081  0.999624  1
  Li  Li13  1  0.500000  0.499407  0.750000  1
  Li  Li14  1  0.503854  0.749676  0.495642  1
  Li  Li15  1  0.500000  0.000332  0.750000  1
  Li  Li16  1  0.495125  -0.000227  0.505800  1
  Li  Li17  1  0.000000  0.244022  0.250000  1
  Li  Li18  1  0.005387  0.499636  0.501152  1
  Li  Li19  1  0.994613  0.499636  0.998848  1
  Li  Li20  1  0.000000  0.250593  0.750000  1
  Li  Li21  1  0.000000  0.006068  0.250000  1
  Li  Li22  1  0.996146  1.000324  0.495642  1
  Li  Li23  1  0.000000  0.749668  0.750000  1
  Mn  Mn24  1  0.500000  0.255405  0.250000  1
  Mn  Mn25  1  0.500000  0.250023  0.750000  1
  Mn  Mn26  1  0.500000  0.750240  0.750000  1
  Mn  Mn27  1  0.500000  0.994395  0.250000  1
  Mn  Mn28  1  0.000000  0.494595  0.250000  1
  Mn  Mn29  1  0.000000  0.499977  0.750000  1
  Mn  Mn30  1  0.000000  0.755605  0.250000  1
  Mn  Mn31  1  0.000000  -0.000240  0.750000  1
  P  P32  1  0.271932  0.124863  0.130176  1
  P  P33  1  0.245526  0.124935  0.630799  1
  P  P34  1  0.228068  0.625137  0.130176  1
  P  P35  1  0.254474  0.625065  0.630799  1
  P  P36  1  0.250000  0.375000  0.369623  1
  P  P37  1  0.250000  0.375000  0.869779  1
  P  P38  1  0.250000  0.875000  0.369754  1
  P  P39  1  0.250000  0.875000  0.869333  1
  P  P40  1  0.728068  0.124863  0.369824  1
  P  P41  1  0.750000  0.375000  0.130377  1
  P  P42  1  0.754474  0.124935  0.869201  1
  P  P43  1  0.750000  0.375000  0.630221  1
  P  P44  1  0.771932  0.625137  0.369824  1
  P  P45  1  0.750000  0.875000  0.130246  1
  P  P46  1  0.745526  0.625065  0.869201  1
  P  P47  1  0.750000  0.875000  0.630667  1
