# generated using pymatgen
data_Ru5C14(SO7)2
_symmetry_space_group_name_H-M   'P 1'
_cell_length_a   8.87603842
_cell_length_b   14.70265389
_cell_length_c   19.96180906
_cell_angle_alpha   90.00000000
_cell_angle_beta   98.11590662
_cell_angle_gamma   90.00000000
_symmetry_Int_Tables_number   1
_chemical_formula_structural   Ru5C14(SO7)2
_chemical_formula_sum   'Ru20 C56 S8 O56'
_cell_volume   2578.95165107
_cell_formula_units_Z   4
loop_
 _symmetry_equiv_pos_site_id
 _symmetry_equiv_pos_as_xyz
  1  'x, y, z'
loop_
 _atom_site_type_symbol
 _atom_site_label
 _atom_site_symmetry_multiplicity
 _atom_site_fract_x
 _atom_site_fract_y
 _atom_site_fract_z
 _atom_site_occupancy
  Ru  Ru0  1  0.036011  0.653980  0.192426  1
  Ru  Ru1  1  0.963989  0.346020  0.807574  1
  Ru  Ru2  1  0.266916  0.882311  0.599550  1
  Ru  Ru3  1  0.402794  0.299545  0.389069  1
  Ru  Ru4  1  0.835405  0.516879  0.217107  1
  Ru  Ru5  1  0.233084  0.382311  0.900450  1
  Ru  Ru6  1  0.164595  0.483121  0.782893  1
  Ru  Ru7  1  0.766916  0.617689  0.099550  1
  Ru  Ru8  1  0.161696  0.235707  0.978786  1
  Ru  Ru9  1  0.838304  0.764293  0.021214  1
  Ru  Ru10  1  0.338304  0.735707  0.521214  1
  Ru  Ru11  1  0.902794  0.200455  0.889069  1
  Ru  Ru12  1  0.597206  0.700455  0.610931  1
  Ru  Ru13  1  0.733084  0.117689  0.400450  1
  Ru  Ru14  1  0.097206  0.799545  0.110931  1
  Ru  Ru15  1  0.536011  0.846020  0.692426  1
  Ru  Ru16  1  0.664595  0.016879  0.282893  1
  Ru  Ru17  1  0.335405  0.983121  0.717107  1
  Ru  Ru18  1  0.661696  0.264293  0.478786  1
  Ru  Ru19  1  0.463989  0.153980  0.307574  1
  C  C20  1  0.564670  0.626057  0.114162  1
  C  C21  1  0.173407  0.810237  0.478026  1
  C  C22  1  0.667218  0.434784  0.208633  1
  C  C23  1  0.220163  0.989595  0.550873  1
  C  C24  1  0.801882  0.426061  0.785671  1
  C  C25  1  0.932574  0.782990  0.942764  1
  C  C26  1  0.069707  0.531630  0.698257  1
  C  C27  1  0.198118  0.573940  0.214330  1
  C  C28  1  0.267498  0.283343  0.304384  1
  C  C29  1  0.246262  0.310142  0.444347  1
  C  C30  1  0.720163  0.510405  0.050873  1
  C  C31  1  0.448930  0.177123  0.214844  1
  C  C32  1  0.430293  0.031630  0.801743  1
  C  C33  1  0.421816  0.427436  0.384939  1
  C  C34  1  0.779837  0.010405  0.449127  1
  C  C35  1  0.326593  0.310237  0.021974  1
  C  C36  1  0.725018  0.614092  0.256741  1
  C  C37  1  0.930293  0.468370  0.301743  1
  C  C38  1  0.578184  0.572564  0.615061  1
  C  C39  1  0.232502  0.783343  0.195616  1
  C  C40  1  0.051070  0.677123  0.285156  1
  C  C41  1  0.279837  0.489595  0.949127  1
  C  C42  1  0.457313  0.053019  0.660567  1
  C  C43  1  0.832782  0.934784  0.291367  1
  C  C44  1  0.551070  0.822877  0.785156  1
  C  C45  1  0.301882  0.073940  0.285670  1
  C  C46  1  0.935330  0.126057  0.385838  1
  C  C47  1  0.225018  0.885908  0.756741  1
  C  C48  1  0.826593  0.189763  0.521974  1
  C  C49  1  0.746262  0.189858  0.944347  1
  C  C50  1  0.064670  0.873943  0.614162  1
  C  C51  1  0.673407  0.689763  0.978026  1
  C  C52  1  0.732502  0.716657  0.695616  1
  C  C53  1  0.078184  0.927436  0.115061  1
  C  C54  1  0.767498  0.216657  0.804384  1
  C  C55  1  0.542687  0.946981  0.339433  1
  C  C56  1  0.774982  0.114092  0.243259  1
  C  C57  1  0.432574  0.717010  0.442764  1
  C  C58  1  0.768645  0.375835  0.494275  1
  C  C59  1  0.698118  0.926060  0.714329  1
  C  C60  1  0.957313  0.446981  0.160567  1
  C  C61  1  0.753738  0.689858  0.555653  1
  C  C62  1  0.231355  0.624165  0.505725  1
  C  C63  1  0.274982  0.385908  0.743259  1
  C  C64  1  0.268645  0.124165  0.994275  1
  C  C65  1  0.167218  0.065216  0.708633  1
  C  C66  1  0.067426  0.217010  0.057236  1
  C  C67  1  0.435330  0.373943  0.885838  1
  C  C68  1  0.042687  0.553019  0.839433  1
  C  C69  1  0.921816  0.072564  0.884939  1
  C  C70  1  0.253738  0.810142  0.055653  1
  C  C71  1  0.332782  0.565216  0.791367  1
  C  C72  1  0.569707  0.968370  0.198257  1
  C  C73  1  0.567426  0.282990  0.557236  1
  C  C74  1  0.948930  0.322877  0.714844  1
  C  C75  1  0.731355  0.875835  0.005725  1
  S  S76  1  0.025723  0.644411  0.065692  1
  S  S77  1  0.474277  0.144411  0.434308  1
  S  S78  1  0.525723  0.855589  0.565692  1
  S  S79  1  0.658803  0.273147  0.353787  1
  S  S80  1  0.158803  0.226853  0.853787  1
  S  S81  1  0.341197  0.726853  0.646213  1
  S  S82  1  0.974277  0.355589  0.934308  1
  S  S83  1  0.841197  0.773147  0.146213  1
  O  O84  1  0.989630  0.440873  0.353133  1
  O  O85  1  0.668223  0.944849  0.997186  1
  O  O86  1  0.159712  0.830589  0.782030  1
  O  O87  1  0.436980  0.613301  0.797594  1
  O  O88  1  0.008951  0.206004  0.104936  1
  O  O89  1  0.937389  0.994196  0.883425  1
  O  O90  1  0.470480  0.905435  0.372388  1
  O  O91  1  0.933770  0.310578  0.656580  1
  O  O92  1  0.810372  0.944860  0.480930  1
  O  O93  1  0.010370  0.559127  0.646867  1
  O  O94  1  0.652529  0.185095  0.979289  1
  O  O95  1  0.840288  0.169411  0.217970  1
  O  O96  1  0.066230  0.689422  0.343420  1
  O  O97  1  0.508951  0.293996  0.604936  1
  O  O98  1  0.991049  0.793996  0.895064  1
  O  O99  1  0.347471  0.814905  0.020711  1
  O  O100  1  0.199440  0.024820  0.270874  1
  O  O101  1  0.491049  0.706004  0.395064  1
  O  O102  1  0.659712  0.669411  0.282030  1
  O  O103  1  0.936980  0.886699  0.297594  1
  O  O104  1  0.167459  0.295852  0.260679  1
  O  O105  1  0.921971  0.156261  0.559917  1
  O  O106  1  0.970480  0.594565  0.872388  1
  O  O107  1  0.331777  0.055151  0.002814  1
  O  O108  1  0.340288  0.330589  0.717970  1
  O  O109  1  0.831777  0.444849  0.502814  1
  O  O110  1  0.078029  0.843739  0.440083  1
  O  O111  1  0.433770  0.189422  0.156580  1
  O  O112  1  0.168223  0.555151  0.497186  1
  O  O113  1  0.832541  0.704148  0.739321  1
  O  O114  1  0.563020  0.386699  0.202406  1
  O  O115  1  0.437389  0.505804  0.383425  1
  O  O116  1  0.189628  0.055140  0.519070  1
  O  O117  1  0.300560  0.524820  0.229126  1
  O  O118  1  0.489630  0.059127  0.853133  1
  O  O119  1  0.578029  0.656261  0.940083  1
  O  O120  1  0.510370  0.940873  0.146867  1
  O  O121  1  0.029520  0.405435  0.127612  1
  O  O122  1  0.529520  0.094565  0.627612  1
  O  O123  1  0.566230  0.810578  0.843420  1
  O  O124  1  0.938162  0.866140  0.622955  1
  O  O125  1  0.062611  0.005804  0.116575  1
  O  O126  1  0.421971  0.343739  0.059917  1
  O  O127  1  0.061838  0.133860  0.377045  1
  O  O128  1  0.562611  0.494196  0.616575  1
  O  O129  1  0.667459  0.204148  0.760679  1
  O  O130  1  0.561838  0.366140  0.877045  1
  O  O131  1  0.152529  0.314905  0.479289  1
  O  O132  1  0.847471  0.685095  0.520711  1
  O  O133  1  0.699440  0.475180  0.770874  1
  O  O134  1  0.689628  0.444860  0.019070  1
  O  O135  1  0.063020  0.113301  0.702406  1
  O  O136  1  0.332541  0.795852  0.239321  1
  O  O137  1  0.310372  0.555140  0.980930  1
  O  O138  1  0.800560  0.975180  0.729126  1
  O  O139  1  0.438162  0.633860  0.122955  1
