# generated using pymatgen
data_Te21(Mo3I11)2
_symmetry_space_group_name_H-M   'P 1'
_cell_length_a   11.03153963
_cell_length_b   14.20941486
_cell_length_c   17.96267618
_cell_angle_alpha   88.66045467
_cell_angle_beta   99.47318630
_cell_angle_gamma   118.55420912
_symmetry_Int_Tables_number   1
_chemical_formula_structural   Te21(Mo3I11)2
_chemical_formula_sum   'Te21 Mo6 I22'
_cell_volume   2434.49517535
_cell_formula_units_Z   1
loop_
 _symmetry_equiv_pos_site_id
 _symmetry_equiv_pos_as_xyz
  1  'x, y, z'
loop_
 _atom_site_type_symbol
 _atom_site_label
 _atom_site_symmetry_multiplicity
 _atom_site_fract_x
 _atom_site_fract_y
 _atom_site_fract_z
 _atom_site_occupancy
  Te  Te0  1  0.178965  0.005050  0.659567  1
  Te  Te1  1  0.310589  0.847253  0.602366  1
  Te  Te2  1  0.199688  0.177963  0.896964  1
  Te  Te3  1  0.341638  0.674681  0.208963  1
  Te  Te4  1  0.436830  0.830093  0.381072  1
  Te  Te5  1  0.086293  0.062678  0.520750  1
  Te  Te6  1  0.299669  0.460965  0.610219  1
  Te  Te7  1  0.575299  0.431058  0.045587  1
  Te  Te8  1  0.492355  0.791440  0.537282  1
  Te  Te9  1  0.467106  0.818577  0.050170  1
  Te  Te10  1  0.544250  0.198855  0.947130  1
  Te  Te11  1  0.476482  0.177786  0.458318  1
  Te  Te12  1  0.424403  0.574701  0.939851  1
  Te  Te13  1  0.698004  0.570990  0.414551  1
  Te  Te14  1  0.830234  0.871526  0.488474  1
  Te  Te15  1  0.536726  0.176773  0.615106  1
  Te  Te16  1  0.707629  0.316813  0.809036  1
  Te  Te17  1  0.832348  0.830781  0.073503  1
  Te  Te18  1  0.690996  0.141835  0.378735  1
  Te  Te19  1  0.965885  0.629390  0.406460  1
  Te  Te20  1  0.862965  0.053828  0.358806  1
  Mo  Mo21  1  0.420238  0.257664  0.824652  1
  Mo  Mo22  1  0.429861  0.619921  0.091623  1
  Mo  Mo23  1  0.678087  0.974348  0.457627  1
  Mo  Mo24  1  0.305706  0.013347  0.539465  1
  Mo  Mo25  1  0.592650  0.401149  0.892479  1
  Mo  Mo26  1  0.612813  0.761933  0.151530  1
  I  I27  1  0.231964  0.303598  0.723411  1
  I  I28  1  0.199178  0.912826  0.399425  1
  I  I29  1  0.170984  0.396788  0.961086  1
  I  I30  1  0.252402  0.672957  0.860884  1
  I  I31  1  0.977351  0.442613  0.380371  1
  I  I32  1  0.268907  0.839475  0.155950  1
  I  I33  1  0.920692  0.042683  0.125934  1
  I  I34  1  0.363697  0.467361  0.201476  1
  I  I35  1  0.282894  0.364325  0.476838  1
  I  I36  1  0.602120  0.792942  0.702552  1
  I  I37  1  0.690211  0.822817  0.919752  1
  I  I38  1  0.339136  0.206777  0.073900  1
  I  I39  1  0.420895  0.173773  0.279895  1
  I  I40  1  0.691665  0.594380  0.566166  1
  I  I41  1  0.644200  0.558760  0.797818  1
  I  I42  1  0.113001  0.962090  0.861261  1
  I  I43  1  0.705709  0.102622  0.914218  1
  I  I44  1  0.857504  0.451126  0.702438  1
  I  I45  1  0.761841  0.342183  0.128843  1
  I  I46  1  0.838566  0.611390  0.024414  1
  I  I47  1  0.754609  0.076780  0.593591  1
  I  I48  1  0.833766  0.744537  0.237921  1
