# generated using pymatgen
data_CaB12(H3O2)4
_symmetry_space_group_name_H-M   'P 1'
_cell_length_a   11.47022312
_cell_length_b   11.12011095
_cell_length_c   11.49732202
_cell_angle_alpha   90.00000000
_cell_angle_beta   90.00000000
_cell_angle_gamma   90.00000000
_symmetry_Int_Tables_number   1
_chemical_formula_structural   CaB12(H3O2)4
_chemical_formula_sum   'Ca4 B48 H48 O32'
_cell_volume   1466.48519097
_cell_formula_units_Z   4
loop_
 _symmetry_equiv_pos_site_id
 _symmetry_equiv_pos_as_xyz
  1  'x, y, z'
loop_
 _atom_site_type_symbol
 _atom_site_label
 _atom_site_symmetry_multiplicity
 _atom_site_fract_x
 _atom_site_fract_y
 _atom_site_fract_z
 _atom_site_occupancy
  Ca  Ca0  1  0.744179  0.753604  0.674529  1
  Ca  Ca1  1  0.755821  0.246396  0.174529  1
  Ca  Ca2  1  0.244179  0.746396  0.325471  1
  Ca  Ca3  1  0.255821  0.253604  0.825471  1
  B  B4  1  0.478223  0.858708  0.632600  1
  B  B5  1  0.021777  0.141292  0.132600  1
  B  B6  1  0.978223  0.641292  0.367400  1
  B  B7  1  0.521777  0.358708  0.867400  1
  B  B8  1  0.400121  0.949917  0.730676  1
  B  B9  1  0.099879  0.050083  0.230676  1
  B  B10  1  0.900121  0.550083  0.269324  1
  B  B11  1  0.599879  0.449917  0.769324  1
  B  B12  1  0.116983  0.030749  0.074996  1
  B  B13  1  0.383017  0.969251  0.574996  1
  B  B14  1  0.616983  0.469251  0.925004  1
  B  B15  1  0.883017  0.530749  0.425004  1
  B  B16  1  0.885514  0.674740  0.488166  1
  B  B17  1  0.614486  0.325260  0.988166  1
  B  B18  1  0.385514  0.825260  0.511834  1
  B  B19  1  0.114486  0.174740  0.011834  1
  B  B20  1  0.593485  0.217781  0.875476  1
  B  B21  1  0.906515  0.782219  0.375476  1
  B  B22  1  0.093485  0.282219  0.124524  1
  B  B23  1  0.406515  0.717781  0.624524  1
  B  B24  1  0.413136  0.794835  0.760141  1
  B  B25  1  0.086864  0.205165  0.260141  1
  B  B26  1  0.913136  0.705165  0.239859  1
  B  B27  1  0.586864  0.294835  0.739859  1
  B  B28  1  0.775706  0.630731  0.217543  1
  B  B29  1  0.724294  0.369269  0.717543  1
  B  B30  1  0.275706  0.869269  0.782457  1
  B  B31  1  0.224294  0.130731  0.282457  1
  B  B32  1  0.738979  0.478374  0.829050  1
  B  B33  1  0.761021  0.521626  0.329050  1
  B  B34  1  0.238979  0.021626  0.170950  1
  B  B35  1  0.261021  0.978374  0.670950  1
  B  B36  1  0.749014  0.602074  0.465125  1
  B  B37  1  0.750986  0.397926  0.965125  1
  B  B38  1  0.249014  0.897926  0.534875  1
  B  B39  1  0.250986  0.102074  0.034875  1
  B  B40  1  0.764966  0.756799  0.433499  1
  B  B41  1  0.735034  0.243201  0.933499  1
  B  B42  1  0.264966  0.743201  0.566501  1
  B  B43  1  0.235034  0.256799  0.066501  1
  B  B44  1  0.718320  0.224435  0.781738  1
  B  B45  1  0.781680  0.775565  0.281738  1
  B  B46  1  0.218320  0.275565  0.218262  1
  B  B47  1  0.281680  0.724435  0.718262  1
  B  B48  1  0.683168  0.664007  0.337047  1
  B  B49  1  0.816832  0.335994  0.837047  1
  B  B50  1  0.183168  0.835993  0.662953  1
  B  B51  1  0.316832  0.164006  0.162953  1
  H  H52  1  0.582514  0.875193  0.621543  1
  H  H53  1  0.917486  0.124807  0.121543  1
  H  H54  1  0.082514  0.624807  0.378457  1
  H  H55  1  0.417486  0.375193  0.878457  1
  H  H56  1  0.444251  0.027135  0.787302  1
  H  H57  1  0.055749  0.972865  0.287302  1
  H  H58  1  0.944251  0.472865  0.212698  1
  H  H59  1  0.555749  0.527135  0.712698  1
  H  H60  1  0.086502  0.939723  0.028788  1
  H  H61  1  0.413498  0.060277  0.528788  1
  H  H62  1  0.586502  0.560277  0.971212  1
  H  H63  1  0.913498  0.439723  0.471212  1
  H  H64  1  0.924495  0.689890  0.585158  1
  H  H65  1  0.575505  0.310110  0.085158  1
  H  H66  1  0.424495  0.810110  0.414842  1
  H  H67  1  0.075505  0.189890  0.914842  1
  H  H68  1  0.540542  0.127831  0.894487  1
  H  H69  1  0.959458  0.872169  0.394487  1
  H  H70  1  0.040542  0.372169  0.105513  1
  H  H71  1  0.459458  0.627831  0.605513  1
  H  H72  1  0.472418  0.760626  0.839727  1
  H  H73  1  0.027582  0.239374  0.339727  1
  H  H74  1  0.972418  0.739374  0.160273  1
  H  H75  1  0.527582  0.260626  0.660273  1
  H  H76  1  0.733773  0.616133  0.123386  1
  H  H77  1  0.766227  0.383867  0.623386  1
  H  H78  1  0.233773  0.883867  0.876614  1
  H  H79  1  0.266227  0.116133  0.376614  1
  H  H80  1  0.753174  0.647472  0.882452  1
  H  H81  1  0.746826  0.352528  0.382452  1
  H  H82  1  0.253174  0.852528  0.117548  1
  H  H83  1  0.246826  0.147472  0.617548  1
  H  H84  1  0.688126  0.568291  0.544820  1
  H  H85  1  0.811874  0.431709  0.044820  1
  H  H86  1  0.188126  0.931709  0.455180  1
  H  H87  1  0.311874  0.068291  0.955180  1
  H  H88  1  0.715620  0.833572  0.490050  1
  H  H89  1  0.784380  0.166428  0.990050  1
  H  H90  1  0.215620  0.666428  0.509950  1
  H  H91  1  0.284380  0.333572  0.009950  1
  H  H92  1  0.754275  0.137251  0.733581  1
  H  H93  1  0.745725  0.862749  0.233581  1
  H  H94  1  0.254275  0.362749  0.266419  1
  H  H95  1  0.245725  0.637251  0.766419  1
  H  H96  1  0.579466  0.674674  0.329230  1
  H  H97  1  0.920534  0.325326  0.829230  1
  H  H98  1  0.079466  0.825326  0.670770  1
  H  H99  1  0.420534  0.174674  0.170770  1
  O  O100  1  0.991018  0.699267  0.867246  1
  O  O101  1  0.508982  0.300733  0.367246  1
  O  O102  1  0.491018  0.800733  0.132754  1
  O  O103  1  0.008982  0.199267  0.632754  1
  O  O104  1  0.744588  0.909024  0.836629  1
  O  O105  1  0.755412  0.090976  0.336629  1
  O  O106  1  0.244588  0.590976  0.163371  1
  O  O107  1  0.255412  0.409024  0.663371  1
  O  O108  1  0.791286  0.802700  -0.005181  1
  O  O109  1  0.708714  0.197300  0.494819  1
  O  O110  1  0.291286  0.697300  0.005181  1
  O  O111  1  0.208714  0.302700  0.505181  1
  O  O112  1  0.771958  0.906671  0.949700  1
  O  O113  1  0.728042  0.093329  0.449700  1
  O  O114  1  0.271958  0.593329  0.050300  1
  O  O115  1  0.228042  0.406671  0.550300  1
  O  O116  1  0.929726  -0.003802  0.671019  1
  O  O117  1  0.570274  0.003802  0.171019  1
  O  O118  1  0.429726  0.503802  0.328981  1
  O  O119  1  0.070274  0.496198  0.828981  1
  O  O120  1  0.775911  0.604143  0.811550  1
  O  O121  1  0.724089  0.395857  0.311550  1
  O  O122  1  0.275911  0.895857  0.188450  1
  O  O123  1  0.224089  0.104143  0.688450  1
  O  O124  1  -0.026034  0.053818  0.751322  1
  O  O125  1  0.526034  0.946182  0.251322  1
  O  O126  1  0.473966  0.446182  0.248678  1
  O  O127  1  0.026034  0.553818  0.748678  1
  O  O128  1  0.967815  0.140823  0.552877  1
  O  O129  1  0.532185  0.859177  0.052877  1
  O  O130  1  0.467815  0.359177  0.447123  1
  O  O131  1  0.032185  0.640823  0.947123  1
