# generated using pymatgen
data_NaCaScZn(SiO3)4
_symmetry_space_group_name_H-M   'P 1'
_cell_length_a   5.34892323
_cell_length_b   13.44802407
_cell_length_c   9.96220348
_cell_angle_alpha   42.20098034
_cell_angle_beta   73.96856379
_cell_angle_gamma   78.19503217
_symmetry_Int_Tables_number   1
_chemical_formula_structural   NaCaScZn(SiO3)4
_chemical_formula_sum   'Na2 Ca2 Sc2 Zn2 Si8 O24'
_cell_volume   462.64763389
_cell_formula_units_Z   2
loop_
 _symmetry_equiv_pos_site_id
 _symmetry_equiv_pos_as_xyz
  1  'x, y, z'
loop_
 _atom_site_type_symbol
 _atom_site_label
 _atom_site_symmetry_multiplicity
 _atom_site_fract_x
 _atom_site_fract_y
 _atom_site_fract_z
 _atom_site_occupancy
  Na  Na0  1  0.250000  0.697134  0.302866  1
  Na  Na1  1  0.750000  0.802866  0.697134  1
  Ca  Ca2  1  0.250000  0.196457  0.303543  1
  Ca  Ca3  1  0.750000  0.303543  0.696457  1
  Sc  Sc4  1  0.250000  0.600623  0.899377  1
  Sc  Sc5  1  0.750000  0.899377  0.100623  1
  Zn  Zn6  1  0.250000  0.098098  0.901902  1
  Zn  Zn7  1  0.750000  0.401902  0.098098  1
  Si  Si8  1  0.261052  0.410298  0.379877  1
  Si  Si9  1  0.238948  0.410298  0.799527  1
  Si  Si10  1  0.261038  0.908248  0.378662  1
  Si  Si11  1  0.761052  0.089702  0.200473  1
  Si  Si12  1  0.238962  0.908248  0.804842  1
  Si  Si13  1  0.738948  0.089702  0.620123  1
  Si  Si14  1  0.761038  0.591752  0.195158  1
  Si  Si15  1  0.738962  0.591752  0.621338  1
  O  O16  1  0.001505  0.483364  0.668931  1
  O  O17  1  0.173170  0.253506  0.610624  1
  O  O18  1  0.346729  0.412520  0.206959  1
  O  O19  1  0.009188  0.985292  0.664585  1
  O  O20  1  0.153271  0.412520  0.968001  1
  O  O21  1  0.184887  0.749119  0.609613  1
  O  O22  1  0.501505  0.016636  0.635658  1
  O  O23  1  0.326830  0.253506  0.882364  1
  O  O24  1  0.356602  0.915105  0.202494  1
  O  O25  1  0.673170  0.246494  0.117636  1
  O  O26  1  0.498495  0.483364  0.364342  1
  O  O27  1  0.846729  0.087480  0.031999  1
  O  O28  1  0.143398  0.915105  0.967296  1
  O  O29  1  0.509188  0.514708  0.635169  1
  O  O30  1  0.315113  0.749119  0.892149  1
  O  O31  1  0.653271  0.087480  0.793041  1
  O  O32  1  0.684887  0.750881  0.107851  1
  O  O33  1  0.490812  0.985292  0.364831  1
  O  O34  1  0.826830  0.246494  0.389376  1
  O  O35  1  0.856602  0.584895  0.032704  1
  O  O36  1  0.998495  0.016636  0.331069  1
  O  O37  1  0.643398  0.584895  0.797506  1
  O  O38  1  0.815113  0.750881  0.390387  1
  O  O39  1  0.990812  0.514708  0.335415  1
