# generated using pymatgen
data_GaH19C8
_symmetry_space_group_name_H-M   'P 1'
_cell_length_a   18.21829148
_cell_length_b   18.21829169
_cell_length_c   18.21829198
_cell_angle_alpha   33.12563561
_cell_angle_beta   33.12563461
_cell_angle_gamma   33.12563526
_symmetry_Int_Tables_number   1
_chemical_formula_structural   GaH19C8
_chemical_formula_sum   'Ga6 H114 C48'
_cell_volume   1607.32140823
_cell_formula_units_Z   6
loop_
 _symmetry_equiv_pos_site_id
 _symmetry_equiv_pos_as_xyz
  1  'x, y, z'
loop_
 _atom_site_type_symbol
 _atom_site_label
 _atom_site_symmetry_multiplicity
 _atom_site_fract_x
 _atom_site_fract_y
 _atom_site_fract_z
 _atom_site_occupancy
  Ga  Ga0  1  0.250000  0.059537  0.440463  1
  Ga  Ga1  1  0.440463  0.250000  0.059537  1
  Ga  Ga2  1  0.750000  0.940463  0.559537  1
  Ga  Ga3  1  0.059537  0.440463  0.250000  1
  Ga  Ga4  1  0.940463  0.559537  0.750000  1
  Ga  Ga5  1  0.559537  0.750000  0.940463  1
  H  H6  1  0.427322  0.329762  0.175174  1
  H  H7  1  0.769344  0.207498  0.821807  1
  H  H8  1  0.269344  0.321807  0.707498  1
  H  H9  1  0.519487  0.221163  0.442283  1
  H  H10  1  0.230656  0.792502  0.178193  1
  H  H11  1  0.861098  0.792693  0.431293  1
  H  H12  1  0.829762  0.927322  0.675174  1
  H  H13  1  0.934778  0.998476  0.232915  1
  H  H14  1  0.232915  0.934778  0.998476  1
  H  H15  1  0.618116  0.477405  0.822677  1
  H  H16  1  0.175174  0.427322  0.329762  1
  H  H17  1  0.322677  0.977405  0.118116  1
  H  H18  1  0.205034  0.881703  0.813036  1
  H  H19  1  0.207498  0.821807  0.769344  1
  H  H20  1  0.113022  0.250000  0.386978  1
  H  H21  1  0.361098  0.931293  0.292693  1
  H  H22  1  0.998476  0.232915  0.934778  1
  H  H23  1  0.886978  0.750000  0.613022  1
  H  H24  1  0.292502  0.730656  0.678193  1
  H  H25  1  0.967812  0.075180  0.580028  1
  H  H26  1  0.721163  0.019487  0.942283  1
  H  H27  1  0.572678  0.670238  0.824826  1
  H  H28  1  0.522595  0.177323  0.381884  1
  H  H29  1  0.931293  0.292693  0.361098  1
  H  H30  1  0.824826  0.572678  0.670238  1
  H  H31  1  0.705034  0.313036  0.381703  1
  H  H32  1  0.419972  0.032188  0.924820  1
  H  H33  1  0.221163  0.442283  0.519487  1
  H  H34  1  0.280031  0.077321  0.618621  1
  H  H35  1  0.072678  0.324826  0.170238  1
  H  H36  1  0.057717  0.278837  0.980513  1
  H  H37  1  0.294966  0.686964  0.618297  1
  H  H38  1  0.477405  0.822677  0.618116  1
  H  H39  1  0.118621  0.577321  0.780031  1
  H  H40  1  0.675174  0.829762  0.927322  1
  H  H41  1  0.422679  0.219969  0.881379  1
  H  H42  1  0.881884  0.677323  0.022595  1
  H  H43  1  0.278837  0.980513  0.057717  1
  H  H44  1  0.822677  0.618116  0.477405  1
  H  H45  1  0.080028  0.575180  0.467812  1
  H  H46  1  0.678193  0.292502  0.730656  1
  H  H47  1  0.267085  0.501524  0.565222  1
  H  H48  1  0.022595  0.881884  0.677323  1
  H  H49  1  0.019487  0.942283  0.721163  1
  H  H50  1  0.618621  0.280031  0.077321  1
  H  H51  1  0.977405  0.118116  0.322677  1
  H  H52  1  0.068707  0.707307  0.638902  1
  H  H53  1  0.613022  0.886978  0.750000  1
  H  H54  1  0.792502  0.178193  0.230656  1
  H  H55  1  0.568707  0.138902  0.207307  1
  H  H56  1  0.580028  0.967812  0.075180  1
  H  H57  1  0.075180  0.580028  0.967812  1
  H  H58  1  0.032188  0.924820  0.419972  1
  H  H59  1  0.065222  0.001524  0.767085  1
  H  H60  1  0.881379  0.422679  0.219969  1
  H  H61  1  0.186964  0.794966  0.118297  1
  H  H62  1  0.575180  0.467812  0.080028  1
  H  H63  1  0.498476  0.434778  0.732915  1
  H  H64  1  0.778837  0.557717  0.480513  1
  H  H65  1  0.467812  0.080028  0.575180  1
  H  H66  1  0.767085  0.065222  0.001524  1
  H  H67  1  0.686964  0.618297  0.294966  1
  H  H68  1  0.927322  0.675174  0.829762  1
  H  H69  1  0.118116  0.322677  0.977405  1
  H  H70  1  0.118297  0.186964  0.794966  1
  H  H71  1  0.138902  0.207307  0.568707  1
  H  H72  1  0.386978  0.113022  0.250000  1
  H  H73  1  0.924820  0.419972  0.032188  1
  H  H74  1  0.821807  0.769344  0.207498  1
  H  H75  1  0.750000  0.613022  0.886978  1
  H  H76  1  0.177323  0.381884  0.522595  1
  H  H77  1  0.207307  0.568707  0.138902  1
  H  H78  1  0.381703  0.705034  0.313036  1
  H  H79  1  0.577321  0.780031  0.118621  1
  H  H80  1  0.792693  0.431293  0.861098  1
  H  H81  1  0.313036  0.381703  0.705034  1
  H  H82  1  0.329762  0.175174  0.427322  1
  H  H83  1  0.942283  0.721163  0.019487  1
  H  H84  1  0.813036  0.205034  0.881703  1
  H  H85  1  0.677323  0.022595  0.881884  1
  H  H86  1  0.321807  0.707498  0.269344  1
  H  H87  1  0.732915  0.498476  0.434778  1
  H  H88  1  0.077321  0.618621  0.280031  1
  H  H89  1  0.618297  0.294966  0.686964  1
  H  H90  1  0.638902  0.068707  0.707307  1
  H  H91  1  0.719969  0.922679  0.381379  1
  H  H92  1  0.881703  0.813036  0.205034  1
  H  H93  1  0.980513  0.057717  0.278837  1
  H  H94  1  0.922679  0.381379  0.719969  1
  H  H95  1  0.707498  0.269344  0.321807  1
  H  H96  1  0.178193  0.230656  0.792502  1
  H  H97  1  0.557717  0.480513  0.778837  1
  H  H98  1  0.250000  0.386978  0.113022  1
  H  H99  1  0.434778  0.732915  0.498476  1
  H  H100  1  0.442283  0.519487  0.221163  1
  H  H101  1  0.001524  0.767085  0.065222  1
  H  H102  1  0.532188  0.919972  0.424820  1
  H  H103  1  0.501524  0.565222  0.267085  1
  H  H104  1  0.730656  0.678193  0.292502  1
  H  H105  1  0.670238  0.824826  0.572678  1
  H  H106  1  0.780031  0.118621  0.577321  1
  H  H107  1  0.381379  0.719969  0.922679  1
  H  H108  1  0.794966  0.118297  0.186964  1
  H  H109  1  0.170238  0.072678  0.324826  1
  H  H110  1  0.292693  0.361098  0.931293  1
  H  H111  1  0.707307  0.638902  0.068707  1
  H  H112  1  0.565222  0.267085  0.501524  1
  H  H113  1  0.219969  0.881379  0.422679  1
  H  H114  1  0.324826  0.170238  0.072678  1
  H  H115  1  0.431293  0.861098  0.792693  1
  H  H116  1  0.424820  0.532188  0.919972  1
  H  H117  1  0.480513  0.778837  0.557717  1
  H  H118  1  0.381884  0.522595  0.177323  1
  H  H119  1  0.919972  0.424820  0.532188  1
  C  C120  1  0.211637  0.927422  0.507867  1
  C  C121  1  0.579370  0.314602  0.760970  1
  C  C122  1  0.007867  0.427422  0.711637  1
  C  C123  1  0.040602  0.372209  0.953712  1
  C  C124  1  0.260970  0.814602  0.079370  1
  C  C125  1  0.544002  0.257402  0.121079  1
  C  C126  1  0.242598  0.955998  0.378921  1
  C  C127  1  0.079370  0.260970  0.814602  1
  C  C128  1  0.427422  0.711637  0.007867  1
  C  C129  1  0.288363  0.992133  0.572578  1
  C  C130  1  0.572578  0.288363  0.992133  1
  C  C131  1  0.878921  0.455998  0.742598  1
  C  C132  1  0.121079  0.544002  0.257402  1
  C  C133  1  0.372209  0.953712  0.040602  1
  C  C134  1  0.955998  0.378921  0.242598  1
  C  C135  1  0.453712  0.872209  0.540602  1
  C  C136  1  0.492133  0.788363  0.072578  1
  C  C137  1  0.046288  0.959398  0.627791  1
  C  C138  1  0.742598  0.878921  0.455998  1
  C  C139  1  0.685398  0.239030  0.420630  1
  C  C140  1  0.507867  0.211637  0.927422  1
  C  C141  1  0.314602  0.760970  0.579370  1
  C  C142  1  0.872209  0.540602  0.453712  1
  C  C143  1  0.627791  0.046288  0.959398  1
  C  C144  1  0.127791  0.459398  0.546288  1
  C  C145  1  0.760970  0.579370  0.314602  1
  C  C146  1  0.459398  0.546288  0.127791  1
  C  C147  1  0.757402  0.044002  0.621079  1
  C  C148  1  0.739030  0.185398  0.920630  1
  C  C149  1  0.546288  0.127791  0.459398  1
  C  C150  1  0.420630  0.685398  0.239030  1
  C  C151  1  0.711637  0.007867  0.427422  1
  C  C152  1  0.185398  0.920630  0.739030  1
  C  C153  1  0.455998  0.742598  0.878921  1
  C  C154  1  0.044002  0.621079  0.757402  1
  C  C155  1  0.927422  0.507867  0.211637  1
  C  C156  1  0.540602  0.453712  0.872209  1
  C  C157  1  0.920630  0.739030  0.185398  1
  C  C158  1  0.959398  0.627791  0.046288  1
  C  C159  1  0.239030  0.420630  0.685398  1
  C  C160  1  0.953712  0.040602  0.372209  1
  C  C161  1  0.814602  0.079370  0.260970  1
  C  C162  1  0.257402  0.121079  0.544002  1
  C  C163  1  0.992133  0.572578  0.288363  1
  C  C164  1  0.621079  0.757402  0.044002  1
  C  C165  1  0.378921  0.242598  0.955998  1
  C  C166  1  0.072578  0.492133  0.788363  1
  C  C167  1  0.788363  0.072578  0.492133  1
