# generated using pymatgen
data_BaBi4O7
_symmetry_space_group_name_H-M   'P 1'
_cell_length_a   7.79204956
_cell_length_b   7.79204952
_cell_length_c   44.21440906
_cell_angle_alpha   20.01731690
_cell_angle_beta   20.01731635
_cell_angle_gamma   33.29463613
_symmetry_Int_Tables_number   1
_chemical_formula_structural   BaBi4O7
_chemical_formula_sum   'Ba1 Bi4 O7'
_cell_volume   288.17341626
_cell_formula_units_Z   1
loop_
 _symmetry_equiv_pos_site_id
 _symmetry_equiv_pos_as_xyz
  1  'x, y, z'
loop_
 _atom_site_type_symbol
 _atom_site_label
 _atom_site_symmetry_multiplicity
 _atom_site_fract_x
 _atom_site_fract_y
 _atom_site_fract_z
 _atom_site_occupancy
  Ba  Ba0  1  0.375666  0.375666  0.701521  1
  Bi  Bi1  1  0.184350  0.184350  0.070794  1
  Bi  Bi2  1  -0.255433  -0.255433  0.377632  1
  Bi  Bi3  1  0.770976  0.770976  0.457236  1
  Bi  Bi4  1  0.460823  0.460823  0.760867  1
  O  O5  1  0.409215  0.409215  0.331055  1
  O  O6  1  0.451961  0.451961  0.519945  1
  O  O7  1  0.044891  0.044891  0.535949  1
  O  O8  1  0.782888  0.782888  0.695460  1
  O  O9  1  0.157342  0.157342  0.686793  1
  O  O10  1  0.535316  0.535316  0.994058  1
  O  O11  1  0.467366  0.467366  0.145761  1
