# generated using pymatgen
data_UTe2
_symmetry_space_group_name_H-M   'P 1'
_cell_length_a   4.22084329
_cell_length_b   6.19078544
_cell_length_c   7.86181883
_cell_angle_alpha   113.18646418
_cell_angle_beta   105.57142100
_cell_angle_gamma   90.00000004
_symmetry_Int_Tables_number   1
_chemical_formula_structural   UTe2
_chemical_formula_sum   'U2 Te4'
_cell_volume   180.60742484
_cell_formula_units_Z   2
loop_
 _symmetry_equiv_pos_site_id
 _symmetry_equiv_pos_as_xyz
  1  'x, y, z'
loop_
 _atom_site_type_symbol
 _atom_site_label
 _atom_site_symmetry_multiplicity
 _atom_site_fract_x
 _atom_site_fract_y
 _atom_site_fract_z
 _atom_site_occupancy
  Te  Te0  1  0.500000  0.749795  0.000000  1
  Te  Te1  1  0.500000  0.250205  0.000000  1
  Te  Te2  1  0.203339  0.703339  0.406679  1
  Te  Te3  1  0.796661  0.296661  0.593321  1
  U  U4  1  0.133213  0.133213  0.266426  1
  U  U5  1  0.866787  0.866787  0.733574  1
