# generated using pymatgen
data_Nd10Se19
_symmetry_space_group_name_H-M   'P 1'
_cell_length_a   8.34978581
_cell_length_b   20.82485297
_cell_length_c   9.51315855
_cell_angle_alpha   64.04927068
_cell_angle_beta   90.00705505
_cell_angle_gamma   89.98911031
_symmetry_Int_Tables_number   1
_chemical_formula_structural   Nd10Se19
_chemical_formula_sum   'Nd20 Se38'
_cell_volume   1487.38752229
_cell_formula_units_Z   2
loop_
 _symmetry_equiv_pos_site_id
 _symmetry_equiv_pos_as_xyz
  1  'x, y, z'
loop_
 _atom_site_type_symbol
 _atom_site_label
 _atom_site_symmetry_multiplicity
 _atom_site_fract_x
 _atom_site_fract_y
 _atom_site_fract_z
 _atom_site_occupancy
  Nd  Nd0  1  0.994050  0.244351  0.280796  1
  Nd  Nd1  1  0.003309  0.443316  0.278616  1
  Nd  Nd2  1  0.004972  0.645911  0.278336  1
  Nd  Nd3  1  0.993921  0.843518  0.277053  1
  Nd  Nd4  1  0.256079  0.856482  0.722947  1
  Nd  Nd5  1  0.245028  0.054089  0.721664  1
  Nd  Nd6  1  0.246691  0.256684  0.721384  1
  Nd  Nd7  1  0.255950  0.455649  0.719204  1
  Nd  Nd8  1  0.255225  0.655543  0.722780  1
  Nd  Nd9  1  0.510564  0.446111  0.261016  1
  Nd  Nd10  1  0.493728  0.241028  0.272515  1
  Nd  Nd11  1  0.511758  0.649545  0.259923  1
  Nd  Nd12  1  0.493460  0.850407  0.269855  1
  Nd  Nd13  1  0.503755  0.046609  0.266150  1
  Nd  Nd14  1  0.756540  0.849593  0.730145  1
  Nd  Nd15  1  0.738242  0.050455  0.740077  1
  Nd  Nd16  1  0.739436  0.253889  0.738984  1
  Nd  Nd17  1  0.756272  0.458972  0.727485  1
  Nd  Nd18  1  0.746245  0.653391  0.733850  1
  Nd  Nd19  1  0.994775  0.044457  0.277220  1
  Se  Se20  1  0.000102  0.999145  0.001240  1
  Se  Se21  1  0.001110  0.201020  0.002076  1
  Se  Se22  1  0.023154  0.405431  0.998146  1
  Se  Se23  1  0.993978  0.971911  0.634005  1
  Se  Se24  1  -0.000202  0.171628  0.641106  1
  Se  Se25  1  0.023625  0.795520  0.998570  1
  Se  Se26  1  0.004786  0.576001  0.635295  1
  Se  Se27  1  0.005158  0.770765  0.634077  1
  Se  Se28  1  0.248890  0.498980  0.997924  1
  Se  Se29  1  0.252805  0.325768  0.365362  1
  Se  Se30  1  0.226846  0.294569  0.001854  1
  Se  Se31  1  0.250202  0.528372  0.358894  1
  Se  Se32  1  0.249898  0.700855  0.998760  1
  Se  Se33  1  0.256022  0.728089  0.365995  1
  Se  Se34  1  0.244842  0.929235  0.365923  1
  Se  Se35  1  0.226375  0.904480  0.001430  1
  Se  Se36  1  0.245214  0.123999  0.364705  1
  Se  Se37  1  0.465287  0.192373  0.998939  1
  Se  Se38  1  0.499568  0.973373  0.629334  1
  Se  Se39  1  0.463008  0.007969  0.999455  1
  Se  Se40  1  0.512509  0.389784  0.000218  1
  Se  Se41  1  0.494095  0.172283  0.635007  1
  Se  Se42  1  0.484253  0.600292  0.997356  1
  Se  Se43  1  0.499887  0.376016  0.625015  1
  Se  Se44  1  0.513308  0.809601  0.000579  1
  Se  Se45  1  0.501573  0.574498  0.626193  1
  Se  Se46  1  0.500675  0.774504  0.631381  1
  Se  Se47  1  0.765747  0.099708  0.002644  1
  Se  Se48  1  0.750113  0.323984  0.374985  1
  Se  Se49  1  0.737491  0.310216  0.999782  1
  Se  Se50  1  0.755905  0.527717  0.364992  1
  Se  Se51  1  0.784713  0.507627  0.001061  1
  Se  Se52  1  0.786992  0.692031  0.000545  1
  Se  Se53  1  0.736692  0.890399  0.999421  1
  Se  Se54  1  0.750432  0.726627  0.370666  1
  Se  Se55  1  0.749325  0.925496  0.368619  1
  Se  Se56  1  0.748427  0.125502  0.373807  1
  Se  Se57  1  0.997195  0.374232  0.634638  1
