# generated using pymatgen
data_NaHO
_symmetry_space_group_name_H-M   'P 1'
_cell_length_a   5.98226195
_cell_length_b   3.63646636
_cell_length_c   5.59412009
_cell_angle_alpha   90.00000000
_cell_angle_beta   33.43203962
_cell_angle_gamma   90.00000000
_symmetry_Int_Tables_number   1
_chemical_formula_structural   NaHO
_chemical_formula_sum   'Na2 H2 O2'
_cell_volume   67.04818113
_cell_formula_units_Z   2
loop_
 _symmetry_equiv_pos_site_id
 _symmetry_equiv_pos_as_xyz
  1  'x, y, z'
loop_
 _atom_site_type_symbol
 _atom_site_label
 _atom_site_symmetry_multiplicity
 _atom_site_fract_x
 _atom_site_fract_y
 _atom_site_fract_z
 _atom_site_occupancy
  Na  Na0  1  0.084359  0.250000  0.225443  1
  Na  Na1  1  0.896864  0.750000  0.835299  1
  H  H2  1  0.456479  0.250000  0.434188  1
  H  H3  1  0.475752  0.750000  0.903711  1
  O  O4  1  0.380548  0.250000  0.332865  1
  O  O5  1  0.648692  0.750000  0.608473  1
