# generated using pymatgen
data_CsLi2(H2N)3
_symmetry_space_group_name_H-M   'P 1'
_cell_length_a   7.93012168
_cell_length_b   7.93012168
_cell_length_c   6.05877109
_cell_angle_alpha   90.00000000
_cell_angle_beta   90.00000000
_cell_angle_gamma   69.49594441
_symmetry_Int_Tables_number   1
_chemical_formula_structural   CsLi2(H2N)3
_chemical_formula_sum   'Cs2 Li4 H12 N6'
_cell_volume   356.87849457
_cell_formula_units_Z   2
loop_
 _symmetry_equiv_pos_site_id
 _symmetry_equiv_pos_as_xyz
  1  'x, y, z'
loop_
 _atom_site_type_symbol
 _atom_site_label
 _atom_site_symmetry_multiplicity
 _atom_site_fract_x
 _atom_site_fract_y
 _atom_site_fract_z
 _atom_site_occupancy
  Cs  Cs0  1  0.690088  0.690088  0.250000  1
  Cs  Cs1  1  0.309912  0.309912  0.750000  1
  Li  Li2  1  0.843022  0.156978  0.500000  1
  Li  Li3  1  0.843022  0.156978  0.000000  1
  Li  Li4  1  0.156978  0.843022  0.500000  1
  Li  Li5  1  0.156978  0.843022  0.000000  1
  H  H6  1  0.381378  0.054528  0.250000  1
  H  H7  1  0.945472  0.618622  0.750000  1
  H  H8  1  0.618622  0.945472  0.750000  1
  H  H9  1  0.054528  0.381378  0.250000  1
  H  H10  1  0.402197  0.486467  0.250000  1
  H  H11  1  0.513533  0.597803  0.750000  1
  H  H12  1  0.597803  0.513533  0.750000  1
  H  H13  1  0.486467  0.402197  0.250000  1
  H  H14  1  0.062295  0.474697  0.250000  1
  H  H15  1  0.525303  0.937705  0.750000  1
  H  H16  1  0.937705  0.525303  0.750000  1
  H  H17  1  0.474697  0.062295  0.250000  1
  N  N18  1  0.951931  0.951931  0.250000  1
  N  N19  1  0.048069  0.048069  0.750000  1
  N  N20  1  0.034524  0.773419  0.250000  1
  N  N21  1  0.226581  0.965476  0.750000  1
  N  N22  1  0.965476  0.226581  0.750000  1
  N  N23  1  0.773419  0.034524  0.250000  1
