# generated using pymatgen
data_BaSO2
_symmetry_space_group_name_H-M   'P 1'
_cell_length_a   8.95542441
_cell_length_b   4.97708030
_cell_length_c   6.96734826
_cell_angle_alpha   90.00000000
_cell_angle_beta   90.00000000
_cell_angle_gamma   90.00000000
_symmetry_Int_Tables_number   1
_chemical_formula_structural   BaSO2
_chemical_formula_sum   'Ba4 S4 O8'
_cell_volume   310.54771587
_cell_formula_units_Z   4
loop_
 _symmetry_equiv_pos_site_id
 _symmetry_equiv_pos_as_xyz
  1  'x, y, z'
loop_
 _atom_site_type_symbol
 _atom_site_label
 _atom_site_symmetry_multiplicity
 _atom_site_fract_x
 _atom_site_fract_y
 _atom_site_fract_z
 _atom_site_occupancy
  Ba  Ba0  1  0.694228  0.250000  0.315803  1
  Ba  Ba1  1  0.194228  0.250000  0.184197  1
  Ba  Ba2  1  0.305772  0.750000  0.684197  1
  Ba  Ba3  1  0.805772  0.750000  0.815803  1
  S  S4  1  0.928241  0.750000  0.278524  1
  S  S5  1  0.428241  0.750000  0.221476  1
  S  S6  1  0.071759  0.250000  0.721476  1
  S  S7  1  0.571759  0.250000  0.778524  1
  O  O8  1  0.797044  0.750000  0.434663  1
  O  O9  1  0.297044  0.750000  0.065337  1
  O  O10  1  0.202956  0.250000  0.565337  1
  O  O11  1  0.702956  0.250000  0.934663  1
  O  O12  1  0.585525  0.750000  0.121348  1
  O  O13  1  0.085525  0.750000  0.378652  1
  O  O14  1  0.414475  0.250000  0.878652  1
  O  O15  1  0.914475  0.250000  0.621348  1
