# generated using pymatgen
data_Ge6Bi7O22
_symmetry_space_group_name_H-M   'P 1'
_cell_length_a   9.24570497
_cell_length_b   9.13807237
_cell_length_c   9.35305446
_cell_angle_alpha   107.77723501
_cell_angle_beta   111.16607492
_cell_angle_gamma   109.36182997
_symmetry_Int_Tables_number   1
_chemical_formula_structural   Ge6Bi7O22
_chemical_formula_sum   'Ge6 Bi7 O22'
_cell_volume   608.72443399
_cell_formula_units_Z   1
loop_
 _symmetry_equiv_pos_site_id
 _symmetry_equiv_pos_as_xyz
  1  'x, y, z'
loop_
 _atom_site_type_symbol
 _atom_site_label
 _atom_site_symmetry_multiplicity
 _atom_site_fract_x
 _atom_site_fract_y
 _atom_site_fract_z
 _atom_site_occupancy
  Ge  Ge0  1  0.115482  0.797114  0.876947  1
  Ge  Ge1  1  0.253682  0.637192  0.373331  1
  Ge  Ge2  1  0.370503  0.252300  0.631468  1
  Ge  Ge3  1  0.620209  0.371923  0.247702  1
  Ge  Ge4  1  0.742969  0.871135  0.120293  1
  Ge  Ge5  1  0.893543  0.129703  0.756159  1
  Bi  Bi6  1  0.990208  0.315858  0.481293  1
  Bi  Bi7  1  0.186549  0.189346  0.194252  1
  Bi  Bi8  1  0.661466  0.667133  0.668097  1
  Bi  Bi9  1  0.512481  0.001796  0.830474  1
  Bi  Bi10  1  0.501563  0.978279  0.318717  1
  Bi  Bi11  1  0.991453  0.818252  0.484070  1
  Bi  Bi12  1  0.822506  0.496053  0.007290  1
  O  O13  1  0.167753  0.779592  0.716922  1
  O  O14  1  0.048818  0.631928  0.344164  1
  O  O15  1  0.209201  0.299235  0.652642  1
  O  O16  1  0.195025  0.423128  0.358083  1
  O  O17  1  0.278203  0.961648  0.087814  1
  O  O18  1  0.452729  0.780881  0.587633  1
  O  O19  1  0.290855  0.686893  0.221751  1
  O  O20  1  0.703545  0.853116  0.913668  1
  O  O21  1  0.337545  0.056106  0.648504  1
  O  O22  1  0.359025  0.193706  0.424385  1
  O  O23  1  0.586685  0.446209  0.779245  1
  O  O24  1  0.547781  0.841482  0.123409  1
  O  O25  1  0.412694  0.357032  0.199297  1
  O  O26  1  0.879259  0.916158  0.714197  1
  O  O27  1  0.913179  0.661662  0.842097  1
  O  O28  1  0.740630  0.170890  0.818250  1
  O  O29  1  0.772902  0.586209  0.437556  1
  O  O30  1  0.670742  0.221325  0.306829  1
  O  O31  1  0.637390  0.327582  0.055318  1
  O  O32  1  0.817065  0.728778  0.175248  1
  O  O33  1  0.829118  0.127363  0.549357  1
  O  O34  1  0.937740  0.085094  0.272537  1
