# generated using pymatgen
data_CoH18C4N7O8
_symmetry_space_group_name_H-M   'P 1'
_cell_length_a   6.38107625
_cell_length_b   6.31748439
_cell_length_c   18.57689515
_cell_angle_alpha   90.00000000
_cell_angle_beta   90.00000000
_cell_angle_gamma   88.11591442
_symmetry_Int_Tables_number   1
_chemical_formula_structural   CoH18C4N7O8
_chemical_formula_sum   'Co2 H36 C8 N14 O16'
_cell_volume   748.47343784
_cell_formula_units_Z   2
loop_
 _symmetry_equiv_pos_site_id
 _symmetry_equiv_pos_as_xyz
  1  'x, y, z'
loop_
 _atom_site_type_symbol
 _atom_site_label
 _atom_site_symmetry_multiplicity
 _atom_site_fract_x
 _atom_site_fract_y
 _atom_site_fract_z
 _atom_site_occupancy
  Co  Co0  1  0.500000  0.500000  0.500000  1
  Co  Co1  1  0.500000  0.500000  0.000000  1
  H  H2  1  0.116338  0.795212  0.684649  1
  H  H3  1  0.791223  0.853067  0.201838  1
  H  H4  1  0.329661  0.149556  0.014136  1
  H  H5  1  0.838180  0.754818  0.813945  1
  H  H6  1  0.636708  0.070553  0.798147  1
  H  H7  1  0.208777  0.146933  0.798162  1
  H  H8  1  0.938726  0.971851  0.863749  1
  H  H9  1  0.791223  0.853067  0.298162  1
  H  H10  1  0.363292  0.929447  0.201853  1
  H  H11  1  0.394569  0.181460  0.570574  1
  H  H12  1  0.938726  0.971851  0.636251  1
  H  H13  1  0.208777  0.146933  0.701838  1
  H  H14  1  0.179633  0.304187  0.960690  1
  H  H15  1  0.670339  0.850444  0.985864  1
  H  H16  1  0.061274  0.028149  0.136251  1
  H  H17  1  0.953783  0.668021  0.250000  1
  H  H18  1  0.883662  0.204788  0.184649  1
  H  H19  1  0.838180  0.754818  0.686055  1
  H  H20  1  0.061274  0.028149  0.363749  1
  H  H21  1  0.265371  0.708713  0.250000  1
  H  H22  1  0.116338  0.795212  0.815351  1
  H  H23  1  0.161820  0.245182  0.186055  1
  H  H24  1  0.883662  0.204788  0.315351  1
  H  H25  1  0.670339  0.850444  0.514136  1
  H  H26  1  0.179633  0.304187  0.539310  1
  H  H27  1  0.161820  0.245182  0.313945  1
  H  H28  1  0.394569  0.181460  0.929426  1
  H  H29  1  0.605431  0.818540  0.429426  1
  H  H30  1  0.820367  0.695813  0.039310  1
  H  H31  1  0.605431  0.818540  0.070574  1
  H  H32  1  0.046217  0.331979  0.750000  1
  H  H33  1  0.820367  0.695813  0.460690  1
  H  H34  1  0.636708  0.070553  0.701853  1
  H  H35  1  0.329661  0.149556  0.485864  1
  H  H36  1  0.734629  0.291287  0.750000  1
  H  H37  1  0.363292  0.929447  0.298147  1
  C  C38  1  0.960157  0.872586  0.684255  1
  C  C39  1  0.039843  0.127414  0.315745  1
  C  C40  1  0.278964  0.880521  0.250000  1
  C  C41  1  0.039843  0.127414  0.184255  1
  C  C42  1  0.112562  0.170662  0.750000  1
  C  C43  1  0.887438  0.829338  0.250000  1
  C  C44  1  0.721036  0.119479  0.750000  1
  C  C45  1  0.960157  0.872586  0.815745  1
  N  N46  1  0.751267  0.364984  0.956548  1
  N  N47  1  0.248733  0.635016  0.043452  1
  N  N48  1  0.331181  0.258010  0.526907  1
  N  N49  1  0.440951  0.624942  0.904074  1
  N  N50  1  0.938209  0.011415  0.750000  1
  N  N51  1  0.559049  0.375058  0.404074  1
  N  N52  1  0.668819  0.741990  0.026907  1
  N  N53  1  0.440951  0.624942  0.595926  1
  N  N54  1  0.331181  0.258010  0.973093  1
  N  N55  1  0.668819  0.741990  0.473093  1
  N  N56  1  0.559049  0.375058  0.095926  1
  N  N57  1  0.751267  0.364984  0.543452  1
  N  N58  1  0.248733  0.635016  0.456548  1
  N  N59  1  0.061791  0.988585  0.250000  1
  O  O60  1  0.546437  0.179640  0.105509  1
  O  O61  1  0.113064  0.522581  0.428350  1
  O  O62  1  0.453563  0.820360  0.894491  1
  O  O63  1  0.397318  0.506957  0.852656  1
  O  O64  1  0.546437  0.179640  0.394491  1
  O  O65  1  0.886936  0.477419  0.928350  1
  O  O66  1  0.774668  0.167928  0.955895  1
  O  O67  1  0.453563  0.820360  0.605509  1
  O  O68  1  0.886936  0.477419  0.571650  1
  O  O69  1  0.602682  0.493043  0.147344  1
  O  O70  1  0.113064  0.522581  0.071650  1
  O  O71  1  0.774668  0.167928  0.544105  1
  O  O72  1  0.397318  0.506957  0.647344  1
  O  O73  1  0.225332  0.832072  0.044105  1
  O  O74  1  0.225332  0.832072  0.455895  1
  O  O75  1  0.602682  0.493043  0.352656  1
