# generated using pymatgen
data_BaLa5TiCr5O18
_symmetry_space_group_name_H-M   'P 1'
_cell_length_a   5.56195669
_cell_length_b   5.56585381
_cell_length_c   33.35231685
_cell_angle_alpha   60.56353095
_cell_angle_beta   60.62156117
_cell_angle_gamma   60.66259628
_symmetry_Int_Tables_number   1
_chemical_formula_structural   BaLa5TiCr5O18
_chemical_formula_sum   'Ba2 La10 Ti2 Cr10 O36'
_cell_volume   740.23322635
_cell_formula_units_Z   2
loop_
 _symmetry_equiv_pos_site_id
 _symmetry_equiv_pos_as_xyz
  1  'x, y, z'
loop_
 _atom_site_type_symbol
 _atom_site_label
 _atom_site_symmetry_multiplicity
 _atom_site_fract_x
 _atom_site_fract_y
 _atom_site_fract_z
 _atom_site_occupancy
  Ba  Ba0  1  0.749169  0.750016  0.125483  1
  Ba  Ba1  1  0.751720  0.757273  0.955668  1
  La  La2  1  0.252086  0.258302  0.039149  1
  La  La3  1  0.248139  0.250262  0.210907  1
  La  La4  1  0.250569  0.248077  0.376165  1
  La  La5  1  0.249999  0.249723  0.542343  1
  La  La6  1  0.754651  0.748166  0.292278  1
  La  La7  1  0.251972  0.247976  0.708350  1
  La  La8  1  0.749788  0.748689  0.459338  1
  La  La9  1  0.250599  0.255679  0.871239  1
  La  La10  1  0.751765  0.749669  0.625199  1
  La  La11  1  0.749141  0.743163  0.792639  1
  Ti  Ti12  1  0.001896  0.003659  0.999090  1
  Ti  Ti13  1  0.005139  0.996693  0.167113  1
  Cr  Cr14  1  0.999697  0.994673  0.334958  1
  Cr  Cr15  1  0.499131  0.499043  0.084002  1
  Cr  Cr16  1  0.494334  0.498306  0.252211  1
  Cr  Cr17  1  0.001025  0.000354  0.666269  1
  Cr  Cr18  1  0.499187  0.498570  0.417277  1
  Cr  Cr19  1  0.500252  0.499749  0.583349  1
  Cr  Cr20  1  0.999728  0.999405  0.500276  1
  Cr  Cr21  1  0.506126  0.500275  0.748097  1
  Cr  Cr22  1  0.503153  0.504381  0.914914  1
  Cr  Cr23  1  0.999710  0.007607  0.831078  1
  O  O24  1  0.220602  0.266290  0.127973  1
  O  O25  1  0.268481  0.751406  0.037874  1
  O  O26  1  0.241754  0.798759  0.118822  1
  O  O27  1  0.750211  0.225307  0.045344  1
  O  O28  1  0.178338  0.313891  0.293296  1
  O  O29  1  0.700536  0.243774  0.135968  1
  O  O30  1  0.268257  0.747947  0.205611  1
  O  O31  1  0.799020  0.703856  0.041322  1
  O  O32  1  0.249273  0.820165  0.281440  1
  O  O33  1  0.743014  0.195498  0.218661  1
  O  O34  1  0.175703  0.322757  0.458137  1
  O  O35  1  0.681796  0.242158  0.304219  1
  O  O36  1  0.324087  0.746117  0.363559  1
  O  O37  1  0.803837  0.690100  0.212401  1
  O  O38  1  0.249782  0.822016  0.446501  1
  O  O39  1  0.747344  0.175720  0.387878  1
  O  O40  1  0.177303  0.323857  0.624148  1
  O  O41  1  0.676203  0.248307  0.470977  1
  O  O42  1  0.322785  0.749680  0.529577  1
  O  O43  1  0.823093  0.673186  0.375285  1
  O  O44  1  0.251237  0.822248  0.612578  1
  O  O45  1  0.750119  0.176271  0.553945  1
  O  O46  1  0.187310  0.321661  0.789245  1
  O  O47  1  0.676482  0.249642  0.637067  1
  O  O48  1  0.323907  0.753541  0.695383  1
  O  O49  1  0.823768  0.675973  0.541232  1
  O  O50  1  0.259947  0.814641  0.779460  1
  O  O51  1  0.753155  0.175287  0.719657  1
  O  O52  1  0.225067  0.272245  0.959200  1
  O  O53  1  0.682466  0.249184  0.801017  1
  O  O54  1  0.304279  0.767915  0.864105  1
  O  O55  1  0.827763  0.676251  0.706799  1
  O  O56  1  0.245985  0.800457  0.950418  1
  O  O57  1  0.746494  0.233168  0.876831  1
  O  O58  1  0.702675  0.249942  0.966523  1
  O  O59  1  0.818950  0.691073  0.870157  1
