# generated using pymatgen
data_Na4VS3O13
_symmetry_space_group_name_H-M   'P 1'
_cell_length_a   8.74741025
_cell_length_b   15.67975985
_cell_length_c   16.18412650
_cell_angle_alpha   90.00000000
_cell_angle_beta   90.00000000
_cell_angle_gamma   90.00064607
_symmetry_Int_Tables_number   1
_chemical_formula_structural   Na4VS3O13
_chemical_formula_sum   'Na32 V8 S24 O104'
_cell_volume   2219.77096376
_cell_formula_units_Z   8
loop_
 _symmetry_equiv_pos_site_id
 _symmetry_equiv_pos_as_xyz
  1  'x, y, z'
loop_
 _atom_site_type_symbol
 _atom_site_label
 _atom_site_symmetry_multiplicity
 _atom_site_fract_x
 _atom_site_fract_y
 _atom_site_fract_z
 _atom_site_occupancy
  Na  Na0  1  0.647178  0.245187  0.087155  1
  Na  Na1  1  0.683815  0.467907  0.280545  1
  Na  Na2  1  0.322387  0.811439  0.217283  1
  Na  Na3  1  0.186101  0.819845  0.716372  1
  Na  Na4  1  0.788252  0.728143  0.921173  1
  Na  Na5  1  0.788252  0.228143  0.578827  1
  Na  Na6  1  0.693758  0.990210  0.951860  1
  Na  Na7  1  0.677613  0.688561  0.717283  1
  Na  Na8  1  0.164929  0.008771  0.570108  1
  Na  Na9  1  0.211748  0.271857  0.078827  1
  Na  Na10  1  0.813899  0.680155  0.216372  1
  Na  Na11  1  0.352822  0.254814  0.587155  1
  Na  Na12  1  0.186101  0.319845  0.783628  1
  Na  Na13  1  0.352822  0.754814  0.912845  1
  Na  Na14  1  0.853062  0.969658  0.721046  1
  Na  Na15  1  0.211748  0.771857  0.421173  1
  Na  Na16  1  0.835071  0.491229  0.070108  1
  Na  Na17  1  0.813899  0.180155  0.283628  1
  Na  Na18  1  0.306242  0.509790  0.451860  1
  Na  Na19  1  0.316185  0.532093  0.719455  1
  Na  Na20  1  0.693758  0.490210  0.548140  1
  Na  Na21  1  0.316185  0.032093  0.780545  1
  Na  Na22  1  0.835071  0.991229  0.429892  1
  Na  Na23  1  0.164929  0.508771  0.929892  1
  Na  Na24  1  0.647178  0.745186  0.412845  1
  Na  Na25  1  0.146938  0.030342  0.278954  1
  Na  Na26  1  0.306242  0.009790  0.048140  1
  Na  Na27  1  0.853062  0.469658  0.778954  1
  Na  Na28  1  0.322387  0.311439  0.282717  1
  Na  Na29  1  0.146938  0.530342  0.221046  1
  Na  Na30  1  0.683815  0.967907  0.219455  1
  Na  Na31  1  0.677613  0.188561  0.782717  1
  V  V32  1  0.972975  0.868940  0.078854  1
  V  V33  1  0.526936  0.860846  0.574480  1
  V  V34  1  0.027025  0.131060  0.921146  1
  V  V35  1  0.027025  0.631060  0.578854  1
  V  V36  1  0.972975  0.368940  0.421146  1
  V  V37  1  0.473064  0.139154  0.425520  1
  V  V38  1  0.526936  0.360846  0.925520  1
  V  V39  1  0.473064  0.639154  0.074480  1
  S  S40  1  0.937965  0.840061  0.547117  1
  S  S41  1  0.091847  0.425399  0.601451  1
  S  S42  1  0.945423  0.340914  0.221098  1
  S  S43  1  0.054577  0.159086  0.721098  1
  S  S44  1  0.438616  0.634594  0.279027  1
  S  S45  1  0.561384  0.865406  0.779027  1
  S  S46  1  0.937965  0.340061  0.952883  1
  S  S47  1  0.572775  0.339101  0.424432  1
  S  S48  1  0.438616  0.134594  0.220973  1
  S  S49  1  0.908153  0.574600  0.398549  1
  S  S50  1  0.091847  0.925400  0.898549  1
  S  S51  1  0.539655  0.061403  0.612580  1
  S  S52  1  0.054577  0.659086  0.778902  1
  S  S53  1  0.062035  0.659939  0.047117  1
  S  S54  1  0.062035  0.159939  0.452883  1
  S  S55  1  0.427225  0.660899  0.575568  1
  S  S56  1  0.908153  0.074601  0.101451  1
  S  S57  1  0.572775  0.839101  0.075568  1
  S  S58  1  0.427225  0.160899  0.924432  1
  S  S59  1  0.561384  0.365406  0.720973  1
  S  S60  1  0.460345  0.438597  0.112580  1
  S  S61  1  0.945423  0.840914  0.278902  1
  S  S62  1  0.539655  0.561403  0.887420  1
  S  S63  1  0.460345  0.938597  0.387420  1
  O  O64  1  0.398621  0.388935  0.724576  1
  O  O65  1  0.416763  0.714142  0.327603  1
  O  O66  1  0.861748  0.979881  0.102311  1
  O  O67  1  0.829990  0.794124  0.326101  1
  O  O68  1  0.270623  0.179889  0.957367  1
  O  O69  1  0.770840  0.844317  0.527064  1
  O  O70  1  0.583237  0.785858  0.827603  1
  O  O71  1  0.348538  0.870218  0.603597  1
  O  O72  1  0.600914  0.983810  0.567390  1
  O  O73  1  0.957717  0.914362  0.957207  1
  O  O74  1  0.861748  0.479881  0.397689  1
  O  O75  1  0.729377  0.320111  0.457367  1
  O  O76  1  0.991278  0.250024  0.969689  1
  O  O77  1  0.100227  0.807591  0.294043  1
  O  O78  1  0.224347  0.379692  0.570144  1
  O  O79  1  0.466205  0.865762  0.449508  1
  O  O80  1  0.654926  0.435860  0.687540  1
  O  O81  1  0.170010  0.705876  0.826101  1
  O  O82  1  0.967605  0.364998  0.866411  1
  O  O83  1  0.649232  0.084135  0.677252  1
  O  O84  1  0.032395  0.635002  0.133589  1
  O  O85  1  0.095142  0.177583  0.812110  1
  O  O86  1  0.957339  0.597450  0.315112  1
  O  O87  1  0.023474  0.896306  0.489589  1
  O  O88  1  0.345074  0.064140  0.187540  1
  O  O89  1  0.899773  0.192409  0.705957  1
  O  O90  1  0.936644  0.434509  0.207008  1
  O  O91  1  0.008722  0.249976  0.469689  1
  O  O92  1  0.775653  0.120308  0.070144  1
  O  O93  1  0.023474  0.396306  0.010411  1
  O  O94  1  0.770840  0.344317  0.972936  1
  O  O95  1  0.350768  0.415865  0.177252  1
  O  O96  1  0.466864  0.266730  0.450521  1
  O  O97  1  0.429092  0.156262  0.833536  1
  O  O98  1  0.515230  0.917716  0.037166  1
  O  O99  1  0.775653  0.620308  0.429856  1
  O  O100  1  0.649232  0.584135  0.822748  1
  O  O101  1  0.614732  0.953880  0.356578  1
  O  O102  1  0.229160  0.155683  0.472936  1
  O  O103  1  0.957339  0.097450  0.184888  1
  O  O104  1  0.042283  0.085638  0.042793  1
  O  O105  1  0.008722  0.749976  0.030311  1
  O  O106  1  0.345074  0.564140  0.312460  1
  O  O107  1  0.976526  0.103694  0.510411  1
  O  O108  1  0.651462  0.129782  0.396403  1
  O  O109  1  0.466864  0.766730  0.049479  1
  O  O110  1  0.570908  0.843738  0.166464  1
  O  O111  1  0.853223  0.604147  0.607481  1
  O  O112  1  0.601379  0.611065  0.275424  1
  O  O113  1  0.146777  0.895853  0.107481  1
  O  O114  1  0.853223  0.104147  0.892519  1
  O  O115  1  0.270623  0.679889  0.542633  1
  O  O116  1  0.904858  0.322417  0.312110  1
  O  O117  1  0.042661  0.902550  0.815112  1
  O  O118  1  0.533136  0.733270  0.549479  1
  O  O119  1  0.398621  0.888935  0.775424  1
  O  O120  1  0.063356  0.565491  0.792992  1
  O  O121  1  0.654926  0.935860  0.812460  1
  O  O122  1  0.601379  0.111065  0.224576  1
  O  O123  1  0.936644  0.934509  0.292992  1
  O  O124  1  0.348538  0.370218  0.896403  1
  O  O125  1  0.399086  0.516190  0.067390  1
  O  O126  1  0.138252  0.020119  0.897689  1
  O  O127  1  0.399086  0.016190  0.432610  1
  O  O128  1  0.385268  0.046120  0.643422  1
  O  O129  1  0.533795  0.634238  0.949508  1
  O  O130  1  0.619814  0.345588  0.809214  1
  O  O131  1  0.976526  0.603694  0.989589  1
  O  O132  1  0.570908  0.343738  0.333536  1
  O  O133  1  0.350768  0.915865  0.322748  1
  O  O134  1  0.515230  0.417716  0.462834  1
  O  O135  1  0.385268  0.546120  0.856578  1
  O  O136  1  0.042661  0.402550  0.684888  1
  O  O137  1  0.614732  0.453880  0.143422  1
  O  O138  1  0.229160  0.655683  0.027064  1
  O  O139  1  0.032395  0.135002  0.366411  1
  O  O140  1  0.957717  0.414362  0.542793  1
  O  O141  1  0.170010  0.205876  0.673899  1
  O  O142  1  0.042283  0.585638  0.457207  1
  O  O143  1  0.100227  0.307591  0.205957  1
  O  O144  1  0.466205  0.365762  0.050492  1
  O  O145  1  0.967605  0.864998  0.633589  1
  O  O146  1  0.899773  0.692409  0.794043  1
  O  O147  1  0.380186  0.154412  0.309214  1
  O  O148  1  0.380186  0.654412  0.190786  1
  O  O149  1  0.533136  0.233270  0.950521  1
  O  O150  1  0.224347  0.879692  0.929856  1
  O  O151  1  0.729377  0.820111  0.042633  1
  O  O152  1  0.484770  0.582284  0.537166  1
  O  O153  1  0.429092  0.656262  0.666464  1
  O  O154  1  0.484770  0.082284  0.962834  1
  O  O155  1  0.063356  0.065491  0.707008  1
  O  O156  1  0.583237  0.285858  0.672397  1
  O  O157  1  0.138252  0.520119  0.602311  1
  O  O158  1  0.829990  0.294124  0.173899  1
  O  O159  1  0.600914  0.483810  0.932610  1
  O  O160  1  0.533795  0.134238  0.550492  1
  O  O161  1  0.619814  0.845588  0.690786  1
  O  O162  1  0.991278  0.750024  0.530311  1
  O  O163  1  0.146777  0.395853  0.392519  1
  O  O164  1  0.095142  0.677583  0.687890  1
  O  O165  1  0.904858  0.822417  0.187890  1
  O  O166  1  0.416763  0.214142  0.172397  1
  O  O167  1  0.651462  0.629782  0.103597  1
