# generated using pymatgen
data_PbCSNCl
_symmetry_space_group_name_H-M   'P 1'
_cell_length_a   4.32479994
_cell_length_b   9.82383710
_cell_length_c   10.26429131
_cell_angle_alpha   90.00000000
_cell_angle_beta   90.00000000
_cell_angle_gamma   90.00000000
_symmetry_Int_Tables_number   1
_chemical_formula_structural   PbCSNCl
_chemical_formula_sum   'Pb4 C4 S4 N4 Cl4'
_cell_volume   436.09001599
_cell_formula_units_Z   4
loop_
 _symmetry_equiv_pos_site_id
 _symmetry_equiv_pos_as_xyz
  1  'x, y, z'
loop_
 _atom_site_type_symbol
 _atom_site_label
 _atom_site_symmetry_multiplicity
 _atom_site_fract_x
 _atom_site_fract_y
 _atom_site_fract_z
 _atom_site_occupancy
  Pb  Pb0  1  0.250000  0.919926  0.809673  1
  Pb  Pb1  1  0.750000  0.419926  0.690327  1
  Pb  Pb2  1  0.250000  0.580074  0.309673  1
  Pb  Pb3  1  0.750000  0.080074  0.190327  1
  C  C4  1  0.250000  0.140929  0.483428  1
  C  C5  1  0.750000  0.859071  0.516572  1
  C  C6  1  0.250000  0.359071  0.983428  1
  C  C7  1  0.750000  0.640929  0.016572  1
  S  S8  1  0.250000  0.309426  0.136257  1
  S  S9  1  0.750000  0.690574  0.863743  1
  S  S10  1  0.250000  0.190574  0.636257  1
  S  S11  1  0.750000  0.809426  0.363743  1
  N  N12  1  0.750000  0.896260  0.626691  1
  N  N13  1  0.250000  0.103740  0.373309  1
  N  N14  1  0.250000  0.396260  0.873309  1
  N  N15  1  0.750000  0.603740  0.126691  1
  Cl  Cl16  1  0.750000  0.104015  0.902742  1
  Cl  Cl17  1  0.750000  0.395985  0.402742  1
  Cl  Cl18  1  0.250000  0.895985  0.097258  1
  Cl  Cl19  1  0.250000  0.604015  0.597258  1
