# generated using pymatgen
data_SiO2
_symmetry_space_group_name_H-M   'P 1'
_cell_length_a   18.58173488
_cell_length_b   18.58173488
_cell_length_c   9.39174045
_cell_angle_alpha   90.00000000
_cell_angle_beta   90.00000000
_cell_angle_gamma   90.00000000
_symmetry_Int_Tables_number   1
_chemical_formula_structural   SiO2
_chemical_formula_sum   'Si48 O96'
_cell_volume   3242.78832420
_cell_formula_units_Z   48
loop_
 _symmetry_equiv_pos_site_id
 _symmetry_equiv_pos_as_xyz
  1  'x, y, z'
loop_
 _atom_site_type_symbol
 _atom_site_label
 _atom_site_symmetry_multiplicity
 _atom_site_fract_x
 _atom_site_fract_y
 _atom_site_fract_z
 _atom_site_occupancy
  Si  Si0  1  0.065746  0.554706  0.337261  1
  Si  Si1  1  0.945294  0.065746  0.337261  1
  Si  Si2  1  0.554706  0.434254  0.337261  1
  Si  Si3  1  0.565746  0.445294  0.662739  1
  Si  Si4  1  0.934254  0.054706  0.662739  1
  Si  Si5  1  0.434254  0.945294  0.337261  1
  Si  Si6  1  0.054706  0.565746  0.662739  1
  Si  Si7  1  0.445294  0.934254  0.662739  1
  Si  Si8  1  0.934254  0.445294  0.662739  1
  Si  Si9  1  0.054706  0.934254  0.662739  1
  Si  Si10  1  0.445294  0.565746  0.662739  1
  Si  Si11  1  0.434254  0.554706  0.337261  1
  Si  Si12  1  0.065746  0.945294  0.337261  1
  Si  Si13  1  0.565746  0.054706  0.662739  1
  Si  Si14  1  0.945294  0.434254  0.337261  1
  Si  Si15  1  0.554706  0.065746  0.337261  1
  Si  Si16  1  0.953279  0.665762  0.839452  1
  Si  Si17  1  0.834238  0.953279  0.839452  1
  Si  Si18  1  0.665762  0.546721  0.839452  1
  Si  Si19  1  0.453279  0.334238  0.160548  1
  Si  Si20  1  0.046721  0.165762  0.160548  1
  Si  Si21  1  0.546721  0.834238  0.839452  1
  Si  Si22  1  0.165762  0.453279  0.160548  1
  Si  Si23  1  0.334238  0.046721  0.160548  1
  Si  Si24  1  0.046721  0.334238  0.160548  1
  Si  Si25  1  0.165762  0.046721  0.160548  1
  Si  Si26  1  0.334238  0.453279  0.160548  1
  Si  Si27  1  0.546721  0.665762  0.839452  1
  Si  Si28  1  0.953279  0.834238  0.839452  1
  Si  Si29  1  0.453279  0.165762  0.160548  1
  Si  Si30  1  0.834238  0.546721  0.839452  1
  Si  Si31  1  0.665762  0.953279  0.839452  1
  Si  Si32  1  0.064600  0.834106  0.087283  1
  Si  Si33  1  0.665894  0.064600  0.087283  1
  Si  Si34  1  0.834106  0.435400  0.087283  1
  Si  Si35  1  0.564600  0.165894  0.912717  1
  Si  Si36  1  0.935400  0.334106  0.912717  1
  Si  Si37  1  0.435400  0.665894  0.087283  1
  Si  Si38  1  0.334106  0.564600  0.912717  1
  Si  Si39  1  0.165894  0.935400  0.912717  1
  Si  Si40  1  0.935400  0.165894  0.912717  1
  Si  Si41  1  0.334106  0.935400  0.912717  1
  Si  Si42  1  0.165894  0.564600  0.912717  1
  Si  Si43  1  0.435400  0.834106  0.087283  1
  Si  Si44  1  0.064600  0.665894  0.087283  1
  Si  Si45  1  0.564600  0.334106  0.912717  1
  Si  Si46  1  0.665894  0.435400  0.087283  1
  Si  Si47  1  0.834106  0.064600  0.087283  1
  O  O48  1  0.132326  0.632326  0.000000  1
  O  O49  1  0.867674  0.132326  0.000000  1
  O  O50  1  0.632326  0.367674  0.000000  1
  O  O51  1  0.367674  0.867674  0.000000  1
  O  O52  1  0.867674  0.367674  0.000000  1
  O  O53  1  0.132326  0.867674  0.000000  1
  O  O54  1  0.367674  0.632326  0.000000  1
  O  O55  1  0.632326  0.132326  0.000000  1
  O  O56  1  0.080846  0.750000  0.116980  1
  O  O57  1  0.750000  0.080846  0.116980  1
  O  O58  1  0.750000  0.419154  0.116980  1
  O  O59  1  0.580846  0.250000  0.883020  1
  O  O60  1  0.919154  0.250000  0.883020  1
  O  O61  1  0.419154  0.750000  0.116980  1
  O  O62  1  0.250000  0.580846  0.883020  1
  O  O63  1  0.250000  0.919154  0.883020  1
  O  O64  1  0.877065  0.877065  0.838670  1
  O  O65  1  0.622935  0.877065  0.838670  1
  O  O66  1  0.877065  0.622935  0.838670  1
  O  O67  1  0.377065  0.122935  0.161330  1
  O  O68  1  0.122935  0.377065  0.161330  1
  O  O69  1  0.622935  0.622935  0.838670  1
  O  O70  1  0.377065  0.377065  0.161330  1
  O  O71  1  0.122935  0.122935  0.161330  1
  O  O72  1  0.990350  0.843591  0.996171  1
  O  O73  1  0.656409  0.990350  0.996171  1
  O  O74  1  0.843591  0.509650  0.996171  1
  O  O75  1  0.490350  0.156409  0.003829  1
  O  O76  1  0.009650  0.343591  0.003829  1
  O  O77  1  0.509650  0.656409  0.996171  1
  O  O78  1  0.343591  0.490350  0.003829  1
  O  O79  1  0.156409  0.009650  0.003829  1
  O  O80  1  0.009650  0.156409  0.003829  1
  O  O81  1  0.343591  0.009650  0.003829  1
  O  O82  1  0.156409  0.490350  0.003829  1
  O  O83  1  0.509650  0.843591  0.996171  1
  O  O84  1  0.990350  0.656409  0.996171  1
  O  O85  1  0.490350  0.343591  0.003829  1
  O  O86  1  0.656409  0.509650  0.996171  1
  O  O87  1  0.843591  0.990350  0.996171  1
  O  O88  1  0.937849  0.750000  0.805282  1
  O  O89  1  0.750000  0.937849  0.805282  1
  O  O90  1  0.750000  0.562151  0.805282  1
  O  O91  1  0.437849  0.250000  0.194718  1
  O  O92  1  0.062151  0.250000  0.194718  1
  O  O93  1  0.562151  0.750000  0.805282  1
  O  O94  1  0.250000  0.437849  0.194718  1
  O  O95  1  0.250000  0.062151  0.194718  1
  O  O96  1  0.919634  0.419634  0.500000  1
  O  O97  1  0.080366  0.919634  0.500000  1
  O  O98  1  0.419634  0.580366  0.500000  1
  O  O99  1  0.580366  0.080366  0.500000  1
  O  O100  1  0.080366  0.580366  0.500000  1
  O  O101  1  0.919634  0.080366  0.500000  1
  O  O102  1  0.580366  0.419634  0.500000  1
  O  O103  1  0.419634  0.919634  0.500000  1
  O  O104  1  0.993224  0.365996  0.283380  1
  O  O105  1  0.134004  0.993224  0.283380  1
  O  O106  1  0.365996  0.506776  0.283380  1
  O  O107  1  0.493224  0.634004  0.716620  1
  O  O108  1  0.006776  0.865996  0.716620  1
  O  O109  1  0.506776  0.134004  0.283380  1
  O  O110  1  0.865996  0.493224  0.716620  1
  O  O111  1  0.634004  0.006776  0.716620  1
  O  O112  1  0.006776  0.634004  0.716620  1
  O  O113  1  0.865996  0.006776  0.716620  1
  O  O114  1  0.634004  0.493224  0.716620  1
  O  O115  1  0.506776  0.365996  0.283380  1
  O  O116  1  0.993224  0.134004  0.283380  1
  O  O117  1  0.493224  0.865996  0.716620  1
  O  O118  1  0.134004  0.506776  0.283380  1
  O  O119  1  0.365996  0.993224  0.283380  1
  O  O120  1  0.874432  0.444498  0.239107  1
  O  O121  1  0.055502  0.874432  0.239107  1
  O  O122  1  0.444498  0.625568  0.239107  1
  O  O123  1  0.374432  0.555502  0.760893  1
  O  O124  1  0.125568  0.944498  0.760893  1
  O  O125  1  0.625568  0.055502  0.239107  1
  O  O126  1  0.944498  0.374432  0.760893  1
  O  O127  1  0.555502  0.125568  0.760893  1
  O  O128  1  0.125568  0.555502  0.760893  1
  O  O129  1  0.944498  0.125568  0.760893  1
  O  O130  1  0.555502  0.374432  0.760893  1
  O  O131  1  0.625568  0.444498  0.239107  1
  O  O132  1  0.874432  0.055502  0.239107  1
  O  O133  1  0.374432  0.944498  0.760893  1
  O  O134  1  0.055502  0.625568  0.239107  1
  O  O135  1  0.444498  0.874432  0.239107  1
  O  O136  1  0.991871  0.508129  0.328412  1
  O  O137  1  0.991871  0.991871  0.328412  1
  O  O138  1  0.508129  0.508129  0.328412  1
  O  O139  1  0.491871  0.491871  0.671588  1
  O  O140  1  0.008129  0.008129  0.671588  1
  O  O141  1  0.508129  0.991871  0.328412  1
  O  O142  1  0.008129  0.491871  0.671588  1
  O  O143  1  0.491871  0.008129  0.671588  1
