# generated using pymatgen
data_FeBN3O3F4
_symmetry_space_group_name_H-M   'P 1'
_cell_length_a   7.50389572
_cell_length_b   9.19423672
_cell_length_c   10.36695777
_cell_angle_alpha   97.37691394
_cell_angle_beta   90.00000000
_cell_angle_gamma   90.00000000
_symmetry_Int_Tables_number   1
_chemical_formula_structural   FeBN3O3F4
_chemical_formula_sum   'Fe4 B4 N12 O12 F16'
_cell_volume   709.32321894
_cell_formula_units_Z   4
loop_
 _symmetry_equiv_pos_site_id
 _symmetry_equiv_pos_as_xyz
  1  'x, y, z'
loop_
 _atom_site_type_symbol
 _atom_site_label
 _atom_site_symmetry_multiplicity
 _atom_site_fract_x
 _atom_site_fract_y
 _atom_site_fract_z
 _atom_site_occupancy
  Fe  Fe0  1  0.695385  0.206024  0.471722  1
  Fe  Fe1  1  0.195385  0.293976  0.028278  1
  Fe  Fe2  1  0.304615  0.793976  0.528278  1
  Fe  Fe3  1  0.804615  0.706024  0.971722  1
  B  B4  1  0.214672  0.924767  0.271657  1
  B  B5  1  0.714672  0.575233  0.228343  1
  B  B6  1  0.285328  0.424767  0.771657  1
  B  B7  1  0.785328  0.075233  0.728343  1
  N  N8  1  0.608889  0.785589  0.945494  1
  N  N9  1  0.684887  0.047981  0.371905  1
  N  N10  1  0.315113  0.952019  0.628095  1
  N  N11  1  0.891111  0.285589  0.445494  1
  N  N12  1  0.972850  0.809786  0.930863  1
  N  N13  1  0.184887  0.452019  0.128095  1
  N  N14  1  0.391111  0.214411  0.054506  1
  N  N15  1  0.472850  0.690214  0.569137  1
  N  N16  1  0.815113  0.547981  0.871905  1
  N  N17  1  0.527150  0.309786  0.430863  1
  N  N18  1  0.108889  0.714411  0.554506  1
  N  N19  1  0.027150  0.190214  0.069137  1
  O  O20  1  0.323785  0.038013  0.720282  1
  O  O21  1  0.489671  0.836409  0.896165  1
  O  O22  1  0.176215  0.538013  0.220282  1
  O  O23  1  0.425854  0.374953  0.375421  1
  O  O24  1  0.823785  0.461987  0.779718  1
  O  O25  1  0.676215  0.961987  0.279718  1
  O  O26  1  0.510329  0.163591  0.103835  1
  O  O27  1  0.074146  0.874953  0.875421  1
  O  O28  1  0.574146  0.625047  0.624579  1
  O  O29  1  0.989671  0.663591  0.603835  1
  O  O30  1  0.925854  0.125047  0.124579  1
  O  O31  1  0.010329  0.336409  0.396165  1
  F  F32  1  0.458796  0.385914  0.796708  1
  F  F33  1  0.334023  0.829032  0.342383  1
  F  F34  1  0.752198  0.430296  0.175938  1
  F  F35  1  0.541204  0.614086  0.203292  1
  F  F36  1  0.665977  0.170968  0.657617  1
  F  F37  1  0.740056  0.102580  0.859354  1
  F  F38  1  0.252198  0.069704  0.324062  1
  F  F39  1  0.759944  0.602580  0.359354  1
  F  F40  1  0.240056  0.397420  0.640646  1
  F  F41  1  0.165977  0.329032  0.842383  1
  F  F42  1  0.041204  0.885914  0.296708  1
  F  F43  1  0.747802  0.930296  0.675938  1
  F  F44  1  0.834023  0.670968  0.157617  1
  F  F45  1  0.247802  0.569704  0.824062  1
  F  F46  1  0.259944  0.897420  0.140646  1
  F  F47  1  0.958796  0.114086  0.703292  1
