# generated using pymatgen
data_SiO2
_symmetry_space_group_name_H-M   'P 1'
_cell_length_a   13.74389139
_cell_length_b   13.74389139
_cell_length_c   7.69127683
_cell_angle_alpha   90.00000000
_cell_angle_beta   90.00000000
_cell_angle_gamma   90.00000000
_symmetry_Int_Tables_number   1
_chemical_formula_structural   SiO2
_chemical_formula_sum   'Si24 O48'
_cell_volume   1452.84027988
_cell_formula_units_Z   24
loop_
 _symmetry_equiv_pos_site_id
 _symmetry_equiv_pos_as_xyz
  1  'x, y, z'
loop_
 _atom_site_type_symbol
 _atom_site_label
 _atom_site_symmetry_multiplicity
 _atom_site_fract_x
 _atom_site_fract_y
 _atom_site_fract_z
 _atom_site_occupancy
  Si  Si0  1  0.474266  0.864696  0.855765  1
  Si  Si1  1  0.635304  0.474266  0.855765  1
  Si  Si2  1  0.864696  0.025734  0.855765  1
  Si  Si3  1  0.974266  0.135304  0.144235  1
  Si  Si4  1  0.525734  0.364696  0.144235  1
  Si  Si5  1  0.025734  0.635304  0.855765  1
  Si  Si6  1  0.364696  0.974266  0.144235  1
  Si  Si7  1  0.135304  0.525734  0.144235  1
  Si  Si8  1  0.525734  0.135304  0.144235  1
  Si  Si9  1  0.364696  0.525734  0.144235  1
  Si  Si10  1  0.135304  0.974266  0.144235  1
  Si  Si11  1  0.025734  0.864696  0.855765  1
  Si  Si12  1  0.474266  0.635304  0.855765  1
  Si  Si13  1  0.974266  0.364696  0.144235  1
  Si  Si14  1  0.635304  0.025734  0.855765  1
  Si  Si15  1  0.864696  0.474266  0.855765  1
  Si  Si16  1  0.137039  0.862961  0.500000  1
  Si  Si17  1  0.637039  0.137039  0.500000  1
  Si  Si18  1  0.862961  0.362961  0.500000  1
  Si  Si19  1  0.362961  0.637039  0.500000  1
  Si  Si20  1  0.862961  0.137039  0.500000  1
  Si  Si21  1  0.362961  0.862961  0.500000  1
  Si  Si22  1  0.137039  0.637039  0.500000  1
  Si  Si23  1  0.637039  0.362961  0.500000  1
  O  O24  1  0.500908  0.750000  0.870583  1
  O  O25  1  0.750000  0.500908  0.870583  1
  O  O26  1  0.750000  0.999092  0.870583  1
  O  O27  1  0.000908  0.250000  0.129417  1
  O  O28  1  0.499092  0.250000  0.129417  1
  O  O29  1  0.999092  0.750000  0.870583  1
  O  O30  1  0.250000  0.000908  0.129417  1
  O  O31  1  0.250000  0.499092  0.129417  1
  O  O32  1  0.433086  0.889592  0.662226  1
  O  O33  1  0.610408  0.433086  0.662226  1
  O  O34  1  0.889592  0.066914  0.662226  1
  O  O35  1  0.933086  0.110408  0.337774  1
  O  O36  1  0.566914  0.389592  0.337774  1
  O  O37  1  0.066914  0.610408  0.662226  1
  O  O38  1  0.389592  0.933086  0.337774  1
  O  O39  1  0.110408  0.566914  0.337774  1
  O  O40  1  0.566914  0.110408  0.337774  1
  O  O41  1  0.389592  0.566914  0.337774  1
  O  O42  1  0.110408  0.933086  0.337774  1
  O  O43  1  0.066914  0.889592  0.662226  1
  O  O44  1  0.433086  0.610408  0.662226  1
  O  O45  1  0.933086  0.389592  0.337774  1
  O  O46  1  0.610408  0.066914  0.662226  1
  O  O47  1  0.889592  0.433086  0.662226  1
  O  O48  1  0.391756  0.891756  0.000000  1
  O  O49  1  0.608244  0.391756  0.000000  1
  O  O50  1  0.891756  0.108244  0.000000  1
  O  O51  1  0.108244  0.608244  0.000000  1
  O  O52  1  0.608244  0.108244  0.000000  1
  O  O53  1  0.391756  0.608244  0.000000  1
  O  O54  1  0.108244  0.891756  0.000000  1
  O  O55  1  0.891756  0.391756  0.000000  1
  O  O56  1  0.572144  0.927856  0.891803  1
  O  O57  1  0.572144  0.572144  0.891803  1
  O  O58  1  0.927856  0.927856  0.891803  1
  O  O59  1  0.072144  0.072144  0.108197  1
  O  O60  1  0.427856  0.427856  0.108197  1
  O  O61  1  0.927856  0.572144  0.891803  1
  O  O62  1  0.427856  0.072144  0.108197  1
  O  O63  1  0.072144  0.427856  0.108197  1
  O  O64  1  0.120563  0.750000  0.442405  1
  O  O65  1  0.750000  0.120563  0.442405  1
  O  O66  1  0.750000  0.379437  0.442405  1
  O  O67  1  0.620563  0.250000  0.557595  1
  O  O68  1  0.879437  0.250000  0.557595  1
  O  O69  1  0.379437  0.750000  0.442405  1
  O  O70  1  0.250000  0.620563  0.557595  1
  O  O71  1  0.250000  0.879437  0.557595  1
