# generated using pymatgen
data_ZrFe12Si2B
_symmetry_space_group_name_H-M   'P 1'
_cell_length_a   9.89306293
_cell_length_b   9.89306287
_cell_length_c   9.89306322
_cell_angle_alpha   109.47122299
_cell_angle_beta   109.47122290
_cell_angle_gamma   109.47121848
_symmetry_Int_Tables_number   1
_chemical_formula_structural   ZrFe12Si2B
_chemical_formula_sum   'Zr4 Fe48 Si8 B4'
_cell_volume   745.36744593
_cell_formula_units_Z   4
loop_
 _symmetry_equiv_pos_site_id
 _symmetry_equiv_pos_as_xyz
  1  'x, y, z'
loop_
 _atom_site_type_symbol
 _atom_site_label
 _atom_site_symmetry_multiplicity
 _atom_site_fract_x
 _atom_site_fract_y
 _atom_site_fract_z
 _atom_site_occupancy
  Zr  Zr0  1  0.000000  0.000000  0.000000  1
  Zr  Zr1  1  0.500000  0.000000  0.500000  1
  Zr  Zr2  1  0.500000  0.500000  0.000000  1
  Zr  Zr3  1  0.000000  0.500000  0.500000  1
  Fe  Fe4  1  0.492642  0.257709  0.257709  1
  Fe  Fe5  1  0.227785  0.000000  0.489636  1
  Fe  Fe6  1  0.510364  0.738148  0.510364  1
  Fe  Fe7  1  0.000000  0.490597  0.754498  1
  Fe  Fe8  1  0.227785  0.489636  1.000000  1
  Fe  Fe9  1  1.000000  0.766958  0.766958  1
  Fe  Fe10  1  0.263902  0.509403  0.509403  1
  Fe  Fe11  1  0.736098  0.245502  0.245502  1
  Fe  Fe12  1  0.766958  1.000000  0.766958  1
  Fe  Fe13  1  0.765066  0.765066  0.507358  1
  Fe  Fe14  1  0.257709  0.257709  0.492642  1
  Fe  Fe15  1  0.245502  0.736098  0.245502  1
  Fe  Fe16  1  0.750000  0.500000  0.250000  1
  Fe  Fe17  1  0.234934  0.742291  1.000000  1
  Fe  Fe18  1  0.510364  0.510364  0.738148  1
  Fe  Fe19  1  0.000000  0.227785  0.489636  1
  Fe  Fe20  1  1.000000  0.489636  0.227785  1
  Fe  Fe21  1  0.250000  0.750000  0.500000  1
  Fe  Fe22  1  0.261852  0.772215  0.772215  1
  Fe  Fe23  1  0.233042  0.000000  0.233042  1
  Fe  Fe24  1  0.742291  0.234934  1.000000  1
  Fe  Fe25  1  0.489636  1.000000  0.227785  1
  Fe  Fe26  1  0.509403  0.509403  0.263902  1
  Fe  Fe27  1  1.000000  0.234934  0.742291  1
  Fe  Fe28  1  0.233042  0.233042  0.000000  1
  Fe  Fe29  1  0.738148  0.510364  0.510364  1
  Fe  Fe30  1  0.750000  0.250000  0.500000  1
  Fe  Fe31  1  0.257709  0.492642  0.257709  1
  Fe  Fe32  1  0.772215  0.261852  0.772215  1
  Fe  Fe33  1  1.000000  0.742291  0.234934  1
  Fe  Fe34  1  0.500000  0.250000  0.750000  1
  Fe  Fe35  1  0.766958  0.766958  1.000000  1
  Fe  Fe36  1  0.234934  1.000000  0.742291  1
  Fe  Fe37  1  0.772215  0.772215  0.261852  1
  Fe  Fe38  1  0.000000  0.754498  0.490597  1
  Fe  Fe39  1  0.754498  0.490597  0.000000  1
  Fe  Fe40  1  0.765066  0.507358  0.765066  1
  Fe  Fe41  1  0.507358  0.765066  0.765066  1
  Fe  Fe42  1  0.000000  0.233042  0.233042  1
  Fe  Fe43  1  0.754498  0.000000  0.490597  1
  Fe  Fe44  1  0.490597  0.754498  0.000000  1
  Fe  Fe45  1  0.245502  0.245502  0.736098  1
  Fe  Fe46  1  0.490597  0.000000  0.754498  1
  Fe  Fe47  1  0.500000  0.750000  0.250000  1
  Fe  Fe48  1  0.742291  1.000000  0.234934  1
  Fe  Fe49  1  0.509403  0.263902  0.509403  1
  Fe  Fe50  1  0.250000  0.500000  0.750000  1
  Fe  Fe51  1  0.489636  0.227785  1.000000  1
  Si  Si52  1  1.000000  1.000000  0.280898  1
  Si  Si53  1  0.531393  0.000000  1.000000  1
  Si  Si54  1  0.280898  0.000000  1.000000  1
  Si  Si55  1  0.000000  0.280898  1.000000  1
  Si  Si56  1  0.468607  0.468607  0.468607  1
  Si  Si57  1  0.719102  0.719102  0.719102  1
  Si  Si58  1  1.000000  1.000000  0.531393  1
  Si  Si59  1  0.000000  0.531393  1.000000  1
  B  B60  1  0.000000  0.743263  1.000000  1
  B  B61  1  1.000000  1.000000  0.743263  1
  B  B62  1  0.743263  0.000000  1.000000  1
  B  B63  1  0.256737  0.256737  0.256737  1
