# generated using pymatgen
data_CuH12(IN)4
_symmetry_space_group_name_H-M   'P 1'
_cell_length_a   8.51726099
_cell_length_b   8.51726099
_cell_length_c   6.64450339
_cell_angle_alpha   58.08224371
_cell_angle_beta   121.91775629
_cell_angle_gamma   115.12277103
_symmetry_Int_Tables_number   1
_chemical_formula_structural   CuH12(IN)4
_chemical_formula_sum   'Cu1 H12 I4 N4'
_cell_volume   340.17195457
_cell_formula_units_Z   1
loop_
 _symmetry_equiv_pos_site_id
 _symmetry_equiv_pos_as_xyz
  1  'x, y, z'
loop_
 _atom_site_type_symbol
 _atom_site_label
 _atom_site_symmetry_multiplicity
 _atom_site_fract_x
 _atom_site_fract_y
 _atom_site_fract_z
 _atom_site_occupancy
  Cu  Cu0  1  0.500000  0.500000  0.000000  1
  H  H1  1  0.737084  0.518480  0.851870  1
  H  H2  1  0.481520  0.262916  0.851870  1
  H  H3  1  0.262916  0.481520  0.148130  1
  H  H4  1  0.518480  0.737084  0.148130  1
  H  H5  1  0.851431  0.507154  0.150573  1
  H  H6  1  0.492846  0.148569  0.150573  1
  H  H7  1  0.148569  0.492846  0.849427  1
  H  H8  1  0.507154  0.851431  0.849427  1
  H  H9  1  0.801707  0.709774  0.904086  1
  H  H10  1  0.290226  0.198293  0.904086  1
  H  H11  1  0.198293  0.290226  0.095914  1
  H  H12  1  0.709774  0.801707  0.095914  1
  I  I13  1  0.911423  0.088577  0.541808  1
  I  I14  1  0.088577  0.911423  0.458192  1
  I  I15  1  0.706087  0.293913  0.627184  1
  I  I16  1  0.293913  0.706087  0.372816  1
  N  N17  1  0.749899  0.566901  0.973086  1
  N  N18  1  0.433099  0.250101  0.973086  1
  N  N19  1  0.250101  0.433099  0.026914  1
  N  N20  1  0.566901  0.749899  0.026914  1
