# generated using pymatgen
data_Ba3LiTi5(SbO7)3
_symmetry_space_group_name_H-M   'P 1'
_cell_length_a   9.18925851
_cell_length_b   9.20400265
_cell_length_c   11.77548095
_cell_angle_alpha   89.99975173
_cell_angle_beta   89.87488146
_cell_angle_gamma   119.98445058
_symmetry_Int_Tables_number   1
_chemical_formula_structural   Ba3LiTi5(SbO7)3
_chemical_formula_sum   'Ba6 Li2 Ti10 Sb6 O42'
_cell_volume   862.64703406
_cell_formula_units_Z   2
loop_
 _symmetry_equiv_pos_site_id
 _symmetry_equiv_pos_as_xyz
  1  'x, y, z'
loop_
 _atom_site_type_symbol
 _atom_site_label
 _atom_site_symmetry_multiplicity
 _atom_site_fract_x
 _atom_site_fract_y
 _atom_site_fract_z
 _atom_site_occupancy
  Ba  Ba0  1  0.001293  0.399856  0.752205  1
  Ba  Ba1  1  0.396086  0.402656  0.245390  1
  Ba  Ba2  1  0.593971  0.595329  0.755294  1
  Ba  Ba3  1  0.401592  0.999199  0.747001  1
  Ba  Ba4  1  0.595022  0.997703  0.252478  1
  Ba  Ba5  1  0.000203  0.599526  0.248227  1
  Li  Li6  1  0.995209  0.001919  0.258748  1
  Li  Li7  1  0.004786  0.998152  0.755418  1
  Ti  Ti8  1  0.008381  0.747545  0.593754  1
  Ti  Ti9  1  0.334939  0.670582  0.998343  1
  Ti  Ti10  1  0.257603  0.261584  0.586820  1
  Ti  Ti11  1  0.254206  0.260433  0.903101  1
  Ti  Ti12  1  0.260268  0.008486  0.412575  1
  Ti  Ti13  1  0.737480  0.738524  0.092948  1
  Ti  Ti14  1  0.003462  0.738325  0.906120  1
  Ti  Ti15  1  0.751881  0.010533  0.592714  1
  Ti  Ti16  1  0.007673  0.262679  0.096394  1
  Ti  Ti17  1  0.006047  0.263962  0.411289  1
  Sb  Sb18  1  0.335678  0.672311  0.498708  1
  Sb  Sb19  1  0.243537  0.997130  0.084813  1
  Sb  Sb20  1  0.750727  0.751463  0.417218  1
  Sb  Sb21  1  0.668936  0.336434  0.501495  1
  Sb  Sb22  1  0.665186  0.330554  0.000831  1
  Sb  Sb23  1  0.751327  0.996729  0.916785  1
  O  O24  1  0.001019  0.791879  0.749067  1
  O  O25  1  0.203999  0.995757  0.917455  1
  O  O26  1  0.167191  0.680732  0.900024  1
  O  O27  1  0.171095  0.681166  0.606034  1
  O  O28  1  0.307616  0.830265  0.396997  1
  O  O29  1  0.321036  0.829382  0.099400  1
  O  O30  1  0.990787  0.196607  0.929473  1
  O  O31  1  0.999133  0.213867  0.568801  1
  O  O32  1  0.172132  0.481861  0.100807  1
  O  O33  1  0.170209  0.490500  0.396336  1
  O  O34  1  0.303604  0.477730  0.897082  1
  O  O35  1  0.324827  0.491474  0.599050  1
  O  O36  1  0.206036  0.198952  0.070410  1
  O  O37  1  0.212224  0.210422  0.429016  1
  O  O38  1  0.510780  0.825886  0.893954  1
  O  O39  1  0.519854  0.845741  0.593201  1
  O  O40  1  0.204126  0.207651  0.746118  1
  O  O41  1  0.515165  0.676026  0.092431  1
  O  O42  1  0.510693  0.685110  0.388572  1
  O  O43  1  0.205836  0.993037  0.569293  1
  O  O44  1  0.200122  0.998128  0.250767  1
  O  O45  1  0.484427  0.317040  0.602819  1
  O  O46  1  0.482589  0.316707  0.901108  1
  O  O47  1  0.794447  0.788926  0.250285  1
  O  O48  1  0.488634  0.165728  0.400241  1
  O  O49  1  0.487618  0.166761  0.108354  1
  O  O50  1  0.793767  0.798542  0.927483  1
  O  O51  1  0.786709  0.792766  0.583408  1
  O  O52  1  0.672192  0.507734  0.393807  1
  O  O53  1  0.688571  0.513212  0.104006  1
  O  O54  1  0.834901  0.519732  0.599783  1
  O  O55  1  0.827569  0.512815  0.896970  1
  O  O56  1  0.006386  0.793600  0.069931  1
  O  O57  1  0.987435  0.788658  0.429104  1
  O  O58  1  0.676182  0.165452  0.894006  1
  O  O59  1  0.687411  0.175019  0.605453  1
  O  O60  1  0.831936  0.313108  0.100641  1
  O  O61  1  0.831798  0.315490  0.397943  1
  O  O62  1  0.801072  0.007655  0.749553  1
  O  O63  1  0.788238  0.992044  0.083418  1
  O  O64  1  0.798720  0.994214  0.426697  1
  O  O65  1  0.006420  0.211014  0.252031  1
