# generated using pymatgen
data_UTl2Cr2O10
_symmetry_space_group_name_H-M   'P 1'
_cell_length_a   10.83731051
_cell_length_b   13.63247328
_cell_length_c   14.07158980
_cell_angle_alpha   90.00000000
_cell_angle_beta   90.00000000
_cell_angle_gamma   90.00000000
_symmetry_Int_Tables_number   1
_chemical_formula_structural   UTl2Cr2O10
_chemical_formula_sum   'U8 Tl16 Cr16 O80'
_cell_volume   2078.92747359
_cell_formula_units_Z   8
loop_
 _symmetry_equiv_pos_site_id
 _symmetry_equiv_pos_as_xyz
  1  'x, y, z'
loop_
 _atom_site_type_symbol
 _atom_site_label
 _atom_site_symmetry_multiplicity
 _atom_site_fract_x
 _atom_site_fract_y
 _atom_site_fract_z
 _atom_site_occupancy
  U  U0  1  0.655730  0.759963  0.517599  1
  U  U1  1  0.344270  0.240037  0.017599  1
  U  U2  1  0.844270  0.759963  0.017599  1
  U  U3  1  0.155730  0.240037  0.517599  1
  U  U4  1  0.838817  0.267534  0.867361  1
  U  U5  1  0.338817  0.732466  0.867361  1
  U  U6  1  0.661183  0.267534  0.367361  1
  U  U7  1  0.161183  0.732466  0.367361  1
  Tl  Tl8  1  0.973863  0.054301  0.047047  1
  Tl  Tl9  1  0.756028  0.915876  0.763022  1
  Tl  Tl10  1  0.281761  0.557091  0.588763  1
  Tl  Tl11  1  0.743972  0.915876  0.263022  1
  Tl  Tl12  1  0.526137  0.054301  0.547047  1
  Tl  Tl13  1  0.026137  0.945699  0.547047  1
  Tl  Tl14  1  0.494056  0.572244  0.316649  1
  Tl  Tl15  1  0.505944  0.427756  0.816649  1
  Tl  Tl16  1  0.005944  0.572244  0.816649  1
  Tl  Tl17  1  0.781761  0.442909  0.588763  1
  Tl  Tl18  1  0.243972  0.084124  0.263022  1
  Tl  Tl19  1  0.218239  0.557091  0.088763  1
  Tl  Tl20  1  0.994056  0.427756  0.316649  1
  Tl  Tl21  1  0.256028  0.084124  0.763022  1
  Tl  Tl22  1  0.473863  0.945699  0.047047  1
  Tl  Tl23  1  0.718239  0.442909  0.088763  1
  Cr  Cr24  1  0.046891  0.337641  0.087513  1
  Cr  Cr25  1  0.155273  0.816752  0.110820  1
  Cr  Cr26  1  0.938211  0.109416  0.342621  1
  Cr  Cr27  1  0.655273  0.183248  0.110820  1
  Cr  Cr28  1  0.561789  0.109416  0.842621  1
  Cr  Cr29  1  0.061789  0.890584  0.842621  1
  Cr  Cr30  1  0.165045  0.336278  0.783707  1
  Cr  Cr31  1  0.453109  0.337641  0.587513  1
  Cr  Cr32  1  0.665045  0.663722  0.783707  1
  Cr  Cr33  1  0.438211  0.890584  0.342621  1
  Cr  Cr34  1  0.344727  0.816752  0.610820  1
  Cr  Cr35  1  0.844727  0.183248  0.610820  1
  Cr  Cr36  1  0.334955  0.336278  0.283707  1
  Cr  Cr37  1  0.546891  0.662359  0.087513  1
  Cr  Cr38  1  0.834955  0.663722  0.283707  1
  Cr  Cr39  1  0.953109  0.662359  0.587513  1
  O  O40  1  0.232879  0.142233  0.041120  1
  O  O41  1  0.231889  0.440728  0.758234  1
  O  O42  1  0.976430  0.055016  0.242566  1
  O  O43  1  0.455094  0.338907  0.997508  1
  O  O44  1  0.487770  0.554818  0.119027  1
  O  O45  1  0.987770  0.445182  0.119027  1
  O  O46  1  0.556942  0.730230  0.182365  1
  O  O47  1  0.156899  0.267114  0.685110  1
  O  O48  1  0.594807  0.144967  0.357094  1
  O  O49  1  0.767121  0.857767  0.541120  1
  O  O50  1  0.405193  0.855033  0.857094  1
  O  O51  1  0.542154  0.281890  0.504933  1
  O  O52  1  0.955094  0.661093  0.997508  1
  O  O53  1  0.071524  0.136348  0.402018  1
  O  O54  1  0.021548  0.359174  0.824243  1
  O  O55  1  0.957846  0.281890  0.004933  1
  O  O56  1  0.843101  0.732886  0.185110  1
  O  O57  1  0.544906  0.661093  0.497508  1
  O  O58  1  0.146751  0.787716  0.822816  1
  O  O59  1  0.943058  0.730230  0.682365  1
  O  O60  1  0.267121  0.142233  0.541120  1
  O  O61  1  0.056942  0.269770  0.182365  1
  O  O62  1  0.732879  0.857767  0.041120  1
  O  O63  1  0.768111  0.559272  0.258234  1
  O  O64  1  0.007589  0.851203  0.088032  1
  O  O65  1  0.717368  0.231133  0.013042  1
  O  O66  1  0.267792  0.914212  0.642281  1
  O  O67  1  0.023570  0.944984  0.742566  1
  O  O68  1  0.571524  0.863652  0.402018  1
  O  O69  1  0.268111  0.440728  0.258234  1
  O  O70  1  0.771769  0.389976  0.879963  1
  O  O71  1  0.343101  0.267114  0.185110  1
  O  O72  1  0.271769  0.610024  0.879963  1
  O  O73  1  0.492411  0.851203  0.588032  1
  O  O74  1  0.521548  0.640826  0.824243  1
  O  O75  1  0.457846  0.718110  0.004933  1
  O  O76  1  0.232208  0.914212  0.142281  1
  O  O77  1  0.042154  0.718110  0.504933  1
  O  O78  1  0.808254  0.640842  0.544016  1
  O  O79  1  0.282632  0.768867  0.513042  1
  O  O80  1  0.353249  0.787716  0.322816  1
  O  O81  1  0.978452  0.640826  0.324243  1
  O  O82  1  0.356806  0.967588  0.406159  1
  O  O83  1  0.643194  0.032412  0.906159  1
  O  O84  1  0.905193  0.144967  0.857094  1
  O  O85  1  0.253410  0.275243  0.366314  1
  O  O86  1  0.656899  0.732886  0.685110  1
  O  O87  1  0.044906  0.338907  0.497508  1
  O  O88  1  0.856806  0.032412  0.406159  1
  O  O89  1  0.143194  0.967588  0.906159  1
  O  O90  1  0.443058  0.269770  0.682365  1
  O  O91  1  0.646751  0.212284  0.822816  1
  O  O92  1  0.691746  0.640842  0.044016  1
  O  O93  1  0.992411  0.148797  0.588032  1
  O  O94  1  0.753410  0.724757  0.366314  1
  O  O95  1  0.728231  0.389976  0.379963  1
  O  O96  1  0.159568  0.729402  0.197355  1
  O  O97  1  0.246590  0.275243  0.866314  1
  O  O98  1  0.012230  0.554818  0.619027  1
  O  O99  1  0.191746  0.359158  0.044016  1
  O  O100  1  0.732208  0.085788  0.142281  1
  O  O101  1  0.746590  0.724757  0.866314  1
  O  O102  1  0.308254  0.359158  0.544016  1
  O  O103  1  0.512230  0.445182  0.619027  1
  O  O104  1  0.478452  0.359174  0.324243  1
  O  O105  1  0.094807  0.855033  0.357094  1
  O  O106  1  0.840432  0.270598  0.697355  1
  O  O107  1  0.731889  0.559272  0.758234  1
  O  O108  1  0.523570  0.055016  0.742566  1
  O  O109  1  0.853249  0.212284  0.322816  1
  O  O110  1  0.476430  0.944984  0.242566  1
  O  O111  1  0.928476  0.863652  0.902018  1
  O  O112  1  0.659568  0.270598  0.197355  1
  O  O113  1  0.782632  0.231133  0.513042  1
  O  O114  1  0.228231  0.610024  0.379963  1
  O  O115  1  0.767792  0.085788  0.642281  1
  O  O116  1  0.217368  0.768867  0.013042  1
  O  O117  1  0.340432  0.729402  0.697355  1
  O  O118  1  0.507589  0.148797  0.088032  1
  O  O119  1  0.428476  0.136348  0.902018  1
