# generated using pymatgen
data_Nb17Ir3Se40
_symmetry_space_group_name_H-M   'P 1'
_cell_length_a   3.53312236
_cell_length_b   34.99570123
_cell_length_c   22.30607194
_cell_angle_alpha   37.10436447
_cell_angle_beta   113.32723807
_cell_angle_gamma   120.31766001
_symmetry_Int_Tables_number   1
_chemical_formula_structural   Nb17Ir3Se40
_chemical_formula_sum   'Nb17 Ir3 Se40'
_cell_volume   1436.16344669
_cell_formula_units_Z   1
loop_
 _symmetry_equiv_pos_site_id
 _symmetry_equiv_pos_as_xyz
  1  'x, y, z'
loop_
 _atom_site_type_symbol
 _atom_site_label
 _atom_site_symmetry_multiplicity
 _atom_site_fract_x
 _atom_site_fract_y
 _atom_site_fract_z
 _atom_site_occupancy
  Nb  Nb0  1  0.944860  0.935901  0.506142  1
  Nb  Nb1  1  0.000000  0.850000  0.500000  1
  Nb  Nb2  1  0.055140  0.764099  0.493858  1
  Nb  Nb3  1  0.976234  0.895916  0.998662  1
  Nb  Nb4  1  0.023766  0.804084  0.001338  1
  Nb  Nb5  1  0.053373  0.560838  0.499673  1
  Nb  Nb6  1  0.038603  0.706874  0.001693  1
  Nb  Nb7  1  0.935240  0.437247  0.499602  1
  Nb  Nb8  1  0.961639  0.593149  -0.001641  1
  Nb  Nb9  1  -0.000943  0.499336  0.000950  1
  Nb  Nb10  1  0.064760  0.262753  0.500398  1
  Nb  Nb11  1  0.037891  0.407374  0.000409  1
  Nb  Nb12  1  0.946627  0.139162  0.500327  1
  Nb  Nb13  1  0.962109  0.292626  -0.000409  1
  Nb  Nb14  1  0.000943  0.200664  0.999050  1
  Nb  Nb15  1  0.038361  0.106851  0.001641  1
  Nb  Nb16  1  0.961397  0.993126  0.998307  1
  Ir  Ir17  1  0.955752  0.638337  0.505628  1
  Ir  Ir18  1  0.000000  0.350000  0.500000  1
  Ir  Ir19  1  0.044248  0.061663  0.494372  1
  Se  Se20  1  0.657518  -0.004174  0.871353  1
  Se  Se21  1  0.344346  0.970623  0.596492  1
  Se  Se22  1  0.662939  0.897102  0.870972  1
  Se  Se23  1  0.322612  0.846639  0.635768  1
  Se  Se24  1  0.679170  0.798671  0.874324  1
  Se  Se25  1  0.332742  0.751420  0.630257  1
  Se  Se26  1  0.667258  0.948580  0.369743  1
  Se  Se27  1  0.673051  0.691612  0.885996  1
  Se  Se28  1  0.318608  0.662272  0.602900  1
  Se  Se29  1  0.677388  0.853361  0.364232  1
  Se  Se30  1  0.320830  0.901329  0.125676  1
  Se  Se31  1  0.657927  0.596044  0.871083  1
  Se  Se32  1  0.336906  0.551937  0.630890  1
  Se  Se33  1  0.655654  0.729377  0.403508  1
  Se  Se34  1  0.337061  0.802898  0.129028  1
  Se  Se35  1  0.673808  0.499195  0.871132  1
  Se  Se36  1  0.318313  0.459799  0.607727  1
  Se  Se37  1  0.342482  0.704174  0.128647  1
  Se  Se38  1  0.675701  0.650356  0.369568  1
  Se  Se39  1  0.672312  0.391434  0.886055  1
  Se  Se40  1  0.329117  0.608353  0.114942  1
  Se  Se41  1  0.313404  0.347641  0.630080  1
  Se  Se42  1  0.660694  0.297405  0.869466  1
  Se  Se43  1  0.660404  0.535931  0.392298  1
  Se  Se44  1  0.364193  0.260055  0.625568  1
  Se  Se45  1  0.328516  0.501725  0.127958  1
  Se  Se46  1  0.635807  0.439945  0.374432  1
  Se  Se47  1  0.671484  0.198275  0.872042  1
  Se  Se48  1  0.339596  0.164069  0.607702  1
  Se  Se49  1  0.339305  0.402595  0.130534  1
  Se  Se50  1  0.686596  0.352359  0.369920  1
  Se  Se51  1  0.670883  0.091647  0.885058  1
  Se  Se52  1  0.327688  0.308566  0.113945  1
  Se  Se53  1  0.324299  0.049644  0.630432  1
  Se  Se54  1  0.681687  0.240201  0.392273  1
  Se  Se55  1  0.326192  0.200805  0.128868  1
  Se  Se56  1  0.663094  0.148063  0.369110  1
  Se  Se57  1  0.342073  0.103956  0.128917  1
  Se  Se58  1  0.681392  0.037728  0.397100  1
  Se  Se59  1  0.326949  0.008388  0.114004  1
