# generated using pymatgen
data_NaH3O2
_symmetry_space_group_name_H-M   'P 1'
_cell_length_a   6.16181067
_cell_length_b   11.95881742
_cell_length_c   6.12290420
_cell_angle_alpha   90.00000000
_cell_angle_beta   89.74589910
_cell_angle_gamma   90.00000000
_symmetry_Int_Tables_number   1
_chemical_formula_structural   NaH3O2
_chemical_formula_sum   'Na8 H24 O16'
_cell_volume   451.17993684
_cell_formula_units_Z   8
loop_
 _symmetry_equiv_pos_site_id
 _symmetry_equiv_pos_as_xyz
  1  'x, y, z'
loop_
 _atom_site_type_symbol
 _atom_site_label
 _atom_site_symmetry_multiplicity
 _atom_site_fract_x
 _atom_site_fract_y
 _atom_site_fract_z
 _atom_site_occupancy
  Na  Na0  1  0.631536  0.447708  0.205789  1
  Na  Na1  1  0.135699  0.552806  0.290380  1
  Na  Na2  1  0.364301  0.052806  0.709620  1
  Na  Na3  1  0.868464  0.947708  0.794211  1
  Na  Na4  1  0.368464  0.552292  0.794211  1
  Na  Na5  1  0.864301  0.447194  0.709620  1
  Na  Na6  1  0.635699  0.947194  0.290380  1
  Na  Na7  1  0.131536  0.052292  0.205789  1
  H  H8  1  0.777121  0.134036  0.940479  1
  H  H9  1  0.565004  0.129580  0.112644  1
  H  H10  1  0.076142  0.870824  0.394094  1
  H  H11  1  0.293549  0.871291  0.557988  1
  H  H12  1  0.423858  0.370824  0.605906  1
  H  H13  1  0.206451  0.371291  0.442012  1
  H  H14  1  0.934996  0.629580  0.887356  1
  H  H15  1  0.722879  0.634036  0.059521  1
  H  H16  1  0.434996  0.870420  0.887356  1
  H  H17  1  0.222879  0.865964  0.059521  1
  H  H18  1  0.923858  0.129176  0.605906  1
  H  H19  1  0.706451  0.128709  0.442012  1
  H  H20  1  0.793549  0.628709  0.557988  1
  H  H21  1  0.576142  0.629176  0.394094  1
  H  H22  1  0.277121  0.365964  0.940479  1
  H  H23  1  0.065004  0.370420  0.112644  1
  H  H24  1  0.571291  0.296294  0.876979  1
  H  H25  1  0.082553  0.702283  0.623748  1
  H  H26  1  0.417447  0.202283  0.376252  1
  H  H27  1  0.928709  0.796294  0.123021  1
  H  H28  1  0.428709  0.703706  0.123021  1
  H  H29  1  0.917447  0.297717  0.376252  1
  H  H30  1  0.582553  0.797717  0.623748  1
  H  H31  1  0.071291  0.203706  0.876979  1
  O  O32  1  0.614287  0.123819  0.954604  1
  O  O33  1  0.129252  0.879620  0.549276  1
  O  O34  1  0.370748  0.379620  0.450724  1
  O  O35  1  0.885713  0.623819  0.045396  1
  O  O36  1  0.385713  0.876181  0.045396  1
  O  O37  1  0.870748  0.120380  0.450724  1
  O  O38  1  0.629252  0.620380  0.549276  1
  O  O39  1  0.114287  0.376181  0.954604  1
  O  O40  1  0.535033  0.375408  0.858768  1
  O  O41  1  0.046281  0.623123  0.638668  1
  O  O42  1  0.453719  0.123123  0.361332  1
  O  O43  1  0.964967  0.875408  0.141232  1
  O  O44  1  0.464967  0.624592  0.141232  1
  O  O45  1  0.953719  0.376877  0.361332  1
  O  O46  1  0.546281  0.876877  0.638668  1
  O  O47  1  0.035033  0.124592  0.858768  1
