# generated using pymatgen
data_H12AuC4N
_symmetry_space_group_name_H-M   'P 1'
_cell_length_a   7.83300800
_cell_length_b   7.83300800
_cell_length_c   5.48769256
_cell_angle_alpha   90.00000000
_cell_angle_beta   90.00000000
_cell_angle_gamma   90.00000000
_symmetry_Int_Tables_number   1
_chemical_formula_structural   H12AuC4N
_chemical_formula_sum   'H24 Au2 C8 N2'
_cell_volume   336.70294334
_cell_formula_units_Z   2
loop_
 _symmetry_equiv_pos_site_id
 _symmetry_equiv_pos_as_xyz
  1  'x, y, z'
loop_
 _atom_site_type_symbol
 _atom_site_label
 _atom_site_symmetry_multiplicity
 _atom_site_fract_x
 _atom_site_fract_y
 _atom_site_fract_z
 _atom_site_occupancy
  H  H0  1  0.592136  0.365046  0.269370  1
  H  H1  1  0.907864  0.365046  0.269370  1
  H  H2  1  0.592136  0.134954  0.269370  1
  H  H3  1  0.907864  0.134954  0.269370  1
  H  H4  1  0.365046  0.592136  0.269370  1
  H  H5  1  0.134954  0.592136  0.269370  1
  H  H6  1  0.365046  0.907864  0.269370  1
  H  H7  1  0.134954  0.907864  0.269370  1
  H  H8  1  0.407864  0.634954  0.730630  1
  H  H9  1  0.092136  0.634954  0.730630  1
  H  H10  1  0.407864  0.865046  0.730630  1
  H  H11  1  0.092136  0.865046  0.730630  1
  H  H12  1  0.634954  0.407864  0.730630  1
  H  H13  1  0.865046  0.407864  0.730630  1
  H  H14  1  0.634954  0.092136  0.730630  1
  H  H15  1  0.865046  0.092136  0.730630  1
  H  H16  1  0.480592  0.250000  0.032892  1
  H  H17  1  0.019408  0.250000  0.032892  1
  H  H18  1  0.250000  0.480592  0.032892  1
  H  H19  1  0.250000  0.019408  0.032892  1
  H  H20  1  0.519408  0.750000  0.967108  1
  H  H21  1  0.980592  0.750000  0.967108  1
  H  H22  1  0.750000  0.519408  0.967108  1
  H  H23  1  0.750000  0.980592  0.967108  1
  Au  Au24  1  0.250000  0.250000  0.636749  1
  Au  Au25  1  0.750000  0.750000  0.363251  1
  C  C26  1  0.591888  0.250000  0.155295  1
  C  C27  1  0.908112  0.250000  0.155295  1
  C  C28  1  0.250000  0.591888  0.155295  1
  C  C29  1  0.250000  0.908112  0.155295  1
  C  C30  1  0.408112  0.750000  0.844705  1
  C  C31  1  0.091888  0.750000  0.844705  1
  C  C32  1  0.750000  0.408112  0.844705  1
  C  C33  1  0.750000  0.091888  0.844705  1
  N  N34  1  0.750000  0.250000  0.000000  1
  N  N35  1  0.250000  0.750000  0.000000  1
