# generated using pymatgen
data_Ca5Si2CO11
_symmetry_space_group_name_H-M   'P 1'
_cell_length_a   6.78584880
_cell_length_b   10.57860160
_cell_length_c   14.30533887
_cell_angle_alpha   101.41888526
_cell_angle_beta   90.00000000
_cell_angle_gamma   90.00000000
_symmetry_Int_Tables_number   1
_chemical_formula_structural   Ca5Si2CO11
_chemical_formula_sum   'Ca20 Si8 C4 O44'
_cell_volume   1006.57915906
_cell_formula_units_Z   4
loop_
 _symmetry_equiv_pos_site_id
 _symmetry_equiv_pos_as_xyz
  1  'x, y, z'
loop_
 _atom_site_type_symbol
 _atom_site_label
 _atom_site_symmetry_multiplicity
 _atom_site_fract_x
 _atom_site_fract_y
 _atom_site_fract_z
 _atom_site_occupancy
  C  C0  1  0.300227  0.188329  0.279003  1
  C  C1  1  0.199772  0.688329  0.279003  1
  C  C2  1  0.699773  0.811671  0.720997  1
  C  C3  1  0.800227  0.311671  0.720997  1
  O  O4  1  0.567679  0.893436  0.334841  1
  O  O5  1  0.688174  0.928470  0.772534  1
  O  O6  1  0.811826  0.428470  0.772534  1
  O  O7  1  0.311826  0.071530  0.227466  1
  O  O8  1  0.200055  0.786158  0.235737  1
  O  O9  1  0.700055  0.713842  0.764263  1
  O  O10  1  0.799945  0.213842  0.764263  1
  O  O11  1  0.299945  0.286158  0.235737  1
  O  O12  1  0.832419  0.602226  0.470321  1
  O  O13  1  0.332419  0.897774  0.529679  1
  O  O14  1  0.167581  0.397774  0.529679  1
  O  O15  1  0.667581  0.102226  0.470321  1
  O  O16  1  0.574647  0.520005  0.330237  1
  O  O17  1  0.074647  0.979995  0.669763  1
  O  O18  1  0.833720  0.765216  0.112530  1
  O  O19  1  0.925353  0.020005  0.330237  1
  O  O20  1  0.932321  0.393436  0.334841  1
  O  O21  1  0.432321  0.106564  0.665159  1
  O  O22  1  0.067679  0.606564  0.665159  1
  O  O23  1  0.188174  0.571530  0.227466  1
  O  O24  1  0.658218  0.382693  0.467237  1
  O  O25  1  0.158218  0.117307  0.532763  1
  O  O26  1  0.341782  0.617307  0.532763  1
  O  O27  1  0.841782  0.882693  0.467237  1
  O  O28  1  0.216532  0.706005  0.369771  1
  O  O29  1  0.283468  0.206005  0.369771  1
  O  O30  1  0.783468  0.293995  0.630229  1
  O  O31  1  0.716532  0.793995  0.630229  1
  O  O32  1  0.759574  0.128409  0.941376  1
  O  O33  1  0.259574  0.371591  0.058624  1
  O  O34  1  0.240426  0.871591  0.058624  1
  O  O35  1  0.740426  0.628409  0.941376  1
  O  O36  1  0.002993  0.139501  0.097873  1
  O  O37  1  0.502993  0.360499  0.902127  1
  O  O38  1  0.997007  0.860499  0.902127  1
  O  O39  1  0.497007  0.639501  0.097873  1
  O  O40  1  0.664542  0.004729  0.081471  1
  O  O41  1  0.164542  0.495271  0.918529  1
  O  O42  1  0.335458  0.995271  0.918529  1
  O  O43  1  0.835458  0.504729  0.081471  1
  O  O44  1  0.666280  0.265216  0.112530  1
  O  O45  1  0.166280  0.234784  0.887470  1
  O  O46  1  0.333720  0.734784  0.887470  1
  O  O47  1  0.425353  0.479995  0.669763  1
  Si  Si48  1  0.250277  0.526614  0.604037  1
  Si  Si49  1  0.750277  0.973386  0.395963  1
  Si  Si50  1  0.749723  0.473386  0.395963  1
  Si  Si51  1  0.249723  0.026614  0.604037  1
  Si  Si52  1  0.724063  0.633845  0.057348  1
  Si  Si53  1  0.224063  0.866155  0.942652  1
  Si  Si54  1  0.275937  0.366155  0.942652  1
  Si  Si55  1  0.775937  0.133845  0.057348  1
  Ca  Ca56  1  0.508077  0.453551  0.168873  1
  Ca  Ca57  1  0.509038  0.867093  0.173781  1
  Ca  Ca58  1  0.990962  0.367093  0.173781  1
  Ca  Ca59  1  0.490962  0.132907  0.826219  1
  Ca  Ca60  1  0.491923  0.546449  0.831127  1
  Ca  Ca61  1  0.991923  0.953551  0.168873  1
  Ca  Ca62  1  0.009038  0.632907  0.826219  1
  Ca  Ca63  1  0.008077  0.046449  0.831127  1
  Ca  Ca64  1  0.557392  0.740112  0.456473  1
  Ca  Ca65  1  0.057392  0.759888  0.543527  1
  Ca  Ca66  1  0.442608  0.259888  0.543527  1
  Ca  Ca67  1  0.942608  0.240112  0.456473  1
  Ca  Ca68  1  0.743034  0.531704  0.611242  1
  Ca  Ca69  1  0.243034  0.968296  0.388758  1
  Ca  Ca70  1  0.256966  0.468296  0.388758  1
  Ca  Ca71  1  0.756966  0.031704  0.611242  1
  Ca  Ca72  1  0.163220  0.641262  0.072938  1
  Ca  Ca73  1  0.663220  0.858738  0.927062  1
  Ca  Ca74  1  0.836780  0.358738  0.927062  1
  Ca  Ca75  1  0.336780  0.141262  0.072938  1
