# generated using pymatgen
data_CaBePO4F
_symmetry_space_group_name_H-M   'P 1'
_cell_length_a   4.82146431
_cell_length_b   7.75127872
_cell_length_c   9.81229080
_cell_angle_alpha   90.00000000
_cell_angle_beta   90.93860734
_cell_angle_gamma   90.00000000
_symmetry_Int_Tables_number   1
_chemical_formula_structural   CaBePO4F
_chemical_formula_sum   'Ca4 Be4 P4 O16 F4'
_cell_volume   366.66076747
_cell_formula_units_Z   4
loop_
 _symmetry_equiv_pos_site_id
 _symmetry_equiv_pos_as_xyz
  1  'x, y, z'
loop_
 _atom_site_type_symbol
 _atom_site_label
 _atom_site_symmetry_multiplicity
 _atom_site_fract_x
 _atom_site_fract_y
 _atom_site_fract_z
 _atom_site_occupancy
  Be  Be0  1  0.458452  0.913624  0.162576  1
  Be  Be1  1  0.541548  0.413624  0.337424  1
  Be  Be2  1  0.541548  0.086376  0.837424  1
  Be  Be3  1  0.458452  0.586376  0.662576  1
  O  O4  1  0.677035  0.154671  0.692333  1
  O  O5  1  0.339755  0.106573  0.146984  1
  O  O6  1  0.339755  0.393427  0.646984  1
  O  O7  1  0.660245  0.893427  0.853016  1
  O  O8  1  0.677035  0.345329  0.192333  1
  O  O9  1  0.352992  0.717749  0.544232  1
  O  O10  1  0.322965  0.654671  0.807667  1
  O  O11  1  0.660245  0.606573  0.353016  1
  O  O12  1  0.756411  0.603517  0.960183  1
  O  O13  1  0.243589  0.103517  0.539817  1
  O  O14  1  0.352992  0.782251  0.044232  1
  O  O15  1  0.756411  0.896483  0.460183  1
  O  O16  1  0.243589  0.396483  0.039817  1
  O  O17  1  0.647008  0.217749  0.955768  1
  O  O18  1  0.647008  0.282251  0.455768  1
  O  O19  1  0.322965  0.845329  0.307667  1
  F  F20  1  0.214714  0.408077  0.325018  1
  F  F21  1  0.214714  0.091923  0.825018  1
  F  F22  1  0.785286  0.591923  0.674982  1
  F  F23  1  0.785286  0.908077  0.174982  1
  P  P24  1  0.527418  0.769505  0.418736  1
  P  P25  1  0.472582  0.269505  0.081264  1
  P  P26  1  0.527418  0.730495  0.918736  1
  P  P27  1  0.472582  0.230495  0.581264  1
  Ca  Ca28  1  0.004114  0.611089  0.169208  1
  Ca  Ca29  1  0.995886  0.111089  0.330792  1
  Ca  Ca30  1  0.995886  0.388911  0.830792  1
  Ca  Ca31  1  0.004114  0.888911  0.669208  1
