# generated using pymatgen
data_Rb2Bi3F11
_symmetry_space_group_name_H-M   'P 1'
_cell_length_a   4.63414137
_cell_length_b   4.32161425
_cell_length_c   22.92468237
_cell_angle_alpha   55.07411538
_cell_angle_beta   59.18698024
_cell_angle_gamma   57.19145187
_symmetry_Int_Tables_number   1
_chemical_formula_structural   Rb2Bi3F11
_chemical_formula_sum   'Rb2 Bi3 F11'
_cell_volume   302.47599519
_cell_formula_units_Z   1
loop_
 _symmetry_equiv_pos_site_id
 _symmetry_equiv_pos_as_xyz
  1  'x, y, z'
loop_
 _atom_site_type_symbol
 _atom_site_label
 _atom_site_symmetry_multiplicity
 _atom_site_fract_x
 _atom_site_fract_y
 _atom_site_fract_z
 _atom_site_occupancy
  Rb  Rb0  1  0.063941  0.908037  0.195392  1
  Rb  Rb1  1  0.935026  0.083942  0.401046  1
  Bi  Bi2  1  0.937117  0.027645  0.997432  1
  Bi  Bi3  1  0.914408  0.929017  0.607886  1
  Bi  Bi4  1  0.916968  0.964676  0.801140  1
  F  F5  1  0.349868  0.244242  0.038751  1
  F  F6  1  0.822702  0.767305  0.121294  1
  F  F7  1  0.312260  0.258933  0.633379  1
  F  F8  1  0.696194  0.963645  0.324070  1
  F  F9  1  0.133627  0.200140  0.489012  1
  F  F10  1  0.374040  0.250003  0.861644  1
  F  F11  1  0.741523  0.698202  0.572225  1
  F  F12  1  0.621085  0.438763  0.718105  1
  F  F13  1  0.898449  0.670812  0.751446  1
  F  F14  1  0.697449  0.486078  0.895523  1
  F  F15  1  0.789343  0.676559  0.978057  1
