# generated using pymatgen
data_Bi15AsO25
_symmetry_space_group_name_H-M   'P 1'
_cell_length_a   45.02437482
_cell_length_b   17.24219344
_cell_length_c   17.24219368
_cell_angle_alpha   50.47068056
_cell_angle_beta   29.49133517
_cell_angle_gamma   29.49133450
_symmetry_Int_Tables_number   1
_chemical_formula_structural   Bi15AsO25
_chemical_formula_sum   'Bi60 As4 O100'
_cell_volume   2809.36899215
_cell_formula_units_Z   4
loop_
 _symmetry_equiv_pos_site_id
 _symmetry_equiv_pos_as_xyz
  1  'x, y, z'
loop_
 _atom_site_type_symbol
 _atom_site_label
 _atom_site_symmetry_multiplicity
 _atom_site_fract_x
 _atom_site_fract_y
 _atom_site_fract_z
 _atom_site_occupancy
  Bi  Bi0  1  0.081834  0.350043  0.200720  1
  Bi  Bi1  1  0.029693  0.691625  0.168754  1
  Bi  Bi2  1  0.184284  0.135132  0.301384  1
  Bi  Bi3  1  0.101193  0.507046  0.342083  1
  Bi  Bi4  1  0.078873  0.822729  0.129784  1
  Bi  Bi5  1  0.181435  0.206509  0.510518  1
  Bi  Bi6  1  0.006742  0.839202  0.488302  1
  Bi  Bi7  1  0.280188  0.346270  0.202162  1
  Bi  Bi8  1  0.128624  0.154132  0.853652  1
  Bi  Bi9  1  0.085558  0.503631  0.706466  1
  Bi  Bi10  1  0.249601  0.654546  0.151577  1
  Bi  Bi11  1  0.023866  0.865212  0.657801  1
  Bi  Bi12  1  0.381038  0.145639  0.300950  1
  Bi  Bi13  1  0.187801  0.308324  0.797826  1
  Bi  Bi14  1  0.303063  0.496792  0.343405  1
  Bi  Bi15  1  0.282553  0.799280  0.149324  1
  Bi  Bi16  1  0.092604  0.700773  0.829911  1
  Bi  Bi17  1  0.392185  0.195008  0.496077  1
  Bi  Bi18  1  0.198446  0.831246  0.522872  1
  Bi  Bi19  1  0.483713  0.343327  0.195559  1
  Bi  Bi20  1  0.319415  0.166252  0.864868  1
  Bi  Bi21  1  0.277330  0.522163  0.699784  1
  Bi  Bi22  1  0.443276  0.657917  0.164963  1
  Bi  Bi23  1  0.208656  0.870216  0.692945  1
  Bi  Bi24  1  0.578492  0.148142  0.303754  1
  Bi  Bi25  1  0.387944  0.304008  0.793491  1
  Bi  Bi26  1  0.495044  0.511698  0.350900  1
  Bi  Bi27  1  0.482350  0.797838  0.144108  1
  Bi  Bi28  1  0.282757  0.699519  0.845868  1
  Bi  Bi29  1  0.589189  0.202835  0.496369  1
  Bi  Bi30  1  0.401177  0.848423  0.502970  1
  Bi  Bi31  1  0.681666  0.342199  0.207411  1
  Bi  Bi32  1  0.526677  0.155311  0.854361  1
  Bi  Bi33  1  0.496125  0.489502  0.691676  1
  Bi  Bi34  1  0.646467  0.656595  0.153387  1
  Bi  Bi35  1  0.431877  0.850676  0.649957  1
  Bi  Bi36  1  0.793377  0.129138  0.299227  1
  Bi  Bi37  1  0.587193  0.301069  0.804992  1
  Bi  Bi38  1  0.721318  0.477128  0.308375  1
  Bi  Bi39  1  0.679272  0.804441  0.147768  1
  Bi  Bi40  1  0.485667  0.698616  0.833748  1
  Bi  Bi41  1  0.799493  0.177621  0.477837  1
  Bi  Bi42  1  0.608239  0.835037  0.492954  1
  Bi  Bi43  1  0.901602  0.307055  0.177271  1
  Bi  Bi44  1  0.726634  0.155612  0.851858  1
  Bi  Bi45  1  0.691953  0.489482  0.695992  1
  Bi  Bi46  1  0.845944  0.649100  0.160798  1
  Bi  Bi47  1  0.626458  0.855892  0.653730  1
  Bi  Bi48  1  0.982276  0.146348  0.300481  1
  Bi  Bi49  1  0.792024  0.293534  0.797165  1
  Bi  Bi50  1  0.904147  0.497030  0.345454  1
  Bi  Bi51  1  0.889077  0.792589  0.134788  1
  Bi  Bi52  1  0.681988  0.699050  0.844689  1
  Bi  Bi53  1  0.985627  0.202174  0.510498  1
  Bi  Bi54  1  0.799854  0.846613  0.503208  1
  Bi  Bi55  1  0.922515  0.170089  0.870862  1
  Bi  Bi56  1  0.888262  0.503923  0.698931  1
  Bi  Bi57  1  0.827040  0.852232  0.656673  1
  Bi  Bi58  1  0.977114  0.300216  0.822379  1
  Bi  Bi59  1  0.882246  0.696246  0.844388  1
  As  As60  1  0.200698  1.000000  1.000000  1
  As  As61  1  0.399871  0.000000  0.000000  1
  As  As62  1  0.599951  1.000000  1.000000  1
  As  As63  1  0.799691  1.000000  1.000000  1
  O  O64  1  0.054660  0.000000  0.000000  1
  O  O65  1  0.123071  0.000000  0.000000  1
  O  O66  1  0.121653  0.194247  0.003051  1
  O  O67  1  0.124705  0.996949  0.191195  1
  O  O68  1  0.238968  1.000000  1.000000  1
  O  O69  1  0.079895  0.249136  0.363196  1
  O  O70  1  0.015266  0.262205  0.640119  1
  O  O71  1  0.149700  0.380066  0.120215  1
  O  O72  1  0.320444  1.000000  1.000000  1
  O  O73  1  0.147132  0.000434  0.631984  1
  O  O74  1  0.147565  0.631550  0.999566  1
  O  O75  1  0.049196  0.370589  0.631219  1
  O  O76  1  0.322342  0.193614  0.000976  1
  O  O77  1  0.323318  0.999024  0.192638  1
  O  O78  1  0.123531  0.626558  0.249685  1
  O  O79  1  0.125014  0.119082  0.759303  1
  O  O80  1  0.161219  0.397077  0.398401  1
  O  O81  1  0.438411  1.000000  1.000000  1
  O  O82  1  0.077769  0.377174  0.741440  1
  O  O83  1  0.072051  0.885687  0.254913  1
  O  O84  1  0.146953  0.623529  0.377229  1
  O  O85  1  0.282363  0.245591  0.359240  1
  O  O86  1  0.216980  0.261522  0.639379  1
  O  O87  1  0.355032  0.375930  0.114269  1
  O  O88  1  0.520651  1.000000  1.000000  1
  O  O89  1  0.171900  0.753711  0.374898  1
  O  O90  1  0.048947  0.627402  0.877105  1
  O  O91  1  0.359827  0.000986  0.600855  1
  O  O92  1  0.360812  0.599869  0.999014  1
  O  O93  1  0.261525  0.356156  0.611286  1
  O  O94  1  0.132387  0.738685  0.619300  1
  O  O95  1  0.522991  0.999583  0.192330  1
  O  O96  1  0.522574  0.192747  0.000417  1
  O  O97  1  0.329148  0.612386  0.243143  1
  O  O98  1  0.329031  0.114059  0.750864  1
  O  O99  1  0.369576  0.383947  0.383895  1
  O  O100  1  0.638398  1.000000  1.000000  1
  O  O101  1  0.277471  0.377913  0.737795  1
  O  O102  1  0.269915  0.879785  0.259851  1
  O  O103  1  0.163876  0.726754  0.726466  1
  O  O104  1  0.348943  0.619604  0.377118  1
  O  O105  1  0.482542  0.243115  0.356545  1
  O  O106  1  0.419785  0.260630  0.629411  1
  O  O107  1  0.554926  0.374257  0.114410  1
  O  O108  1  0.719638  0.000000  0.000000  1
  O  O109  1  0.373216  0.750315  0.376873  1
  O  O110  1  0.244096  0.640222  0.880918  1
  O  O111  1  0.558296  0.001324  0.602923  1
  O  O112  1  0.559620  0.601599  0.998676  1
  O  O113  1  0.454942  0.364266  0.622826  1
  O  O114  1  0.326964  0.745087  0.630773  1
  O  O115  1  0.724745  0.191035  0.995935  1
  O  O116  1  0.720680  0.004065  0.195100  1
  O  O117  1  0.524182  0.622771  0.246300  1
  O  O118  1  0.527954  0.113649  0.754409  1
  O  O119  1  0.559775  0.401004  0.398775  1
  O  O120  1  0.838448  1.000000  1.000000  1
  O  O121  1  0.478502  0.377857  0.738478  1
  O  O122  1  0.469301  0.885731  0.261661  1
  O  O123  1  0.315900  0.808805  0.805753  1
  O  O124  1  0.546798  0.625102  0.378813  1
  O  O125  1  0.676348  0.249703  0.372598  1
  O  O126  1  0.617681  0.255130  0.643844  1
  O  O127  1  0.751687  0.380700  0.119385  1
  O  O128  1  0.926696  1.000000  1.000000  1
  O  O129  1  0.572291  0.756857  0.369244  1
  O  O130  1  0.443091  0.636804  0.885941  1
  O  O131  1  0.753523  0.999948  0.616053  1
  O  O132  1  0.753471  0.616105  0.000052  1
  O  O133  1  0.655385  0.359881  0.622087  1
  O  O134  1  0.529765  0.740149  0.619934  1
  O  O135  1  0.890342  0.273534  0.000289  1
  O  O136  1  0.890630  0.999711  0.273246  1
  O  O137  1  0.726060  0.622882  0.242486  1
  O  O138  1  0.725657  0.113430  0.756885  1
  O  O139  1  0.779115  0.368016  0.368450  1
  O  O140  1  0.680415  0.368781  0.739370  1
  O  O141  1  0.669337  0.885590  0.259846  1
  O  O142  1  0.515956  0.807362  0.806386  1
  O  O143  1  0.750089  0.623127  0.373442  1
  O  O144  1  0.884318  0.240697  0.359778  1
  O  O145  1  0.819208  0.258560  0.635734  1
  O  O146  1  0.957737  0.369227  0.114313  1
  O  O147  1  0.770482  0.753700  0.376471  1
  O  O148  1  0.641603  0.640760  0.886351  1
  O  O149  1  0.960779  0.997771  0.598996  1
  O  O150  1  0.958550  0.601225  0.002229  1
  O  O151  1  0.856358  0.360621  0.622143  1
  O  O152  1  0.730962  0.738339  0.624070  1
  O  O153  1  0.925611  0.621187  0.246289  1
  O  O154  1  0.926052  0.122895  0.750297  1
  O  O155  1  0.960681  0.399145  0.400131  1
  O  O156  1  0.872811  0.388714  0.744870  1
  O  O157  1  0.871072  0.880615  0.261315  1
  O  O158  1  0.715321  0.807670  0.807253  1
  O  O159  1  0.941535  0.630756  0.387614  1
  O  O160  1  0.968546  0.757514  0.380396  1
  O  O161  1  0.839087  0.643455  0.886570  1
  O  O162  1  0.929183  0.740154  0.625743  1
  O  O163  1  0.915780  0.804900  0.808965  1
