# generated using pymatgen
data_K3SnSb3
_symmetry_space_group_name_H-M   'P 1'
_cell_length_a   5.26883249
_cell_length_b   15.55793676
_cell_length_c   7.75141790
_cell_angle_alpha   103.56625425
_cell_angle_beta   111.98062876
_cell_angle_gamma   89.78147224
_symmetry_Int_Tables_number   1
_chemical_formula_structural   K3SnSb3
_chemical_formula_sum   'K6 Sn2 Sb6'
_cell_volume   570.28280751
_cell_formula_units_Z   2
loop_
 _symmetry_equiv_pos_site_id
 _symmetry_equiv_pos_as_xyz
  1  'x, y, z'
loop_
 _atom_site_type_symbol
 _atom_site_label
 _atom_site_symmetry_multiplicity
 _atom_site_fract_x
 _atom_site_fract_y
 _atom_site_fract_z
 _atom_site_occupancy
  K  K0  1  0.000000  0.000000  0.000000  1
  K  K1  1  0.000000  0.500000  0.000000  1
  K  K2  1  0.304224  0.370610  0.551990  1
  K  K3  1  0.314522  0.867284  0.564294  1
  K  K4  1  0.685478  0.132716  0.435706  1
  K  K5  1  0.695776  0.629390  0.448010  1
  Sn  Sn6  1  0.873365  0.720002  0.119970  1
  Sn  Sn7  1  0.126635  0.279998  0.880030  1
  Sb  Sb8  1  0.858338  0.220143  0.100797  1
  Sb  Sb9  1  0.383069  0.115236  0.783522  1
  Sb  Sb10  1  0.383824  0.618298  0.792019  1
  Sb  Sb11  1  0.616176  0.381702  0.207981  1
  Sb  Sb12  1  0.616931  0.884764  0.216478  1
  Sb  Sb13  1  0.141662  0.779857  0.899203  1
