# generated using pymatgen
data_H9BrO4
_symmetry_space_group_name_H-M   'P 1'
_cell_length_a   7.02225228
_cell_length_b   11.54712180
_cell_length_c   7.61045052
_cell_angle_alpha   89.11835341
_cell_angle_beta   112.53630740
_cell_angle_gamma   90.39816897
_symmetry_Int_Tables_number   1
_chemical_formula_structural   H9BrO4
_chemical_formula_sum   'H36 Br4 O16'
_cell_volume   569.91500468
_cell_formula_units_Z   4
loop_
 _symmetry_equiv_pos_site_id
 _symmetry_equiv_pos_as_xyz
  1  'x, y, z'
loop_
 _atom_site_type_symbol
 _atom_site_label
 _atom_site_symmetry_multiplicity
 _atom_site_fract_x
 _atom_site_fract_y
 _atom_site_fract_z
 _atom_site_occupancy
  H  H0  1  0.155350  0.255716  0.006336  1
  H  H1  1  0.348634  0.321424  0.988420  1
  H  H2  1  0.638732  0.830964  0.992662  1
  H  H3  1  0.849891  0.764895  0.976144  1
  H  H4  1  0.793414  0.746164  0.170967  1
  H  H5  1  0.972187  0.180083  0.160132  1
  H  H6  1  0.834150  0.258379  0.982159  1
  H  H7  1  0.006413  0.689754  0.842563  1
  H  H8  1  0.028091  0.832095  0.855823  1
  H  H9  1  0.540796  0.187303  0.805588  1
  H  H10  1  0.628920  0.250632  0.669938  1
  H  H11  1  0.456695  0.676570  0.232915  1
  H  H12  1  0.280558  0.763761  0.133971  1
  H  H13  1  0.632788  0.307900  0.355144  1
  H  H14  1  0.830563  0.232681  0.484624  1
  H  H15  1  0.351709  0.784296  0.506370  1
  H  H16  1  0.121558  0.733199  0.499317  1
  H  H17  1  0.364721  0.662134  0.626571  1
  H  H18  1  0.128507  0.156342  0.548370  1
  H  H19  1  0.155241  0.240530  0.729986  1
  H  H20  1  0.876527  0.647974  0.440800  1
  H  H21  1  0.841077  0.786212  0.458782  1
  H  H22  1  0.352201  0.441982  0.560237  1
  H  H23  1  0.191894  0.326133  0.507688  1
  H  H24  1  0.169373  0.435764  0.337989  1
  H  H25  1  0.626210  0.904336  0.429205  1
  H  H26  1  0.806636  0.929097  0.627827  1
  H  H27  1  0.630549  0.543497  0.702561  1
  H  H28  1  0.503334  0.533330  0.835854  1
  H  H29  1  0.576589  0.137354  0.339846  1
  H  H30  1  0.359319  0.044593  0.289742  1
  H  H31  1  0.489675  0.040027  0.145789  1
  H  H32  1  0.043655  0.501520  0.068621  1
  H  H33  1  0.895193  0.493941  0.179395  1
  H  H34  1  0.962122  0.029089  0.927544  1
  H  H35  1  0.126774  0.015963  0.834571  1
  Br  Br36  1  0.945972  0.519867  0.711808  1
  Br  Br37  1  0.085115  0.005370  0.318835  1
  Br  Br38  1  0.564274  0.480320  0.159295  1
  Br  Br39  1  0.475786  0.987454  0.881142  1
  O  O40  1  0.261329  0.251431  0.947108  1
  O  O41  1  0.727919  0.758349  0.027425  1
  O  O42  1  0.971014  0.253292  0.091287  1
  O  O43  1  0.025343  0.759629  0.925663  1
  O  O44  1  0.606504  0.259877  0.788720  1
  O  O45  1  0.407954  0.754736  0.247166  1
  O  O46  1  0.674248  0.235046  0.431427  1
  O  O47  1  0.288343  0.740844  0.582570  1
  O  O48  1  0.087297  0.231833  0.582994  1
  O  O49  1  0.909984  0.725418  0.400951  1
  O  O50  1  0.270694  0.386325  0.457174  1
  O  O51  1  0.728651  0.866383  0.541011  1
  O  O52  1  0.486873  0.549585  0.701880  1
  O  O53  1  0.502683  0.053366  0.283072  1
  O  O54  1  0.038914  0.513553  0.195119  1
  O  O55  1  0.982319  0.999040  0.816131  1
