# generated using pymatgen
data_Ba4In6O13
_symmetry_space_group_name_H-M   'P 1'
_cell_length_a   5.88181612
_cell_length_b   12.04428937
_cell_length_c   12.62560363
_cell_angle_alpha   118.47411481
_cell_angle_beta   103.46003893
_cell_angle_gamma   90.02164615
_symmetry_Int_Tables_number   1
_chemical_formula_structural   Ba4In6O13
_chemical_formula_sum   'Ba8 In12 O26'
_cell_volume   758.12033374
_cell_formula_units_Z   2
loop_
 _symmetry_equiv_pos_site_id
 _symmetry_equiv_pos_as_xyz
  1  'x, y, z'
loop_
 _atom_site_type_symbol
 _atom_site_label
 _atom_site_symmetry_multiplicity
 _atom_site_fract_x
 _atom_site_fract_y
 _atom_site_fract_z
 _atom_site_occupancy
  Ba  Ba0  1  0.161512  0.028345  0.312886  1
  Ba  Ba1  1  0.348698  0.715514  0.687429  1
  Ba  Ba2  1  0.340125  0.213526  0.674586  1
  Ba  Ba3  1  0.662000  0.285202  0.312956  1
  Ba  Ba4  1  0.849009  0.972195  0.687141  1
  Ba  Ba5  1  0.840181  0.461841  0.674767  1
  Ba  Ba6  1  0.665837  0.787826  0.326198  1
  Ba  Ba7  1  0.166436  0.539003  0.326095  1
  In  In8  1  0.961453  0.345242  0.906781  1
  In  In9  1  0.518854  0.088684  0.924855  1
  In  In10  1  0.460644  0.561636  0.906930  1
  In  In11  1  0.251933  0.374356  0.499564  1
  In  In12  1  0.752597  0.626364  0.500813  1
  In  In13  1  0.055087  0.655387  0.093689  1
  In  In14  1  0.592595  0.909961  0.074886  1
  In  In15  1  0.555422  0.438608  0.093603  1
  In  In16  1  0.094356  0.165091  0.074720  1
  In  In17  1  0.017728  0.836324  0.925252  1
  In  In18  1  0.751938  0.125658  0.499431  1
  In  In19  1  0.252580  0.875121  0.501089  1
  O  O20  1  0.999379  0.497209  0.494140  1
  O  O21  1  0.365084  0.992589  0.734506  1
  O  O22  1  0.924384  0.467217  0.091788  1
  O  O23  1  0.429128  0.252550  0.068723  1
  O  O24  1  0.357349  0.747016  0.930196  1
  O  O25  1  0.332149  0.377713  0.909155  1
  O  O26  1  0.630143  0.005999  0.265307  1
  O  O27  1  0.282691  0.000241  0.000430  1
  O  O28  1  0.782419  0.999850  0.000180  1
  O  O29  1  0.831452  0.531772  0.909458  1
  O  O30  1  0.505830  0.503742  0.506914  1
  O  O31  1  0.999406  0.241906  0.486978  1
  O  O32  1  0.512394  0.758399  0.512088  1
  O  O33  1  0.337301  0.477567  0.712870  1
  O  O34  1  0.499593  0.997870  0.494933  1
  O  O35  1  0.012357  0.754208  0.512323  1
  O  O36  1  0.005775  0.003534  0.506034  1
  O  O37  1  0.132569  0.259084  0.265185  1
  O  O38  1  0.839723  0.235809  0.712648  1
  O  O39  1  0.859230  0.182323  0.929400  1
  O  O40  1  0.124521  0.765575  0.287390  1
  O  O41  1  0.624803  0.521935  0.287488  1
  O  O42  1  0.499826  0.246205  0.487827  1
  O  O43  1  0.424188  0.624228  0.092017  1
  O  O44  1  0.927909  0.816754  0.069354  1
  O  O45  1  0.865888  0.742405  0.734732  1
