# generated using pymatgen
data_K2CuPb(NO2)6
_symmetry_space_group_name_H-M   'P 1'
_cell_length_a   7.44278031
_cell_length_b   7.44281254
_cell_length_c   7.44276281
_cell_angle_alpha   60.00018737
_cell_angle_beta   60.00058436
_cell_angle_gamma   59.99989072
_symmetry_Int_Tables_number   1
_chemical_formula_structural   K2CuPb(NO2)6
_chemical_formula_sum   'K2 Cu1 Pb1 N6 O12'
_cell_volume   291.53697034
_cell_formula_units_Z   1
loop_
 _symmetry_equiv_pos_site_id
 _symmetry_equiv_pos_as_xyz
  1  'x, y, z'
loop_
 _atom_site_type_symbol
 _atom_site_label
 _atom_site_symmetry_multiplicity
 _atom_site_fract_x
 _atom_site_fract_y
 _atom_site_fract_z
 _atom_site_occupancy
  K  K0  1  0.250000  0.250000  0.250001  1
  K  K1  1  0.750000  0.750000  0.749999  1
  Cu  Cu2  1  1.000000  0.999999  0.000000  1
  Pb  Pb3  1  0.499997  0.500000  0.499997  1
  N  N4  1  0.799755  0.200250  0.799749  1
  N  N5  1  0.200251  0.200252  0.799750  1
  N  N6  1  0.200252  0.799747  0.799752  1
  N  N7  1  0.799749  0.799748  0.200253  1
  N  N8  1  0.799747  0.200252  0.200251  1
  N  N9  1  0.200252  0.799753  0.200246  1
  O  O10  1  0.347746  0.177667  0.620412  1
  O  O11  1  0.620409  0.177668  0.854174  1
  O  O12  1  0.854175  0.177667  0.347747  1
  O  O13  1  0.347746  0.854177  0.177667  1
  O  O14  1  0.177667  0.620407  0.347751  1
  O  O15  1  0.177665  0.854178  0.620407  1
  O  O16  1  0.620410  0.854177  0.347747  1
  O  O17  1  0.854176  0.620412  0.177666  1
  O  O18  1  0.620412  0.347746  0.177667  1
  O  O19  1  0.347748  0.620410  0.854177  1
  O  O20  1  0.177667  0.347746  0.854176  1
  O  O21  1  0.854175  0.347745  0.620414  1
