# generated using pymatgen
data_BN
_symmetry_space_group_name_H-M   'P 1'
_cell_length_a   3.27375635
_cell_length_b   3.27375679
_cell_length_c   2.50732566
_cell_angle_alpha   101.09749882
_cell_angle_beta   101.09750193
_cell_angle_gamma   134.81590167
_symmetry_Int_Tables_number   1
_chemical_formula_structural   BN
_chemical_formula_sum   'B1 N1'
_cell_volume   16.49724750
_cell_formula_units_Z   1
loop_
 _symmetry_equiv_pos_site_id
 _symmetry_equiv_pos_as_xyz
  1  'x, y, z'
loop_
 _atom_site_type_symbol
 _atom_site_label
 _atom_site_symmetry_multiplicity
 _atom_site_fract_x
 _atom_site_fract_y
 _atom_site_fract_z
 _atom_site_occupancy
  B  B0  1  0.000441  0.000441  0.000621  1
  N  N1  1  0.666259  0.666259  0.332779  1
