# generated using pymatgen
data_NaYF4
_symmetry_space_group_name_H-M   'P 1'
_cell_length_a   6.03651311
_cell_length_b   12.05303303
_cell_length_c   7.21038694
_cell_angle_alpha   90.00000000
_cell_angle_beta   90.00000000
_cell_angle_gamma   120.08871323
_symmetry_Int_Tables_number   1
_chemical_formula_structural   NaYF4
_chemical_formula_sum   'Na6 Y6 F24'
_cell_volume   453.92361061
_cell_formula_units_Z   6
loop_
 _symmetry_equiv_pos_site_id
 _symmetry_equiv_pos_as_xyz
  1  'x, y, z'
loop_
 _atom_site_type_symbol
 _atom_site_label
 _atom_site_symmetry_multiplicity
 _atom_site_fract_x
 _atom_site_fract_y
 _atom_site_fract_z
 _atom_site_occupancy
  Na  Na0  1  0.337842  0.843369  0.337241  1
  Na  Na1  1  0.332011  0.824457  0.836963  1
  Na  Na2  1  0.332011  0.324457  0.163037  1
  Na  Na3  1  0.667426  0.668466  0.746383  1
  Na  Na4  1  0.337842  0.343369  0.662759  1
  Na  Na5  1  0.667426  0.168466  0.253617  1
  Y  Y6  1  -0.000151  0.499135  0.997681  1
  Y  Y7  1  0.665863  0.665402  0.247856  1
  Y  Y8  1  -0.000151  0.999135  0.002319  1
  Y  Y9  1  0.000305  0.001021  0.499761  1
  Y  Y10  1  0.000305  0.501021  0.500239  1
  Y  Y11  1  0.665863  0.165402  0.752144  1
  F  F12  1  0.241093  0.994639  0.252177  1
  F  F13  1  0.246215  0.984934  0.750453  1
  F  F14  1  0.022986  0.635465  0.250268  1
  F  F15  1  0.017307  0.629284  0.750868  1
  F  F16  1  0.404875  0.678493  0.018884  1
  F  F17  1  0.405161  0.679678  0.474921  1
  F  F18  1  0.246215  0.484934  0.249547  1
  F  F19  1  0.241093  0.494639  0.747823  1
  F  F20  1  0.724376  0.877329  0.248410  1
  F  F21  1  0.748781  0.879620  0.750833  1
  F  F22  1  0.017307  0.129284  0.249132  1
  F  F23  1  0.022986  0.135465  0.749732  1
  F  F24  1  0.639656  0.521360  0.022030  1
  F  F25  1  0.639974  0.522146  0.480949  1
  F  F26  1  0.955884  0.797489  0.022011  1
  F  F27  1  0.950398  0.797713  0.475219  1
  F  F28  1  0.405161  0.179678  0.525079  1
  F  F29  1  0.404875  0.178493  0.981116  1
  F  F30  1  0.748781  0.379620  0.249167  1
  F  F31  1  0.724376  0.377329  0.751590  1
  F  F32  1  0.639656  0.021360  0.977970  1
  F  F33  1  0.639974  0.022146  0.519051  1
  F  F34  1  0.955884  0.297489  0.977989  1
  F  F35  1  0.950398  0.297713  0.524781  1
