# generated using pymatgen
data_Ba2Ti(GeO4)2
_symmetry_space_group_name_H-M   'P 1'
_cell_length_a   8.84839837
_cell_length_b   8.84839837
_cell_length_c   10.97440546
_cell_angle_alpha   90.00000000
_cell_angle_beta   90.00000000
_cell_angle_gamma   90.00046836
_symmetry_Int_Tables_number   1
_chemical_formula_structural   Ba2Ti(GeO4)2
_chemical_formula_sum   'Ba8 Ti4 Ge8 O32'
_cell_volume   859.23178764
_cell_formula_units_Z   4
loop_
 _symmetry_equiv_pos_site_id
 _symmetry_equiv_pos_as_xyz
  1  'x, y, z'
loop_
 _atom_site_type_symbol
 _atom_site_label
 _atom_site_symmetry_multiplicity
 _atom_site_fract_x
 _atom_site_fract_y
 _atom_site_fract_z
 _atom_site_occupancy
  O  O0  1  0.000000  0.500000  0.881819  1
  O  O1  1  0.500000  0.000000  0.881819  1
  O  O2  1  0.628094  0.371906  0.903139  1
  O  O3  1  0.371906  0.628094  0.903139  1
  O  O4  1  0.198512  0.580853  0.670667  1
  O  O5  1  0.580853  0.198512  0.670667  1
  O  O6  1  0.419147  0.801488  0.670667  1
  O  O7  1  0.000000  0.000000  0.677017  1
  O  O8  1  0.080855  0.301484  0.670706  1
  O  O9  1  0.919145  0.698516  0.670706  1
  O  O10  1  0.301484  0.080855  0.170706  1
  O  O11  1  0.698516  0.919145  0.170706  1
  O  O12  1  0.919145  0.698516  0.170706  1
  O  O13  1  0.080855  0.301484  0.170706  1
  O  O14  1  0.000000  0.000000  0.177017  1
  O  O15  1  0.419147  0.801488  0.170667  1
  O  O16  1  0.580853  0.198512  0.170667  1
  O  O17  1  0.198512  0.580853  0.170667  1
  O  O18  1  0.801488  0.419147  0.170667  1
  O  O19  1  0.500000  0.500000  0.176931  1
  O  O20  1  0.128118  0.128118  0.403197  1
  O  O21  1  0.871882  0.871882  0.403197  1
  O  O22  1  0.301484  0.080855  0.670706  1
  O  O23  1  0.628094  0.371906  0.403139  1
  O  O24  1  0.500000  0.000000  0.381819  1
  O  O25  1  0.000000  0.500000  0.381819  1
  O  O26  1  0.371906  0.628094  0.403139  1
  O  O27  1  0.128118  0.128118  0.903197  1
  O  O28  1  0.500000  0.500000  0.676931  1
  O  O29  1  0.801488  0.419147  0.670667  1
  O  O30  1  0.698516  0.919145  0.670706  1
  O  O31  1  0.871882  0.871882  0.903197  1
  Ti  Ti32  1  0.000000  0.500000  0.226797  1
  Ti  Ti33  1  0.500000  0.000000  0.226797  1
  Ti  Ti34  1  0.500000  0.000000  0.726797  1
  Ti  Ti35  1  0.000000  0.500000  0.726797  1
  Ge  Ge36  1  0.132299  0.132299  0.745744  1
  Ge  Ge37  1  0.367711  0.632289  0.745693  1
  Ge  Ge38  1  0.867701  0.867701  0.745744  1
  Ge  Ge39  1  0.632289  0.367711  0.745693  1
  Ge  Ge40  1  0.632289  0.367711  0.245693  1
  Ge  Ge41  1  0.367711  0.632289  0.245693  1
  Ge  Ge42  1  0.132299  0.132299  0.245744  1
  Ge  Ge43  1  0.867701  0.867701  0.245744  1
  Ba  Ba44  1  0.328145  0.328145  0.507772  1
  Ba  Ba45  1  0.171859  0.828141  0.507819  1
  Ba  Ba46  1  0.671855  0.671855  0.507772  1
  Ba  Ba47  1  0.828141  0.171859  0.507819  1
  Ba  Ba48  1  0.828141  0.171859  0.007819  1
  Ba  Ba49  1  0.171859  0.828141  0.007819  1
  Ba  Ba50  1  0.671855  0.671855  0.007772  1
  Ba  Ba51  1  0.328145  0.328145  0.007772  1
