# generated using pymatgen
data_CuH11C4(NO5)2
_symmetry_space_group_name_H-M   'P 1'
_cell_length_a   6.97937811
_cell_length_b   8.99644180
_cell_length_c   9.28616068
_cell_angle_alpha   108.11147355
_cell_angle_beta   98.62620095
_cell_angle_gamma   95.59276190
_symmetry_Int_Tables_number   1
_chemical_formula_structural   CuH11C4(NO5)2
_chemical_formula_sum   'Cu2 H22 C8 N4 O20'
_cell_volume   541.43677987
_cell_formula_units_Z   2
loop_
 _symmetry_equiv_pos_site_id
 _symmetry_equiv_pos_as_xyz
  1  'x, y, z'
loop_
 _atom_site_type_symbol
 _atom_site_label
 _atom_site_symmetry_multiplicity
 _atom_site_fract_x
 _atom_site_fract_y
 _atom_site_fract_z
 _atom_site_occupancy
  Cu  Cu0  1  0.000000  0.000000  0.000000  1
  Cu  Cu1  1  0.500000  0.000000  0.500000  1
  H  H2  1  0.365194  0.601531  0.678384  1
  H  H3  1  0.634806  0.398469  0.321616  1
  H  H4  1  0.174760  0.264769  0.289842  1
  H  H5  1  0.825240  0.735231  0.710158  1
  H  H6  1  0.973598  0.328688  0.365156  1
  H  H7  1  0.026402  0.671312  0.634844  1
  H  H8  1  0.178073  0.292679  0.475792  1
  H  H9  1  0.821927  0.707321  0.524208  1
  H  H10  1  0.194384  0.450963  0.417729  1
  H  H11  1  0.805616  0.549037  0.582271  1
  H  H12  1  0.284091  0.508697  0.991670  1
  H  H13  1  0.715909  0.491303  0.008330  1
  H  H14  1  0.346130  0.323863  0.931613  1
  H  H15  1  0.653870  0.676137  0.068387  1
  H  H16  1  0.118245  0.358822  0.860579  1
  H  H17  1  0.881755  0.641178  0.139421  1
  H  H18  1  0.177432  0.359446  0.044481  1
  H  H19  1  0.822568  0.640554  0.955519  1
  H  H20  1  0.006092  0.944078  0.315787  1
  H  H21  1  0.993908  0.055922  0.684213  1
  H  H22  1  0.791497  0.976017  0.256189  1
  H  H23  1  0.208503  0.023983  0.743811  1
  C  C24  1  0.628706  0.000659  0.865485  1
  C  C25  1  0.371294  0.999341  0.134515  1
  C  C26  1  0.715529  0.176300  0.960563  1
  C  C27  1  0.284471  0.823700  0.039437  1
  C  C28  1  0.559561  0.319504  0.640554  1
  C  C29  1  0.440439  0.680496  0.359446  1
  C  C30  1  0.764875  0.267636  0.648866  1
  C  C31  1  0.235125  0.732364  0.351134  1
  N  N32  1  0.129365  0.334024  0.386753  1
  N  N33  1  0.870635  0.665976  0.613247  1
  N  N34  1  0.231396  0.387097  0.956967  1
  N  N35  1  0.768604  0.612903  0.043033  1
  O  O36  1  0.742352  0.898459  0.880811  1
  O  O37  1  0.257648  0.101542  0.119189  1
  O  O38  1  0.895278  0.198090  0.030093  1
  O  O39  1  0.104722  0.801910  0.969907  1
  O  O40  1  0.465939  0.967025  0.779048  1
  O  O41  1  0.534061  0.032975  0.220952  1
  O  O42  1  0.615814  0.283619  0.959342  1
  O  O43  1  0.384186  0.716381  0.040658  1
  O  O44  1  0.414332  0.204522  0.571135  1
  O  O45  1  0.585668  0.795478  0.428865  1
  O  O46  1  0.763099  0.116180  0.589698  1
  O  O47  1  0.236901  0.883820  0.410302  1
  O  O48  1  0.542152  0.459065  0.703537  1
  O  O49  1  0.457848  0.540935  0.296463  1
  O  O50  1  0.914705  0.365939  0.716495  1
  O  O51  1  0.085295  0.634061  0.283505  1
  O  O52  1  0.927934  0.983212  0.242245  1
  O  O53  1  0.072066  0.016788  0.757755  1
  O  O54  1  0.265131  0.648551  0.626617  1
  O  O55  1  0.734869  0.351449  0.373383  1
