# generated using pymatgen
data_Tb(HO)3
_symmetry_space_group_name_H-M   'P 1'
_cell_length_a   6.42197239
_cell_length_b   6.42196505
_cell_length_c   3.53971195
_cell_angle_alpha   90.00000000
_cell_angle_beta   90.00000000
_cell_angle_gamma   120.00008420
_symmetry_Int_Tables_number   1
_chemical_formula_structural   Tb(HO)3
_chemical_formula_sum   'Tb2 H6 O6'
_cell_volume   126.42546418
_cell_formula_units_Z   2
loop_
 _symmetry_equiv_pos_site_id
 _symmetry_equiv_pos_as_xyz
  1  'x, y, z'
loop_
 _atom_site_type_symbol
 _atom_site_label
 _atom_site_symmetry_multiplicity
 _atom_site_fract_x
 _atom_site_fract_y
 _atom_site_fract_z
 _atom_site_occupancy
  Tb  Tb0  1  0.333334  0.666668  0.250000  1
  Tb  Tb1  1  0.666666  0.333332  0.750000  1
  H  H2  1  0.853231  0.714952  0.250000  1
  H  H3  1  0.861723  0.146771  0.250000  1
  H  H4  1  0.285046  0.138276  0.250000  1
  H  H5  1  0.146769  0.285048  0.750000  1
  H  H6  1  0.138277  0.853229  0.750000  1
  H  H7  1  0.714954  0.861724  0.750000  1
  O  O8  1  0.910509  0.600136  0.250000  1
  O  O9  1  0.689630  0.089496  0.250000  1
  O  O10  1  0.399865  0.310370  0.250000  1
  O  O11  1  0.089491  0.399864  0.750000  1
  O  O12  1  0.310370  0.910504  0.750000  1
  O  O13  1  0.600135  0.689630  0.750000  1
