# generated using pymatgen
data_La2Th3O9
_symmetry_space_group_name_H-M   'P 1'
_cell_length_a   3.98846340
_cell_length_b   20.04578473
_cell_length_c   18.39052633
_cell_angle_alpha   10.84573647
_cell_angle_beta   57.13769799
_cell_angle_gamma   60.14446952
_symmetry_Int_Tables_number   1
_chemical_formula_structural   La2Th3O9
_chemical_formula_sum   'La2 Th3 O9'
_cell_volume   226.58879637
_cell_formula_units_Z   1
loop_
 _symmetry_equiv_pos_site_id
 _symmetry_equiv_pos_as_xyz
  1  'x, y, z'
loop_
 _atom_site_type_symbol
 _atom_site_label
 _atom_site_symmetry_multiplicity
 _atom_site_fract_x
 _atom_site_fract_y
 _atom_site_fract_z
 _atom_site_occupancy
  La  La0  1  0.032535  0.022269  0.963426  1
  La  La1  1  0.965187  0.180906  0.031755  1
  Th  Th2  1  0.991030  0.394872  0.007376  1
  Th  Th3  1  0.000704  0.598696  0.000323  1
  Th  Th4  1  0.008370  0.804370  0.991545  1
  O  O5  1  0.217365  0.031297  0.280490  1
  O  O6  1  0.255612  0.250680  0.245818  1
  O  O7  1  0.243749  0.445567  0.256040  1
  O  O8  1  0.281456  0.669743  0.216863  1
  O  O9  1  0.737937  0.144160  0.759581  1
  O  O10  1  0.750536  0.350321  0.748908  1
  O  O11  1  0.759781  0.557838  0.736766  1
  O  O12  1  0.735015  0.738535  0.766186  1
  O  O13  1  0.764836  0.957819  0.735623  1
