# generated using pymatgen
data_TbCuPbSe3
_symmetry_space_group_name_H-M   'P 1'
_cell_length_a   4.06965849
_cell_length_b   10.67910293
_cell_length_c   13.64011174
_cell_angle_alpha   89.99762120
_cell_angle_beta   90.00001834
_cell_angle_gamma   90.00001851
_symmetry_Int_Tables_number   1
_chemical_formula_structural   TbCuPbSe3
_chemical_formula_sum   'Tb4 Cu4 Pb4 Se12'
_cell_volume   592.80337398
_cell_formula_units_Z   4
loop_
 _symmetry_equiv_pos_site_id
 _symmetry_equiv_pos_as_xyz
  1  'x, y, z'
loop_
 _atom_site_type_symbol
 _atom_site_label
 _atom_site_symmetry_multiplicity
 _atom_site_fract_x
 _atom_site_fract_y
 _atom_site_fract_z
 _atom_site_occupancy
  Tb  Tb0  1  0.750000  0.486295  0.741722  1
  Tb  Tb1  1  0.249999  0.013700  0.241722  1
  Tb  Tb2  1  0.749999  0.986297  0.758282  1
  Tb  Tb3  1  0.250000  0.513711  0.258283  1
  Cu  Cu4  1  0.250004  0.741772  0.780611  1
  Cu  Cu5  1  0.750000  0.758146  0.280619  1
  Cu  Cu6  1  0.250002  0.241750  0.719380  1
  Cu  Cu7  1  0.750000  0.258318  0.219372  1
  Pb  Pb8  1  0.749999  0.724886  0.995921  1
  Pb  Pb9  1  0.250000  0.275115  0.004080  1
  Pb  Pb10  1  0.250000  0.775114  0.495923  1
  Pb  Pb11  1  0.750000  0.224890  0.504082  1
  Se  Se12  1  0.750000  0.448431  0.114429  1
  Se  Se13  1  0.250000  0.416686  0.604268  1
  Se  Se14  1  0.749999  0.083304  0.104262  1
  Se  Se15  1  0.250000  0.551560  0.885581  1
  Se  Se16  1  0.750000  0.948449  0.385587  1
  Se  Se17  1  0.750000  0.583336  0.395718  1
  Se  Se18  1  0.249999  0.760201  0.171634  1
  Se  Se19  1  0.250000  0.051568  0.614426  1
  Se  Se20  1  0.250000  0.916681  0.895730  1
  Se  Se21  1  0.250000  0.260186  0.328365  1
  Se  Se22  1  0.750000  0.239802  0.828371  1
  Se  Se23  1  0.750000  0.739803  0.671633  1
