# generated using pymatgen
data_Yb9(Fe3S10)2
_symmetry_space_group_name_H-M   'P 1'
_cell_length_a   7.88643625
_cell_length_b   7.94564211
_cell_length_c   39.96324132
_cell_angle_alpha   59.00209623
_cell_angle_beta   58.57444335
_cell_angle_gamma   59.82567891
_symmetry_Int_Tables_number   1
_chemical_formula_structural   Yb9(Fe3S10)2
_chemical_formula_sum   'Yb18 Fe12 S40'
_cell_volume   1735.35340378
_cell_formula_units_Z   2
loop_
 _symmetry_equiv_pos_site_id
 _symmetry_equiv_pos_as_xyz
  1  'x, y, z'
loop_
 _atom_site_type_symbol
 _atom_site_label
 _atom_site_symmetry_multiplicity
 _atom_site_fract_x
 _atom_site_fract_y
 _atom_site_fract_z
 _atom_site_occupancy
  Yb  Yb0  1  0.002093  0.501890  0.997700  1
  Yb  Yb1  1  0.012595  0.442119  0.204008  1
  Yb  Yb2  1  0.514624  0.498932  0.099266  1
  Yb  Yb3  1  0.008260  0.446581  0.404790  1
  Yb  Yb4  1  0.492482  0.516271  0.198971  1
  Yb  Yb5  1  0.496017  0.501347  0.298709  1
  Yb  Yb6  1  0.507461  0.997609  0.299094  1
  Yb  Yb7  1  0.006807  0.445113  0.605347  1
  Yb  Yb8  1  0.496322  0.501005  0.401199  1
  Yb  Yb9  1  0.495497  0.499756  0.499304  1
  Yb  Yb10  1  0.508134  0.994318  0.499746  1
  Yb  Yb11  1  0.009435  0.442083  0.806480  1
  Yb  Yb12  1  0.496058  0.499268  0.601808  1
  Yb  Yb13  1  0.491515  0.494832  0.701201  1
  Yb  Yb14  1  0.503752  0.993463  0.700563  1
  Yb  Yb15  1  0.480493  0.505806  0.804693  1
  Yb  Yb16  1  0.502644  0.995104  0.900438  1
  Yb  Yb17  1  0.505901  0.475771  0.000421  1
  Fe  Fe18  1  0.094666  0.070915  0.033457  1
  Fe  Fe19  1  0.501673  0.001554  0.997153  1
  Fe  Fe20  1  0.462191  0.010110  0.201849  1
  Fe  Fe21  1  0.895899  0.907053  0.170178  1
  Fe  Fe22  1  0.462769  0.999827  0.603908  1
  Fe  Fe23  1  0.462865  0.001166  0.403530  1
  Fe  Fe24  1  0.896026  0.914868  0.368343  1
  Fe  Fe25  1  0.895541  0.913464  0.568895  1
  Fe  Fe26  1  0.504899  0.539796  0.891805  1
  Fe  Fe27  1  0.480811  0.988832  0.805592  1
  Fe  Fe28  1  0.885086  0.912892  0.771056  1
  Fe  Fe29  1  0.907296  0.943821  0.960790  1
  S  S30  1  0.272287  0.189870  0.043540  1
  S  S31  1  0.306463  0.750393  0.042880  1
  S  S32  1  0.309380  0.198596  0.155380  1
  S  S33  1  0.754568  0.248126  0.049164  1
  S  S34  1  0.293997  0.208234  0.243235  1
  S  S35  1  0.233270  0.742086  0.150661  1
  S  S36  1  0.742997  0.824136  0.031686  1
  S  S37  1  0.282713  0.799064  0.241751  1
  S  S38  1  0.292226  0.202355  0.357162  1
  S  S39  1  0.732437  0.239356  0.153795  1
  S  S40  1  0.714823  0.269404  0.249828  1
  S  S41  1  0.731614  0.804620  0.156601  1
  S  S42  1  0.291946  0.201431  0.444110  1
  S  S43  1  0.242787  0.741274  0.351389  1
  S  S44  1  0.733639  0.783684  0.240338  1
  S  S45  1  0.280502  0.794161  0.442617  1
  S  S46  1  0.291706  0.200892  0.557635  1
  S  S47  1  0.725537  0.244527  0.352483  1
  S  S48  1  0.719785  0.261829  0.451478  1
  S  S49  1  0.728794  0.791207  0.356730  1
  S  S50  1  0.242324  0.739481  0.552027  1
  S  S51  1  0.290860  0.200787  0.644612  1
  S  S52  1  0.727565  0.788092  0.439492  1
  S  S53  1  0.281179  0.791112  0.643419  1
  S  S54  1  0.288111  0.181744  0.762440  1
  S  S55  1  0.725215  0.243748  0.552936  1
  S  S56  1  0.716574  0.260138  0.652981  1
  S  S57  1  0.728520  0.789334  0.557259  1
  S  S58  1  0.288499  0.199000  0.846178  1
  S  S59  1  0.235124  0.735348  0.754553  1
  S  S60  1  0.725198  0.785655  0.640436  1
  S  S61  1  0.300202  0.759054  0.853018  1
  S  S62  1  0.720908  0.244658  0.756070  1
  S  S63  1  0.263921  0.194163  0.961099  1
  S  S64  1  0.722631  0.783391  0.759848  1
  S  S65  1  0.679294  0.298901  0.861330  1
  S  S66  1  0.270334  0.727928  0.944099  1
  S  S67  1  0.723977  0.767011  0.845333  1
  S  S68  1  0.675832  0.266700  0.946404  1
  S  S69  1  0.732451  0.792944  0.953711  1
