# generated using pymatgen
data_Ag(Mo3S4)2
_symmetry_space_group_name_H-M   'P 1'
_cell_length_a   6.66806046
_cell_length_b   6.66806023
_cell_length_c   6.66806022
_cell_angle_alpha   92.82219825
_cell_angle_beta   92.82220127
_cell_angle_gamma   92.82220132
_symmetry_Int_Tables_number   1
_chemical_formula_structural   Ag(Mo3S4)2
_chemical_formula_sum   'Ag1 Mo6 S8'
_cell_volume   295.36654084
_cell_formula_units_Z   1
loop_
 _symmetry_equiv_pos_site_id
 _symmetry_equiv_pos_as_xyz
  1  'x, y, z'
loop_
 _atom_site_type_symbol
 _atom_site_label
 _atom_site_symmetry_multiplicity
 _atom_site_fract_x
 _atom_site_fract_y
 _atom_site_fract_z
 _atom_site_occupancy
  Ag  Ag0  1  0.000000  0.000000  0.000000  1
  Mo  Mo1  1  0.453771  0.592561  0.771882  1
  Mo  Mo2  1  0.592561  0.771882  0.453771  1
  Mo  Mo3  1  0.771882  0.453771  0.592561  1
  Mo  Mo4  1  0.228118  0.546229  0.407439  1
  Mo  Mo5  1  0.407439  0.228118  0.546229  1
  Mo  Mo6  1  0.546229  0.407439  0.228118  1
  S  S7  1  0.272718  0.870828  0.614765  1
  S  S8  1  0.614765  0.272718  0.870828  1
  S  S9  1  0.870828  0.614765  0.272718  1
  S  S10  1  0.129172  0.385235  0.727282  1
  S  S11  1  0.221590  0.221590  0.221590  1
  S  S12  1  0.385235  0.727282  0.129172  1
  S  S13  1  0.727282  0.129172  0.385235  1
  S  S14  1  0.778410  0.778410  0.778410  1
