# generated using pymatgen
data_Ag(CO)2
_symmetry_space_group_name_H-M   'P 1'
_cell_length_a   7.21771689
_cell_length_b   7.63514999
_cell_length_c   10.78701860
_cell_angle_alpha   102.82632553
_cell_angle_beta   109.65662406
_cell_angle_gamma   89.98084034
_symmetry_Int_Tables_number   1
_chemical_formula_structural   Ag(CO)2
_chemical_formula_sum   'Ag8 C16 O16'
_cell_volume   544.05257530
_cell_formula_units_Z   8
loop_
 _symmetry_equiv_pos_site_id
 _symmetry_equiv_pos_as_xyz
  1  'x, y, z'
loop_
 _atom_site_type_symbol
 _atom_site_label
 _atom_site_symmetry_multiplicity
 _atom_site_fract_x
 _atom_site_fract_y
 _atom_site_fract_z
 _atom_site_occupancy
  Ag  Ag0  1  0.092758  0.695405  0.166081  1
  Ag  Ag1  1  0.904771  0.307150  0.832615  1
  Ag  Ag2  1  0.920531  0.806030  0.830520  1
  Ag  Ag3  1  0.073551  0.193350  0.168479  1
  Ag  Ag4  1  0.153802  0.560758  0.685148  1
  Ag  Ag5  1  0.539671  0.060723  0.686960  1
  Ag  Ag6  1  0.460955  0.935964  0.313508  1
  Ag  Ag7  1  0.853826  0.438511  0.313509  1
  C  C8  1  0.013951  0.977941  0.405367  1
  C  C9  1  0.445354  0.914832  0.903916  1
  C  C10  1  0.986426  0.020981  0.595772  1
  C  C11  1  0.458168  0.417733  0.902544  1
  C  C12  1  0.387471  0.478846  0.403056  1
  C  C13  1  0.002492  0.137303  0.506926  1
  C  C14  1  0.352920  0.524397  0.985252  1
  C  C15  1  0.633231  0.021422  0.987527  1
  C  C16  1  0.607763  0.519910  0.592860  1
  C  C17  1  0.366211  0.978944  0.013719  1
  C  C18  1  0.503933  0.637846  0.504309  1
  C  C19  1  0.554142  0.085994  0.096874  1
  C  C20  1  0.541655  0.587402  0.096177  1
  C  C21  1  0.999269  0.861570  0.494665  1
  C  C22  1  0.491190  0.361479  0.491606  1
  C  C23  1  0.646610  0.481149  0.012742  1
  O  O24  1  0.034040  0.957380  0.290881  1
  O  O25  1  0.203434  0.956991  0.030730  1
  O  O26  1  0.508217  0.804666  0.511002  1
  O  O27  1  0.002211  0.303748  0.511101  1
  O  O28  1  0.385107  0.815322  0.785264  1
  O  O29  1  0.797078  0.044743  0.971780  1
  O  O30  1  0.998440  0.694793  0.489956  1
  O  O31  1  0.172382  0.547852  0.967531  1
  O  O32  1  0.484073  0.195069  0.486700  1
  O  O33  1  0.742819  0.539451  0.707225  1
  O  O34  1  0.615092  0.187459  0.214689  1
  O  O35  1  0.251153  0.457375  0.288965  1
  O  O36  1  0.826080  0.456243  0.028449  1
  O  O37  1  0.402281  0.315273  0.784738  1
  O  O38  1  0.968027  0.043280  0.710957  1
  O  O39  1  0.597557  0.685301  0.215591  1
