# generated using pymatgen
data_Ce2Dy2O7
_symmetry_space_group_name_H-M   'P 1'
_cell_length_a   3.76034004
_cell_length_b   15.36658886
_cell_length_c   13.24544262
_cell_angle_alpha   30.46220672
_cell_angle_beta   55.40347067
_cell_angle_gamma   60.69768106
_symmetry_Int_Tables_number   1
_chemical_formula_structural   Ce2Dy2O7
_chemical_formula_sum   'Ce4 Dy4 O14'
_cell_volume   319.40608457
_cell_formula_units_Z   2
loop_
 _symmetry_equiv_pos_site_id
 _symmetry_equiv_pos_as_xyz
  1  'x, y, z'
loop_
 _atom_site_type_symbol
 _atom_site_label
 _atom_site_symmetry_multiplicity
 _atom_site_fract_x
 _atom_site_fract_y
 _atom_site_fract_z
 _atom_site_occupancy
  Ce  Ce0  1  0.991687  0.000000  0.004156  1
  Ce  Ce1  1  0.008313  0.500000  0.995844  1
  Ce  Ce2  1  0.000000  0.250000  0.500000  1
  Ce  Ce3  1  0.000000  0.750000  0.000000  1
  Dy  Dy4  1  0.963542  0.000000  0.518229  1
  Dy  Dy5  1  0.000000  0.250000  0.000000  1
  Dy  Dy6  1  0.036458  0.500000  0.481771  1
  Dy  Dy7  1  0.000000  0.750000  0.500000  1
  O  O8  1  0.216446  0.000000  0.141777  1
  O  O9  1  0.249352  0.207585  0.167739  1
  O  O10  1  0.257724  0.000000  0.621138  1
  O  O11  1  0.266213  0.500000  0.116893  1
  O  O12  1  0.745052  0.260794  0.366680  1
  O  O13  1  0.254948  0.239206  0.633320  1
  O  O14  1  0.254948  0.760794  0.111732  1
  O  O15  1  0.742276  0.500000  0.378862  1
  O  O16  1  0.733787  0.000000  0.883107  1
  O  O17  1  0.750648  0.707585  0.417091  1
  O  O18  1  0.249352  0.792415  0.582909  1
  O  O19  1  0.750648  0.292415  0.832261  1
  O  O20  1  0.783554  0.500000  0.858223  1
  O  O21  1  0.745052  0.739206  0.888268  1
