# generated using pymatgen
data_Na4Zr2(SiO4)3
_symmetry_space_group_name_H-M   'P 1'
_cell_length_a   9.19988004
_cell_length_b   9.19988004
_cell_length_c   9.19988004
_cell_angle_alpha   60.91103713
_cell_angle_beta   60.91103714
_cell_angle_gamma   60.91103715
_symmetry_Int_Tables_number   1
_chemical_formula_structural   Na4Zr2(SiO4)3
_chemical_formula_sum   'Na8 Zr4 Si6 O24'
_cell_volume   561.89954974
_cell_formula_units_Z   2
loop_
 _symmetry_equiv_pos_site_id
 _symmetry_equiv_pos_as_xyz
  1  'x, y, z'
loop_
 _atom_site_type_symbol
 _atom_site_label
 _atom_site_symmetry_multiplicity
 _atom_site_fract_x
 _atom_site_fract_y
 _atom_site_fract_z
 _atom_site_occupancy
  O  O0  1  0.877299  0.704703  0.490123  1
  O  O1  1  0.704703  0.490123  0.877299  1
  O  O2  1  0.490123  0.877299  0.704703  1
  O  O3  1  0.009877  0.795297  0.622701  1
  O  O4  1  0.795297  0.622701  0.009877  1
  O  O5  1  0.622701  0.009877  0.795297  1
  O  O6  1  0.122701  0.295297  0.509877  1
  O  O7  1  0.295297  0.509877  0.122701  1
  O  O8  1  0.509877  0.122701  0.295297  1
  O  O9  1  0.990123  0.204703  0.377299  1
  O  O10  1  0.204703  0.377299  0.990123  1
  O  O11  1  0.377299  0.990123  0.204703  1
  O  O12  1  0.769078  0.416984  0.565037  1
  O  O13  1  0.416984  0.565037  0.769078  1
  O  O14  1  0.565037  0.769078  0.416984  1
  O  O15  1  0.934963  0.083016  0.730922  1
  O  O16  1  0.083016  0.730922  0.934963  1
  O  O17  1  0.730922  0.934963  0.083016  1
  O  O18  1  0.269078  0.065037  0.916984  1
  O  O19  1  0.916984  0.269078  0.065037  1
  O  O20  1  0.065037  0.916984  0.269078  1
  O  O21  1  0.434963  0.230922  0.583016  1
  O  O22  1  0.583016  0.434963  0.230922  1
  O  O23  1  0.230922  0.583016  0.434963  1
  Na  Na24  1  0.000000  0.000000  0.000000  1
  Na  Na25  1  0.117757  0.382243  0.750000  1
  Na  Na26  1  0.750000  0.117757  0.382243  1
  Na  Na27  1  0.382243  0.750000  0.117757  1
  Na  Na28  1  0.617757  0.250000  0.882243  1
  Na  Na29  1  0.250000  0.882243  0.617757  1
  Na  Na30  1  0.500000  0.500000  0.500000  1
  Na  Na31  1  0.882243  0.617757  0.250000  1
  Si  Si32  1  0.546987  0.953013  0.250000  1
  Si  Si33  1  0.046987  0.750000  0.453013  1
  Si  Si34  1  0.953013  0.250000  0.546987  1
  Si  Si35  1  0.453013  0.046987  0.750000  1
  Si  Si36  1  0.750000  0.453013  0.046987  1
  Si  Si37  1  0.250000  0.546987  0.953013  1
  Zr  Zr38  1  0.353512  0.353512  0.353512  1
  Zr  Zr39  1  0.853512  0.853512  0.853512  1
  Zr  Zr40  1  0.646488  0.646488  0.646488  1
  Zr  Zr41  1  0.146488  0.146488  0.146488  1
