# generated using pymatgen
data_Sr8Ru7O24
_symmetry_space_group_name_H-M   'P 1'
_cell_length_a   5.59074351
_cell_length_b   5.59050304
_cell_length_c   67.75063052
_cell_angle_alpha   119.67378979
_cell_angle_beta   119.67549669
_cell_angle_gamma   90.00559129
_symmetry_Int_Tables_number   1
_chemical_formula_structural   Sr8Ru7O24
_chemical_formula_sum   'Sr24 Ru21 O72'
_cell_volume   1511.87067214
_cell_formula_units_Z   3
loop_
 _symmetry_equiv_pos_site_id
 _symmetry_equiv_pos_as_xyz
  1  'x, y, z'
loop_
 _atom_site_type_symbol
 _atom_site_label
 _atom_site_symmetry_multiplicity
 _atom_site_fract_x
 _atom_site_fract_y
 _atom_site_fract_z
 _atom_site_occupancy
  Sr  Sr0  1  0.272474  0.772464  0.962080  1
  Sr  Sr1  1  0.230798  0.730890  0.871804  1
  Sr  Sr2  1  0.772365  0.272421  0.962067  1
  Sr  Sr3  1  0.278229  0.778188  0.796380  1
  Sr  Sr4  1  0.730742  0.230701  0.871787  1
  Sr  Sr5  1  0.252943  0.752965  0.708828  1
  Sr  Sr6  1  0.778205  0.278249  0.796379  1
  Sr  Sr7  1  0.250050  0.750045  0.625012  1
  Sr  Sr8  1  0.753032  0.253025  0.708838  1
  Sr  Sr9  1  0.250021  0.750018  0.541676  1
  Sr  Sr10  1  0.750166  0.250171  0.625034  1
  Sr  Sr11  1  0.249799  0.749803  0.458298  1
  Sr  Sr12  1  0.750201  0.250197  0.541702  1
  Sr  Sr13  1  0.249834  0.749829  0.374966  1
  Sr  Sr14  1  0.749979  0.249982  0.458324  1
  Sr  Sr15  1  0.246968  0.746975  0.291162  1
  Sr  Sr16  1  0.749950  0.249955  0.374988  1
  Sr  Sr17  1  0.221795  0.721751  0.203621  1
  Sr  Sr18  1  0.747057  0.247035  0.291172  1
  Sr  Sr19  1  0.269258  0.769299  0.128213  1
  Sr  Sr20  1  0.721771  0.221812  0.203620  1
  Sr  Sr21  1  0.227635  0.727579  0.037933  1
  Sr  Sr22  1  0.769202  0.269110  0.128196  1
  Sr  Sr23  1  0.727526  0.227536  0.037920  1
  Ru  Ru24  1  0.004836  0.004881  0.917471  1
  Ru  Ru25  1  0.497993  0.498014  0.916324  1
  Ru  Ru26  1  0.002695  0.002692  0.750456  1
  Ru  Ru27  1  0.505009  0.504980  0.834176  1
  Ru  Ru28  1  0.000970  0.000954  0.666826  1
  Ru  Ru29  1  0.505788  0.505800  0.750969  1
  Ru  Ru30  1  0.999409  0.999405  0.583246  1
  Ru  Ru31  1  0.501544  0.501540  0.666925  1
  Ru  Ru32  1  0.000000  0.000000  0.500000  1
  Ru  Ru33  1  0.499031  0.499024  0.583180  1
  Ru  Ru34  1  0.000591  0.000595  0.416754  1
  Ru  Ru35  1  0.500000  0.500000  0.500000  1
  Ru  Ru36  1  0.999030  0.999046  0.333174  1
  Ru  Ru37  1  0.500969  0.500976  0.416820  1
  Ru  Ru38  1  0.997305  0.997308  0.249544  1
  Ru  Ru39  1  0.498456  0.498460  0.333075  1
  Ru  Ru40  1  0.494212  0.494200  0.249031  1
  Ru  Ru41  1  0.995164  0.995119  0.082529  1
  Ru  Ru42  1  0.494991  0.495020  0.165824  1
  Ru  Ru43  1  0.000000  0.000000  0.000000  1
  Ru  Ru44  1  0.502007  0.501986  0.083676  1
  O  O45  1  0.230947  0.231011  0.955161  1
  O  O46  1  0.197870  0.299065  0.916492  1
  O  O47  1  0.299130  0.800171  0.916493  1
  O  O48  1  0.269208  0.269262  0.878208  1
  O  O49  1  0.750815  0.750738  0.958467  1
  O  O50  1  0.236657  0.282790  0.833113  1
  O  O51  1  0.698743  0.197730  0.916482  1
  O  O52  1  0.282878  0.760648  0.833117  1
  O  O53  1  0.800064  0.698860  0.916493  1
  O  O54  1  0.244158  0.244184  0.790693  1
  O  O55  1  0.747968  0.747919  0.874666  1
  O  O56  1  0.199126  0.288729  0.749002  1
  O  O57  1  0.714477  0.236643  0.833113  1
  O  O58  1  0.288646  0.788756  0.748982  1
  O  O59  1  0.760626  0.714454  0.833117  1
  O  O60  1  0.243645  0.243690  0.707285  1
  O  O61  1  0.734017  0.733999  0.789002  1
  O  O62  1  0.203295  0.292404  0.666320  1
  O  O63  1  0.699083  0.198987  0.748975  1
  O  O64  1  0.292346  0.792479  0.666313  1
  O  O65  1  0.788851  0.699229  0.749004  1
  O  O66  1  0.249044  0.249115  0.624853  1
  O  O67  1  0.749838  0.749779  0.708311  1
  O  O68  1  0.202793  0.294422  0.583131  1
  O  O69  1  0.703389  0.203249  0.666304  1
  O  O70  1  0.294237  0.794476  0.583125  1
  O  O71  1  0.792526  0.703408  0.666320  1
  O  O72  1  0.248756  0.248810  0.541456  1
  O  O73  1  0.747127  0.747043  0.624523  1
  O  O74  1  0.204477  0.295583  0.499999  1
  O  O75  1  0.703163  0.202918  0.583123  1
  O  O76  1  0.295428  0.795350  0.500002  1
  O  O77  1  0.794681  0.703042  0.583131  1
  O  O78  1  0.250547  0.250599  0.458436  1
  O  O79  1  0.749453  0.749401  0.541564  1
  O  O80  1  0.205319  0.296958  0.416869  1
  O  O81  1  0.704572  0.204650  0.499998  1
  O  O82  1  0.296837  0.797082  0.416877  1
  O  O83  1  0.795523  0.704417  0.500001  1
  O  O84  1  0.252873  0.252957  0.375477  1
  O  O85  1  0.751244  0.751190  0.458544  1
  O  O86  1  0.207474  0.296592  0.333680  1
  O  O87  1  0.705763  0.205524  0.416875  1
  O  O88  1  0.296611  0.796751  0.333696  1
  O  O89  1  0.797207  0.705578  0.416869  1
  O  O90  1  0.250162  0.250221  0.291689  1
  O  O91  1  0.750956  0.750885  0.375147  1
  O  O92  1  0.211149  0.300771  0.250996  1
  O  O93  1  0.707654  0.207521  0.333687  1
  O  O94  1  0.300917  0.801013  0.251025  1
  O  O95  1  0.796705  0.707596  0.333680  1
  O  O96  1  0.265983  0.266001  0.210998  1
  O  O97  1  0.756355  0.756310  0.292715  1
  O  O98  1  0.239374  0.285546  0.166883  1
  O  O99  1  0.711354  0.211244  0.251018  1
  O  O100  1  0.285523  0.763357  0.166887  1
  O  O101  1  0.800874  0.711271  0.250998  1
  O  O102  1  0.252032  0.252081  0.125334  1
  O  O103  1  0.755842  0.755816  0.209307  1
  O  O104  1  0.199936  0.301140  0.083507  1
  O  O105  1  0.717122  0.239352  0.166883  1
  O  O106  1  0.301256  0.802270  0.083518  1
  O  O107  1  0.763343  0.717210  0.166887  1
  O  O108  1  0.249185  0.249262  0.041533  1
  O  O109  1  0.730792  0.730738  0.121792  1
  O  O110  1  0.214101  0.263757  0.999997  1
  O  O111  1  0.700870  0.199829  0.083507  1
  O  O112  1  0.263785  0.785958  0.000006  1
  O  O113  1  0.802130  0.700935  0.083508  1
  O  O114  1  0.769053  0.768989  0.044839  1
  O  O115  1  0.736215  0.214042  0.999994  1
  O  O116  1  0.785899  0.736243  0.000003  1
