# generated using pymatgen
data_Fe(SbO2)2
_symmetry_space_group_name_H-M   'P 1'
_cell_length_a   5.87809206
_cell_length_b   8.80255375
_cell_length_c   8.76092155
_cell_angle_alpha   90.00000000
_cell_angle_beta   91.69304343
_cell_angle_gamma   90.00000000
_symmetry_Int_Tables_number   1
_chemical_formula_structural   Fe(SbO2)2
_chemical_formula_sum   'Fe4 Sb8 O16'
_cell_volume   453.11165165
_cell_formula_units_Z   4
loop_
 _symmetry_equiv_pos_site_id
 _symmetry_equiv_pos_as_xyz
  1  'x, y, z'
loop_
 _atom_site_type_symbol
 _atom_site_label
 _atom_site_symmetry_multiplicity
 _atom_site_fract_x
 _atom_site_fract_y
 _atom_site_fract_z
 _atom_site_occupancy
  Fe  Fe0  1  0.772967  0.000511  0.502627  1
  Fe  Fe1  1  0.227033  0.500511  0.997373  1
  Fe  Fe2  1  0.772967  0.499489  0.002627  1
  Fe  Fe3  1  0.227033  0.999489  0.497373  1
  Sb  Sb4  1  0.017296  0.672115  0.334551  1
  Sb  Sb5  1  0.982704  0.172115  0.165449  1
  Sb  Sb6  1  0.487950  0.168415  0.819293  1
  Sb  Sb7  1  0.512050  0.668415  0.680707  1
  Sb  Sb8  1  0.017296  0.827885  0.834551  1
  Sb  Sb9  1  0.487950  0.331585  0.319293  1
  Sb  Sb10  1  0.982704  0.327885  0.665449  1
  Sb  Sb11  1  0.512050  0.831585  0.180707  1
  O  O12  1  0.496913  0.640113  0.902514  1
  O  O13  1  0.755634  0.315852  0.833165  1
  O  O14  1  0.987342  0.895220  0.348017  1
  O  O15  1  0.745981  0.839044  0.688772  1
  O  O16  1  0.496913  0.859887  0.402514  1
  O  O17  1  0.012658  0.104780  0.651983  1
  O  O18  1  0.755634  0.184148  0.333165  1
  O  O19  1  0.254019  0.339044  0.811228  1
  O  O20  1  0.745981  0.660956  0.188772  1
  O  O21  1  0.012658  0.395220  0.151983  1
  O  O22  1  0.254019  0.160956  0.311228  1
  O  O23  1  0.987342  0.604780  0.848017  1
  O  O24  1  0.503087  0.359887  0.097486  1
  O  O25  1  0.244366  0.684148  0.166835  1
  O  O26  1  0.503087  0.140113  0.597486  1
  O  O27  1  0.244366  0.815852  0.666835  1
