# generated using pymatgen
data_NbP2S2Cl5
_symmetry_space_group_name_H-M   'P 1'
_cell_length_a   6.56110392
_cell_length_b   13.55571403
_cell_length_c   27.31133211
_cell_angle_alpha   90.00000000
_cell_angle_beta   93.67796974
_cell_angle_gamma   90.00000000
_symmetry_Int_Tables_number   1
_chemical_formula_structural   NbP2S2Cl5
_chemical_formula_sum   'Nb8 P16 S16 Cl40'
_cell_volume   2424.07908275
_cell_formula_units_Z   8
loop_
 _symmetry_equiv_pos_site_id
 _symmetry_equiv_pos_as_xyz
  1  'x, y, z'
loop_
 _atom_site_type_symbol
 _atom_site_label
 _atom_site_symmetry_multiplicity
 _atom_site_fract_x
 _atom_site_fract_y
 _atom_site_fract_z
 _atom_site_occupancy
  Nb  Nb0  1  0.772511  0.291592  0.525254  1
  Nb  Nb1  1  0.681792  0.612944  0.700804  1
  Nb  Nb2  1  0.227489  0.708408  0.474746  1
  Nb  Nb3  1  0.818208  0.112944  0.799196  1
  Nb  Nb4  1  0.727489  0.791592  0.974746  1
  Nb  Nb5  1  0.272511  0.208408  0.025254  1
  Nb  Nb6  1  0.318208  0.387056  0.299196  1
  Nb  Nb7  1  0.181792  0.887056  0.200804  1
  P  P8  1  0.082003  0.923054  0.618899  1
  P  P9  1  0.427978  0.342412  0.098875  1
  P  P10  1  0.051906  0.911662  0.296822  1
  P  P11  1  0.702859  0.069601  0.641242  1
  P  P12  1  0.948094  0.088338  0.703178  1
  P  P13  1  0.072022  0.842412  0.401125  1
  P  P14  1  0.797141  0.569601  0.858758  1
  P  P15  1  0.202859  0.430399  0.141242  1
  P  P16  1  0.297141  0.930399  0.358758  1
  P  P17  1  0.582003  0.576946  0.118899  1
  P  P18  1  0.917997  0.076946  0.381101  1
  P  P19  1  0.417997  0.423054  0.881101  1
  P  P20  1  0.551906  0.588338  0.796822  1
  P  P21  1  0.572022  0.657588  0.901125  1
  P  P22  1  0.927978  0.157588  0.598875  1
  P  P23  1  0.448094  0.411662  0.203178  1
  S  S24  1  0.151388  0.969878  0.693194  1
  S  S25  1  0.129306  0.049092  0.573597  1
  S  S26  1  0.448880  0.718373  0.832899  1
  S  S27  1  0.753871  0.926163  0.617954  1
  S  S28  1  0.246129  0.073837  0.382046  1
  S  S29  1  0.253871  0.573837  0.117954  1
  S  S30  1  0.848612  0.030122  0.306806  1
  S  S31  1  0.370694  0.549092  0.926403  1
  S  S32  1  0.651388  0.530122  0.193194  1
  S  S33  1  0.551120  0.281627  0.167101  1
  S  S34  1  0.870694  0.950908  0.426403  1
  S  S35  1  0.746129  0.426163  0.882046  1
  S  S36  1  0.051120  0.218373  0.667101  1
  S  S37  1  0.948880  0.781627  0.332899  1
  S  S38  1  0.348612  0.469878  0.806806  1
  S  S39  1  0.629306  0.450908  0.073597  1
  Cl  Cl40  1  0.383316  0.860415  0.497575  1
  Cl  Cl41  1  0.141655  0.529506  0.271842  1
  Cl  Cl42  1  0.520240  0.904925  0.930017  1
  Cl  Cl43  1  0.116684  0.360415  0.002425  1
  Cl  Cl44  1  0.062714  0.240016  0.486328  1
  Cl  Cl45  1  0.949575  0.754535  0.200200  1
  Cl  Cl46  1  0.415913  0.789616  0.248948  1
  Cl  Cl47  1  0.616684  0.139585  0.502425  1
  Cl  Cl48  1  0.550425  0.254535  0.299800  1
  Cl  Cl49  1  0.128351  0.109333  0.965067  1
  Cl  Cl50  1  0.594791  0.488516  0.324207  1
  Cl  Cl51  1  0.858345  0.470494  0.728158  1
  Cl  Cl52  1  0.628351  0.390667  0.465067  1
  Cl  Cl53  1  0.641655  0.970494  0.771842  1
  Cl  Cl54  1  0.405209  0.511484  0.675793  1
  Cl  Cl55  1  0.027381  0.189735  0.083602  1
  Cl  Cl56  1  0.527381  0.310265  0.583602  1
  Cl  Cl57  1  0.905209  0.988516  0.175793  1
  Cl  Cl58  1  0.871649  0.890667  0.034933  1
  Cl  Cl59  1  0.937286  0.759984  0.513672  1
  Cl  Cl60  1  0.084087  0.289616  0.251052  1
  Cl  Cl61  1  0.449575  0.745465  0.700200  1
  Cl  Cl62  1  0.584087  0.210384  0.751052  1
  Cl  Cl63  1  0.358345  0.029506  0.228158  1
  Cl  Cl64  1  0.915913  0.710384  0.748948  1
  Cl  Cl65  1  0.472619  0.689735  0.416398  1
  Cl  Cl66  1  0.437286  0.740016  0.013672  1
  Cl  Cl67  1  0.979760  0.404925  0.569983  1
  Cl  Cl68  1  0.371649  0.609333  0.534933  1
  Cl  Cl69  1  0.479760  0.095075  0.069983  1
  Cl  Cl70  1  0.828225  0.638194  0.628298  1
  Cl  Cl71  1  0.050425  0.245465  0.799800  1
  Cl  Cl72  1  0.883316  0.639585  0.997575  1
  Cl  Cl73  1  0.171775  0.361806  0.371702  1
  Cl  Cl74  1  0.094791  0.011484  0.824207  1
  Cl  Cl75  1  0.671775  0.138194  0.871702  1
  Cl  Cl76  1  0.972619  0.810265  0.916398  1
  Cl  Cl77  1  0.562714  0.259984  0.986328  1
  Cl  Cl78  1  0.328225  0.861806  0.128298  1
  Cl  Cl79  1  0.020240  0.595075  0.430017  1
