# generated using pymatgen
data_S
_symmetry_space_group_name_H-M   'P 1'
_cell_length_a   14.48037534
_cell_length_b   14.48037536
_cell_length_c   4.92590826
_cell_angle_alpha   90.00000000
_cell_angle_beta   90.00000000
_cell_angle_gamma   119.99999997
_symmetry_Int_Tables_number   1
_chemical_formula_structural   S
_chemical_formula_sum   S18
_cell_volume   894.49226622
_cell_formula_units_Z   18
loop_
 _symmetry_equiv_pos_site_id
 _symmetry_equiv_pos_as_xyz
  1  'x, y, z'
loop_
 _atom_site_type_symbol
 _atom_site_label
 _atom_site_symmetry_multiplicity
 _atom_site_fract_x
 _atom_site_fract_y
 _atom_site_fract_z
 _atom_site_occupancy
  S  S0  1  0.202070  0.653034  0.642949  1
  S  S1  1  0.274032  0.464548  0.324691  1
  S  S2  1  0.190515  0.725968  0.324691  1
  S  S3  1  0.535452  0.809485  0.324691  1
  S  S4  1  0.120788  0.378923  0.336764  1
  S  S5  1  0.346966  0.549036  0.642949  1
  S  S6  1  0.650047  0.062383  0.194181  1
  S  S7  1  0.450964  0.797930  0.642949  1
  S  S8  1  0.536110  0.480660  0.074399  1
  S  S9  1  0.937617  0.587664  0.194181  1
  S  S10  1  0.258135  0.879212  0.336764  1
  S  S11  1  0.519340  0.055450  0.074399  1
  S  S12  1  0.412336  0.349953  0.194181  1
  S  S13  1  0.944550  0.463890  0.074399  1
  S  S14  1  0.621077  0.741865  0.336764  1
  S  S15  1  0.827329  0.569158  0.441015  1
  S  S16  1  0.430842  0.258170  0.441015  1
  S  S17  1  0.741830  0.172671  0.441015  1
