# generated using pymatgen
data_MnBiO3
_symmetry_space_group_name_H-M   'P 1'
_cell_length_a   5.48692262
_cell_length_b   10.50010024
_cell_length_c   11.04739470
_cell_angle_alpha   119.34950114
_cell_angle_beta   90.00000000
_cell_angle_gamma   90.00000000
_symmetry_Int_Tables_number   1
_chemical_formula_structural   MnBiO3
_chemical_formula_sum   'Mn8 Bi8 O24'
_cell_volume   554.78200141
_cell_formula_units_Z   8
loop_
 _symmetry_equiv_pos_site_id
 _symmetry_equiv_pos_as_xyz
  1  'x, y, z'
loop_
 _atom_site_type_symbol
 _atom_site_label
 _atom_site_symmetry_multiplicity
 _atom_site_fract_x
 _atom_site_fract_y
 _atom_site_fract_z
 _atom_site_occupancy
  Mn  Mn0  1  0.281212  0.302225  0.970371  1
  Mn  Mn1  1  0.781212  0.697775  0.029629  1
  Mn  Mn2  1  0.749799  0.499929  0.249970  1
  Mn  Mn3  1  0.749887  0.000179  0.250128  1
  Mn  Mn4  1  0.218410  0.697400  0.529477  1
  Mn  Mn5  1  0.249887  0.999821  0.749872  1
  Mn  Mn6  1  0.718410  0.302600  0.470523  1
  Mn  Mn7  1  0.249799  0.500071  0.750030  1
  Bi  Bi8  1  0.228372  0.699590  0.225509  1
  Bi  Bi9  1  0.728372  0.300410  0.774491  1
  Bi  Bi10  1  0.771225  0.699540  0.725435  1
  Bi  Bi11  1  0.250439  0.850168  0.985223  1
  Bi  Bi12  1  0.271225  0.300460  0.274565  1
  Bi  Bi13  1  0.750439  0.149832  0.014777  1
  Bi  Bi14  1  0.249290  0.150038  0.514932  1
  Bi  Bi15  1  0.749290  0.849962  0.485068  1
  O  O16  1  0.583801  0.622125  0.865094  1
  O  O17  1  0.345220  0.108270  0.075979  1
  O  O18  1  0.671317  0.347540  0.296778  1
  O  O19  1  0.915441  0.619593  0.433293  1
  O  O20  1  0.032351  0.161773  0.854811  1
  O  O21  1  0.154436  0.891692  0.424137  1
  O  O22  1  0.654436  0.108308  0.575863  1
  O  O23  1  0.415559  0.621843  0.364928  1
  O  O24  1  0.013574  0.870100  0.157101  1
  O  O25  1  0.083975  0.619781  0.933328  1
  O  O26  1  0.328315  0.347490  0.796645  1
  O  O27  1  0.083801  0.377875  0.134906  1
  O  O28  1  0.828315  0.652510  0.203355  1
  O  O29  1  0.486057  0.130287  0.343097  1
  O  O30  1  0.415441  0.380407  0.566707  1
  O  O31  1  0.171317  0.652460  0.703222  1
  O  O32  1  0.915559  0.378157  0.635072  1
  O  O33  1  0.532351  0.838227  0.145189  1
  O  O34  1  0.583975  0.380219  0.066672  1
  O  O35  1  0.467319  0.837816  0.644912  1
  O  O36  1  0.986057  0.869713  0.656903  1
  O  O37  1  0.967319  0.162184  0.355088  1
  O  O38  1  0.845220  0.891730  0.924021  1
  O  O39  1  0.513574  0.129900  0.842899  1
