# generated using pymatgen
data_UWC2
_symmetry_space_group_name_H-M   'P 1'
_cell_length_a   3.23119685
_cell_length_b   5.64126079
_cell_length_c   11.05778109
_cell_angle_alpha   90.00065756
_cell_angle_beta   89.99969304
_cell_angle_gamma   89.99961912
_symmetry_Int_Tables_number   1
_chemical_formula_structural   UWC2
_chemical_formula_sum   'U4 W4 C8'
_cell_volume   201.56150013
_cell_formula_units_Z   4
loop_
 _symmetry_equiv_pos_site_id
 _symmetry_equiv_pos_as_xyz
  1  'x, y, z'
loop_
 _atom_site_type_symbol
 _atom_site_label
 _atom_site_symmetry_multiplicity
 _atom_site_fract_x
 _atom_site_fract_y
 _atom_site_fract_z
 _atom_site_occupancy
  U  U0  1  0.250001  0.580457  0.358548  1
  U  U1  1  0.750000  0.919558  0.858509  1
  U  U2  1  0.249997  0.080434  0.141463  1
  U  U3  1  0.750001  0.419538  0.641478  1
  W  W4  1  0.249995  0.420072  0.897479  1
  W  W5  1  0.250000  0.920070  0.602512  1
  W  W6  1  0.750001  0.079942  0.397494  1
  W  W7  1  0.749998  0.579925  0.102508  1
  C  C8  1  0.249999  0.162756  0.755223  1
  C  C9  1  0.750002  0.750853  0.507286  1
  C  C10  1  0.250002  0.749110  0.007252  1
  C  C11  1  0.750000  0.250895  0.992719  1
  C  C12  1  0.750002  0.837265  0.244781  1
  C  C13  1  0.750000  0.337316  0.255254  1
  C  C14  1  0.250001  0.662663  0.744732  1
  C  C15  1  0.250000  0.249146  0.492762  1
