# generated using pymatgen
data_Na4TeH10(SeO8)2
_symmetry_space_group_name_H-M   'P 1'
_cell_length_a   6.24926992
_cell_length_b   10.90107655
_cell_length_c   12.70517310
_cell_angle_alpha   90.00000000
_cell_angle_beta   90.00000000
_cell_angle_gamma   111.43681578
_symmetry_Int_Tables_number   1
_chemical_formula_structural   Na4TeH10(SeO8)2
_chemical_formula_sum   'Na8 Te2 H20 Se4 O32'
_cell_volume   805.64832968
_cell_formula_units_Z   2
loop_
 _symmetry_equiv_pos_site_id
 _symmetry_equiv_pos_as_xyz
  1  'x, y, z'
loop_
 _atom_site_type_symbol
 _atom_site_label
 _atom_site_symmetry_multiplicity
 _atom_site_fract_x
 _atom_site_fract_y
 _atom_site_fract_z
 _atom_site_occupancy
  Na  Na0  1  0.111609  0.227167  0.722877  1
  Na  Na1  1  0.888391  0.772833  0.277123  1
  Na  Na2  1  0.626743  0.152659  0.963375  1
  Na  Na3  1  0.626743  0.652659  0.536625  1
  Na  Na4  1  0.888391  0.272833  0.222877  1
  Na  Na5  1  0.111609  0.727167  0.777123  1
  Na  Na6  1  0.373257  0.347341  0.463375  1
  Na  Na7  1  0.373257  0.847341  0.036625  1
  Te  Te8  1  0.000000  0.500000  0.000000  1
  Te  Te9  1  0.000000  0.000000  0.500000  1
  H  H10  1  0.053344  0.031306  0.126098  1
  H  H11  1  0.053344  0.531306  0.373902  1
  H  H12  1  0.946656  0.468694  0.626098  1
  H  H13  1  0.128195  0.874286  0.638974  1
  H  H14  1  0.946656  0.968694  0.873902  1
  H  H15  1  0.268256  0.736788  0.453452  1
  H  H16  1  0.268256  0.236788  0.046548  1
  H  H17  1  0.323607  0.257403  0.931392  1
  H  H18  1  0.871805  0.625714  0.138974  1
  H  H19  1  0.128195  0.374286  0.861026  1
  H  H20  1  0.933132  0.947689  0.750763  1
  H  H21  1  0.323607  0.757403  0.568608  1
  H  H22  1  0.871805  0.125714  0.361026  1
  H  H23  1  0.731744  0.263212  0.546548  1
  H  H24  1  0.731744  0.763212  0.953452  1
  H  H25  1  0.676393  0.242597  0.431392  1
  H  H26  1  0.066868  0.052311  0.249237  1
  H  H27  1  0.676393  0.742597  0.068608  1
  H  H28  1  0.933132  0.447689  0.749237  1
  H  H29  1  0.066868  0.552311  0.250763  1
  Se  Se30  1  0.559305  0.029937  0.708412  1
  Se  Se31  1  0.440695  0.970063  0.291588  1
  Se  Se32  1  0.559305  0.529937  0.791588  1
  Se  Se33  1  0.440695  0.470063  0.208412  1
  O  O34  1  0.409498  0.377116  0.834883  1
  O  O35  1  0.213774  0.407149  0.116224  1
  O  O36  1  0.672522  0.866869  0.444891  1
  O  O37  1  0.590502  0.622884  0.165117  1
  O  O38  1  0.262670  0.184937  0.983110  1
  O  O39  1  0.786226  0.592851  0.883776  1
  O  O40  1  0.297004  0.425574  0.622996  1
  O  O41  1  0.262670  0.684937  0.516890  1
  O  O42  1  0.372755  0.128756  0.666405  1
  O  O43  1  0.627245  0.871244  0.333595  1
  O  O44  1  0.702996  0.574426  0.377004  1
  O  O45  1  0.905085  0.001580  0.808472  1
  O  O46  1  0.702996  0.074426  0.122996  1
  O  O47  1  0.094915  0.998420  0.191528  1
  O  O48  1  0.737330  0.815063  0.016890  1
  O  O49  1  0.372755  0.628756  0.833595  1
  O  O50  1  0.590502  0.122884  0.334883  1
  O  O51  1  0.737330  0.315063  0.483110  1
  O  O52  1  0.962463  0.362863  0.871109  1
  O  O53  1  0.213774  0.907149  0.383776  1
  O  O54  1  0.409498  0.877116  0.665117  1
  O  O55  1  0.327478  0.133131  0.555109  1
  O  O56  1  0.037537  0.637137  0.128891  1
  O  O57  1  0.037537  0.137137  0.371109  1
  O  O58  1  0.297004  0.925574  0.877004  1
  O  O59  1  0.094915  0.498420  0.308472  1
  O  O60  1  0.962463  0.862863  0.628891  1
  O  O61  1  0.672522  0.366869  0.055109  1
  O  O62  1  0.627245  0.371244  0.166405  1
  O  O63  1  0.905085  0.501580  0.691528  1
  O  O64  1  0.786226  0.092851  0.616224  1
  O  O65  1  0.327478  0.633131  0.944891  1
