# generated using pymatgen
data_Zn2P2H12O11
_symmetry_space_group_name_H-M   'P 1'
_cell_length_a   7.79236024
_cell_length_b   9.54094421
_cell_length_c   7.64805739
_cell_angle_alpha   90.74742745
_cell_angle_beta   92.93277878
_cell_angle_gamma   88.14198325
_symmetry_Int_Tables_number   1
_chemical_formula_structural   Zn2P2H12O11
_chemical_formula_sum   'Zn4 P4 H24 O22'
_cell_volume   567.52588769
_cell_formula_units_Z   2
loop_
 _symmetry_equiv_pos_site_id
 _symmetry_equiv_pos_as_xyz
  1  'x, y, z'
loop_
 _atom_site_type_symbol
 _atom_site_label
 _atom_site_symmetry_multiplicity
 _atom_site_fract_x
 _atom_site_fract_y
 _atom_site_fract_z
 _atom_site_occupancy
  Zn  Zn0  1  0.000000  0.000000  0.000000  1
  Zn  Zn1  1  0.996951  0.750051  0.498775  1
  Zn  Zn2  1  0.003049  0.249949  0.501225  1
  Zn  Zn3  1  0.500000  0.500000  0.500000  1
  P  P4  1  0.779124  0.991458  0.371818  1
  P  P5  1  0.220876  0.008542  0.628182  1
  P  P6  1  0.888518  0.513966  0.725052  1
  P  P7  1  0.111482  0.486034  0.274948  1
  H  H8  1  0.830276  0.526480  0.897010  1
  H  H9  1  0.169724  0.473520  0.102990  1
  H  H10  1  0.613108  0.993349  0.287601  1
  H  H11  1  0.386892  0.006651  0.712399  1
  H  H12  1  0.757280  0.906653  0.751586  1
  H  H13  1  0.242720  0.093347  0.248414  1
  H  H14  1  0.685338  0.864890  0.934675  1
  H  H15  1  0.314662  0.135110  0.065325  1
  H  H16  1  0.082732  0.748716  0.104271  1
  H  H17  1  0.917268  0.251284  0.895729  1
  H  H18  1  0.080844  0.738393  0.895605  1
  H  H19  1  0.919156  0.261607  0.104395  1
  H  H20  1  0.436649  0.616173  0.827691  1
  H  H21  1  0.563351  0.383827  0.172309  1
  H  H22  1  0.268784  0.554205  0.734457  1
  H  H23  1  0.731216  0.445795  0.265543  1
  H  H24  1  0.585383  0.758175  0.462703  1
  H  H25  1  0.414617  0.241825  0.537297  1
  H  H26  1  0.379027  0.769019  0.460708  1
  H  H27  1  0.620973  0.230981  0.539292  1
  H  H28  1  0.533084  0.674435  0.097800  1
  H  H29  1  0.466916  0.325565  0.902200  1
  H  H30  1  0.415040  0.798575  0.031465  1
  H  H31  1  0.584960  0.201425  0.968535  1
  O  O32  1  0.758680  0.930627  0.877199  1
  O  O33  1  0.241320  0.069373  0.122801  1
  O  O34  1  0.914976  0.958498  0.240937  1
  O  O35  1  0.085024  0.041502  0.759063  1
  O  O36  1  0.119921  0.796280  0.998056  1
  O  O37  1  0.880079  0.203720  0.001944  1
  O  O38  1  0.029648  0.625893  0.712983  1
  O  O39  1  0.970352  0.374107  0.287017  1
  O  O40  1  0.779834  0.869240  0.507234  1
  O  O41  1  0.220166  0.130760  0.492766  1
  O  O42  1  0.034530  0.637115  0.284554  1
  O  O43  1  0.965470  0.362885  0.715446  1
  O  O44  1  0.792476  0.136714  0.461667  1
  O  O45  1  0.207524  0.863286  0.538333  1
  O  O46  1  0.394152  0.535831  0.757078  1
  O  O47  1  0.605848  0.464169  0.242922  1
  O  O48  1  0.479373  0.712565  0.419056  1
  O  O49  1  0.520627  0.287435  0.580944  1
  O  O50  1  0.741872  0.547492  0.592474  1
  O  O51  1  0.258128  0.452508  0.407526  1
  O  O52  1  0.515741  0.739737  0.000690  1
  O  O53  1  0.484259  0.260263  0.999310  1
