# generated using pymatgen
data_ZnH2SO5
_symmetry_space_group_name_H-M   'P 1'
_cell_length_a   5.19919145
_cell_length_b   5.19919145
_cell_length_c   7.79190666
_cell_angle_alpha   71.93085505
_cell_angle_beta   108.06914495
_cell_angle_gamma   83.18051026
_symmetry_Int_Tables_number   1
_chemical_formula_structural   ZnH2SO5
_chemical_formula_sum   'Zn2 H4 S2 O10'
_cell_volume   184.90299371
_cell_formula_units_Z   2
loop_
 _symmetry_equiv_pos_site_id
 _symmetry_equiv_pos_as_xyz
  1  'x, y, z'
loop_
 _atom_site_type_symbol
 _atom_site_label
 _atom_site_symmetry_multiplicity
 _atom_site_fract_x
 _atom_site_fract_y
 _atom_site_fract_z
 _atom_site_occupancy
  Zn  Zn0  1  0.500000  0.500000  0.500000  1
  Zn  Zn1  1  0.500000  0.500000  0.000000  1
  H  H2  1  0.425417  0.158079  0.795956  1
  H  H3  1  0.158079  0.425417  0.704044  1
  H  H4  1  0.574583  0.841921  0.204044  1
  H  H5  1  0.841921  0.574583  0.295956  1
  S  S6  1  0.844411  0.844411  0.750000  1
  S  S7  1  0.155589  0.155589  0.250000  1
  O  O8  1  0.125490  0.783278  0.899084  1
  O  O9  1  0.783278  0.125490  0.600916  1
  O  O10  1  0.874510  0.216722  0.100916  1
  O  O11  1  0.216722  0.874510  0.399084  1
  O  O12  1  0.836406  0.629151  0.658381  1
  O  O13  1  0.629151  0.836406  0.841619  1
  O  O14  1  0.163594  0.370849  0.341619  1
  O  O15  1  0.370849  0.163594  0.158381  1
  O  O16  1  0.365797  0.365797  0.750000  1
  O  O17  1  0.634203  0.634203  0.250000  1
