# generated using pymatgen
data_UTl2(MoO5)2
_symmetry_space_group_name_H-M   'P 1'
_cell_length_a   11.16030531
_cell_length_b   14.24364869
_cell_length_c   14.23821306
_cell_angle_alpha   90.00000000
_cell_angle_beta   90.00000000
_cell_angle_gamma   90.00000000
_symmetry_Int_Tables_number   1
_chemical_formula_structural   UTl2(MoO5)2
_chemical_formula_sum   'U8 Tl16 Mo16 O80'
_cell_volume   2263.35572769
_cell_formula_units_Z   8
loop_
 _symmetry_equiv_pos_site_id
 _symmetry_equiv_pos_as_xyz
  1  'x, y, z'
loop_
 _atom_site_type_symbol
 _atom_site_label
 _atom_site_symmetry_multiplicity
 _atom_site_fract_x
 _atom_site_fract_y
 _atom_site_fract_z
 _atom_site_occupancy
  U  U0  1  0.162896  0.728388  0.130589  1
  U  U1  1  0.655861  0.762123  0.983667  1
  U  U2  1  0.155861  0.237877  0.983667  1
  U  U3  1  0.837104  0.271612  0.630589  1
  U  U4  1  0.337104  0.728388  0.630589  1
  U  U5  1  0.844139  0.762123  0.483667  1
  U  U6  1  0.662896  0.271612  0.130589  1
  U  U7  1  0.344139  0.237877  0.483667  1
  Tl  Tl8  1  0.748039  0.916214  0.245096  1
  Tl  Tl9  1  0.275715  0.554573  0.904968  1
  Tl  Tl10  1  0.751961  0.916214  0.745096  1
  Tl  Tl11  1  0.251961  0.083786  0.745096  1
  Tl  Tl12  1  0.008164  0.572447  0.674264  1
  Tl  Tl13  1  0.465414  0.948009  0.461649  1
  Tl  Tl14  1  0.991836  0.427553  0.174264  1
  Tl  Tl15  1  0.534586  0.051991  0.961649  1
  Tl  Tl16  1  0.724285  0.445427  0.404968  1
  Tl  Tl17  1  0.248039  0.083786  0.245096  1
  Tl  Tl18  1  0.224285  0.554573  0.404968  1
  Tl  Tl19  1  0.775715  0.445427  0.904968  1
  Tl  Tl20  1  0.508164  0.427553  0.674264  1
  Tl  Tl21  1  0.491836  0.572447  0.174264  1
  Tl  Tl22  1  0.034586  0.948009  0.961649  1
  Tl  Tl23  1  0.965414  0.051991  0.461649  1
  Mo  Mo24  1  0.335853  0.338411  0.215478  1
  Mo  Mo25  1  0.439443  0.884736  0.166452  1
  Mo  Mo26  1  0.835853  0.661589  0.215478  1
  Mo  Mo27  1  0.948815  0.662645  0.907490  1
  Mo  Mo28  1  0.348503  0.817694  0.888983  1
  Mo  Mo29  1  0.664147  0.661589  0.715478  1
  Mo  Mo30  1  0.448815  0.337355  0.907490  1
  Mo  Mo31  1  0.051185  0.337355  0.407490  1
  Mo  Mo32  1  0.164147  0.338411  0.715478  1
  Mo  Mo33  1  0.651497  0.182306  0.388983  1
  Mo  Mo34  1  0.060557  0.884736  0.666452  1
  Mo  Mo35  1  0.551185  0.662645  0.407490  1
  Mo  Mo36  1  0.560557  0.115264  0.666452  1
  Mo  Mo37  1  0.848503  0.182306  0.888983  1
  Mo  Mo38  1  0.939443  0.115264  0.166452  1
  Mo  Mo39  1  0.151497  0.817694  0.388983  1
  O  O40  1  0.228750  0.149565  0.460380  1
  O  O41  1  0.040696  0.327597  0.002509  1
  O  O42  1  0.011840  0.940488  0.771269  1
  O  O43  1  0.733409  0.552882  0.740314  1
  O  O44  1  0.766591  0.552882  0.240314  1
  O  O45  1  0.015034  0.361968  0.670633  1
  O  O46  1  0.490233  0.551880  0.372538  1
  O  O47  1  0.959304  0.672404  0.502509  1
  O  O48  1  0.216849  0.774708  0.496139  1
  O  O49  1  0.728750  0.850435  0.460380  1
  O  O50  1  0.856260  0.032418  0.101572  1
  O  O51  1  0.844822  0.276076  0.801392  1
  O  O52  1  0.356260  0.967582  0.101572  1
  O  O53  1  0.783151  0.225292  0.996139  1
  O  O54  1  0.249571  0.274647  0.129364  1
  O  O55  1  0.925271  0.859435  0.597446  1
  O  O56  1  0.283151  0.774708  0.996139  1
  O  O57  1  0.266591  0.447118  0.240314  1
  O  O58  1  0.799471  0.640354  0.956760  1
  O  O59  1  0.700529  0.640354  0.456760  1
  O  O60  1  0.009767  0.551880  0.872538  1
  O  O61  1  0.264698  0.915408  0.851932  1
  O  O62  1  0.540696  0.672404  0.002509  1
  O  O63  1  0.200529  0.359646  0.456760  1
  O  O64  1  0.155178  0.723924  0.301392  1
  O  O65  1  0.065838  0.270604  0.304101  1
  O  O66  1  0.716849  0.225292  0.496139  1
  O  O67  1  0.729294  0.387633  0.113876  1
  O  O68  1  0.459304  0.327597  0.502509  1
  O  O69  1  0.425271  0.140565  0.597446  1
  O  O70  1  0.509767  0.448120  0.872538  1
  O  O71  1  0.344822  0.723924  0.801392  1
  O  O72  1  0.143740  0.967582  0.601572  1
  O  O73  1  0.406431  0.843526  0.645072  1
  O  O74  1  0.643740  0.032418  0.601572  1
  O  O75  1  0.515034  0.638032  0.670633  1
  O  O76  1  0.997753  0.855626  0.410999  1
  O  O77  1  0.452176  0.719893  0.491775  1
  O  O78  1  0.299471  0.359646  0.956760  1
  O  O79  1  0.653964  0.219310  0.686351  1
  O  O80  1  0.229294  0.612367  0.113876  1
  O  O81  1  0.153424  0.267379  0.820220  1
  O  O82  1  0.770706  0.387633  0.613876  1
  O  O83  1  0.511840  0.059512  0.771269  1
  O  O84  1  0.990233  0.448120  0.372538  1
  O  O85  1  0.988160  0.059512  0.271269  1
  O  O86  1  0.750429  0.725353  0.629364  1
  O  O87  1  0.771250  0.850435  0.960380  1
  O  O88  1  0.749571  0.725353  0.129364  1
  O  O89  1  0.271250  0.149565  0.960380  1
  O  O90  1  0.984966  0.638032  0.170633  1
  O  O91  1  0.502247  0.855626  0.910999  1
  O  O92  1  0.547824  0.280107  0.991775  1
  O  O93  1  0.764698  0.084592  0.851932  1
  O  O94  1  0.047824  0.719893  0.991775  1
  O  O95  1  0.093569  0.843526  0.145072  1
  O  O96  1  0.565838  0.729396  0.304101  1
  O  O97  1  0.846036  0.219310  0.186351  1
  O  O98  1  0.434162  0.270604  0.804101  1
  O  O99  1  0.574729  0.859435  0.097446  1
  O  O100  1  0.846576  0.732621  0.320220  1
  O  O101  1  0.235302  0.915408  0.351932  1
  O  O102  1  0.488160  0.940488  0.271269  1
  O  O103  1  0.484966  0.361968  0.170633  1
  O  O104  1  0.270706  0.612367  0.613876  1
  O  O105  1  0.653424  0.732621  0.820220  1
  O  O106  1  0.346576  0.267379  0.320220  1
  O  O107  1  0.233409  0.447118  0.740314  1
  O  O108  1  0.952176  0.280107  0.491775  1
  O  O109  1  0.346036  0.780690  0.186351  1
  O  O110  1  0.074729  0.140565  0.097446  1
  O  O111  1  0.735302  0.084592  0.351932  1
  O  O112  1  0.655178  0.276076  0.301392  1
  O  O113  1  0.593569  0.156474  0.145072  1
  O  O114  1  0.250429  0.274647  0.629364  1
  O  O115  1  0.153964  0.780690  0.686351  1
  O  O116  1  0.906431  0.156474  0.645072  1
  O  O117  1  0.497753  0.144374  0.410999  1
  O  O118  1  0.934162  0.729396  0.804101  1
  O  O119  1  0.002247  0.144374  0.910999  1
