# generated using pymatgen
data_Th2Co7
_symmetry_space_group_name_H-M   'P 1'
_cell_length_a   4.97001310
_cell_length_b   4.96967536
_cell_length_c   24.89805047
_cell_angle_alpha   89.99916659
_cell_angle_beta   90.00100839
_cell_angle_gamma   120.01143050
_symmetry_Int_Tables_number   1
_chemical_formula_structural   Th2Co7
_chemical_formula_sum   'Th8 Co28'
_cell_volume   532.51456850
_cell_formula_units_Z   4
loop_
 _symmetry_equiv_pos_site_id
 _symmetry_equiv_pos_as_xyz
  1  'x, y, z'
loop_
 _atom_site_type_symbol
 _atom_site_label
 _atom_site_symmetry_multiplicity
 _atom_site_fract_x
 _atom_site_fract_y
 _atom_site_fract_z
 _atom_site_occupancy
  Th  Th0  1  0.333339  0.666673  0.175382  1
  Th  Th1  1  0.333332  0.666657  0.324219  1
  Th  Th2  1  0.333333  0.666687  0.468842  1
  Th  Th3  1  0.333308  0.666700  0.031399  1
  Th  Th4  1  0.666695  0.333328  0.969038  1
  Th  Th5  1  0.666668  0.333341  0.675628  1
  Th  Th6  1  0.666669  0.333286  0.531802  1
  Th  Th7  1  0.666661  0.333342  0.824177  1
  Co  Co8  1  0.000055  0.999987  0.668869  1
  Co  Co9  1  0.165653  0.331284  0.911651  1
  Co  Co10  1  0.165620  0.834336  0.911661  1
  Co  Co11  1  0.834199  0.165787  0.411649  1
  Co  Co12  1  0.833160  0.166841  0.249656  1
  Co  Co13  1  0.668685  0.834308  0.911658  1
  Co  Co14  1  0.331554  0.165786  0.411631  1
  Co  Co15  1  0.834196  0.668428  0.411634  1
  Co  Co16  1  0.331348  0.165656  0.088417  1
  Co  Co17  1  0.834363  0.668682  0.088422  1
  Co  Co18  1  0.834328  0.165680  0.088403  1
  Co  Co19  1  0.333285  0.666678  0.668061  1
  Co  Co20  1  0.333392  0.666643  0.831985  1
  Co  Co21  1  0.333676  0.166833  0.249653  1
  Co  Co22  1  0.999922  0.999966  0.331212  1
  Co  Co23  1  0.166790  0.333596  0.749924  1
  Co  Co24  1  0.833168  0.666329  0.249643  1
  Co  Co25  1  0.000027  0.999940  0.000059  1
  Co  Co26  1  0.668721  0.834356  0.588614  1
  Co  Co27  1  0.999974  0.000153  0.168502  1
  Co  Co28  1  0.666407  0.833214  0.749922  1
  Co  Co29  1  0.999931  0.000042  0.831268  1
  Co  Co30  1  0.165661  0.834361  0.588605  1
  Co  Co31  1  0.166799  0.833208  0.749934  1
  Co  Co32  1  0.666739  0.333364  0.331918  1
  Co  Co33  1  0.165661  0.331301  0.588611  1
  Co  Co34  1  0.999995  0.000016  0.500141  1
  Co  Co35  1  0.666686  0.333213  0.167810  1
