# generated using pymatgen
data_CsCSN
_symmetry_space_group_name_H-M   'P 1'
_cell_length_a   6.43957755
_cell_length_b   8.12940671
_cell_length_c   8.50980261
_cell_angle_alpha   90.00000000
_cell_angle_beta   90.00000000
_cell_angle_gamma   90.00000000
_symmetry_Int_Tables_number   1
_chemical_formula_structural   CsCSN
_chemical_formula_sum   'Cs4 C4 S4 N4'
_cell_volume   445.48769812
_cell_formula_units_Z   4
loop_
 _symmetry_equiv_pos_site_id
 _symmetry_equiv_pos_as_xyz
  1  'x, y, z'
loop_
 _atom_site_type_symbol
 _atom_site_label
 _atom_site_symmetry_multiplicity
 _atom_site_fract_x
 _atom_site_fract_y
 _atom_site_fract_z
 _atom_site_occupancy
  Cs  Cs0  1  0.250000  0.680526  0.395238  1
  Cs  Cs1  1  0.250000  0.180526  0.104762  1
  Cs  Cs2  1  0.750000  0.319474  0.604762  1
  Cs  Cs3  1  0.750000  0.819474  0.895238  1
  C  C4  1  0.250000  0.673490  0.941120  1
  C  C5  1  0.750000  0.826510  0.441120  1
  C  C6  1  0.250000  0.173490  0.558880  1
  C  C7  1  0.750000  0.326510  0.058880  1
  S  S8  1  0.750000  0.975909  0.312556  1
  S  S9  1  0.250000  0.524091  0.812556  1
  S  S10  1  0.250000  0.024091  0.687444  1
  S  S11  1  0.750000  0.475909  0.187444  1
  N  N12  1  0.250000  0.284957  0.467819  1
  N  N13  1  0.750000  0.715043  0.532181  1
  N  N14  1  0.250000  0.784957  0.032181  1
  N  N15  1  0.750000  0.215043  0.967819  1
