# generated using pymatgen
data_Al(HO)3
_symmetry_space_group_name_H-M   'P 1'
_cell_length_a   6.73517781
_cell_length_b   7.65837615
_cell_length_c   7.95337003
_cell_angle_alpha   111.13377310
_cell_angle_beta   139.98477412
_cell_angle_gamma   89.61754976
_symmetry_Int_Tables_number   1
_chemical_formula_structural   Al(HO)3
_chemical_formula_sum   'Al4 H12 O12'
_cell_volume   219.80754525
_cell_formula_units_Z   4
loop_
 _symmetry_equiv_pos_site_id
 _symmetry_equiv_pos_as_xyz
  1  'x, y, z'
loop_
 _atom_site_type_symbol
 _atom_site_label
 _atom_site_symmetry_multiplicity
 _atom_site_fract_x
 _atom_site_fract_y
 _atom_site_fract_z
 _atom_site_occupancy
  Al  Al0  1  0.473132  0.827800  0.309217  1
  Al  Al1  1  0.507871  0.171284  0.676504  1
  Al  Al2  1  0.986527  0.659735  0.656164  1
  Al  Al3  1  0.992707  0.331748  0.330087  1
  H  H4  1  0.972185  0.880081  0.528476  1
  H  H5  1  0.890608  0.954496  0.104080  1
  H  H6  1  0.555176  0.512916  0.889124  1
  H  H7  1  0.407577  0.463048  0.097352  1
  H  H8  1  0.213619  0.706139  0.506104  1
  H  H9  1  0.808408  0.287313  0.510996  1
  H  H10  1  0.336480  0.128826  0.255812  1
  H  H11  1  0.728391  0.928171  0.770641  1
  H  H12  1  0.644763  0.905249  0.143588  1
  H  H13  1  0.339655  0.121288  0.866956  1
  H  H14  1  0.172258  0.391198  0.155592  1
  H  H15  1  0.814246  0.605988  0.838623  1
  O  O16  1  0.970734  0.917223  0.659040  1
  O  O17  1  0.002610  0.065266  0.298596  1
  O  O18  1  0.490157  0.429308  0.714323  1
  O  O19  1  0.485856  0.561308  0.276703  1
  O  O20  1  0.042987  0.608750  0.441289  1
  O  O21  1  0.945475  0.388248  0.547520  1
  O  O22  1  0.527002  0.117295  0.433712  1
  O  O23  1  0.486834  0.892169  0.574867  1
  O  O24  1  0.467118  0.795339  0.059898  1
  O  O25  1  0.516830  0.204451  0.928533  1
  O  O26  1  0.993660  0.285194  0.078220  1
  O  O27  1  0.990817  0.711945  0.915517  1
