# generated using pymatgen
data_Li11Fe3B24(PbO24)2
_symmetry_space_group_name_H-M   'P 1'
_cell_length_a   17.67462480
_cell_length_b   9.57508919
_cell_length_c   9.63363636
_cell_angle_alpha   100.69687937
_cell_angle_beta   56.81060862
_cell_angle_gamma   57.23677660
_symmetry_Int_Tables_number   1
_chemical_formula_structural   Li11Fe3B24(PbO24)2
_chemical_formula_sum   'Li11 Fe3 B24 Pb2 O48'
_cell_volume   836.19534239
_cell_formula_units_Z   1
loop_
 _symmetry_equiv_pos_site_id
 _symmetry_equiv_pos_as_xyz
  1  'x, y, z'
loop_
 _atom_site_type_symbol
 _atom_site_label
 _atom_site_symmetry_multiplicity
 _atom_site_fract_x
 _atom_site_fract_y
 _atom_site_fract_z
 _atom_site_occupancy
  Li  Li0  1  0.112380  0.085242  0.173664  1
  Li  Li1  1  0.216155  0.169987  0.478810  1
  Li  Li2  1  0.300043  0.486514  0.089174  1
  Li  Li3  1  0.194557  0.519840  0.918217  1
  Li  Li4  1  0.283212  0.831157  0.520395  1
  Li  Li5  1  0.386604  0.916504  0.828121  1
  Li  Li6  1  0.714086  0.176311  0.485784  1
  Li  Li7  1  0.804768  0.476914  0.083043  1
  Li  Li8  1  0.696838  0.517955  0.913631  1
  Li  Li9  1  0.787386  0.823625  0.516287  1
  Li  Li10  1  0.895676  0.911162  0.816009  1
  Fe  Fe11  1  0.000763  0.001588  0.001040  1
  Fe  Fe12  1  0.496661  0.000705  0.995375  1
  Fe  Fe13  1  0.612513  0.085207  0.172889  1
  B  B14  1  0.037351  0.012237  0.665511  1
  B  B15  1  0.097557  0.386926  0.135805  1
  B  B16  1  0.014996  0.718173  0.387713  1
  B  B17  1  0.203519  0.332901  0.247031  1
  B  B18  1  0.049933  0.246876  0.987115  1
  B  B19  1  0.266178  0.136145  0.719002  1
  B  B20  1  0.233809  0.863086  0.281291  1
  B  B21  1  0.450148  0.753973  0.013947  1
  B  B22  1  0.296634  0.668156  0.751944  1
  B  B23  1  0.536695  0.012980  0.664929  1
  B  B24  1  0.479934  0.290222  0.621100  1
  B  B25  1  0.599068  0.388209  0.133925  1
  B  B26  1  0.402210  0.613982  0.865401  1
  B  B27  1  0.514748  0.717542  0.388531  1
  B  B28  1  0.463297  0.987343  0.337671  1
  B  B29  1  0.702841  0.331306  0.249520  1
  B  B30  1  0.549740  0.242706  0.980676  1
  B  B31  1  0.767697  0.135595  0.716899  1
  B  B32  1  0.740175  0.854036  0.277578  1
  B  B33  1  0.951015  0.753715  0.013082  1
  B  B34  1  0.793332  0.669052  0.753366  1
  B  B35  1  0.985475  0.280488  0.611644  1
  B  B36  1  0.907794  0.605546  0.864051  1
  B  B37  1  0.963363  0.987365  0.333845  1
  Pb  Pb38  1  0.232423  0.523584  0.516451  1
  Pb  Pb39  1  0.754573  0.489353  0.492933  1
  O  O40  1  0.031018  0.327926  0.153114  1
  O  O41  1  0.108699  0.077089  0.375088  1
  O  O42  1  0.190126  0.243590  0.145569  1
  O  O43  1  0.016573  0.377303  0.667337  1
  O  O44  1  0.066043  0.769561  0.244115  1
  O  O45  1  0.139058  0.545662  0.331875  1
  O  O46  1  0.285742  0.216933  0.262449  1
  O  O47  1  0.164800  0.144901  0.768748  1
  O  O48  1  0.002523  0.947473  0.781355  1
  O  O49  1  0.317227  0.152644  0.541091  1
  O  O50  1  0.314712  0.667678  0.075978  1
  O  O51  1  0.450279  0.264688  0.051439  1
  O  O52  1  0.049658  0.734337  0.947144  1
  O  O53  1  0.185883  0.330938  0.922489  1
  O  O54  1  0.184404  0.845441  0.456080  1
  O  O55  1  0.503108  0.052788  0.221626  1
  O  O56  1  0.335747  0.853495  0.230691  1
  O  O57  1  0.216034  0.780736  0.734000  1
  O  O58  1  0.539019  0.310718  0.144485  1
  O  O59  1  0.363295  0.452562  0.663717  1
  O  O60  1  0.434403  0.229683  0.751628  1
  O  O61  1  0.610943  0.075188  0.369475  1
  O  O62  1  0.483095  0.623762  0.330708  1
  O  O63  1  0.309300  0.756964  0.855786  1
  O  O64  1  0.687720  0.239781  0.148896  1
  O  O65  1  0.517221  0.373792  0.667658  1
  O  O66  1  0.391822  0.921855  0.624678  1
  O  O67  1  0.567109  0.768619  0.243743  1
  O  O68  1  0.641322  0.539724  0.324920  1
  O  O69  1  0.469671  0.670932  0.846564  1
  O  O70  1  0.784255  0.215896  0.264812  1
  O  O71  1  0.663219  0.148492  0.769061  1
  O  O72  1  0.502888  0.948888  0.779147  1
  O  O73  1  0.815988  0.153756  0.544509  1
  O  O74  1  0.815644  0.665879  0.076491  1
  O  O75  1  0.950571  0.265571  0.051798  1
  O  O76  1  0.546806  0.740576  0.952657  1
  O  O77  1  0.685317  0.331862  0.924478  1
  O  O78  1  0.684179  0.848319  0.455158  1
  O  O79  1  0.996361  0.053355  0.219334  1
  O  O80  1  0.835102  0.855395  0.230961  1
  O  O81  1  0.711512  0.788827  0.741899  1
  O  O82  1  0.859941  0.457977  0.671232  1
  O  O83  1  0.934286  0.231015  0.756494  1
  O  O84  1  0.982943  0.625747  0.331839  1
  O  O85  1  0.801014  0.768750  0.867768  1
  O  O86  1  0.890023  0.923923  0.627289  1
  O  O87  1  0.967250  0.674804  0.849224  1
