# generated using pymatgen
data_CsLiSO4
_symmetry_space_group_name_H-M   'P 1'
_cell_length_a   5.49866167
_cell_length_b   9.16010151
_cell_length_c   9.49127691
_cell_angle_alpha   90.00000000
_cell_angle_beta   90.25737082
_cell_angle_gamma   90.00000000
_symmetry_Int_Tables_number   1
_chemical_formula_structural   CsLiSO4
_chemical_formula_sum   'Cs4 Li4 S4 O16'
_cell_volume   478.05465105
_cell_formula_units_Z   4
loop_
 _symmetry_equiv_pos_site_id
 _symmetry_equiv_pos_as_xyz
  1  'x, y, z'
loop_
 _atom_site_type_symbol
 _atom_site_label
 _atom_site_symmetry_multiplicity
 _atom_site_fract_x
 _atom_site_fract_y
 _atom_site_fract_z
 _atom_site_occupancy
  Li  Li0  1  0.746218  0.825303  0.085866  1
  Li  Li1  1  0.753782  0.325303  0.414134  1
  Li  Li2  1  0.253782  0.174697  0.914134  1
  Li  Li3  1  0.246218  0.674697  0.585866  1
  O  O4  1  0.993049  0.754555  0.458032  1
  O  O5  1  0.506951  0.254555  0.041968  1
  O  O6  1  0.006951  0.245445  0.541968  1
  O  O7  1  0.493049  0.745445  0.958032  1
  O  O8  1  0.250773  0.961796  0.905573  1
  O  O9  1  0.249227  0.461796  0.594427  1
  O  O10  1  0.749227  0.038204  0.094427  1
  O  O11  1  0.750773  0.538204  0.405573  1
  O  O12  1  0.067189  0.754247  0.026884  1
  O  O13  1  0.432811  0.254247  0.473116  1
  O  O14  1  0.932811  0.245753  0.973116  1
  O  O15  1  0.567189  0.745753  0.526884  1
  O  O16  1  0.173080  0.735849  0.779131  1
  O  O17  1  0.326920  0.235849  0.720869  1
  O  O18  1  0.826920  0.264151  0.220869  1
  O  O19  1  0.673080  0.764151  0.279131  1
  S  S20  1  0.746227  0.699896  0.417188  1
  S  S21  1  0.753773  0.199896  0.082812  1
  S  S22  1  0.253773  0.300104  0.582812  1
  S  S23  1  0.246227  0.800104  0.917188  1
  Cs  Cs24  1  0.257519  0.500472  0.215490  1
  Cs  Cs25  1  0.242481  0.000472  0.284510  1
  Cs  Cs26  1  0.742481  0.499528  0.784510  1
  Cs  Cs27  1  0.757519  0.999528  0.715490  1
