# generated using pymatgen
data_Ba2Yb2Al4Si3(N5O2)2
_symmetry_space_group_name_H-M   'P 1'
_cell_length_a   7.18355450
_cell_length_b   7.54153745
_cell_length_c   8.25062320
_cell_angle_alpha   101.85349568
_cell_angle_beta   79.53376450
_cell_angle_gamma   124.99474773
_symmetry_Int_Tables_number   1
_chemical_formula_structural   Ba2Yb2Al4Si3(N5O2)2
_chemical_formula_sum   'Ba2 Yb2 Al4 Si3 N10 O4'
_cell_volume   357.21986627
_cell_formula_units_Z   1
loop_
 _symmetry_equiv_pos_site_id
 _symmetry_equiv_pos_as_xyz
  1  'x, y, z'
loop_
 _atom_site_type_symbol
 _atom_site_label
 _atom_site_symmetry_multiplicity
 _atom_site_fract_x
 _atom_site_fract_y
 _atom_site_fract_z
 _atom_site_occupancy
  Yb  Yb0  1  0.355299  0.653503  0.807020  1
  Yb  Yb1  1  0.619813  0.178858  0.209240  1
  Ba  Ba2  1  0.295758  0.613857  0.154511  1
  Ba  Ba3  1  0.652931  0.413548  0.613435  1
  Al  Al4  1  0.666869  0.839790  0.459618  1
  Al  Al5  1  0.318325  0.089296  0.913813  1
  Al  Al6  1  0.724092  0.545692  0.040716  1
  Al  Al7  1  0.799844  0.185035  0.845923  1
  Si  Si8  1  0.268912  0.876348  0.500144  1
  Si  Si9  1  0.035347  0.963967  0.197597  1
  Si  Si10  1  0.147782  0.431539  0.499088  1
  N  N11  1  0.202598  0.977434  0.348987  1
  N  N12  1  0.905445  0.437622  0.008652  1
  N  N13  1  0.501881  -0.001259  0.948427  1
  N  N14  1  0.308711  0.202892  0.382590  1
  N  N15  1  0.147541  0.234931  0.338207  1
  N  N16  1  0.455295  0.391647  0.940662  1
  N  N17  1  0.755709  0.755555  0.233407  1
  N  N18  1  0.551579  0.991755  0.434740  1
  N  N19  1  0.082924  0.596367  0.452111  1
  N  N20  1  0.785304  0.936323  0.690808  1
  O  O21  1  0.240282  -0.027299  0.696395  1
  O  O22  1  0.424228  0.582470  0.536115  1
  O  O23  1  0.739903  0.780722  0.780273  1
  O  O24  1  0.013628  0.349406  0.679419  1
