# generated using pymatgen
data_RbCS(OF)3
_symmetry_space_group_name_H-M   'P 1'
_cell_length_a   5.28575807
_cell_length_b   5.86024040
_cell_length_c   10.58239213
_cell_angle_alpha   90.00000000
_cell_angle_beta   103.59067241
_cell_angle_gamma   90.00000000
_symmetry_Int_Tables_number   1
_chemical_formula_structural   RbCS(OF)3
_chemical_formula_sum   'Rb2 C2 S2 O6 F6'
_cell_volume   318.61960999
_cell_formula_units_Z   2
loop_
 _symmetry_equiv_pos_site_id
 _symmetry_equiv_pos_as_xyz
  1  'x, y, z'
loop_
 _atom_site_type_symbol
 _atom_site_label
 _atom_site_symmetry_multiplicity
 _atom_site_fract_x
 _atom_site_fract_y
 _atom_site_fract_z
 _atom_site_occupancy
  C  C0  1  0.378813  0.933510  0.648044  1
  C  C1  1  0.621187  0.433510  0.351956  1
  O  O2  1  0.625759  0.990918  0.891977  1
  O  O3  1  0.521872  0.596486  0.814298  1
  O  O4  1  0.478128  0.096486  0.185702  1
  O  O5  1  0.374241  0.490918  0.108023  1
  O  O6  1  0.174023  0.851853  0.846956  1
  O  O7  1  0.825977  0.351853  0.153044  1
  F  F8  1  0.210668  0.796461  0.565414  1
  F  F9  1  0.393976  0.440176  0.390435  1
  F  F10  1  0.789332  0.296461  0.434586  1
  F  F11  1  0.606024  0.940176  0.609565  1
  F  F12  1  0.277327  0.148997  0.637015  1
  F  F13  1  0.722673  0.648997  0.362985  1
  S  S14  1  0.567554  0.331262  0.180061  1
  S  S15  1  0.432446  0.831262  0.819939  1
  Rb  Rb16  1  0.008639  0.347737  0.856132  1
  Rb  Rb17  1  0.991361  0.847737  0.143868  1
