# generated using pymatgen
data_Ba7U7O24
_symmetry_space_group_name_H-M   'P 1'
_cell_length_a   6.22129559
_cell_length_b   12.45027976
_cell_length_c   10.73593554
_cell_angle_alpha   54.24471180
_cell_angle_beta   89.88623898
_cell_angle_gamma   89.91196725
_symmetry_Int_Tables_number   1
_chemical_formula_structural   Ba7U7O24
_chemical_formula_sum   'Ba7 U7 O24'
_cell_volume   674.83592816
_cell_formula_units_Z   1
loop_
 _symmetry_equiv_pos_site_id
 _symmetry_equiv_pos_as_xyz
  1  'x, y, z'
loop_
 _atom_site_type_symbol
 _atom_site_label
 _atom_site_symmetry_multiplicity
 _atom_site_fract_x
 _atom_site_fract_y
 _atom_site_fract_z
 _atom_site_occupancy
  Ba  Ba0  1  0.009851  0.368413  0.230715  1
  Ba  Ba1  1  0.005061  0.902234  0.237066  1
  Ba  Ba2  1  0.476824  0.354512  0.781748  1
  Ba  Ba3  1  0.524417  0.145060  0.222596  1
  Ba  Ba4  1  0.509116  0.622519  0.263709  1
  Ba  Ba5  1  0.988341  0.136945  0.759488  1
  Ba  Ba6  1  0.993277  0.604915  0.762579  1
  U  U7  1  0.499518  0.244201  0.502279  1
  U  U8  1  0.497972  0.988560  0.995007  1
  U  U9  1  0.499711  0.754486  0.500601  1
  U  U10  1  0.501047  0.514146  0.996085  1
  U  U11  1  0.999790  0.500647  0.496595  1
  U  U12  1  0.001204  0.754812  0.993894  1
  U  U13  1  0.001948  -0.002036  0.508392  1
  O  O14  1  0.991869  0.086634  0.284044  1
  O  O15  1  0.994702  0.585878  0.257376  1
  O  O16  1  0.261074  0.114267  0.962379  1
  O  O17  1  0.248323  0.349125  0.541878  1
  O  O18  1  0.227327  0.850208  0.523060  1
  O  O19  1  0.223805  0.634540  0.972907  1
  O  O20  1  0.286751  0.377486  0.028845  1
  O  O21  1  0.256952  0.152253  0.448359  1
  O  O22  1  0.248476  0.839090  0.054721  1
  O  O23  1  0.263363  0.638007  0.467858  1
  O  O24  1  0.505730  0.089385  0.740377  1
  O  O25  1  0.506642  0.595663  0.742994  1
  O  O26  1  0.494853  0.411227  0.258857  1
  O  O27  1  0.494550  0.904480  0.252976  1
  O  O28  1  0.734579  0.356476  0.542158  1
  O  O29  1  0.715607  0.123005  0.964305  1
  O  O30  1  0.754306  0.859805  0.520675  1
  O  O31  1  0.757504  0.644638  0.973848  1
  O  O32  1  0.758088  0.157323  0.451720  1
  O  O33  1  0.735445  0.386435  0.029866  1
  O  O34  1  0.755712  0.647669  0.465009  1
  O  O35  1  0.766456  0.849584  0.050576  1
  O  O36  1  0.009178  0.416756  0.719653  1
  O  O37  1  0.004832  0.918303  0.744806  1
