# generated using pymatgen
data_Na2Cu3(SiO3)4
_symmetry_space_group_name_H-M   'P 1'
_cell_length_a   7.62885747
_cell_length_b   10.40484904
_cell_length_c   13.72625861
_cell_angle_alpha   90.00000000
_cell_angle_beta   90.00000000
_cell_angle_gamma   90.00000000
_symmetry_Int_Tables_number   1
_chemical_formula_structural   Na2Cu3(SiO3)4
_chemical_formula_sum   'Na8 Cu12 Si16 O48'
_cell_volume   1089.55074401
_cell_formula_units_Z   4
loop_
 _symmetry_equiv_pos_site_id
 _symmetry_equiv_pos_as_xyz
  1  'x, y, z'
loop_
 _atom_site_type_symbol
 _atom_site_label
 _atom_site_symmetry_multiplicity
 _atom_site_fract_x
 _atom_site_fract_y
 _atom_site_fract_z
 _atom_site_occupancy
  Na  Na0  1  0.039353  0.750000  0.168082  1
  Na  Na1  1  0.188008  0.750000  0.483624  1
  Na  Na2  1  0.460647  0.250000  0.668082  1
  Na  Na3  1  0.811992  0.250000  0.516376  1
  Na  Na4  1  0.311992  0.250000  0.983624  1
  Na  Na5  1  0.539353  0.750000  0.331918  1
  Na  Na6  1  0.960647  0.250000  0.831918  1
  Na  Na7  1  0.688008  0.750000  0.016376  1
  Cu  Cu8  1  0.265668  0.250000  0.218447  1
  Cu  Cu9  1  0.252575  0.750000  0.942947  1
  Cu  Cu10  1  0.747425  0.250000  0.057053  1
  Cu  Cu11  1  0.247425  0.250000  0.442947  1
  Cu  Cu12  1  0.000000  0.500000  0.000000  1
  Cu  Cu13  1  0.752575  0.750000  0.557053  1
  Cu  Cu14  1  0.734332  0.750000  0.781553  1
  Cu  Cu15  1  0.500000  0.500000  0.500000  1
  Cu  Cu16  1  0.500000  0.000000  0.500000  1
  Cu  Cu17  1  0.765668  0.250000  0.281553  1
  Cu  Cu18  1  0.000000  0.000000  0.000000  1
  Cu  Cu19  1  0.234332  0.750000  0.718447  1
  Si  Si20  1  0.819749  0.969051  0.376172  1
  Si  Si21  1  0.279339  0.475186  0.837564  1
  Si  Si22  1  0.319749  0.969051  0.123828  1
  Si  Si23  1  0.720661  0.524814  0.162436  1
  Si  Si24  1  0.680251  0.030949  0.876172  1
  Si  Si25  1  0.319749  0.530949  0.123828  1
  Si  Si26  1  0.779339  0.475186  0.662436  1
  Si  Si27  1  0.220661  0.975186  0.337564  1
  Si  Si28  1  0.279339  0.024814  0.837564  1
  Si  Si29  1  0.220661  0.524814  0.337564  1
  Si  Si30  1  0.180251  0.469051  0.623828  1
  Si  Si31  1  0.819749  0.530949  0.376172  1
  Si  Si32  1  0.720661  0.975186  0.162436  1
  Si  Si33  1  0.779339  0.024814  0.662436  1
  Si  Si34  1  0.180251  0.030949  0.623828  1
  Si  Si35  1  0.680251  0.469051  0.876172  1
  O  O36  1  0.790440  0.377774  0.381479  1
  O  O37  1  0.971552  0.425830  0.619650  1
  O  O38  1  0.735400  0.132071  0.170337  1
  O  O39  1  0.736476  0.911192  0.272907  1
  O  O40  1  0.235400  0.367929  0.329663  1
  O  O41  1  0.236476  0.588808  0.227093  1
  O  O42  1  0.709560  0.877774  0.881479  1
  O  O43  1  0.217307  0.607264  0.034959  1
  O  O44  1  0.709560  0.622226  0.881479  1
  O  O45  1  0.869744  0.907802  0.096031  1
  O  O46  1  0.236476  0.911192  0.227093  1
  O  O47  1  0.528448  0.574170  0.119650  1
  O  O48  1  0.736476  0.588808  0.272907  1
  O  O49  1  0.264600  0.632071  0.829663  1
  O  O50  1  0.471552  0.074170  0.880350  1
  O  O51  1  0.869744  0.592198  0.096031  1
  O  O52  1  0.630256  0.092198  0.596031  1
  O  O53  1  0.290440  0.377774  0.118521  1
  O  O54  1  0.764600  0.632071  0.670337  1
  O  O55  1  0.130256  0.407802  0.903969  1
  O  O56  1  0.235400  0.132071  0.329663  1
  O  O57  1  0.763524  0.088808  0.772907  1
  O  O58  1  0.217307  0.892736  0.034959  1
  O  O59  1  0.028448  0.574170  0.380350  1
  O  O60  1  0.717307  0.607264  0.465041  1
  O  O61  1  0.782693  0.392736  0.965041  1
  O  O62  1  0.369744  0.907802  0.403969  1
  O  O63  1  0.763524  0.411192  0.772907  1
  O  O64  1  0.209560  0.622226  0.618521  1
  O  O65  1  0.263524  0.088808  0.727093  1
  O  O66  1  0.971552  0.074170  0.619650  1
  O  O67  1  0.282693  0.107264  0.534959  1
  O  O68  1  0.264600  0.867929  0.829663  1
  O  O69  1  0.369744  0.592198  0.403969  1
  O  O70  1  0.263524  0.411192  0.727093  1
  O  O71  1  0.764600  0.867929  0.670337  1
  O  O72  1  0.130256  0.092198  0.903969  1
  O  O73  1  0.290440  0.122226  0.118521  1
  O  O74  1  0.782693  0.107264  0.965041  1
  O  O75  1  0.630256  0.407802  0.596031  1
  O  O76  1  0.028448  0.925830  0.380350  1
  O  O77  1  0.790440  0.122226  0.381479  1
  O  O78  1  0.282693  0.392736  0.534959  1
  O  O79  1  0.471552  0.425830  0.880350  1
  O  O80  1  0.717307  0.892736  0.465041  1
  O  O81  1  0.735400  0.367929  0.170337  1
  O  O82  1  0.528448  0.925830  0.119650  1
  O  O83  1  0.209560  0.877774  0.618521  1
