# generated using pymatgen
data_TiTlWO5F
_symmetry_space_group_name_H-M   'P 1'
_cell_length_a   7.47754363
_cell_length_b   7.33643957
_cell_length_c   7.33644039
_cell_angle_alpha   60.28290969
_cell_angle_beta   59.36170305
_cell_angle_gamma   59.36170487
_symmetry_Int_Tables_number   1
_chemical_formula_structural   TiTlWO5F
_chemical_formula_sum   'Ti2 Tl2 W2 O10 F2'
_cell_volume   282.39570218
_cell_formula_units_Z   2
loop_
 _symmetry_equiv_pos_site_id
 _symmetry_equiv_pos_as_xyz
  1  'x, y, z'
loop_
 _atom_site_type_symbol
 _atom_site_label
 _atom_site_symmetry_multiplicity
 _atom_site_fract_x
 _atom_site_fract_y
 _atom_site_fract_z
 _atom_site_occupancy
  Ti  Ti0  1  0.984171  0.015200  0.015200  1
  Ti  Ti1  1  0.514571  0.984800  0.984800  1
  Tl  Tl2  1  0.446293  0.396096  0.396096  1
  Tl  Tl3  1  0.738484  0.603904  0.603904  1
  W  W4  1  0.013082  1.000000  0.500000  1
  W  W5  1  0.013082  0.500000  0.000000  1
  O  O6  1  0.047847  0.061970  0.693748  1
  O  O7  1  0.047847  0.693748  0.061970  1
  O  O8  1  0.059603  0.683628  0.683628  1
  O  O9  1  0.303564  0.306252  0.938030  1
  O  O10  1  0.303564  0.938030  0.306252  1
  O  O11  1  0.686669  0.058128  0.687358  1
  O  O12  1  0.686669  0.687358  0.058128  1
  O  O13  1  0.926859  0.316372  0.316372  1
  O  O14  1  0.932155  0.312642  0.941872  1
  O  O15  1  0.932155  0.941872  0.312642  1
  F  F16  1  0.673098  0.068594  0.068594  1
  F  F17  1  0.310285  0.931406  0.931406  1
