# generated using pymatgen
data_SrNi2Te3(ClO4)2
_symmetry_space_group_name_H-M   'P 1'
_cell_length_a   6.73647086
_cell_length_b   9.00891385
_cell_length_c   18.49045530
_cell_angle_alpha   90.00000000
_cell_angle_beta   92.12608687
_cell_angle_gamma   90.00000000
_symmetry_Int_Tables_number   1
_chemical_formula_structural   SrNi2Te3(ClO4)2
_chemical_formula_sum   'Sr4 Ni8 Te12 Cl8 O32'
_cell_volume   1121.38154903
_cell_formula_units_Z   4
loop_
 _symmetry_equiv_pos_site_id
 _symmetry_equiv_pos_as_xyz
  1  'x, y, z'
loop_
 _atom_site_type_symbol
 _atom_site_label
 _atom_site_symmetry_multiplicity
 _atom_site_fract_x
 _atom_site_fract_y
 _atom_site_fract_z
 _atom_site_occupancy
  Sr  Sr0  1  0.259651  0.411650  0.276567  1
  Sr  Sr1  1  0.740349  0.588350  0.723433  1
  Sr  Sr2  1  0.240349  0.911650  0.223433  1
  Sr  Sr3  1  0.759651  0.088350  0.776567  1
  Ni  Ni4  1  0.102919  0.251655  0.680152  1
  Ni  Ni5  1  0.397081  0.751655  0.819848  1
  Ni  Ni6  1  0.364586  0.959348  0.680114  1
  Ni  Ni7  1  0.635414  0.040652  0.319886  1
  Ni  Ni8  1  0.897081  0.748345  0.319848  1
  Ni  Ni9  1  0.602919  0.248345  0.180152  1
  Ni  Ni10  1  0.135414  0.459348  0.819886  1
  Ni  Ni11  1  0.864586  0.540652  0.180114  1
  Te  Te12  1  0.769662  0.394159  0.364904  1
  Te  Te13  1  0.100764  0.074427  0.392538  1
  Te  Te14  1  0.600764  0.425573  0.892538  1
  Te  Te15  1  0.930412  0.776166  0.887769  1
  Te  Te16  1  0.899236  0.925573  0.607462  1
  Te  Te17  1  0.569588  0.276166  0.612231  1
  Te  Te18  1  0.230338  0.605841  0.635096  1
  Te  Te19  1  0.399236  0.574427  0.107462  1
  Te  Te20  1  0.069588  0.223834  0.112231  1
  Te  Te21  1  0.730338  0.894159  0.135096  1
  Te  Te22  1  0.430412  0.723834  0.387769  1
  Te  Te23  1  0.269662  0.105841  0.864904  1
  Cl  Cl24  1  0.312021  0.905490  0.551844  1
  Cl  Cl25  1  0.390486  0.797997  0.949237  1
  Cl  Cl26  1  0.687979  0.094510  0.448156  1
  Cl  Cl27  1  0.812021  0.594510  0.051844  1
  Cl  Cl28  1  0.187979  0.405490  0.948156  1
  Cl  Cl29  1  0.890486  0.702003  0.449237  1
  Cl  Cl30  1  0.609514  0.202003  0.050763  1
  Cl  Cl31  1  0.109514  0.297997  0.550763  1
  O  O32  1  0.005392  0.019720  0.129485  1
  O  O33  1  0.673243  0.944411  0.664554  1
  O  O34  1  0.994608  0.980280  0.870515  1
  O  O35  1  0.437979  0.521113  0.819713  1
  O  O36  1  0.289378  0.213720  0.179308  1
  O  O37  1  0.125937  0.231260  0.797995  1
  O  O38  1  0.625937  0.268740  0.297995  1
  O  O39  1  0.598800  0.811018  0.320147  1
  O  O40  1  0.874063  0.768740  0.202005  1
  O  O41  1  0.789378  0.286280  0.679308  1
  O  O42  1  0.117793  0.475664  0.704379  1
  O  O43  1  0.062021  0.021113  0.680287  1
  O  O44  1  0.710622  0.786280  0.820692  1
  O  O45  1  0.458741  0.771323  0.142359  1
  O  O46  1  0.374063  0.731260  0.702005  1
  O  O47  1  0.617793  0.024336  0.204378  1
  O  O48  1  0.382207  0.975664  0.795621  1
  O  O49  1  0.958741  0.728677  0.642359  1
  O  O50  1  0.937979  0.978887  0.319713  1
  O  O51  1  0.826757  0.444411  0.835446  1
  O  O52  1  0.562021  0.478887  0.180287  1
  O  O53  1  0.901200  0.311018  0.179853  1
  O  O54  1  0.326757  0.055589  0.335446  1
  O  O55  1  0.173243  0.555589  0.164554  1
  O  O56  1  0.041259  0.271323  0.357641  1
  O  O57  1  0.210622  0.713720  0.320692  1
  O  O58  1  0.505392  0.480280  0.629485  1
  O  O59  1  0.494608  0.519720  0.370515  1
  O  O60  1  0.098800  0.688982  0.820147  1
  O  O61  1  0.541259  0.228677  0.857641  1
  O  O62  1  0.401200  0.188982  0.679853  1
  O  O63  1  0.882207  0.524336  0.295621  1
