# generated using pymatgen
data_Rb3P11
_symmetry_space_group_name_H-M   'P 1'
_cell_length_a   4.18983153
_cell_length_b   4.18983154
_cell_length_c   49.77394327
_cell_angle_alpha   70.32351663
_cell_angle_beta   70.32351651
_cell_angle_gamma   60.00000017
_symmetry_Int_Tables_number   1
_chemical_formula_structural   Rb3P11
_chemical_formula_sum   'Rb6 P22'
_cell_volume   697.16850370
_cell_formula_units_Z   2
loop_
 _symmetry_equiv_pos_site_id
 _symmetry_equiv_pos_as_xyz
  1  'x, y, z'
loop_
 _atom_site_type_symbol
 _atom_site_label
 _atom_site_symmetry_multiplicity
 _atom_site_fract_x
 _atom_site_fract_y
 _atom_site_fract_z
 _atom_site_occupancy
  Rb  Rb0  1  0.102401  0.102401  0.211600  1
  Rb  Rb1  1  0.990595  0.990595  0.378527  1
  Rb  Rb2  1  0.947979  0.947979  0.519508  1
  Rb  Rb3  1  0.052021  0.052021  0.605492  1
  Rb  Rb4  1  0.009404  0.009404  0.746473  1
  Rb  Rb5  1  0.897599  0.897599  0.913400  1
  P  P6  1  0.239767  0.239767  0.035087  1
  P  P7  1  0.434740  0.434740  0.086972  1
  P  P8  1  0.760233  0.760233  0.089913  1
  P  P9  1  0.628676  0.628676  0.139246  1
  P  P10  1  0.275882  0.275882  0.271544  1
  P  P11  1  0.932307  0.932307  0.150385  1
  P  P12  1  0.593526  0.593526  0.277428  1
  P  P13  1  0.464479  0.464479  0.325820  1
  P  P14  1  0.835597  0.835597  0.311651  1
  P  P15  1  0.528392  0.528392  0.426853  1
  P  P16  1  0.402785  0.402785  0.473956  1
  P  P17  1  0.793751  0.793751  0.452344  1
  P  P18  1  0.206249  0.206249  0.672656  1
  P  P19  1  0.597215  0.597215  0.651044  1
  P  P20  1  0.471608  0.471608  0.698147  1
  P  P21  1  0.164403  0.164403  0.813349  1
  P  P22  1  0.535521  0.535521  0.799180  1
  P  P23  1  0.406474  0.406474  0.847572  1
  P  P24  1  0.067693  0.067693  0.974615  1
  P  P25  1  0.724118  0.724118  0.853456  1
  P  P26  1  0.371324  0.371324  0.985754  1
  P  P27  1  0.565260  0.565260  0.038028  1
