# generated using pymatgen
data_SiO2
_symmetry_space_group_name_H-M   'P 1'
_cell_length_a   10.06922521
_cell_length_b   10.06922521
_cell_length_c   34.48404515
_cell_angle_alpha   90.00000000
_cell_angle_beta   90.00000000
_cell_angle_gamma   90.00000000
_symmetry_Int_Tables_number   1
_chemical_formula_structural   SiO2
_chemical_formula_sum   'Si60 O120'
_cell_volume   3496.31307236
_cell_formula_units_Z   60
loop_
 _symmetry_equiv_pos_site_id
 _symmetry_equiv_pos_as_xyz
  1  'x, y, z'
loop_
 _atom_site_type_symbol
 _atom_site_label
 _atom_site_symmetry_multiplicity
 _atom_site_fract_x
 _atom_site_fract_y
 _atom_site_fract_z
 _atom_site_occupancy
  Si  Si0  1  0.099317  0.701565  0.903227  1
  Si  Si1  1  0.798435  0.099317  0.403227  1
  Si  Si2  1  0.701565  0.400683  0.403227  1
  Si  Si3  1  0.599317  0.298435  0.596773  1
  Si  Si4  1  0.900683  0.201565  0.596773  1
  Si  Si5  1  0.400683  0.798435  0.903227  1
  Si  Si6  1  0.201565  0.599317  0.096773  1
  Si  Si7  1  0.298435  0.900683  0.096773  1
  Si  Si8  1  0.900683  0.298435  0.096773  1
  Si  Si9  1  0.201565  0.900683  0.596773  1
  Si  Si10  1  0.298435  0.599317  0.596773  1
  Si  Si11  1  0.400683  0.701565  0.403227  1
  Si  Si12  1  0.099317  0.798435  0.403227  1
  Si  Si13  1  0.599317  0.201565  0.096773  1
  Si  Si14  1  0.798435  0.400683  0.903227  1
  Si  Si15  1  0.701565  0.099317  0.903227  1
  Si  Si16  1  0.045867  0.045867  0.457241  1
  Si  Si17  1  0.454133  0.045867  0.957241  1
  Si  Si18  1  0.045867  0.454133  0.957241  1
  Si  Si19  1  0.545867  0.954133  0.042759  1
  Si  Si20  1  0.954133  0.545867  0.042759  1
  Si  Si21  1  0.454133  0.454133  0.457241  1
  Si  Si22  1  0.545867  0.545867  0.542759  1
  Si  Si23  1  0.954133  0.954133  0.542759  1
  Si  Si24  1  0.095115  0.095115  0.272183  1
  Si  Si25  1  0.404885  0.095115  0.772183  1
  Si  Si26  1  0.095115  0.404885  0.772183  1
  Si  Si27  1  0.595115  0.904885  0.227817  1
  Si  Si28  1  0.904885  0.595115  0.227817  1
  Si  Si29  1  0.404885  0.404885  0.272183  1
  Si  Si30  1  0.595115  0.595115  0.727817  1
  Si  Si31  1  0.904885  0.904885  0.727817  1
  Si  Si32  1  0.108626  0.108626  0.745886  1
  Si  Si33  1  0.391374  0.108626  0.245886  1
  Si  Si34  1  0.108626  0.391374  0.245886  1
  Si  Si35  1  0.608626  0.891374  0.754114  1
  Si  Si36  1  0.891374  0.608626  0.754114  1
  Si  Si37  1  0.391374  0.391374  0.745886  1
  Si  Si38  1  0.608626  0.608626  0.254114  1
  Si  Si39  1  0.891374  0.891374  0.254114  1
  Si  Si40  1  0.955134  0.955134  0.336498  1
  Si  Si41  1  0.544866  0.955134  0.836498  1
  Si  Si42  1  0.955134  0.544866  0.836498  1
  Si  Si43  1  0.455134  0.044866  0.163502  1
  Si  Si44  1  0.044866  0.455134  0.163502  1
  Si  Si45  1  0.544866  0.544866  0.336498  1
  Si  Si46  1  0.455134  0.455134  0.663502  1
  Si  Si47  1  0.044866  0.044866  0.663502  1
  Si  Si48  1  0.144080  0.144080  0.065183  1
  Si  Si49  1  0.355920  0.144080  0.565183  1
  Si  Si50  1  0.144080  0.355920  0.565183  1
  Si  Si51  1  0.644080  0.855920  0.434817  1
  Si  Si52  1  0.855920  0.644080  0.434817  1
  Si  Si53  1  0.355920  0.355920  0.065183  1
  Si  Si54  1  0.644080  0.644080  0.934817  1
  Si  Si55  1  0.855920  0.855920  0.934817  1
  Si  Si56  1  0.250000  0.250000  0.489790  1
  Si  Si57  1  0.250000  0.250000  0.989790  1
  Si  Si58  1  0.750000  0.750000  0.010210  1
  Si  Si59  1  0.750000  0.750000  0.510210  1
  O  O60  1  0.006017  0.819745  0.921067  1
  O  O61  1  0.680255  0.006017  0.421067  1
  O  O62  1  0.819745  0.493983  0.421067  1
  O  O63  1  0.506017  0.180255  0.578933  1
  O  O64  1  0.993983  0.319745  0.578933  1
  O  O65  1  0.493983  0.680255  0.921067  1
  O  O66  1  0.319745  0.506017  0.078933  1
  O  O67  1  0.180255  0.993983  0.078933  1
  O  O68  1  0.993983  0.180255  0.078933  1
  O  O69  1  0.319745  0.993983  0.578933  1
  O  O70  1  0.180255  0.506017  0.578933  1
  O  O71  1  0.493983  0.819745  0.421067  1
  O  O72  1  0.006017  0.680255  0.421067  1
  O  O73  1  0.506017  0.319745  0.078933  1
  O  O74  1  0.680255  0.493983  0.921067  1
  O  O75  1  0.819745  0.006017  0.921067  1
  O  O76  1  0.034930  0.652502  0.862437  1
  O  O77  1  0.847498  0.034930  0.362437  1
  O  O78  1  0.652502  0.465070  0.362437  1
  O  O79  1  0.534930  0.347498  0.637563  1
  O  O80  1  0.965070  0.152502  0.637563  1
  O  O81  1  0.465070  0.847498  0.862437  1
  O  O82  1  0.152502  0.534930  0.137563  1
  O  O83  1  0.347498  0.965070  0.137563  1
  O  O84  1  0.965070  0.347498  0.137563  1
  O  O85  1  0.152502  0.965070  0.637563  1
  O  O86  1  0.347498  0.534930  0.637563  1
  O  O87  1  0.465070  0.652502  0.362437  1
  O  O88  1  0.034930  0.847498  0.362437  1
  O  O89  1  0.534930  0.152502  0.137563  1
  O  O90  1  0.847498  0.465070  0.862437  1
  O  O91  1  0.652502  0.034930  0.862437  1
  O  O92  1  0.106240  0.579574  0.933866  1
  O  O93  1  0.920426  0.106240  0.433866  1
  O  O94  1  0.579574  0.393760  0.433866  1
  O  O95  1  0.606240  0.420426  0.566134  1
  O  O96  1  0.893760  0.079574  0.566134  1
  O  O97  1  0.393760  0.920426  0.933866  1
  O  O98  1  0.079574  0.606240  0.066134  1
  O  O99  1  0.420426  0.893760  0.066134  1
  O  O100  1  0.893760  0.420426  0.066134  1
  O  O101  1  0.079574  0.893760  0.566134  1
  O  O102  1  0.420426  0.606240  0.566134  1
  O  O103  1  0.393760  0.579574  0.433866  1
  O  O104  1  0.106240  0.920426  0.433866  1
  O  O105  1  0.606240  0.079574  0.066134  1
  O  O106  1  0.920426  0.393760  0.933866  1
  O  O107  1  0.579574  0.106240  0.933866  1
  O  O108  1  0.250000  0.750000  0.895319  1
  O  O109  1  0.750000  0.250000  0.395319  1
  O  O110  1  0.750000  0.250000  0.604681  1
  O  O111  1  0.250000  0.750000  0.104681  1
  O  O112  1  0.750000  0.250000  0.104681  1
  O  O113  1  0.250000  0.750000  0.604681  1
  O  O114  1  0.250000  0.750000  0.395319  1
  O  O115  1  0.750000  0.250000  0.895319  1
  O  O116  1  0.159086  0.159086  0.461843  1
  O  O117  1  0.340914  0.159086  0.961843  1
  O  O118  1  0.159086  0.340914  0.961843  1
  O  O119  1  0.659086  0.840914  0.038157  1
  O  O120  1  0.840914  0.659086  0.038157  1
  O  O121  1  0.340914  0.340914  0.461843  1
  O  O122  1  0.659086  0.659086  0.538157  1
  O  O123  1  0.840914  0.840914  0.538157  1
  O  O124  1  0.000000  0.000000  0.500000  1
  O  O125  1  0.500000  0.000000  0.000000  1
  O  O126  1  0.000000  0.500000  0.000000  1
  O  O127  1  0.500000  0.500000  0.500000  1
  O  O128  1  0.003043  0.003043  0.243910  1
  O  O129  1  0.496957  0.003043  0.743910  1
  O  O130  1  0.003043  0.496957  0.743910  1
  O  O131  1  0.503043  0.996957  0.256090  1
  O  O132  1  0.996957  0.503043  0.256090  1
  O  O133  1  0.496957  0.496957  0.243910  1
  O  O134  1  0.503043  0.503043  0.756090  1
  O  O135  1  0.996957  0.996957  0.756090  1
  O  O136  1  0.063234  0.250355  0.264160  1
  O  O137  1  0.249645  0.063234  0.764160  1
  O  O138  1  0.250355  0.436766  0.764160  1
  O  O139  1  0.563234  0.749645  0.235840  1
  O  O140  1  0.936766  0.750355  0.235840  1
  O  O141  1  0.436766  0.249645  0.264160  1
  O  O142  1  0.750355  0.563234  0.735840  1
  O  O143  1  0.749645  0.936766  0.735840  1
  O  O144  1  0.936766  0.749645  0.735840  1
  O  O145  1  0.750355  0.936766  0.235840  1
  O  O146  1  0.749645  0.563234  0.235840  1
  O  O147  1  0.436766  0.250355  0.764160  1
  O  O148  1  0.063234  0.249645  0.764160  1
  O  O149  1  0.563234  0.750355  0.735840  1
  O  O150  1  0.249645  0.436766  0.264160  1
  O  O151  1  0.250355  0.063234  0.264160  1
  O  O152  1  0.060302  0.060302  0.317323  1
  O  O153  1  0.439698  0.060302  0.817323  1
  O  O154  1  0.060302  0.439698  0.817323  1
  O  O155  1  0.560302  0.939698  0.182677  1
  O  O156  1  0.939698  0.560302  0.182677  1
  O  O157  1  0.439698  0.439698  0.317323  1
  O  O158  1  0.560302  0.560302  0.682677  1
  O  O159  1  0.939698  0.939698  0.682677  1
  O  O160  1  0.121645  0.121645  0.698708  1
  O  O161  1  0.378355  0.121645  0.198708  1
  O  O162  1  0.121645  0.378355  0.198708  1
  O  O163  1  0.621645  0.878355  0.801292  1
  O  O164  1  0.878355  0.621645  0.801292  1
  O  O165  1  0.378355  0.378355  0.698708  1
  O  O166  1  0.621645  0.621645  0.301292  1
  O  O167  1  0.878355  0.878355  0.301292  1
  O  O168  1  0.156727  0.156727  0.017887  1
  O  O169  1  0.343273  0.156727  0.517887  1
  O  O170  1  0.156727  0.343273  0.517887  1
  O  O171  1  0.656727  0.843273  0.482113  1
  O  O172  1  0.843273  0.656727  0.482113  1
  O  O173  1  0.343273  0.343273  0.017887  1
  O  O174  1  0.656727  0.656727  0.982113  1
  O  O175  1  0.843273  0.843273  0.982113  1
  O  O176  1  0.250000  0.250000  0.084395  1
  O  O177  1  0.250000  0.250000  0.584395  1
  O  O178  1  0.750000  0.750000  0.415605  1
  O  O179  1  0.750000  0.750000  0.915605  1
