# generated using pymatgen
data_Na2Zn(SiO3)2
_symmetry_space_group_name_H-M   'P 1'
_cell_length_a   5.22045002
_cell_length_b   5.22045001
_cell_length_c   11.41403803
_cell_angle_alpha   102.61109593
_cell_angle_beta   102.61109594
_cell_angle_gamma   92.59483566
_symmetry_Int_Tables_number   1
_chemical_formula_structural   Na2Zn(SiO3)2
_chemical_formula_sum   'Na4 Zn2 Si4 O12'
_cell_volume   294.82545716
_cell_formula_units_Z   2
loop_
 _symmetry_equiv_pos_site_id
 _symmetry_equiv_pos_as_xyz
  1  'x, y, z'
loop_
 _atom_site_type_symbol
 _atom_site_label
 _atom_site_symmetry_multiplicity
 _atom_site_fract_x
 _atom_site_fract_y
 _atom_site_fract_z
 _atom_site_occupancy
  O  O0  1  0.340018  0.133535  0.535888  1
  O  O1  1  0.866465  0.659982  0.464112  1
  O  O2  1  0.652353  0.945870  0.035888  1
  O  O3  1  0.054130  0.347647  0.964112  1
  O  O4  1  0.162406  0.279627  0.740883  1
  O  O5  1  0.720373  0.837594  0.259117  1
  O  O6  1  0.711256  0.328476  0.240883  1
  O  O7  1  0.671524  0.288744  0.759117  1
  O  O8  1  0.409556  0.651787  0.656301  1
  O  O9  1  0.348213  0.590444  0.343699  1
  O  O10  1  0.003255  0.745485  0.843699  1
  O  O11  1  0.254515  0.996745  0.156301  1
  Na  Na12  1  0.820889  0.867227  0.655230  1
  Na  Na13  1  0.132773  0.179111  0.344770  1
  Na  Na14  1  0.038003  0.584341  0.155230  1
  Na  Na15  1  0.415659  0.961997  0.844770  1
  Si  Si16  1  0.392937  0.346399  0.666497  1
  Si  Si17  1  0.653601  0.607063  0.333503  1
  Si  Si18  1  0.570097  0.023560  0.166497  1
  Si  Si19  1  0.976440  0.429903  0.833503  1
  Zn  Zn20  1  0.248569  0.751431  0.500000  1
  Zn  Zn21  1  0.998569  0.001431  0.000000  1
