# generated using pymatgen
data_BaZn(SeO3)2
_symmetry_space_group_name_H-M   'P 1'
_cell_length_a   5.61358557
_cell_length_b   9.52074996
_cell_length_c   14.86582977
_cell_angle_alpha   90.00000000
_cell_angle_beta   90.00000000
_cell_angle_gamma   106.27083992
_symmetry_Int_Tables_number   1
_chemical_formula_structural   BaZn(SeO3)2
_chemical_formula_sum   'Ba4 Zn4 Se8 O24'
_cell_volume   762.69056707
_cell_formula_units_Z   4
loop_
 _symmetry_equiv_pos_site_id
 _symmetry_equiv_pos_as_xyz
  1  'x, y, z'
loop_
 _atom_site_type_symbol
 _atom_site_label
 _atom_site_symmetry_multiplicity
 _atom_site_fract_x
 _atom_site_fract_y
 _atom_site_fract_z
 _atom_site_occupancy
  Ba  Ba0  1  0.670102  0.863377  0.264039  1
  Ba  Ba1  1  0.670102  0.363377  0.235961  1
  Ba  Ba2  1  0.329898  0.136623  0.735961  1
  Ba  Ba3  1  0.329898  0.636623  0.764039  1
  Zn  Zn4  1  0.771409  0.512744  0.574196  1
  Zn  Zn5  1  0.228591  0.487256  0.425804  1
  Zn  Zn6  1  0.228591  0.987256  0.074196  1
  Zn  Zn7  1  0.771409  0.012744  0.925804  1
  Se  Se8  1  0.872948  0.209530  0.549219  1
  Se  Se9  1  0.127052  0.290470  0.049219  1
  Se  Se10  1  0.172019  0.155054  0.365753  1
  Se  Se11  1  0.872948  0.709530  0.950781  1
  Se  Se12  1  0.827981  0.844946  0.634247  1
  Se  Se13  1  0.827981  0.344946  0.865753  1
  Se  Se14  1  0.127052  0.790470  0.450781  1
  Se  Se15  1  0.172019  0.655054  0.134247  1
  O  O16  1  0.669767  0.650479  0.644192  1
  O  O17  1  0.108546  0.507035  0.610101  1
  O  O18  1  0.891454  0.492965  0.389899  1
  O  O19  1  0.648609  0.297845  0.569528  1
  O  O20  1  0.351391  0.702155  0.430472  1
  O  O21  1  0.351391  0.202155  0.069528  1
  O  O22  1  0.330233  0.349521  0.355808  1
  O  O23  1  0.863224  0.137720  0.331885  1
  O  O24  1  0.648609  0.797845  0.930472  1
  O  O25  1  0.904601  0.642717  0.848357  1
  O  O26  1  0.136776  0.862280  0.668115  1
  O  O27  1  0.108546  0.007035  0.889899  1
  O  O28  1  0.904601  0.142717  0.651643  1
  O  O29  1  0.176289  0.398079  0.556492  1
  O  O30  1  0.669767  0.150479  0.855808  1
  O  O31  1  0.095399  0.357283  0.151643  1
  O  O32  1  0.891454  -0.007035  0.110101  1
  O  O33  1  0.136776  0.362280  0.831885  1
  O  O34  1  0.176289  0.898079  0.943508  1
  O  O35  1  0.823711  0.601921  0.443508  1
  O  O36  1  0.823711  0.101921  0.056492  1
  O  O37  1  0.095399  0.857283  0.348357  1
  O  O38  1  0.863224  0.637720  0.168115  1
  O  O39  1  0.330233  0.849521  0.144192  1
