# generated using pymatgen
data_Re2Cl7O3
_symmetry_space_group_name_H-M   'P 1'
_cell_length_a   6.30431651
_cell_length_b   11.10006083
_cell_length_c   16.50662229
_cell_angle_alpha   90.00000000
_cell_angle_beta   94.90981894
_cell_angle_gamma   90.00000000
_symmetry_Int_Tables_number   1
_chemical_formula_structural   Re2Cl7O3
_chemical_formula_sum   'Re8 Cl28 O12'
_cell_volume   1150.86681948
_cell_formula_units_Z   4
loop_
 _symmetry_equiv_pos_site_id
 _symmetry_equiv_pos_as_xyz
  1  'x, y, z'
loop_
 _atom_site_type_symbol
 _atom_site_label
 _atom_site_symmetry_multiplicity
 _atom_site_fract_x
 _atom_site_fract_y
 _atom_site_fract_z
 _atom_site_occupancy
  Re  Re0  1  0.830640  0.084538  0.309332  1
  Re  Re1  1  0.864723  0.660540  0.531894  1
  Re  Re2  1  0.135277  0.339460  0.468106  1
  Re  Re3  1  0.169360  0.915462  0.690668  1
  Re  Re4  1  0.364723  0.839460  0.031894  1
  Re  Re5  1  0.669360  0.584538  0.190668  1
  Re  Re6  1  0.330640  0.415462  0.809332  1
  Re  Re7  1  0.635277  0.160540  0.968106  1
  Cl  Cl8  1  0.276501  0.024787  0.946446  1
  Cl  Cl9  1  0.658306  0.502864  0.842246  1
  Cl  Cl10  1  0.937206  0.725121  0.194435  1
  Cl  Cl11  1  0.730467  0.024133  0.433873  1
  Cl  Cl12  1  0.230467  0.475867  0.933873  1
  Cl  Cl13  1  0.223499  0.524787  0.553554  1
  Cl  Cl14  1  0.776501  0.475213  0.446446  1
  Cl  Cl15  1  0.233736  0.460111  0.366199  1
  Cl  Cl16  1  0.841694  0.002864  0.657754  1
  Cl  Cl17  1  0.562794  0.225121  0.305565  1
  Cl  Cl18  1  0.473569  0.223099  0.078754  1
  Cl  Cl19  1  0.507463  0.705199  0.281173  1
  Cl  Cl20  1  0.973569  0.276901  0.578754  1
  Cl  Cl21  1  0.269533  0.975867  0.566127  1
  Cl  Cl22  1  0.526431  0.776901  0.921246  1
  Cl  Cl23  1  0.769533  0.524133  0.066127  1
  Cl  Cl24  1  0.992537  0.205199  0.218827  1
  Cl  Cl25  1  0.007463  0.794801  0.781173  1
  Cl  Cl26  1  0.437206  0.774879  0.694435  1
  Cl  Cl27  1  0.341694  0.497136  0.157754  1
  Cl  Cl28  1  0.766264  0.539889  0.633801  1
  Cl  Cl29  1  0.723499  0.975213  0.053554  1
  Cl  Cl30  1  0.733736  0.039889  0.866199  1
  Cl  Cl31  1  0.158306  0.997136  0.342246  1
  Cl  Cl32  1  0.026431  0.723099  0.421246  1
  Cl  Cl33  1  0.492537  0.294801  0.718827  1
  Cl  Cl34  1  0.062794  0.274879  0.805565  1
  Cl  Cl35  1  0.266264  0.960111  0.133801  1
  O  O36  1  0.502915  0.263573  0.901706  1
  O  O37  1  0.285078  0.022339  0.752293  1
  O  O38  1  0.214922  0.522339  0.747707  1
  O  O39  1  0.620615  0.722673  0.505005  1
  O  O40  1  0.379385  0.277327  0.494995  1
  O  O41  1  0.002915  0.236427  0.401706  1
  O  O42  1  0.879385  0.222673  0.994995  1
  O  O43  1  0.497085  0.736427  0.098294  1
  O  O44  1  0.120615  0.777327  0.005005  1
  O  O45  1  0.714922  0.977661  0.247707  1
  O  O46  1  0.997085  0.763573  0.598294  1
  O  O47  1  0.785078  0.477661  0.252293  1
