# generated using pymatgen
data_Al(HO)3
_symmetry_space_group_name_H-M   'P 1'
_cell_length_a   5.02405339
_cell_length_b   5.22090499
_cell_length_c   5.20986558
_cell_angle_alpha   69.34561007
_cell_angle_beta   76.46793731
_cell_angle_gamma   58.66995612
_symmetry_Int_Tables_number   1
_chemical_formula_structural   Al(HO)3
_chemical_formula_sum   'Al2 H6 O6'
_cell_volume   109.00742060
_cell_formula_units_Z   2
loop_
 _symmetry_equiv_pos_site_id
 _symmetry_equiv_pos_as_xyz
  1  'x, y, z'
loop_
 _atom_site_type_symbol
 _atom_site_label
 _atom_site_symmetry_multiplicity
 _atom_site_fract_x
 _atom_site_fract_y
 _atom_site_fract_z
 _atom_site_occupancy
  Al  Al0  1  0.668227  0.655935  0.000059  1
  Al  Al1  1  0.352367  0.308778  0.004794  1
  H  H2  1  0.647900  0.120793  0.588562  1
  H  H3  1  0.365301  0.843847  0.404458  1
  H  H4  1  0.039457  0.252485  0.751315  1
  H  H5  1  0.980259  0.547175  0.392915  1
  H  H6  1  0.155947  0.842070  0.807532  1
  H  H7  1  0.846954  0.088436  0.209435  1
  O  O8  1  0.667948  0.045828  0.788438  1
  O  O9  1  0.351853  0.922124  0.203565  1
  O  O10  1  0.023942  0.436689  0.773949  1
  O  O11  1  0.993862  0.547307  0.201844  1
  O  O12  1  0.378100  0.690515  0.787240  1
  O  O13  1  0.642248  0.270502  0.212666  1
