# generated using pymatgen
data_LiH2IO
_symmetry_space_group_name_H-M   'P 1'
_cell_length_a   6.34950625
_cell_length_b   5.67330660
_cell_length_c   4.39002184
_cell_angle_alpha   90.00000000
_cell_angle_beta   90.00000000
_cell_angle_gamma   90.18648392
_symmetry_Int_Tables_number   1
_chemical_formula_structural   LiH2IO
_chemical_formula_sum   'Li2 H4 I2 O2'
_cell_volume   158.13958311
_cell_formula_units_Z   2
loop_
 _symmetry_equiv_pos_site_id
 _symmetry_equiv_pos_as_xyz
  1  'x, y, z'
loop_
 _atom_site_type_symbol
 _atom_site_label
 _atom_site_symmetry_multiplicity
 _atom_site_fract_x
 _atom_site_fract_y
 _atom_site_fract_z
 _atom_site_occupancy
  Li  Li0  1  0.250456  0.748874  0.500000  1
  Li  Li1  1  0.751887  0.746735  0.500000  1
  H  H2  1  0.000180  0.391251  0.323629  1
  H  H3  1  0.000180  0.391251  0.676371  1
  H  H4  1  0.510530  0.099828  0.323095  1
  H  H5  1  0.510530  0.099828  0.676905  1
  I  I6  1  0.001207  0.999594  0.000000  1
  I  I7  1  0.500068  0.498066  0.000000  1
  O  O8  1  0.000052  0.500271  0.500000  1
  O  O9  1  0.507909  0.991302  0.500000  1
