# generated using pymatgen
data_Al(HO)3
_symmetry_space_group_name_H-M   'P 1'
_cell_length_a   8.76161582
_cell_length_b   5.12883211
_cell_length_c   9.37531171
_cell_angle_alpha   91.41383302
_cell_angle_beta   95.35354322
_cell_angle_gamma   90.54153072
_symmetry_Int_Tables_number   1
_chemical_formula_structural   Al(HO)3
_chemical_formula_sum   'Al8 H24 O24'
_cell_volume   419.30237924
_cell_formula_units_Z   8
loop_
 _symmetry_equiv_pos_site_id
 _symmetry_equiv_pos_as_xyz
  1  'x, y, z'
loop_
 _atom_site_type_symbol
 _atom_site_label
 _atom_site_symmetry_multiplicity
 _atom_site_fract_x
 _atom_site_fract_y
 _atom_site_fract_z
 _atom_site_occupancy
  Al  Al0  1  0.810028  0.943644  0.522008  1
  Al  Al1  1  0.306962  0.557577  0.485397  1
  Al  Al2  1  0.175334  0.527327  0.993511  1
  Al  Al3  1  0.675644  0.964120  0.000724  1
  Al  Al4  1  0.142748  0.001877  0.487960  1
  Al  Al5  1  0.642381  0.491246  0.518685  1
  Al  Al6  1  0.844156  0.484318  0.000090  1
  Al  Al7  1  0.341260  0.019115  0.997809  1
  H  H8  1  0.507617  0.810667  0.650522  1
  H  H9  1  0.990790  0.663706  0.386601  1
  H  H10  1  0.531782  0.298559  0.871951  1
  H  H11  1  0.035936  0.171203  0.098218  1
  H  H12  1  0.444473  0.166537  0.392267  1
  H  H13  1  0.974731  0.320353  0.619585  1
  H  H14  1  0.479235  0.699661  0.132820  1
  H  H15  1  0.962185  0.632487  0.783692  1
  H  H16  1  0.105096  0.134295  0.819809  1
  H  H17  1  0.602442  0.368138  0.119562  1
  H  H18  1  0.122598  0.336716  0.291819  1
  H  H19  1  0.705725  0.188260  0.713003  1
  H  H20  1  0.882697  0.833650  0.205199  1
  H  H21  1  0.400042  0.642020  0.840759  1
  H  H22  1  0.409797  0.158399  0.635862  1
  H  H23  1  0.267143  0.235846  0.723496  1
  H  H24  1  0.898910  0.331546  0.387054  1
  H  H25  1  0.752852  0.273477  0.273035  1
  H  H26  1  0.710666  0.664736  0.790711  1
  H  H27  1  0.229547  0.835010  0.212124  1
  H  H28  1  0.626936  0.810905  0.301633  1
  H  H29  1  0.218428  0.730672  0.709468  1
  H  H30  1  0.363251  0.349596  0.201395  1
  H  H31  1  0.893017  0.060137  0.857397  1
  O  O32  1  0.482370  0.631735  0.617839  1
  O  O33  1  0.963353  0.848545  0.391456  1
  O  O34  1  0.505998  0.115068  0.887135  1
  O  O35  1  0.027034  0.361687  0.106704  1
  O  O36  1  0.462559  0.357487  0.396841  1
  O  O37  1  0.988419  0.130744  0.613137  1
  O  O38  1  0.511625  0.875091  0.111003  1
  O  O39  1  0.992149  0.622974  0.887649  1
  O  O40  1  0.799508  0.657646  0.629167  1
  O  O41  1  0.280199  0.845004  0.380424  1
  O  O42  1  0.196789  0.210505  0.873986  1
  O  O43  1  0.703956  0.291108  0.117384  1
  O  O44  1  0.136551  0.336368  0.397441  1
  O  O45  1  0.665185  0.165131  0.611226  1
  O  O46  1  0.828105  0.789636  0.111525  1
  O  O47  1  0.308207  0.711629  0.878917  1
  O  O48  1  0.302202  0.214154  0.622470  1
  O  O49  1  0.790253  0.279258  0.383111  1
  O  O50  1  0.678938  0.647734  0.891021  1
  O  O51  1  0.199701  0.841138  0.102528  1
  O  O52  1  0.654642  0.782877  0.402614  1
  O  O53  1  0.174453  0.709959  0.608636  1
  O  O54  1  0.346334  0.348760  0.095994  1
  O  O55  1  0.810908  0.160553  0.892306  1
