# generated using pymatgen
data_BaNa5Ca7P6(O8F)3
_symmetry_space_group_name_H-M   'P 1'
_cell_length_a   14.44895047
_cell_length_b   14.46789447
_cell_length_c   28.89873432
_cell_angle_alpha   28.61537184
_cell_angle_beta   28.68269973
_cell_angle_gamma   28.61430272
_symmetry_Int_Tables_number   1
_chemical_formula_structural   BaNa5Ca7P6(O8F)3
_chemical_formula_sum   'Ba2 Na10 Ca14 P12 O48 F6'
_cell_volume   1226.70441815
_cell_formula_units_Z   2
loop_
 _symmetry_equiv_pos_site_id
 _symmetry_equiv_pos_as_xyz
  1  'x, y, z'
loop_
 _atom_site_type_symbol
 _atom_site_label
 _atom_site_symmetry_multiplicity
 _atom_site_fract_x
 _atom_site_fract_y
 _atom_site_fract_z
 _atom_site_occupancy
  Ba  Ba0  1  0.999269  0.998597  0.999767  1
  Ba  Ba1  1  0.001165  0.001395  0.500070  1
  Na  Na2  1  0.307950  0.315887  0.395158  1
  Na  Na3  1  0.313278  0.786976  0.157458  1
  Na  Na4  1  0.222526  0.684750  0.339572  1
  Na  Na5  1  0.680936  0.222401  0.344408  1
  Na  Na6  1  0.680566  0.695559  0.107764  1
  Na  Na7  1  0.304153  0.782769  0.660472  1
  Na  Na8  1  0.319900  0.315845  0.889314  1
  Na  Na9  1  0.782854  0.304185  0.660451  1
  Na  Na10  1  0.207992  0.683380  0.846763  1
  Na  Na11  1  0.682760  0.207882  0.847090  1
  Ca  Ca12  1  0.071925  0.556297  0.280016  1
  Ca  Ca13  1  0.552857  0.070095  0.280992  1
  Ca  Ca14  1  0.555225  0.560371  0.034728  1
  Ca  Ca15  1  0.785718  0.315254  0.156535  1
  Ca  Ca16  1  0.442751  0.927778  0.220097  1
  Ca  Ca17  1  0.442381  0.442949  0.463376  1
  Ca  Ca18  1  0.927019  0.444666  0.220381  1
  Ca  Ca19  1  0.072841  0.559478  0.778464  1
  Ca  Ca20  1  0.556417  0.556499  0.537175  1
  Ca  Ca21  1  0.559504  0.073070  0.778302  1
  Ca  Ca22  1  0.685165  0.685237  0.608359  1
  Ca  Ca23  1  0.438603  0.929222  0.723775  1
  Ca  Ca24  1  0.440616  0.441204  0.964353  1
  Ca  Ca25  1  0.929271  0.438523  0.723798  1
  P  P26  1  0.084163  0.082936  0.041849  1
  P  P27  1  0.207129  0.206526  0.103307  1
  P  P28  1  0.323961  0.323989  0.162343  1
  P  P29  1  0.084039  0.084081  0.541280  1
  P  P30  1  0.209440  0.209495  0.602024  1
  P  P31  1  0.324801  0.324667  0.661667  1
  P  P32  1  0.676037  0.675552  0.337854  1
  P  P33  1  0.795295  0.793537  0.395297  1
  P  P34  1  0.916629  0.915995  0.458186  1
  P  P35  1  0.675943  0.675811  0.837757  1
  P  P36  1  0.794144  0.790360  0.896384  1
  P  P37  1  0.917167  0.916971  0.957696  1
  O  O38  1  0.121047  0.121180  0.060315  1
  O  O39  1  0.238133  0.248637  0.124675  1
  O  O40  1  0.193535  0.544148  0.096652  1
  O  O41  1  0.193580  0.193276  0.272195  1
  O  O42  1  0.543420  0.193723  0.096933  1
  O  O43  1  0.361497  0.361752  0.181148  1
  O  O44  1  0.189598  0.190178  0.415991  1
  O  O45  1  0.188470  0.833776  0.095202  1
  O  O46  1  0.830919  0.192383  0.096920  1
  O  O47  1  0.120572  0.120497  0.560266  1
  O  O48  1  0.044752  0.683344  0.340545  1
  O  O49  1  0.687722  0.045822  0.337527  1
  O  O50  1  0.687413  0.675309  0.022548  1
  O  O51  1  0.317629  0.318012  0.477684  1
  O  O52  1  0.316782  0.956542  0.158901  1
  O  O53  1  0.956573  0.313633  0.156704  1
  O  O54  1  0.245739  0.245745  0.623476  1
  O  O55  1  0.165044  0.810660  0.405920  1
  O  O56  1  0.810710  0.164833  0.405789  1
  O  O57  1  0.811411  0.811484  0.082826  1
  O  O58  1  0.194150  0.193812  0.771690  1
  O  O59  1  0.193005  0.544422  0.596593  1
  O  O60  1  0.638187  0.638665  0.318941  1
  O  O61  1  0.543999  0.193201  0.596799  1
  O  O62  1  0.456306  0.806114  0.403222  1
  O  O63  1  0.361978  0.361673  0.680787  1
  O  O64  1  0.806125  0.806682  0.228267  1
  O  O65  1  0.806931  0.455904  0.403272  1
  O  O66  1  0.188377  0.188329  0.917649  1
  O  O67  1  0.189734  0.833842  0.594108  1
  O  O68  1  0.833698  0.189903  0.594104  1
  O  O69  1  0.750417  0.752062  0.380759  1
  O  O70  1  0.043201  0.680764  0.842284  1
  O  O71  1  0.681216  0.039293  0.844176  1
  O  O72  1  0.685880  0.691686  0.519772  1
  O  O73  1  0.316848  0.317788  0.978346  1
  O  O74  1  0.319903  0.958263  0.656630  1
  O  O75  1  0.958317  0.319874  0.656461  1
  O  O76  1  0.878884  0.878609  0.439666  1
  O  O77  1  0.167652  0.810790  0.905083  1
  O  O78  1  0.810653  0.167516  0.905119  1
  O  O79  1  0.806433  0.806227  0.584866  1
  O  O80  1  0.637874  0.637914  0.819328  1
  O  O81  1  0.455964  0.806680  0.902940  1
  O  O82  1  0.806514  0.455457  0.903478  1
  O  O83  1  0.806390  0.806420  0.727980  1
  O  O84  1  0.753478  0.753534  0.877212  1
  O  O85  1  0.879704  0.879591  0.939676  1
  F  F86  1  0.439972  0.422794  0.211224  1
  F  F87  1  0.506805  0.495429  0.248115  1
  F  F88  1  0.573488  0.571861  0.286830  1
  F  F89  1  0.427860  0.427215  0.713048  1
  F  F90  1  0.505030  0.504359  0.745993  1
  F  F91  1  0.578093  0.578199  0.779084  1
