# generated using pymatgen
data_BaLa2Mn3O9
_symmetry_space_group_name_H-M   'P 1'
_cell_length_a   16.79125210
_cell_length_b   14.78398789
_cell_length_c   14.78398814
_cell_angle_alpha   21.95083098
_cell_angle_beta   19.21565048
_cell_angle_gamma   19.21565222
_symmetry_Int_Tables_number   1
_chemical_formula_structural   BaLa2Mn3O9
_chemical_formula_sum   'Ba2 La4 Mn6 O18'
_cell_volume   375.17093475
_cell_formula_units_Z   2
loop_
 _symmetry_equiv_pos_site_id
 _symmetry_equiv_pos_as_xyz
  1  'x, y, z'
loop_
 _atom_site_type_symbol
 _atom_site_label
 _atom_site_symmetry_multiplicity
 _atom_site_fract_x
 _atom_site_fract_y
 _atom_site_fract_z
 _atom_site_occupancy
  Ba  Ba0  1  0.416667  0.250000  0.250000  1
  Ba  Ba1  1  0.916667  0.750000  0.750000  1
  La  La2  1  0.082035  0.251298  0.251298  1
  La  La3  1  0.751298  0.248702  0.248702  1
  La  La4  1  0.251298  0.748702  0.748702  1
  La  La5  1  0.582035  0.751298  0.751298  1
  Mn  Mn6  1  0.000052  -0.000052  -0.000052  1
  Mn  Mn7  1  0.333281  0.000052  0.000052  1
  Mn  Mn8  1  0.666667  0.000000  0.000000  1
  Mn  Mn9  1  0.166667  0.500000  0.500000  1
  Mn  Mn10  1  0.500052  0.499948  0.499948  1
  Mn  Mn11  1  0.833281  0.500052  0.500052  1
  O  O12  1  0.248963  0.188826  0.305636  1
  O  O13  1  0.014546  0.311174  0.764188  1
  O  O14  1  0.131357  0.764188  0.194364  1
  O  O15  1  0.584370  0.194364  0.311174  1
  O  O16  1  0.201976  0.235812  0.805636  1
  O  O17  1  0.318787  0.688826  0.235812  1
  O  O18  1  0.395794  0.270873  0.750000  1
  O  O19  1  0.437540  0.750000  0.229127  1
  O  O20  1  0.084370  0.811174  0.694364  1
  O  O21  1  0.916667  0.229127  0.270873  1
  O  O22  1  0.514546  0.264188  0.811174  1
  O  O23  1  0.631357  0.694364  0.264188  1
  O  O24  1  0.701976  0.305636  0.735812  1
  O  O25  1  0.818787  0.735812  0.188826  1
  O  O26  1  0.416667  0.770873  0.729127  1
  O  O27  1  0.895794  0.250000  0.770873  1
  O  O28  1  0.937540  0.729127  0.250000  1
  O  O29  1  0.748963  0.805636  0.688826  1
