# generated using pymatgen
data_Ga2Se3
_symmetry_space_group_name_H-M   'P 1'
_cell_length_a   7.11342759
_cell_length_b   10.38662872
_cell_length_c   7.87318168
_cell_angle_alpha   127.08028858
_cell_angle_beta   116.85605431
_cell_angle_gamma   89.99999500
_symmetry_Int_Tables_number   1
_chemical_formula_structural   Ga2Se3
_chemical_formula_sum   'Ga4 Se6'
_cell_volume   382.51010973
_cell_formula_units_Z   2
loop_
 _symmetry_equiv_pos_site_id
 _symmetry_equiv_pos_as_xyz
  1  'x, y, z'
loop_
 _atom_site_type_symbol
 _atom_site_label
 _atom_site_symmetry_multiplicity
 _atom_site_fract_x
 _atom_site_fract_y
 _atom_site_fract_z
 _atom_site_occupancy
  Ga  Ga0  1  0.472618  0.582757  0.769031  1
  Ga  Ga1  1  0.296413  0.082757  0.769031  1
  Ga  Ga2  1  0.009823  0.478440  0.990770  1
  Ga  Ga3  1  0.980948  0.978440  0.990770  1
  Se  Se4  1  0.934967  0.865441  0.175756  1
  Se  Se5  1  0.046530  0.832825  0.676385  1
  Se  Se6  1  0.240789  0.365441  0.175756  1
  Se  Se7  1  0.629855  0.332825  0.676385  1
  Se  Se8  1  0.988223  0.270337  0.232658  1
  Se  Se9  1  0.244435  0.770337  0.232658  1
