# generated using pymatgen
data_Ag2Te
_symmetry_space_group_name_H-M   'P 1'
_cell_length_a   4.76607775
_cell_length_b   4.85526999
_cell_length_c   32.92525481
_cell_angle_alpha   59.43722408
_cell_angle_beta   61.36952735
_cell_angle_gamma   58.72456546
_symmetry_Int_Tables_number   1
_chemical_formula_structural   Ag2Te
_chemical_formula_sum   'Ag14 Te7'
_cell_volume   536.21891042
_cell_formula_units_Z   7
loop_
 _symmetry_equiv_pos_site_id
 _symmetry_equiv_pos_as_xyz
  1  'x, y, z'
loop_
 _atom_site_type_symbol
 _atom_site_label
 _atom_site_symmetry_multiplicity
 _atom_site_fract_x
 _atom_site_fract_y
 _atom_site_fract_z
 _atom_site_occupancy
  Ag  Ag0  1  0.385648  0.382521  0.199158  1
  Ag  Ag1  1  0.770262  0.770725  0.113839  1
  Ag  Ag2  1  0.736271  0.716498  0.255636  1
  Ag  Ag3  1  0.513818  0.535997  0.360403  1
  Ag  Ag4  1  0.752363  0.804696  0.391688  1
  Ag  Ag5  1  0.746655  0.425080  0.491729  1
  Ag  Ag6  1  0.764658  0.708861  0.547849  1
  Ag  Ag7  1  0.273699  0.278442  0.743165  1
  Ag  Ag8  1  0.763674  0.782139  0.670419  1
  Ag  Ag9  1  0.265204  0.266527  0.898382  1
  Ag  Ag10  1  0.527042  0.529592  0.782492  1
  Ag  Ag11  1  0.785527  0.787631  0.816280  1
  Ag  Ag12  1  0.485630  0.488464  0.945956  1
  Ag  Ag13  1  0.742559  0.747009  0.977582  1
  Te  Te14  1  0.005089  0.013045  0.006231  1
  Te  Te15  1  0.022814  0.033258  0.140590  1
  Te  Te16  1  0.004614  0.983570  0.287268  1
  Te  Te17  1  0.000858  0.032002  0.428810  1
  Te  Te18  1  0.043307  0.984585  0.570334  1
  Te  Te19  1  0.021975  0.028001  0.705514  1
  Te  Te20  1  0.028334  0.029358  0.856391  1
