# generated using pymatgen
data_Tm23Se32
_symmetry_space_group_name_H-M   'P 1'
_cell_length_a   8.04876888
_cell_length_b   8.04093029
_cell_length_c   22.65615795
_cell_angle_alpha   90.03007112
_cell_angle_beta   89.90192824
_cell_angle_gamma   90.18568433
_symmetry_Int_Tables_number   1
_chemical_formula_structural   Tm23Se32
_chemical_formula_sum   'Tm23 Se32'
_cell_volume   1466.28719598
_cell_formula_units_Z   1
loop_
 _symmetry_equiv_pos_site_id
 _symmetry_equiv_pos_as_xyz
  1  'x, y, z'
loop_
 _atom_site_type_symbol
 _atom_site_label
 _atom_site_symmetry_multiplicity
 _atom_site_fract_x
 _atom_site_fract_y
 _atom_site_fract_z
 _atom_site_occupancy
  Tm  Tm0  1  0.007108  0.007460  0.998696  1
  Tm  Tm1  1  0.000001  0.000549  0.500535  1
  Tm  Tm2  1  0.248273  0.751054  0.122763  1
  Tm  Tm3  1  0.240702  0.756321  0.624966  1
  Tm  Tm4  1  0.248297  0.754464  0.879393  1
  Tm  Tm5  1  0.247738  0.248059  0.121855  1
  Tm  Tm6  1  0.240791  0.243016  0.626684  1
  Tm  Tm7  1  0.489140  0.000058  0.253922  1
  Tm  Tm8  1  0.499999  0.000420  0.500368  1
  Tm  Tm9  1  0.509097  0.002707  0.747573  1
  Tm  Tm10  1  0.491720  0.492003  0.998646  1
  Tm  Tm11  1  0.494643  0.499866  0.254775  1
  Tm  Tm12  1  0.499737  0.499843  0.500430  1
  Tm  Tm13  1  0.504182  0.498085  0.745460  1
  Tm  Tm14  1  0.758356  0.756622  0.375494  1
  Tm  Tm15  1  0.753323  0.752512  0.876218  1
  Tm  Tm16  1  0.750582  0.248751  0.121130  1
  Tm  Tm17  1  0.758205  0.243098  0.375157  1
  Tm  Tm18  1  0.751549  0.751908  0.120787  1
  Tm  Tm19  1  0.754707  0.247775  0.877633  1
  Tm  Tm20  1  0.007002  0.499413  0.253458  1
  Tm  Tm21  1  -0.000072  0.499608  0.500283  1
  Tm  Tm22  1  0.995736  0.496560  0.748041  1
  Se  Se23  1  0.996550  0.000077  0.378851  1
  Se  Se24  1  0.000138  0.500071  0.376132  1
  Se  Se25  1  0.000942  0.999592  0.875268  1
  Se  Se26  1  0.000315  0.503078  0.871133  1
  Se  Se27  1  0.249660  0.251376  0.248267  1
  Se  Se28  1  0.248926  0.749092  0.248564  1
  Se  Se29  1  0.251244  0.251425  0.499729  1
  Se  Se30  1  0.255378  0.253406  0.749754  1
  Se  Se31  1  0.250436  0.250429  0.002640  1
  Se  Se32  1  0.251083  0.748788  0.499084  1
  Se  Se33  1  0.251901  0.750158  0.751151  1
  Se  Se34  1  0.250108  0.750537  0.000403  1
  Se  Se35  1  0.501496  0.999396  0.376294  1
  Se  Se36  1  0.502681  0.998352  0.870949  1
  Se  Se37  1  0.508201  0.499465  0.376354  1
  Se  Se38  1  0.499238  0.500005  0.874420  1
  Se  Se39  1  0.500563  0.500586  0.125152  1
  Se  Se40  1  0.500397  0.999269  0.127342  1
  Se  Se41  1  0.490891  0.501313  0.623276  1
  Se  Se42  1  0.496628  0.998991  0.624061  1
  Se  Se43  1  0.750224  0.250377  -0.000079  1
  Se  Se44  1  0.749537  0.249153  0.248835  1
  Se  Se45  1  0.748363  0.748355  0.000365  1
  Se  Se46  1  0.748987  0.749945  0.248786  1
  Se  Se47  1  0.748728  0.251573  0.501488  1
  Se  Se48  1  0.751269  0.251039  0.752007  1
  Se  Se49  1  0.748805  0.748666  0.501472  1
  Se  Se50  1  0.749363  0.746917  0.750574  1
  Se  Se51  1  0.998321  0.500319  0.127151  1
  Se  Se52  1  0.999292  0.500075  0.624162  1
  Se  Se53  1  0.998330  0.999492  0.125288  1
  Se  Se54  1  0.001189  0.998535  0.621858  1
