# generated using pymatgen
data_GdMnGe
_symmetry_space_group_name_H-M   'P 1'
_cell_length_a   3.88332357
_cell_length_b   7.03575770
_cell_length_c   8.06218895
_cell_angle_alpha   90.00000000
_cell_angle_beta   90.00000000
_cell_angle_gamma   90.00000000
_symmetry_Int_Tables_number   1
_chemical_formula_structural   GdMnGe
_chemical_formula_sum   'Gd4 Mn4 Ge4'
_cell_volume   220.27612386
_cell_formula_units_Z   4
loop_
 _symmetry_equiv_pos_site_id
 _symmetry_equiv_pos_as_xyz
  1  'x, y, z'
loop_
 _atom_site_type_symbol
 _atom_site_label
 _atom_site_symmetry_multiplicity
 _atom_site_fract_x
 _atom_site_fract_y
 _atom_site_fract_z
 _atom_site_occupancy
  Gd  Gd0  1  0.250000  0.522487  0.321021  1
  Gd  Gd1  1  0.250000  0.022487  0.178979  1
  Gd  Gd2  1  0.750000  0.477513  0.678979  1
  Gd  Gd3  1  0.750000  0.977513  0.821021  1
  Mn  Mn4  1  0.750000  0.879087  0.443782  1
  Mn  Mn5  1  0.750000  0.379087  0.056218  1
  Mn  Mn6  1  0.250000  0.620913  0.943782  1
  Mn  Mn7  1  0.250000  0.120913  0.556218  1
  Ge  Ge8  1  0.750000  0.720371  0.110329  1
  Ge  Ge9  1  0.250000  0.279629  0.889671  1
  Ge  Ge10  1  0.750000  0.220371  0.389671  1
  Ge  Ge11  1  0.250000  0.779629  0.610329  1
