# generated using pymatgen
data_Ce4(GeS4)3
_symmetry_space_group_name_H-M   'P 1'
_cell_length_a   11.55547482
_cell_length_b   11.55402765
_cell_length_c   11.55438591
_cell_angle_alpha   114.77517580
_cell_angle_beta   114.78482390
_cell_angle_gamma   114.78256514
_symmetry_Int_Tables_number   1
_chemical_formula_structural   Ce4(GeS4)3
_chemical_formula_sum   'Ce8 Ge6 S24'
_cell_volume   880.34802992
_cell_formula_units_Z   2
loop_
 _symmetry_equiv_pos_site_id
 _symmetry_equiv_pos_as_xyz
  1  'x, y, z'
loop_
 _atom_site_type_symbol
 _atom_site_label
 _atom_site_symmetry_multiplicity
 _atom_site_fract_x
 _atom_site_fract_y
 _atom_site_fract_z
 _atom_site_occupancy
  Ce  Ce0  1  0.472157  0.931868  0.707706  1
  Ce  Ce1  1  0.931851  0.707648  0.472109  1
  Ce  Ce2  1  0.972098  0.207626  0.431828  1
  Ce  Ce3  1  0.707646  0.472123  0.931841  1
  Ce  Ce4  1  0.431827  0.972090  0.207648  1
  Ce  Ce5  1  0.999782  0.999793  0.999796  1
  Ce  Ce6  1  0.207655  0.431824  0.972119  1
  Ce  Ce7  1  0.499816  0.499819  0.499834  1
  Ge  Ge8  1  0.854324  0.466986  0.641580  1
  Ge  Ge9  1  0.354330  0.141586  0.966987  1
  Ge  Ge10  1  0.141571  0.966992  0.354342  1
  Ge  Ge11  1  0.641603  0.854357  0.467003  1
  Ge  Ge12  1  0.466984  0.641566  0.854319  1
  Ge  Ge13  1  0.966971  0.354322  0.141577  1
  S  S14  1  0.873392  0.688909  0.688520  1
  S  S15  1  0.188874  0.373372  0.188486  1
  S  S16  1  0.609476  0.295467  0.583252  1
  S  S17  1  0.295444  0.583243  0.609456  1
  S  S18  1  0.383547  0.781600  0.313189  1
  S  S19  1  0.688893  0.688517  0.873366  1
  S  S20  1  0.583207  0.609421  0.295392  1
  S  S21  1  0.883535  0.813203  0.281618  1
  S  S22  1  0.852100  0.129571  0.582756  1
  S  S23  1  0.629548  0.352078  0.082740  1
  S  S24  1  0.129535  0.582691  0.852053  1
  S  S25  1  0.109444  0.083234  0.795414  1
  S  S26  1  0.795409  0.109449  0.083238  1
  S  S27  1  0.188459  0.188858  0.373340  1
  S  S28  1  0.373367  0.188520  0.188869  1
  S  S29  1  0.082744  0.629531  0.352067  1
  S  S30  1  0.313214  0.383568  0.781632  1
  S  S31  1  0.352062  0.082707  0.629531  1
  S  S32  1  0.813230  0.281643  0.883591  1
  S  S33  1  0.281612  0.883559  0.813192  1
  S  S34  1  0.781652  0.313247  0.383572  1
  S  S35  1  0.582750  0.852062  0.129536  1
  S  S36  1  0.688532  0.873387  0.688900  1
  S  S37  1  0.083181  0.795384  0.109420  1
