# generated using pymatgen
data_Os4C12SO12
_symmetry_space_group_name_H-M   'P 1'
_cell_length_a   8.51497409
_cell_length_b   15.26009760
_cell_length_c   16.66958253
_cell_angle_alpha   104.26134270
_cell_angle_beta   89.96145743
_cell_angle_gamma   106.22885407
_symmetry_Int_Tables_number   1
_chemical_formula_structural   Os4C12SO12
_chemical_formula_sum   'Os16 C48 S4 O48'
_cell_volume   2010.21553260
_cell_formula_units_Z   4
loop_
 _symmetry_equiv_pos_site_id
 _symmetry_equiv_pos_as_xyz
  1  'x, y, z'
loop_
 _atom_site_type_symbol
 _atom_site_label
 _atom_site_symmetry_multiplicity
 _atom_site_fract_x
 _atom_site_fract_y
 _atom_site_fract_z
 _atom_site_occupancy
  Os  Os0  1  0.647828  0.861988  0.836796  1
  Os  Os1  1  0.926291  0.787484  0.842600  1
  Os  Os2  1  0.376772  0.302338  0.105032  1
  Os  Os3  1  0.347042  0.315020  0.276960  1
  Os  Os4  1  0.074800  0.697651  0.396233  1
  Os  Os5  1  0.967316  0.316572  0.777107  1
  Os  Os6  1  0.624682  0.697661  0.894484  1
  Os  Os7  1  0.074534  0.212336  0.156984  1
  Os  Os8  1  0.861179  0.788628  0.345334  1
  Os  Os9  1  0.351786  0.137833  0.162565  1
  Os  Os10  1  0.138820  0.212210  0.657256  1
  Os  Os11  1  0.925625  0.303249  0.605743  1
  Os  Os12  1  0.029059  0.683558  0.224003  1
  Os  Os13  1  0.785661  0.138745  0.662666  1
  Os  Os14  1  0.652531  0.684332  0.722413  1
  Os  Os15  1  0.213182  0.861621  0.338144  1
  C  C16  1  0.222862  0.378763  0.353368  1
  C  C17  1  0.841890  0.619793  0.147057  1
  C  C18  1  0.935501  0.432544  0.767352  1
  C  C19  1  0.171738  0.090854  0.614987  1
  C  C20  1  0.504208  0.568623  0.733000  1
  C  C21  1  0.655651  0.729858  0.282796  1
  C  C22  1  0.510815  0.116402  0.230557  1
  C  C23  1  0.492111  0.885640  0.768379  1
  C  C24  1  0.491547  0.135520  0.072891  1
  C  C25  1  0.656082  0.748757  0.011272  1
  C  C26  1  0.061468  0.568169  0.235220  1
  C  C27  1  0.154707  0.381667  0.852879  1
  C  C28  1  0.650468  0.580639  0.903550  1
  C  C29  1  0.499904  0.688782  0.640870  1
  C  C30  1  0.343014  0.252134  0.988045  1
  C  C31  1  0.035066  0.257106  0.063563  1
  C  C32  1  0.919131  0.091695  0.113431  1
  C  C33  1  0.642641  0.134788  0.572529  1
  C  C34  1  0.775848  0.009777  0.615089  1
  C  C35  1  0.261059  0.653300  0.399904  1
  C  C36  1  0.495476  0.430812  0.266361  1
  C  C37  1  0.220702  0.255217  0.562482  1
  C  C38  1  0.926794  0.271088  0.219020  1
  C  C39  1  0.085019  0.907837  0.884577  1
  C  C40  1  0.394969  0.652584  0.899801  1
  C  C41  1  0.905766  0.252720  0.488931  1
  C  C42  1  0.607117  0.347004  0.100321  1
  C  C43  1  0.604460  0.116534  0.730318  1
  C  C44  1  0.770138  0.990466  0.884593  1
  C  C45  1  0.345977  0.272669  0.718956  1
  C  C46  1  0.393306  0.884773  0.270272  1
  C  C47  1  0.188891  0.690746  0.143734  1
  C  C48  1  0.929426  0.580939  0.404621  1
  C  C49  1  0.774084  0.618962  0.646059  1
  C  C50  1  0.499229  0.307634  0.357466  1
  C  C51  1  0.095775  0.749097  0.513114  1
  C  C52  1  0.070917  0.419318  0.597211  1
  C  C53  1  0.808231  0.310919  0.858204  1
  C  C54  1  0.217161  0.989601  0.386532  1
  C  C55  1  0.229868  0.009318  0.113944  1
  C  C56  1  0.348741  0.419468  0.097853  1
  C  C57  1  0.824902  0.909498  0.385958  1
  C  C58  1  0.508860  0.864325  0.927058  1
  C  C59  1  0.965372  0.742465  0.936200  1
  C  C60  1  0.776398  0.744683  0.439270  1
  C  C61  1  0.072328  0.727165  0.780648  1
  C  C62  1  0.355924  0.864107  0.427658  1
  C  C63  1  0.743008  0.350249  0.602575  1
  S  S64  1  0.995012  0.162257  0.769342  1
  S  S65  1  0.165249  0.160163  0.268940  1
  S  S66  1  0.002380  0.838196  0.231945  1
  S  S67  1  0.835175  0.839060  0.730880  1
  O  O68  1  0.409614  0.496326  0.732050  1
  O  O69  1  0.804839  0.983743  0.406861  1
  O  O70  1  0.253240  0.624583  0.900515  1
  O  O71  1  0.678979  0.782230  0.082290  1
  O  O72  1  0.395231  0.897684  0.726413  1
  O  O73  1  0.329663  0.491194  0.095079  1
  O  O74  1  0.186485  0.015447  0.591784  1
  O  O75  1  0.546273  0.123194  0.518279  1
  O  O76  1  0.160431  0.491295  0.593934  1
  O  O77  1  0.576343  0.125370  0.018428  1
  O  O78  1  0.773511  0.931872  0.586508  1
  O  O79  1  0.590231  0.503005  0.267016  1
  O  O80  1  0.107834  0.783503  0.584125  1
  O  O81  1  0.993275  0.279637  0.007027  1
  O  O82  1  0.471127  0.310897  0.757289  1
  O  O83  1  0.851186  0.581063  0.600033  1
  O  O84  1  0.531939  0.694110  0.242831  1
  O  O85  1  0.726216  0.584353  0.101362  1
  O  O86  1  0.593921  0.299790  0.403066  1
  O  O87  1  0.180470  0.981621  0.906907  1
  O  O88  1  0.666247  0.508753  0.908100  1
  O  O89  1  0.710933  0.721373  0.495150  1
  O  O90  1  0.838243  0.509331  0.407598  1
  O  O91  1  0.291370  0.698973  0.097975  1
  O  O92  1  0.315839  0.218778  0.917041  1
  O  O93  1  0.151869  0.932144  0.083854  1
  O  O94  1  0.160024  0.690048  0.741991  1
  O  O95  1  0.214782  0.066472  0.416337  1
  O  O96  1  0.608958  0.106156  0.272939  1
  O  O97  1  0.915175  0.505286  0.768511  1
  O  O98  1  0.503124  0.896553  0.228749  1
  O  O99  1  0.451566  0.875031  0.482091  1
  O  O100  1  0.826989  0.016824  0.090187  1
  O  O101  1  0.404715  0.694266  0.594093  1
  O  O102  1  0.837793  0.307038  0.257878  1
  O  O103  1  0.084496  0.496306  0.235160  1
  O  O104  1  0.142730  0.414672  0.399006  1
  O  O105  1  0.629951  0.379011  0.603231  1
  O  O106  1  0.705965  0.304261  0.903987  1
  O  O107  1  0.282751  0.277882  0.505545  1
  O  O108  1  0.006160  0.718584  0.992038  1
  O  O109  1  0.270247  0.419432  0.898517  1
  O  O110  1  0.376493  0.626613  0.399182  1
  O  O111  1  0.425333  0.875544  0.981941  1
  O  O112  1  0.495342  0.104847  0.772224  1
  O  O113  1  0.748958  0.374260  0.099840  1
  O  O114  1  0.895159  0.219564  0.417792  1
  O  O115  1  0.847470  0.067932  0.913476  1
