# generated using pymatgen
data_ScNb6Cl13O3
_symmetry_space_group_name_H-M   'P 1'
_cell_length_a   9.23212006
_cell_length_b   9.23212018
_cell_length_c   27.39275166
_cell_angle_alpha   99.70142644
_cell_angle_beta   99.70142657
_cell_angle_gamma   89.99999729
_symmetry_Int_Tables_number   1
_chemical_formula_structural   ScNb6Cl13O3
_chemical_formula_sum   'Sc4 Nb24 Cl52 O12'
_cell_volume   2267.47161090
_cell_formula_units_Z   4
loop_
 _symmetry_equiv_pos_site_id
 _symmetry_equiv_pos_as_xyz
  1  'x, y, z'
loop_
 _atom_site_type_symbol
 _atom_site_label
 _atom_site_symmetry_multiplicity
 _atom_site_fract_x
 _atom_site_fract_y
 _atom_site_fract_z
 _atom_site_occupancy
  Sc  Sc0  1  0.594156  0.594156  0.188313  1
  Sc  Sc1  1  0.405844  0.405844  0.811687  1
  Sc  Sc2  1  0.344156  0.844156  0.688313  1
  Sc  Sc3  1  0.155844  0.655844  0.311687  1
  Nb  Nb4  1  0.324069  0.047501  0.932095  1
  Nb  Nb5  1  0.213880  0.248666  0.681481  1
  Nb  Nb6  1  0.182815  0.463880  0.181481  1
  Nb  Nb7  1  0.429819  0.120950  0.626758  1
  Nb  Nb8  1  0.282399  0.001334  0.818519  1
  Nb  Nb9  1  0.553062  0.129050  0.873242  1
  Nb  Nb10  1  0.797501  0.858025  0.432095  1
  Nb  Nb11  1  0.255807  0.679819  0.126758  1
  Nb  Nb12  1  0.115407  0.391975  0.067905  1
  Nb  Nb13  1  0.608025  0.884593  0.932095  1
  Nb  Nb14  1  0.567185  0.532399  0.318519  1
  Nb  Nb15  1  0.425931  0.365407  0.567905  1
  Nb  Nb16  1  0.751334  0.786120  0.318519  1
  Nb  Nb17  1  0.320181  0.744193  0.873242  1
  Nb  Nb18  1  0.870950  0.446938  0.126758  1
  Nb  Nb19  1  0.141975  0.202499  0.567905  1
  Nb  Nb20  1  0.467601  0.432815  0.681481  1
  Nb  Nb21  1  0.952499  0.675931  0.067905  1
  Nb  Nb22  1  0.196938  0.505807  0.626758  1
  Nb  Nb23  1  0.536120  0.817185  0.818519  1
  Nb  Nb24  1  0.494193  0.803062  0.373242  1
  Nb  Nb25  1  0.634593  0.574069  0.432095  1
  Nb  Nb26  1  0.998666  0.717601  0.181481  1
  Nb  Nb27  1  0.879050  0.570181  0.373242  1
  Cl  Cl28  1  0.897447  0.229892  0.062766  1
  Cl  Cl29  1  0.491613  0.653795  0.940928  1
  Cl  Cl30  1  0.197345  0.478782  0.857406  1
  Cl  Cl31  1  0.215918  0.890883  0.192480  1
  Cl  Cl32  1  0.993925  0.121271  0.625174  1
  Cl  Cl33  1  0.502591  0.002591  0.005181  1
  Cl  Cl34  1  0.118751  0.128729  0.874826  1
  Cl  Cl35  1  0.346205  0.508387  0.059072  1
  Cl  Cl36  1  0.660061  0.378624  0.857406  1
  Cl  Cl37  1  0.167126  0.834681  0.937234  1
  Cl  Cl38  1  0.756075  0.746097  0.874826  1
  Cl  Cl39  1  0.172353  0.172353  1.000000  1
  Cl  Cl40  1  0.878729  0.006075  0.374826  1
  Cl  Cl41  1  0.582874  0.147447  0.562766  1
  Cl  Cl42  1  0.228782  0.910061  0.357406  1
  Cl  Cl43  1  0.105990  0.125000  0.750000  1
  Cl  Cl44  1  0.496097  0.368751  0.374826  1
  Cl  Cl45  1  0.165319  0.832874  0.062766  1
  Cl  Cl46  1  0.128624  0.447345  0.357406  1
  Cl  Cl47  1  0.300685  0.596205  0.559072  1
  Cl  Cl48  1  0.997409  0.497409  0.994819  1
  Cl  Cl49  1  0.449315  0.287133  0.940928  1
  Cl  Cl50  1  0.631249  0.503903  0.625174  1
  Cl  Cl51  1  0.976562  0.301596  0.192480  1
  Cl  Cl52  1  0.051596  0.465918  0.692480  1
  Cl  Cl53  1  0.773438  0.359117  0.307520  1
  Cl  Cl54  1  0.698404  0.023438  0.807520  1
  Cl  Cl55  1  0.253903  0.243925  0.125174  1
  Cl  Cl56  1  0.552655  0.871376  0.642594  1
  Cl  Cl57  1  0.852553  0.417126  0.437234  1
  Cl  Cl58  1  0.752591  0.752591  0.505181  1
  Cl  Cl59  1  0.922353  0.077647  0.500000  1
  Cl  Cl60  1  0.375000  0.355990  0.250000  1
  Cl  Cl61  1  0.712867  0.550685  0.059072  1
  Cl  Cl62  1  0.584681  0.020108  0.437234  1
  Cl  Cl63  1  0.037133  0.741613  0.440928  1
  Cl  Cl64  1  0.109117  0.784082  0.807520  1
  Cl  Cl65  1  0.871271  0.881249  0.125174  1
  Cl  Cl66  1  0.640883  0.226562  0.692480  1
  Cl  Cl67  1  0.644010  0.625000  0.750000  1
  Cl  Cl68  1  0.521218  0.802655  0.142594  1
  Cl  Cl69  1  0.258387  0.962867  0.559072  1
  Cl  Cl70  1  0.403795  0.699315  0.440928  1
  Cl  Cl71  1  0.621376  0.339939  0.142594  1
  Cl  Cl72  1  0.577647  0.422353  0.500000  1
  Cl  Cl73  1  0.534082  0.948404  0.307520  1
  Cl  Cl74  1  0.089939  0.771218  0.642594  1
  Cl  Cl75  1  0.827647  0.827647  0.000000  1
  Cl  Cl76  1  0.770108  0.102553  0.937234  1
  Cl  Cl77  1  0.875000  0.894010  0.250000  1
  Cl  Cl78  1  0.979892  0.415319  0.562766  1
  Cl  Cl79  1  0.247409  0.247409  0.494819  1
  O  O80  1  0.427690  0.631950  0.821568  1
  O  O81  1  0.322310  0.060382  0.678432  1
  O  O82  1  0.368050  0.572310  0.178432  1
  O  O83  1  0.631789  0.631789  0.263578  1
  O  O84  1  0.810382  0.606122  0.178432  1
  O  O85  1  0.368211  0.368211  0.736422  1
  O  O86  1  0.118211  0.618211  0.236422  1
  O  O87  1  0.939618  0.677690  0.321568  1
  O  O88  1  0.356122  0.618050  0.678432  1
  O  O89  1  0.381789  0.881789  0.763578  1
  O  O90  1  0.381950  0.643878  0.321568  1
  O  O91  1  0.393878  0.189618  0.821568  1
