# generated using pymatgen
data_Sr2AlH7
_symmetry_space_group_name_H-M   'P 1'
_cell_length_a   9.36432727
_cell_length_b   8.40305459
_cell_length_c   9.36432727
_cell_angle_alpha   90.67051525
_cell_angle_beta   116.81147624
_cell_angle_gamma   126.87261992
_symmetry_Int_Tables_number   1
_chemical_formula_structural   Sr2AlH7
_chemical_formula_sum   'Sr8 Al4 H28'
_cell_volume   483.21485877
_cell_formula_units_Z   4
loop_
 _symmetry_equiv_pos_site_id
 _symmetry_equiv_pos_as_xyz
  1  'x, y, z'
loop_
 _atom_site_type_symbol
 _atom_site_label
 _atom_site_symmetry_multiplicity
 _atom_site_fract_x
 _atom_site_fract_y
 _atom_site_fract_z
 _atom_site_occupancy
  Sr  Sr0  1  0.743767  0.168047  0.265991  1
  Sr  Sr1  1  0.097944  0.331953  0.075719  1
  Sr  Sr2  1  0.256233  0.831953  0.734009  1
  Sr  Sr3  1  0.902056  0.668047  0.924281  1
  Sr  Sr4  1  0.772982  0.703559  0.295087  1
  Sr  Sr5  1  0.591528  0.796441  0.569424  1
  Sr  Sr6  1  0.227018  0.296441  0.704913  1
  Sr  Sr7  1  0.408472  0.203559  0.430576  1
  Al  Al8  1  0.132929  0.651942  0.323352  1
  Al  Al9  1  0.671410  0.848058  0.980987  1
  Al  Al10  1  0.867071  0.348058  0.676648  1
  Al  Al11  1  0.328590  0.151942  0.019013  1
  H  H12  1  0.969674  0.577805  0.395489  1
  H  H13  1  0.817683  0.922195  0.891869  1
  H  H14  1  0.030326  0.422195  0.604511  1
  H  H15  1  0.182317  0.077805  0.108131  1
  H  H16  1  0.157563  0.462087  0.390424  1
  H  H17  1  0.928337  0.037913  0.195476  1
  H  H18  1  0.842437  0.537913  0.609576  1
  H  H19  1  0.071663  0.962087  0.804524  1
  H  H20  1  0.359013  0.860110  0.526997  1
  H  H21  1  0.666887  0.639890  0.998904  1
  H  H22  1  0.640987  0.139890  0.473003  1
  H  H23  1  0.333113  0.360110  0.001097  1
  H  H24  1  0.307495  0.710797  0.265795  1
  H  H25  1  0.554997  0.789203  0.096698  1
  H  H26  1  0.692505  0.289203  0.734205  1
  H  H27  1  0.445003  0.210797  0.903302  1
  H  H28  1  0.087329  0.813767  0.246034  1
  H  H29  1  0.432267  0.686233  0.773562  1
  H  H30  1  0.912671  0.186233  0.753966  1
  H  H31  1  0.567733  0.313767  0.226438  1
  H  H32  1  0.912183  0.440985  0.118071  1
  H  H33  1  0.677086  0.059015  0.971198  1
  H  H34  1  0.087817  0.559015  0.881929  1
  H  H35  1  0.322914  0.940985  0.028802  1
  H  H36  1  0.467525  0.508512  0.338702  1
  H  H37  1  0.830190  0.991488  0.459013  1
  H  H38  1  0.532475  0.491488  0.661298  1
  H  H39  1  0.169810  0.008512  0.540987  1
