# generated using pymatgen
data_Sb8Cl27F13
_symmetry_space_group_name_H-M   'P 1'
_cell_length_a   9.49033616
_cell_length_b   9.67301465
_cell_length_c   18.39121078
_cell_angle_alpha   84.10501537
_cell_angle_beta   68.82837804
_cell_angle_gamma   64.69290554
_symmetry_Int_Tables_number   1
_chemical_formula_structural   Sb8Cl27F13
_chemical_formula_sum   'Sb8 Cl27 F13'
_cell_volume   1420.59057018
_cell_formula_units_Z   1
loop_
 _symmetry_equiv_pos_site_id
 _symmetry_equiv_pos_as_xyz
  1  'x, y, z'
loop_
 _atom_site_type_symbol
 _atom_site_label
 _atom_site_symmetry_multiplicity
 _atom_site_fract_x
 _atom_site_fract_y
 _atom_site_fract_z
 _atom_site_occupancy
  Sb  Sb0  1  0.045984  0.773966  0.085834  1
  Sb  Sb1  1  0.005254  0.740551  0.594070  1
  Sb  Sb2  1  0.307073  0.806607  0.347168  1
  Sb  Sb3  1  0.605234  0.274975  0.189213  1
  Sb  Sb4  1  0.298994  0.762543  0.852196  1
  Sb  Sb5  1  0.651243  0.271050  0.693794  1
  Sb  Sb6  1  0.913431  0.243684  0.393108  1
  Sb  Sb7  1  0.932416  0.260043  0.907472  1
  Cl  Cl8  1  0.076395  0.160502  0.159044  1
  Cl  Cl9  1  0.978550  0.373507  0.208920  1
  Cl  Cl10  1  0.269078  0.538969  0.017856  1
  Cl  Cl11  1  0.098937  0.073366  0.684745  1
  Cl  Cl12  1  0.471978  0.209803  0.121923  1
  Cl  Cl13  1  0.144499  0.301923  0.517560  1
  Cl  Cl14  1  0.253372  0.856043  0.087041  1
  Cl  Cl15  1  0.019551  0.288791  0.723743  1
  Cl  Cl16  1  0.241646  0.444545  0.523927  1
  Cl  Cl17  1  0.454289  0.884549  0.232085  1
  Cl  Cl18  1  0.356215  0.404838  0.302406  1
  Cl  Cl19  1  0.586971  0.507038  0.128894  1
  Cl  Cl20  1  0.546535  0.075964  0.365230  1
  Cl  Cl21  1  0.453094  0.232656  0.661530  1
  Cl  Cl22  1  0.140461  0.325116  0.909236  1
  Cl  Cl23  1  0.263862  0.727944  0.587101  1
  Cl  Cl24  1  0.846295  0.715016  0.067758  1
  Cl  Cl25  1  0.640504  0.856317  0.391400  1
  Cl  Cl26  1  0.457925  0.831963  0.735499  1
  Cl  Cl27  1  0.463123  0.440701  0.816005  1
  Cl  Cl28  1  0.654447  0.479031  0.619471  1
  Cl  Cl29  1  0.639706  0.975777  0.850427  1
  Cl  Cl30  1  0.855178  0.504147  0.416124  1
  Cl  Cl31  1  0.021660  0.685294  0.211961  1
  Cl  Cl32  1  0.475470  0.926336  0.941348  1
  Cl  Cl33  1  0.749015  0.514049  0.905881  1
  Cl  Cl34  1  0.960637  0.636202  0.716520  1
  F  F35  1  0.232799  0.995348  0.408498  1
  F  F36  1  0.111592  0.061336  0.860065  1
  F  F37  1  0.056803  0.793244  0.486848  1
  F  F38  1  0.864251  0.206459  0.012050  1
  F  F39  1  0.682357  0.296013  0.410548  1
  F  F40  1  0.076904  0.863381  0.978926  1
  F  F41  1  0.882570  0.194910  0.502690  1
  F  F42  1  0.874046  0.975522  0.130417  1
  F  F43  1  0.793946  0.199863  0.876621  1
  F  F44  1  0.840988  0.695281  0.579724  1
  F  F45  1  0.098502  0.897118  0.328550  1
  F  F46  1  0.866810  0.946308  0.634886  1
  F  F47  1  0.143010  0.765312  0.808537  1
