# generated using pymatgen
data_Cu2Bi4Pb2S9
_symmetry_space_group_name_H-M   'P 1'
_cell_length_a   4.04120909
_cell_length_b   11.84662828
_cell_length_c   33.61324592
_cell_angle_alpha   90.00000000
_cell_angle_beta   90.00000000
_cell_angle_gamma   90.00000000
_symmetry_Int_Tables_number   1
_chemical_formula_structural   Cu2Bi4Pb2S9
_chemical_formula_sum   'Cu8 Bi16 Pb8 S36'
_cell_volume   1609.22412801
_cell_formula_units_Z   4
loop_
 _symmetry_equiv_pos_site_id
 _symmetry_equiv_pos_as_xyz
  1  'x, y, z'
loop_
 _atom_site_type_symbol
 _atom_site_label
 _atom_site_symmetry_multiplicity
 _atom_site_fract_x
 _atom_site_fract_y
 _atom_site_fract_z
 _atom_site_occupancy
  Cu  Cu0  1  0.750000  0.267595  0.068060  1
  Cu  Cu1  1  0.250000  0.230260  0.903082  1
  Cu  Cu2  1  0.750000  0.767595  0.431940  1
  Cu  Cu3  1  0.250000  0.232405  0.568060  1
  Cu  Cu4  1  0.250000  0.730260  0.596918  1
  Cu  Cu5  1  0.250000  0.732405  0.931940  1
  Cu  Cu6  1  0.750000  0.769740  0.096918  1
  Cu  Cu7  1  0.750000  0.269740  0.403082  1
  Bi  Bi8  1  0.750000  0.479651  0.892513  1
  Bi  Bi9  1  0.250000  0.014541  0.063451  1
  Bi  Bi10  1  0.250000  0.514541  0.436549  1
  Bi  Bi11  1  0.750000  0.485459  0.563451  1
  Bi  Bi12  1  0.250000  0.520349  0.107487  1
  Bi  Bi13  1  0.250000  0.020349  0.392513  1
  Bi  Bi14  1  0.250000  0.516314  0.775619  1
  Bi  Bi15  1  0.250000  0.346632  0.320685  1
  Bi  Bi16  1  0.250000  0.016314  0.724381  1
  Bi  Bi17  1  0.250000  0.846632  0.179315  1
  Bi  Bi18  1  0.750000  0.983686  0.275619  1
  Bi  Bi19  1  0.750000  0.483686  0.224381  1
  Bi  Bi20  1  0.750000  0.979651  0.607487  1
  Bi  Bi21  1  0.750000  0.985459  0.936549  1
  Bi  Bi22  1  0.750000  0.153368  0.820685  1
  Bi  Bi23  1  0.750000  0.653368  0.679315  1
  Pb  Pb24  1  0.750000  0.173951  0.165628  1
  Pb  Pb25  1  0.750000  0.169565  0.497530  1
  Pb  Pb26  1  0.250000  0.330435  0.997530  1
  Pb  Pb27  1  0.250000  0.826049  0.834372  1
  Pb  Pb28  1  0.250000  0.830435  0.502470  1
  Pb  Pb29  1  0.250000  0.326049  0.665628  1
  Pb  Pb30  1  0.750000  0.673951  0.334372  1
  Pb  Pb31  1  0.750000  0.669565  0.002470  1
  S  S32  1  0.750000  0.779483  0.566533  1
  S  S33  1  0.250000  0.547800  0.624084  1
  S  S34  1  0.750000  0.285637  0.600501  1
  S  S35  1  0.250000  0.714363  0.399499  1
  S  S36  1  0.250000  0.711172  0.731387  1
  S  S37  1  0.250000  0.871994  0.649244  1
  S  S38  1  0.250000  0.045330  0.548857  1
  S  S39  1  0.750000  0.118095  0.020576  1
  S  S40  1  0.750000  0.452200  0.375916  1
  S  S41  1  0.750000  0.952200  0.124084  1
  S  S42  1  0.750000  0.454670  0.048857  1
  S  S43  1  0.250000  0.047800  0.875916  1
  S  S44  1  0.750000  0.128006  0.350756  1
  S  S45  1  0.250000  0.720517  0.066533  1
  S  S46  1  0.750000  0.618095  0.479424  1
  S  S47  1  0.750000  0.628006  0.149244  1
  S  S48  1  0.250000  0.881134  0.317014  1
  S  S49  1  0.250000  0.545330  0.951143  1
  S  S50  1  0.750000  0.954670  0.451143  1
  S  S51  1  0.250000  0.545942  0.286418  1
  S  S52  1  0.750000  0.618866  0.817014  1
  S  S53  1  0.250000  0.045942  0.213582  1
  S  S54  1  0.750000  0.279483  0.933467  1
  S  S55  1  0.750000  0.118866  0.682986  1
  S  S56  1  0.250000  0.371994  0.850756  1
  S  S57  1  0.250000  0.881905  0.979424  1
  S  S58  1  0.750000  0.288828  0.268613  1
  S  S59  1  0.250000  0.381905  0.520576  1
  S  S60  1  0.250000  0.214363  0.100501  1
  S  S61  1  0.750000  0.954058  0.786418  1
  S  S62  1  0.750000  0.785637  0.899499  1
  S  S63  1  0.250000  0.211172  0.768613  1
  S  S64  1  0.750000  0.788828  0.231387  1
  S  S65  1  0.750000  0.454058  0.713582  1
  S  S66  1  0.250000  0.220517  0.433467  1
  S  S67  1  0.250000  0.381134  0.182986  1
