# generated using pymatgen
data_Ca(H8O5)2
_symmetry_space_group_name_H-M   'P 1'
_cell_length_a   6.17252800
_cell_length_b   6.31923644
_cell_length_c   11.82224956
_cell_angle_alpha   92.41291011
_cell_angle_beta   90.17358651
_cell_angle_gamma   87.10929976
_symmetry_Int_Tables_number   1
_chemical_formula_structural   Ca(H8O5)2
_chemical_formula_sum   'Ca2 H32 O20'
_cell_volume   460.13939797
_cell_formula_units_Z   2
loop_
 _symmetry_equiv_pos_site_id
 _symmetry_equiv_pos_as_xyz
  1  'x, y, z'
loop_
 _atom_site_type_symbol
 _atom_site_label
 _atom_site_symmetry_multiplicity
 _atom_site_fract_x
 _atom_site_fract_y
 _atom_site_fract_z
 _atom_site_occupancy
  Ca  Ca0  1  0.992512  0.967626  0.536575  1
  Ca  Ca1  1  0.997397  0.996487  0.995638  1
  H  H2  1  0.278660  0.371458  0.380091  1
  H  H3  1  0.040811  0.275579  0.366920  1
  H  H4  1  0.940218  0.687629  0.340180  1
  H  H5  1  0.714187  0.633830  0.402686  1
  H  H6  1  0.729886  0.075903  0.344545  1
  H  H7  1  0.652590  0.306212  0.409117  1
  H  H8  1  0.325887  0.965822  0.361787  1
  H  H9  1  0.370007  0.725517  0.405976  1
  H  H10  1  0.940934  0.318742  0.832656  1
  H  H11  1  0.699327  0.369361  0.893821  1
  H  H12  1  0.300766  0.610866  0.902972  1
  H  H13  1  0.063746  0.630859  0.841611  1
  H  H14  1  0.279677  0.003279  0.805198  1
  H  H15  1  0.379117  0.152252  0.901392  1
  H  H16  1  0.633349  0.915014  0.827974  1
  H  H17  1  0.636166  0.698620  0.900311  1
  H  H18  1  0.813333  0.711746  0.715934  1
  H  H19  1  0.716977  0.601076  0.602806  1
  H  H20  1  0.273003  0.363993  0.593125  1
  H  H21  1  0.028419  0.432693  0.618161  1
  H  H22  1  0.386028  0.723708  0.613834  1
  H  H23  1  0.446748  0.964070  0.633655  1
  H  H24  1  0.719952  0.181397  0.720802  1
  H  H25  1  0.617599  0.267193  0.606190  1
  H  H26  1  0.287196  0.661775  0.106693  1
  H  H27  1  0.040719  0.680550  0.146839  1
  H  H28  1  0.921592  0.325263  0.183854  1
  H  H29  1  0.721672  0.390150  0.098254  1
  H  H30  1  0.635949  0.728929  0.104292  1
  H  H31  1  0.613627  0.975317  0.129692  1
  H  H32  1  0.284821  0.140209  0.173317  1
  H  H33  1  0.386994  0.299044  0.089237  1
  O  O34  1  0.506709  0.496097  0.437081  1
  O  O35  1  0.524390  0.515683  0.941357  1
  O  O36  1  0.508334  0.493287  0.563782  1
  O  O37  1  0.510910  0.518436  0.067458  1
  O  O38  1  0.184860  0.283358  0.330122  1
  O  O39  1  0.829238  0.741031  0.393737  1
  O  O40  1  0.776555  0.186765  0.398221  1
  O  O41  1  0.260548  0.846741  0.397348  1
  O  O42  1  0.807620  0.254570  0.854574  1
  O  O43  1  0.168058  0.708223  0.885620  1
  O  O44  1  0.251510  0.131506  0.854237  1
  O  O45  1  0.731693  0.809239  0.860452  1
  O  O46  1  0.855139  0.667747  0.637364  1
  O  O47  1  0.126281  0.305571  0.603156  1
  O  O48  1  0.325874  0.867592  0.643111  1
  O  O49  1  0.680477  0.133313  0.641929  1
  O  O50  1  0.163825  0.764299  0.130820  1
  O  O51  1  0.864242  0.300444  0.107589  1
  O  O52  1  0.723813  0.857800  0.122990  1
  O  O53  1  0.337494  0.148942  0.095259  1
