# generated using pymatgen
data_Zr2N2O
_symmetry_space_group_name_H-M   'P 1'
_cell_length_a   8.87551201
_cell_length_b   8.87104316
_cell_length_c   8.86285287
_cell_angle_alpha   109.42313820
_cell_angle_beta   109.41800929
_cell_angle_gamma   109.41624157
_symmetry_Int_Tables_number   1
_chemical_formula_structural   Zr2N2O
_chemical_formula_sum   'Zr16 N16 O8'
_cell_volume   538.21342375
_cell_formula_units_Z   8
loop_
 _symmetry_equiv_pos_site_id
 _symmetry_equiv_pos_as_xyz
  1  'x, y, z'
loop_
 _atom_site_type_symbol
 _atom_site_label
 _atom_site_symmetry_multiplicity
 _atom_site_fract_x
 _atom_site_fract_y
 _atom_site_fract_z
 _atom_site_occupancy
  Zr  Zr0  1  0.216680  0.756406  0.969944  1
  Zr  Zr1  1  0.986311  0.488384  0.481737  1
  Zr  Zr2  1  0.032185  0.782618  0.251498  1
  Zr  Zr3  1  0.463100  0.704917  0.749054  1
  Zr  Zr4  1  0.244855  0.524960  0.283315  1
  Zr  Zr5  1  0.244789  0.033263  0.780046  1
  Zr  Zr6  1  0.009032  0.997099  0.992824  1
  Zr  Zr7  1  0.291751  0.253990  0.535432  1
  Zr  Zr8  1  0.715220  0.746780  0.461132  1
  Zr  Zr9  1  0.506675  0.015835  0.508835  1
  Zr  Zr10  1  0.508182  0.515486  0.012501  1
  Zr  Zr11  1  0.743608  0.963861  0.218828  1
  Zr  Zr12  1  0.749150  0.469664  0.718001  1
  Zr  Zr13  1  0.536897  0.288942  0.255692  1
  Zr  Zr14  1  0.958343  0.209320  0.748592  1
  Zr  Zr15  1  0.794172  0.255088  0.036168  1
  N  N16  1  0.258614  0.985982  0.532718  1
  N  N17  1  0.228240  0.456211  0.489270  1
  N  N18  1  0.041948  0.269051  0.034152  1
  N  N19  1  0.542021  0.510356  0.771592  1
  N  N20  1  0.456016  0.490064  0.227879  1
  N  N21  1  0.465854  0.740062  0.011124  1
  N  N22  1  0.273092  0.030741  0.042585  1
  N  N23  1  0.483721  0.224106  0.451305  1
  N  N24  1  0.726468  0.239408  0.772015  1
  N  N25  1  0.959488  0.728686  0.971313  1
  N  N26  1  0.970345  0.957754  0.728781  1
  N  N27  1  0.778069  0.547224  0.517049  1
  N  N28  1  0.772488  0.727117  0.237230  1
  N  N29  1  0.736587  0.010468  0.466675  1
  N  N30  1  0.760615  0.227778  0.267087  1
  N  N31  1  0.988582  0.534329  0.260162  1
  O  O32  1  0.020234  0.466702  0.741570  1
  O  O33  1  0.237578  0.771701  0.730220  1
  O  O34  1  0.227798  0.273082  0.763299  1
  O  O35  1  0.028901  0.048205  0.271975  1
  O  O36  1  0.276734  0.758769  0.227922  1
  O  O37  1  0.511739  0.775177  0.549241  1
  O  O38  1  0.725329  0.961486  0.948930  1
  O  O39  1  0.528590  0.258930  0.982306  1
