# generated using pymatgen
data_CuAgPO4
_symmetry_space_group_name_H-M   'P 1'
_cell_length_a   5.77081731
_cell_length_b   7.62298805
_cell_length_c   15.95047619
_cell_angle_alpha   90.03131675
_cell_angle_beta   89.99903645
_cell_angle_gamma   89.99954539
_symmetry_Int_Tables_number   1
_chemical_formula_structural   CuAgPO4
_chemical_formula_sum   'Cu8 Ag8 P8 O32'
_cell_volume   701.67524210
_cell_formula_units_Z   8
loop_
 _symmetry_equiv_pos_site_id
 _symmetry_equiv_pos_as_xyz
  1  'x, y, z'
loop_
 _atom_site_type_symbol
 _atom_site_label
 _atom_site_symmetry_multiplicity
 _atom_site_fract_x
 _atom_site_fract_y
 _atom_site_fract_z
 _atom_site_occupancy
  Cu  Cu0  1  0.884905  0.320411  0.471552  1
  Cu  Cu1  1  0.384548  0.320557  0.028631  1
  Cu  Cu2  1  0.615121  0.679303  0.971311  1
  Cu  Cu3  1  0.384846  0.179629  0.528476  1
  Cu  Cu4  1  0.115249  0.820516  0.028612  1
  Cu  Cu5  1  0.884602  0.179395  0.971388  1
  Cu  Cu6  1  0.115212  0.679604  0.528456  1
  Cu  Cu7  1  0.615147  0.820302  0.471553  1
  Ag  Ag8  1  0.124557  0.334961  0.714650  1
  Ag  Ag9  1  0.875597  0.835035  0.785487  1
  Ag  Ag10  1  0.624452  0.335042  0.785488  1
  Ag  Ag11  1  0.375562  0.664990  0.214540  1
  Ag  Ag12  1  0.124431  0.164997  0.214542  1
  Ag  Ag13  1  0.875444  0.665036  0.285379  1
  Ag  Ag14  1  0.624597  0.164990  0.285371  1
  Ag  Ag15  1  0.375425  0.834986  0.714641  1
  P  P16  1  0.399578  0.474018  0.389562  1
  P  P17  1  0.399719  0.026126  0.889604  1
  P  P18  1  0.100456  0.974028  0.389584  1
  P  P19  1  0.899513  0.025989  0.610423  1
  P  P20  1  0.899664  0.473882  0.110358  1
  P  P21  1  0.600329  0.974028  0.110373  1
  P  P22  1  0.600454  0.526015  0.610432  1
  P  P23  1  0.100349  0.525965  0.889642  1
  O  O24  1  0.447983  0.824951  0.068892  1
  O  O25  1  0.175725  0.496791  0.444122  1
  O  O26  1  0.961637  0.350304  0.884617  1
  O  O27  1  0.337519  0.084201  0.799484  1
  O  O28  1  0.324332  0.996849  0.444142  1
  O  O29  1  0.948161  0.825154  0.431227  1
  O  O30  1  0.947986  0.675103  0.931112  1
  O  O31  1  0.538427  0.649664  0.384603  1
  O  O32  1  0.662591  0.584050  0.700515  1
  O  O33  1  0.552174  0.175104  0.931146  1
  O  O34  1  0.461507  0.350343  0.615381  1
  O  O35  1  0.837407  0.084048  0.700493  1
  O  O36  1  0.824366  0.503219  0.555893  1
  O  O37  1  0.162570  0.916005  0.299502  1
  O  O38  1  0.051909  0.174833  0.568756  1
  O  O39  1  0.675656  0.003200  0.555850  1
  O  O40  1  0.824097  0.996562  0.055773  1
  O  O41  1  0.162434  0.584073  0.799542  1
  O  O42  1  0.052141  0.324860  0.068849  1
  O  O43  1  0.961496  0.149668  0.384616  1
  O  O44  1  0.551880  0.325188  0.431246  1
  O  O45  1  0.038488  0.850345  0.615385  1
  O  O46  1  0.538307  0.850392  0.884534  1
  O  O47  1  0.175875  0.003668  0.944169  1
  O  O48  1  0.337413  0.415976  0.299473  1
  O  O49  1  0.461613  0.149711  0.115408  1
  O  O50  1  0.837600  0.415846  0.200485  1
  O  O51  1  0.662470  0.915870  0.200491  1
  O  O52  1  0.448167  0.674844  0.568750  1
  O  O53  1  0.038318  0.649570  0.115463  1
  O  O54  1  0.324148  0.503429  0.944250  1
  O  O55  1  0.675847  0.496378  0.055777  1
