# generated using pymatgen
data_Mo3N2Cl11
_symmetry_space_group_name_H-M   'P 1'
_cell_length_a   10.35873814
_cell_length_b   13.07743849
_cell_length_c   13.82504428
_cell_angle_alpha   90.00000000
_cell_angle_beta   90.00000000
_cell_angle_gamma   90.00000000
_symmetry_Int_Tables_number   1
_chemical_formula_structural   Mo3N2Cl11
_chemical_formula_sum   'Mo12 N8 Cl44'
_cell_volume   1872.82014231
_cell_formula_units_Z   4
loop_
 _symmetry_equiv_pos_site_id
 _symmetry_equiv_pos_as_xyz
  1  'x, y, z'
loop_
 _atom_site_type_symbol
 _atom_site_label
 _atom_site_symmetry_multiplicity
 _atom_site_fract_x
 _atom_site_fract_y
 _atom_site_fract_z
 _atom_site_occupancy
  Mo  Mo0  1  0.379566  0.681136  0.747879  1
  Mo  Mo1  1  0.711093  0.770507  0.817849  1
  Mo  Mo2  1  0.288907  0.229493  0.317849  1
  Mo  Mo3  1  0.174086  0.974298  0.420536  1
  Mo  Mo4  1  0.174086  0.525702  0.920536  1
  Mo  Mo5  1  0.825914  0.474298  0.420536  1
  Mo  Mo6  1  0.379566  0.818864  0.247879  1
  Mo  Mo7  1  0.711093  0.729493  0.317849  1
  Mo  Mo8  1  0.825914  0.025702  0.920536  1
  Mo  Mo9  1  0.620434  0.318864  0.247879  1
  Mo  Mo10  1  0.288907  0.270507  0.817849  1
  Mo  Mo11  1  0.620434  0.181136  0.747879  1
  N  N12  1  0.759149  0.884662  0.865528  1
  N  N13  1  0.714970  0.394100  0.320276  1
  N  N14  1  0.759149  0.615338  0.365528  1
  N  N15  1  0.240851  0.115338  0.365528  1
  N  N16  1  0.285030  0.894100  0.320276  1
  N  N17  1  0.285030  0.605900  0.820276  1
  N  N18  1  0.240851  0.384662  0.865528  1
  N  N19  1  0.714970  0.105900  0.820276  1
  Cl  Cl20  1  0.767882  0.661004  0.939270  1
  Cl  Cl21  1  0.572333  0.916767  0.254484  1
  Cl  Cl22  1  0.889438  0.182804  0.978805  1
  Cl  Cl23  1  0.878062  0.762558  0.216335  1
  Cl  Cl24  1  0.328624  0.878040  0.098550  1
  Cl  Cl25  1  0.255771  0.825682  0.741561  1
  Cl  Cl26  1  0.640000  0.482854  0.509772  1
  Cl  Cl27  1  0.031409  0.512043  0.793998  1
  Cl  Cl28  1  0.744229  0.325682  0.741561  1
  Cl  Cl29  1  0.427667  0.083233  0.754484  1
  Cl  Cl30  1  0.488860  0.768451  0.892870  1
  Cl  Cl31  1  0.328624  0.621960  0.598550  1
  Cl  Cl32  1  0.121938  0.237442  0.716335  1
  Cl  Cl33  1  0.041320  0.443287  0.028782  1
  Cl  Cl34  1  0.255771  0.674318  0.241561  1
  Cl  Cl35  1  0.878062  0.737442  0.716335  1
  Cl  Cl36  1  0.640000  0.017146  0.009772  1
  Cl  Cl37  1  0.041320  0.056713  0.528782  1
  Cl  Cl38  1  0.572333  0.583233  0.754484  1
  Cl  Cl39  1  0.968591  0.487957  0.293998  1
  Cl  Cl40  1  0.417568  0.175348  0.182736  1
  Cl  Cl41  1  0.671376  0.378040  0.098550  1
  Cl  Cl42  1  0.360000  0.982854  0.509772  1
  Cl  Cl43  1  0.582432  0.675348  0.182736  1
  Cl  Cl44  1  0.767882  0.838996  0.439270  1
  Cl  Cl45  1  0.232118  0.338996  0.439270  1
  Cl  Cl46  1  0.958680  0.556713  0.528782  1
  Cl  Cl47  1  0.889438  0.317196  0.478805  1
  Cl  Cl48  1  0.968591  0.012043  0.793998  1
  Cl  Cl49  1  0.511140  0.268451  0.892870  1
  Cl  Cl50  1  0.232118  0.161004  0.939270  1
  Cl  Cl51  1  0.417568  0.324652  0.682736  1
  Cl  Cl52  1  0.360000  0.517146  0.009772  1
  Cl  Cl53  1  0.671376  0.121960  0.598550  1
  Cl  Cl54  1  0.110562  0.817196  0.478805  1
  Cl  Cl55  1  0.958680  0.943287  0.028782  1
  Cl  Cl56  1  0.121938  0.262558  0.216335  1
  Cl  Cl57  1  0.744229  0.174318  0.241561  1
  Cl  Cl58  1  0.031409  0.987957  0.293998  1
  Cl  Cl59  1  0.427667  0.416767  0.254484  1
  Cl  Cl60  1  0.582432  0.824652  0.682736  1
  Cl  Cl61  1  0.488860  0.731549  0.392870  1
  Cl  Cl62  1  0.511140  0.231549  0.392870  1
  Cl  Cl63  1  0.110562  0.682804  0.978805  1
