# generated using pymatgen
data_CeCoGeH
_symmetry_space_group_name_H-M   'P 1'
_cell_length_a   4.00098408
_cell_length_b   4.00100747
_cell_length_c   7.44878078
_cell_angle_alpha   90.00015621
_cell_angle_beta   89.99731238
_cell_angle_gamma   90.00093570
_symmetry_Int_Tables_number   1
_chemical_formula_structural   CeCoGeH
_chemical_formula_sum   'Ce2 Co2 Ge2 H2'
_cell_volume   119.23983827
_cell_formula_units_Z   2
loop_
 _symmetry_equiv_pos_site_id
 _symmetry_equiv_pos_as_xyz
  1  'x, y, z'
loop_
 _atom_site_type_symbol
 _atom_site_label
 _atom_site_symmetry_multiplicity
 _atom_site_fract_x
 _atom_site_fract_y
 _atom_site_fract_z
 _atom_site_occupancy
  Ce  Ce0  1  0.749994  0.749988  0.324645  1
  Ce  Ce1  1  0.250006  0.250003  0.675417  1
  Co  Co2  1  0.750003  0.250003  0.999875  1
  Co  Co3  1  0.249998  0.750002  0.999882  1
  Ge  Ge4  1  0.750002  0.750001  0.828773  1
  Ge  Ge5  1  0.250002  0.250000  0.171104  1
  H  H6  1  0.249996  0.750002  0.500153  1
  H  H7  1  0.750001  0.250001  0.500152  1
