# generated using pymatgen
data_Sr(H8O5)2
_symmetry_space_group_name_H-M   'P 1'
_cell_length_a   6.26773652
_cell_length_b   6.45942125
_cell_length_c   11.35511823
_cell_angle_alpha   90.42028189
_cell_angle_beta   89.92124192
_cell_angle_gamma   90.55024532
_symmetry_Int_Tables_number   1
_chemical_formula_structural   Sr(H8O5)2
_chemical_formula_sum   'Sr2 H32 O20'
_cell_volume   459.68879638
_cell_formula_units_Z   2
loop_
 _symmetry_equiv_pos_site_id
 _symmetry_equiv_pos_as_xyz
  1  'x, y, z'
loop_
 _atom_site_type_symbol
 _atom_site_label
 _atom_site_symmetry_multiplicity
 _atom_site_fract_x
 _atom_site_fract_y
 _atom_site_fract_z
 _atom_site_occupancy
  Sr  Sr0  1  0.995964  0.011586  0.252729  1
  Sr  Sr1  1  0.005004  0.998540  0.755865  1
  H  H2  1  0.273514  0.383626  0.353411  1
  H  H3  1  0.142840  0.312203  0.467735  1
  H  H4  1  0.721455  0.620707  0.342798  1
  H  H5  1  0.902710  0.669716  0.437709  1
  H  H6  1  0.597771  0.284759  0.348624  1
  H  H7  1  0.681545  0.151563  0.457293  1
  H  H8  1  0.447093  0.959145  0.376074  1
  H  H9  1  0.388591  0.718632  0.358731  1
  H  H10  1  0.722897  0.381408  0.848890  1
  H  H11  1  0.961067  0.455014  0.870685  1
  H  H12  1  0.267467  0.611915  0.858884  1
  H  H13  1  0.135369  0.690467  0.971665  1
  H  H14  1  0.439467  0.041580  0.881463  1
  H  H15  1  0.368108  0.275284  0.865308  1
  H  H16  1  0.607472  0.736845  0.853834  1
  H  H17  1  0.681706  0.859398  0.969757  1
  H  H18  1  0.733679  0.627164  0.628792  1
  H  H19  1  0.979391  0.575014  0.620763  1
  H  H20  1  0.298859  0.422902  0.670045  1
  H  H21  1  0.956507  0.309493  0.622807  1
  H  H22  1  0.385673  0.733939  0.645987  1
  H  H23  1  0.322759  0.862771  0.532291  1
  H  H24  1  0.559256  0.036030  0.625687  1
  H  H25  1  0.599494  0.272843  0.647712  1
  H  H26  1  0.033085  0.559762  0.130969  1
  H  H27  1  0.276133  0.621094  0.144919  1
  H  H28  1  0.718536  0.396014  0.146024  1
  H  H29  1  0.855040  0.312794  0.036768  1
  H  H30  1  0.542372  0.964538  0.126951  1
  H  H31  1  0.608732  0.727064  0.141203  1
  H  H32  1  0.303700  0.148227  0.046857  1
  H  H33  1  0.387946  0.281079  0.155684  1
  O  O34  1  0.502216  0.504677  0.312692  1
  O  O35  1  0.480711  0.494032  0.815147  1
  O  O36  1  0.455151  0.485462  0.685064  1
  O  O37  1  0.498357  0.506616  0.181207  1
  O  O38  1  0.147862  0.299416  0.380107  1
  O  O39  1  0.854681  0.706579  0.359290  1
  O  O40  1  0.654815  0.142706  0.371773  1
  O  O41  1  0.328627  0.855763  0.387603  1
  O  O42  1  0.865870  0.329259  0.873065  1
  O  O43  1  0.127470  0.677156  0.882770  1
  O  O44  1  0.313866  0.134598  0.890526  1
  O  O45  1  0.665530  0.873250  0.881208  1
  O  O46  1  0.875317  0.692287  0.621368  1
  O  O47  1  0.110225  0.331152  0.618684  1
  O  O48  1  0.340040  0.874265  0.621561  1
  O  O49  1  0.676548  0.143692  0.625663  1
  O  O50  1  0.133764  0.679144  0.118750  1
  O  O51  1  0.861857  0.333382  0.123180  1
  O  O52  1  0.664651  0.867858  0.114680  1
  O  O53  1  0.328070  0.139167  0.133123  1
