# generated using pymatgen
data_SiO2
_symmetry_space_group_name_H-M   'P 1'
_cell_length_a   8.43751246
_cell_length_b   12.52024864
_cell_length_c   29.05548060
_cell_angle_alpha   90.00000000
_cell_angle_beta   90.00000000
_cell_angle_gamma   90.00000000
_symmetry_Int_Tables_number   1
_chemical_formula_structural   SiO2
_chemical_formula_sum   'Si56 O112'
_cell_volume   3069.41382010
_cell_formula_units_Z   56
loop_
 _symmetry_equiv_pos_site_id
 _symmetry_equiv_pos_as_xyz
  1  'x, y, z'
loop_
 _atom_site_type_symbol
 _atom_site_label
 _atom_site_symmetry_multiplicity
 _atom_site_fract_x
 _atom_site_fract_y
 _atom_site_fract_z
 _atom_site_occupancy
  Si  Si0  1  0.434962  0.216184  0.041465  1
  Si  Si1  1  0.935751  0.267553  0.701447  1
  Si  Si2  1  0.431400  0.049496  0.393401  1
  Si  Si3  1  0.560161  0.544955  0.549326  1
  Si  Si4  1  0.436946  0.156376  0.556492  1
  Si  Si5  1  0.436121  0.633187  0.114895  1
  Si  Si6  1  0.068600  0.049496  0.393401  1
  Si  Si7  1  0.563054  0.843624  0.443508  1
  Si  Si8  1  0.431400  0.950504  0.893401  1
  Si  Si9  1  0.435751  0.732447  0.298553  1
  Si  Si10  1  0.568600  0.950504  0.606599  1
  Si  Si11  1  0.060161  0.544955  0.950674  1
  Si  Si12  1  0.065038  0.216184  0.041465  1
  Si  Si13  1  0.936946  0.156376  0.943508  1
  Si  Si14  1  0.931400  0.049496  0.106599  1
  Si  Si15  1  0.563879  0.366813  0.885105  1
  Si  Si16  1  0.563054  0.156376  0.943508  1
  Si  Si17  1  0.565038  0.216184  0.458535  1
  Si  Si18  1  0.068600  0.950504  0.893401  1
  Si  Si19  1  0.063879  0.366813  0.614895  1
  Si  Si20  1  0.060161  0.455045  0.450674  1
  Si  Si21  1  0.064249  0.267553  0.798553  1
  Si  Si22  1  0.063879  0.633187  0.114895  1
  Si  Si23  1  0.435751  0.267553  0.798553  1
  Si  Si24  1  0.563879  0.633187  0.385105  1
  Si  Si25  1  0.063275  0.965314  0.198675  1
  Si  Si26  1  0.934962  0.783817  0.958535  1
  Si  Si27  1  0.568600  0.049496  0.106599  1
  Si  Si28  1  0.434962  0.783817  0.541465  1
  Si  Si29  1  0.065038  0.783817  0.541465  1
  Si  Si30  1  0.063275  0.034686  0.698675  1
  Si  Si31  1  0.563275  0.034686  0.801325  1
  Si  Si32  1  0.439839  0.455045  0.450674  1
  Si  Si33  1  0.436946  0.843624  0.056492  1
  Si  Si34  1  0.936725  0.965314  0.301325  1
  Si  Si35  1  0.934962  0.216184  0.458535  1
  Si  Si36  1  0.565038  0.783817  0.958535  1
  Si  Si37  1  0.063054  0.156376  0.556492  1
  Si  Si38  1  0.560161  0.455045  0.049326  1
  Si  Si39  1  0.563275  0.965314  0.301325  1
  Si  Si40  1  0.063054  0.843624  0.056492  1
  Si  Si41  1  0.564249  0.267553  0.701447  1
  Si  Si42  1  0.939839  0.455045  0.049326  1
  Si  Si43  1  0.936121  0.633187  0.385105  1
  Si  Si44  1  0.931400  0.950504  0.606599  1
  Si  Si45  1  0.564249  0.732447  0.201447  1
  Si  Si46  1  0.436121  0.366813  0.614895  1
  Si  Si47  1  0.064249  0.732447  0.298553  1
  Si  Si48  1  0.939839  0.544955  0.549326  1
  Si  Si49  1  0.439839  0.544955  0.950674  1
  Si  Si50  1  0.936946  0.843624  0.443508  1
  Si  Si51  1  0.436725  0.034686  0.698675  1
  Si  Si52  1  0.935751  0.732447  0.201447  1
  Si  Si53  1  0.936121  0.366813  0.885105  1
  Si  Si54  1  0.936725  0.034686  0.801325  1
  Si  Si55  1  0.436725  0.965314  0.198675  1
  O  O56  1  0.250000  0.130777  0.564805  1
  O  O57  1  0.017145  0.270994  0.579408  1
  O  O58  1  0.500000  0.683873  0.250000  1
  O  O59  1  0.750000  0.909900  0.598687  1
  O  O60  1  0.538507  0.837984  0.312145  1
  O  O61  1  0.017897  0.670607  0.946263  1
  O  O62  1  0.043393  0.356957  0.838705  1
  O  O63  1  0.973177  0.839575  0.498323  1
  O  O64  1  0.517145  0.270994  0.920592  1
  O  O65  1  0.038507  0.837984  0.187855  1
  O  O66  1  0.036600  0.034813  0.338561  1
  O  O67  1  0.456607  0.643043  0.338705  1
  O  O68  1  0.500000  0.992987  0.250000  1
  O  O69  1  0.517897  0.329393  0.053737  1
  O  O70  1  0.750000  0.994251  0.305544  1
  O  O71  1  0.470831  0.519003  0.090626  1
  O  O72  1  0.750000  0.090100  0.098687  1
  O  O73  1  0.553430  0.138019  0.413953  1
  O  O74  1  0.982855  0.270994  0.920592  1
  O  O75  1  0.250000  0.234580  0.028122  1
  O  O76  1  0.750000  0.234663  0.706504  1
  O  O77  1  0.463400  0.034813  0.338561  1
  O  O78  1  0.250000  0.765420  0.528122  1
  O  O79  1  0.500000  0.007013  0.750000  1
  O  O80  1  0.529169  0.519003  0.409374  1
  O  O81  1  0.250000  0.005749  0.694456  1
  O  O82  1  0.750000  0.358426  0.871089  1
  O  O83  1  0.750000  0.005749  0.805544  1
  O  O84  1  0.250000  0.358426  0.628911  1
  O  O85  1  0.750000  0.765420  0.971878  1
  O  O86  1  0.250000  0.994251  0.194456  1
  O  O87  1  0.750000  0.471787  0.054104  1
  O  O88  1  0.250000  0.234663  0.793496  1
  O  O89  1  0.043393  0.643043  0.338705  1
  O  O90  1  0.956607  0.643043  0.161295  1
  O  O91  1  0.029169  0.519003  0.090626  1
  O  O92  1  0.970831  0.519003  0.409374  1
  O  O93  1  0.482103  0.329393  0.446263  1
  O  O94  1  0.053430  0.861981  0.586047  1
  O  O95  1  0.946570  0.861981  0.913953  1
  O  O96  1  0.982103  0.329393  0.053737  1
  O  O97  1  0.963400  0.965187  0.661439  1
  O  O98  1  0.543393  0.643043  0.161295  1
  O  O99  1  0.456641  0.063987  0.920002  1
  O  O100  1  0.470831  0.480997  0.590626  1
  O  O101  1  0.526823  0.160425  0.998323  1
  O  O102  1  0.456607  0.356957  0.838705  1
  O  O103  1  0.538507  0.162016  0.812145  1
  O  O104  1  0.750000  0.234580  0.471878  1
  O  O105  1  0.982855  0.729006  0.420592  1
  O  O106  1  0.017897  0.329393  0.446263  1
  O  O107  1  0.517145  0.729006  0.420592  1
  O  O108  1  0.250000  0.471787  0.445896  1
  O  O109  1  0.250000  0.909900  0.901313  1
  O  O110  1  0.536600  0.034813  0.161439  1
  O  O111  1  0.000000  0.500000  0.000000  1
  O  O112  1  0.750000  0.130777  0.935195  1
  O  O113  1  0.482855  0.729006  0.079408  1
  O  O114  1  0.961493  0.837984  0.312145  1
  O  O115  1  0.000000  0.500000  0.500000  1
  O  O116  1  0.461493  0.837984  0.187855  1
  O  O117  1  0.482103  0.670607  0.946263  1
  O  O118  1  0.963400  0.034813  0.161439  1
  O  O119  1  0.517897  0.670607  0.553737  1
  O  O120  1  0.250000  0.765337  0.293496  1
  O  O121  1  0.536600  0.965187  0.661439  1
  O  O122  1  0.026823  0.839575  0.001677  1
  O  O123  1  0.038507  0.162016  0.687855  1
  O  O124  1  0.029169  0.480997  0.590626  1
  O  O125  1  0.543393  0.356957  0.661295  1
  O  O126  1  0.463400  0.965187  0.838561  1
  O  O127  1  0.000000  0.316127  0.750000  1
  O  O128  1  0.946570  0.138019  0.413953  1
  O  O129  1  0.750000  0.641574  0.371089  1
  O  O130  1  0.473177  0.839575  0.001677  1
  O  O131  1  0.956641  0.063987  0.579998  1
  O  O132  1  0.482855  0.270994  0.579408  1
  O  O133  1  0.961493  0.162016  0.812145  1
  O  O134  1  0.000000  0.683873  0.250000  1
  O  O135  1  0.017145  0.729006  0.079408  1
  O  O136  1  0.456641  0.936013  0.420002  1
  O  O137  1  0.000000  0.992987  0.250000  1
  O  O138  1  0.500000  0.500000  0.500000  1
  O  O139  1  0.250000  0.090100  0.401313  1
  O  O140  1  0.553430  0.861981  0.913953  1
  O  O141  1  0.473177  0.160425  0.501677  1
  O  O142  1  0.750000  0.528213  0.554104  1
  O  O143  1  0.036600  0.965187  0.838561  1
  O  O144  1  0.026823  0.160425  0.501677  1
  O  O145  1  0.500000  0.500000  0.000000  1
  O  O146  1  0.500000  0.316127  0.750000  1
  O  O147  1  0.543359  0.063987  0.579998  1
  O  O148  1  0.250000  0.528213  0.945896  1
  O  O149  1  0.750000  0.765337  0.206504  1
  O  O150  1  0.956641  0.936013  0.079998  1
  O  O151  1  0.446570  0.138019  0.086047  1
  O  O152  1  0.053430  0.138019  0.086047  1
  O  O153  1  0.043359  0.936013  0.420002  1
  O  O154  1  0.043359  0.063987  0.920002  1
  O  O155  1  0.446570  0.861981  0.586047  1
  O  O156  1  0.529169  0.480997  0.909374  1
  O  O157  1  0.970831  0.480997  0.909374  1
  O  O158  1  0.250000  0.869223  0.064805  1
  O  O159  1  0.250000  0.641574  0.128911  1
  O  O160  1  0.973177  0.160425  0.998323  1
  O  O161  1  0.526823  0.839575  0.498323  1
  O  O162  1  0.000000  0.007013  0.750000  1
  O  O163  1  0.750000  0.869223  0.435195  1
  O  O164  1  0.956607  0.356957  0.661295  1
  O  O165  1  0.461493  0.162016  0.687855  1
  O  O166  1  0.982103  0.670607  0.553737  1
  O  O167  1  0.543359  0.936013  0.079998  1
