# generated using pymatgen
data_H8N2O
_symmetry_space_group_name_H-M   'P 1'
_cell_length_a   9.25569797
_cell_length_b   9.29777185
_cell_length_c   4.98158529
_cell_angle_alpha   90.79200169
_cell_angle_beta   90.00000000
_cell_angle_gamma   90.00000000
_symmetry_Int_Tables_number   1
_chemical_formula_structural   H8N2O
_chemical_formula_sum   'H32 N8 O4'
_cell_volume   428.66116168
_cell_formula_units_Z   4
loop_
 _symmetry_equiv_pos_site_id
 _symmetry_equiv_pos_as_xyz
  1  'x, y, z'
loop_
 _atom_site_type_symbol
 _atom_site_label
 _atom_site_symmetry_multiplicity
 _atom_site_fract_x
 _atom_site_fract_y
 _atom_site_fract_z
 _atom_site_occupancy
  H  H0  1  0.394392  0.951108  0.195785  1
  H  H1  1  0.473291  0.936633  0.175569  1
  H  H2  1  0.259640  0.848259  0.558873  1
  H  H3  1  0.515443  0.771748  0.543936  1
  H  H4  1  0.353545  0.540131  0.347475  1
  H  H5  1  0.601129  0.605298  0.316591  1
  H  H6  1  0.392908  0.630166  0.074669  1
  H  H7  1  0.165332  0.711169  0.275830  1
  H  H8  1  0.105608  0.451108  0.195785  1
  H  H9  1  0.026709  0.436633  0.175569  1
  H  H10  1  0.240360  0.348259  0.558873  1
  H  H11  1  0.334668  0.211169  0.275830  1
  H  H12  1  0.146455  0.040131  0.347475  1
  H  H13  1  0.984557  0.271748  0.543936  1
  H  H14  1  0.898871  0.105298  0.316591  1
  H  H15  1  0.107092  0.130166  0.074669  1
  H  H16  1  0.605608  0.048892  0.804215  1
  H  H17  1  0.526709  0.063367  0.824431  1
  H  H18  1  0.484557  0.228252  0.456064  1
  H  H19  1  0.646455  0.459869  0.652525  1
  H  H20  1  0.740359  0.151741  0.441127  1
  H  H21  1  0.607092  0.369834  0.925331  1
  H  H22  1  0.398871  0.394702  0.683409  1
  H  H23  1  0.834668  0.288831  0.724170  1
  H  H24  1  0.894392  0.548892  0.804215  1
  H  H25  1  0.973291  0.563367  0.824431  1
  H  H26  1  0.101129  0.894702  0.683409  1
  H  H27  1  0.759641  0.651741  0.441127  1
  H  H28  1  0.665332  0.788831  0.724170  1
  H  H29  1  0.015443  0.728252  0.456064  1
  H  H30  1  0.892908  0.869834  0.925331  1
  H  H31  1  0.853545  0.959869  0.652525  1
  N  N32  1  0.084681  0.782429  0.332359  1
  N  N33  1  0.415319  0.282429  0.332359  1
  N  N34  1  0.915319  0.217571  0.667641  1
  N  N35  1  0.584681  0.717571  0.667641  1
  N  N36  1  0.659408  0.612075  0.491132  1
  N  N37  1  0.840592  0.112075  0.491132  1
  N  N38  1  0.340592  0.387925  0.508868  1
  N  N39  1  0.159408  0.887925  0.508868  1
  O  O40  1  0.363512  0.640176  0.262181  1
  O  O41  1  0.136488  0.140176  0.262181  1
  O  O42  1  0.636488  0.359824  0.737819  1
  O  O43  1  0.863512  0.859824  0.737819  1
