# generated using pymatgen
data_CaTiSiO5
_symmetry_space_group_name_H-M   'P 1'
_cell_length_a   6.66462795
_cell_length_b   7.14235581
_cell_length_c   8.77274470
_cell_angle_alpha   90.00000000
_cell_angle_beta   90.00000000
_cell_angle_gamma   114.12816522
_symmetry_Int_Tables_number   1
_chemical_formula_structural   CaTiSiO5
_chemical_formula_sum   'Ca4 Ti4 Si4 O20'
_cell_volume   381.10900758
_cell_formula_units_Z   4
loop_
 _symmetry_equiv_pos_site_id
 _symmetry_equiv_pos_as_xyz
  1  'x, y, z'
loop_
 _atom_site_type_symbol
 _atom_site_label
 _atom_site_symmetry_multiplicity
 _atom_site_fract_x
 _atom_site_fract_y
 _atom_site_fract_z
 _atom_site_occupancy
  O  O0  1  0.849161  0.116514  0.463279  1
  O  O1  1  0.150839  0.383486  0.963279  1
  O  O2  1  0.150839  0.883486  0.536721  1
  O  O3  1  0.849161  0.616514  0.036721  1
  O  O4  1  0.650967  0.884854  0.036393  1
  O  O5  1  0.349033  0.615146  0.536393  1
  O  O6  1  0.349033  0.115146  0.963607  1
  O  O7  1  0.650967  0.384854  0.463607  1
  O  O8  1  0.063502  0.591678  0.313190  1
  O  O9  1  0.936498  0.908322  0.813190  1
  O  O10  1  0.936498  0.408322  0.686810  1
  O  O11  1  0.063502  0.091678  0.186810  1
  O  O12  1  0.750205  0.749866  0.319181  1
  O  O13  1  0.249795  0.750134  0.819181  1
  O  O14  1  0.249795  0.250134  0.680819  1
  O  O15  1  0.750205  0.249866  0.180819  1
  O  O16  1  0.435819  0.906791  0.313485  1
  O  O17  1  0.564181  0.593209  0.813485  1
  O  O18  1  0.564181  0.093209  0.686515  1
  O  O19  1  0.435819  0.406791  0.186515  1
  Si  Si20  1  0.249561  0.249037  0.069582  1
  Si  Si21  1  0.750439  0.250963  0.569582  1
  Si  Si22  1  0.750439  0.750963  0.930418  1
  Si  Si23  1  0.249561  0.749037  0.430418  1
  Ca  Ca24  1  0.749631  0.253634  0.921527  1
  Ca  Ca25  1  0.749631  0.753634  0.578473  1
  Ca  Ca26  1  0.250369  0.246366  0.421527  1
  Ca  Ca27  1  0.250369  0.746366  0.078473  1
  Ti  Ti28  1  0.749783  0.507057  0.252071  1
  Ti  Ti29  1  0.250217  0.492943  0.747929  1
  Ti  Ti30  1  0.749783  0.007057  0.247929  1
  Ti  Ti31  1  0.250217  0.992943  0.752071  1
