# generated using pymatgen
data_CrPO4
_symmetry_space_group_name_H-M   'P 1'
_cell_length_a   4.79367319
_cell_length_b   4.79367335
_cell_length_c   15.82038920
_cell_angle_alpha   98.68419847
_cell_angle_beta   81.31580124
_cell_angle_gamma   78.37124686
_symmetry_Int_Tables_number   1
_chemical_formula_structural   CrPO4
_chemical_formula_sum   'Cr4 P4 O16'
_cell_volume   345.76302933
_cell_formula_units_Z   4
loop_
 _symmetry_equiv_pos_site_id
 _symmetry_equiv_pos_as_xyz
  1  'x, y, z'
loop_
 _atom_site_type_symbol
 _atom_site_label
 _atom_site_symmetry_multiplicity
 _atom_site_fract_x
 _atom_site_fract_y
 _atom_site_fract_z
 _atom_site_occupancy
  Cr  Cr0  1  0.161973  0.661166  0.250037  1
  Cr  Cr1  1  0.838027  0.338834  0.749963  1
  Cr  Cr2  1  0.661166  0.161973  0.249963  1
  Cr  Cr3  1  0.338834  0.838027  0.750037  1
  P  P4  1  0.628144  0.697314  0.130207  1
  P  P5  1  0.371856  0.302686  0.869793  1
  P  P6  1  0.697314  0.628144  0.369793  1
  P  P7  1  0.302686  0.371856  0.630207  1
  O  O8  1  0.060032  0.617402  0.703515  1
  O  O9  1  0.421665  0.541886  0.335266  1
  O  O10  1  0.458114  0.578335  0.835266  1
  O  O11  1  0.633843  0.707395  0.038623  1
  O  O12  1  0.902573  0.781968  0.166017  1
  O  O13  1  0.939968  0.382598  0.296485  1
  O  O14  1  0.292605  0.366157  0.538623  1
  O  O15  1  0.617402  0.060032  0.796485  1
  O  O16  1  0.707395  0.633843  0.461377  1
  O  O17  1  0.541886  0.421665  0.164734  1
  O  O18  1  0.578335  0.458114  0.664734  1
  O  O19  1  0.097427  0.218032  0.833983  1
  O  O20  1  0.218032  0.097427  0.666017  1
  O  O21  1  0.781968  0.902573  0.333983  1
  O  O22  1  0.366157  0.292605  0.961377  1
  O  O23  1  0.382598  0.939968  0.203515  1
