# generated using pymatgen
data_Np2Se3
_symmetry_space_group_name_H-M   'P 1'
_cell_length_a   22.49590270
_cell_length_b   8.66260553
_cell_length_c   8.66260507
_cell_angle_alpha   90.00000000
_cell_angle_beta   54.71722859
_cell_angle_gamma   54.71722853
_symmetry_Int_Tables_number   1
_chemical_formula_structural   Np2Se3
_chemical_formula_sum   'Np16 Se24'
_cell_volume   973.74526772
_cell_formula_units_Z   8
loop_
 _symmetry_equiv_pos_site_id
 _symmetry_equiv_pos_as_xyz
  1  'x, y, z'
loop_
 _atom_site_type_symbol
 _atom_site_label
 _atom_site_symmetry_multiplicity
 _atom_site_fract_x
 _atom_site_fract_y
 _atom_site_fract_z
 _atom_site_occupancy
  Np  Np0  1  0.997708  0.384243  0.251893  1
  Np  Np1  1  0.997708  0.122634  0.754985  1
  Np  Np2  1  0.081793  0.627309  0.377309  1
  Np  Np3  1  0.166667  0.250000  0.632244  1
  Np  Np4  1  0.335625  0.377366  0.248107  1
  Np  Np5  1  0.251540  0.872691  0.122691  1
  Np  Np6  1  0.166667  0.750000  0.867756  1
  Np  Np7  1  0.335625  0.115757  0.745015  1
  Np  Np8  1  0.497708  0.254985  0.622634  1
  Np  Np9  1  0.666667  0.367756  0.250000  1
  Np  Np10  1  0.581793  0.877309  0.127309  1
  Np  Np11  1  0.497708  0.751893  0.884243  1
  Np  Np12  1  0.666667  0.132244  0.750000  1
  Np  Np13  1  0.751540  0.622691  0.372691  1
  Np  Np14  1  0.835625  0.245015  0.615757  1
  Np  Np15  1  0.835625  0.748107  0.877366  1
  Se  Se16  1  0.120493  0.492967  0.996919  1
  Se  Se17  1  0.051252  0.346728  0.498789  1
  Se  Se18  1  0.282081  0.153272  0.152545  1
  Se  Se19  1  0.051252  0.999517  0.347455  1
  Se  Se20  1  0.282081  0.500483  0.001211  1
  Se  Se21  1  0.212840  0.007033  0.858400  1
  Se  Se22  1  0.120493  0.645552  0.641600  1
  Se  Se23  1  0.212840  0.854448  0.503081  1
  Se  Se24  1  0.448666  0.499373  0.998436  1
  Se  Se25  1  0.384668  0.344432  0.500627  1
  Se  Se26  1  0.620493  0.141600  0.145552  1
  Se  Se27  1  0.384668  0.001564  0.345370  1
  Se  Se28  1  0.620493  0.496919  0.992967  1
  Se  Se29  1  0.551252  0.998789  0.846728  1
  Se  Se30  1  0.448666  0.654630  0.655567  1
  Se  Se31  1  0.551252  0.847455  0.499517  1
  Se  Se32  1  0.782081  0.501211  0.000483  1
  Se  Se33  1  0.712840  0.358400  0.507033  1
  Se  Se34  1  0.948666  0.155567  0.154630  1
  Se  Se35  1  0.712840  0.003081  0.354448  1
  Se  Se36  1  0.948666  0.498435  -0.000627  1
  Se  Se37  1  0.884668  0.000627  0.844433  1
  Se  Se38  1  0.782081  0.652545  0.653272  1
  Se  Se39  1  0.884668  0.845370  0.501564  1
