# generated using pymatgen
data_Sc10Mn17S32
_symmetry_space_group_name_H-M   'P 1'
_cell_length_a   7.34757659
_cell_length_b   7.39468898
_cell_length_c   28.90377956
_cell_angle_alpha   60.81505151
_cell_angle_beta   60.75839875
_cell_angle_gamma   61.20909474
_symmetry_Int_Tables_number   1
_chemical_formula_structural   Sc10Mn17S32
_chemical_formula_sum   'Sc10 Mn17 S32'
_cell_volume   1133.63263727
_cell_formula_units_Z   1
loop_
 _symmetry_equiv_pos_site_id
 _symmetry_equiv_pos_as_xyz
  1  'x, y, z'
loop_
 _atom_site_type_symbol
 _atom_site_label
 _atom_site_symmetry_multiplicity
 _atom_site_fract_x
 _atom_site_fract_y
 _atom_site_fract_z
 _atom_site_occupancy
  Sc  Sc0  1  0.997663  0.506326  0.122610  1
  Sc  Sc1  1  0.507558  0.007672  0.124606  1
  Sc  Sc2  1  0.510548  0.488204  0.003771  1
  Sc  Sc3  1  0.008245  0.460105  0.256112  1
  Sc  Sc4  1  0.010554  0.460823  0.503485  1
  Sc  Sc5  1  0.507026  0.991900  0.375724  1
  Sc  Sc6  1  0.507783  0.992898  0.624326  1
  Sc  Sc7  1  0.009207  0.463132  0.751090  1
  Sc  Sc8  1  0.009740  0.501272  0.875172  1
  Sc  Sc9  1  0.504850  0.004543  0.873454  1
  Mn  Mn10  1  0.417193  0.026143  0.007841  1
  Mn  Mn11  1  0.500475  0.493685  0.120796  1
  Mn  Mn12  1  0.436554  0.006590  0.258497  1
  Mn  Mn13  1  0.001655  0.505395  0.374305  1
  Mn  Mn14  1  0.496824  0.494176  0.255839  1
  Mn  Mn15  1  0.445639  0.004011  0.506320  1
  Mn  Mn16  1  0.498088  0.494901  0.372134  1
  Mn  Mn17  1  0.003610  0.506233  0.623403  1
  Mn  Mn18  1  0.910697  0.932100  0.207460  1
  Mn  Mn19  1  0.498363  0.495840  0.504580  1
  Mn  Mn20  1  0.500355  0.496402  0.620921  1
  Mn  Mn21  1  0.906984  0.936493  0.457226  1
  Mn  Mn22  1  0.498974  0.498632  0.753716  1
  Mn  Mn23  1  0.500683  0.485046  0.873657  1
  Mn  Mn24  1  0.442583  0.010975  0.754226  1
  Mn  Mn25  1  0.908652  0.936644  0.706959  1
  Mn  Mn26  1  0.919769  0.877218  0.963745  1
  S  S27  1  0.252918  0.249465  0.065524  1
  S  S28  1  0.236691  0.239059  0.189992  1
  S  S29  1  0.258825  0.731674  0.065305  1
  S  S30  1  0.731841  0.254726  0.068202  1
  S  S31  1  0.280475  0.709252  0.189018  1
  S  S32  1  0.244631  0.235753  0.317978  1
  S  S33  1  0.708045  0.298882  0.186821  1
  S  S34  1  0.246974  0.237549  0.438016  1
  S  S35  1  0.264171  0.718307  0.315024  1
  S  S36  1  0.736882  0.760798  0.063798  1
  S  S37  1  0.760955  0.746358  0.189880  1
  S  S38  1  0.729947  0.255742  0.314774  1
  S  S39  1  0.279173  0.713975  0.438565  1
  S  S40  1  0.247761  0.237814  0.565567  1
  S  S41  1  0.719707  0.307112  0.434438  1
  S  S42  1  0.248309  0.239899  0.685785  1
  S  S43  1  0.266406  0.719146  0.564068  1
  S  S44  1  0.755932  0.755240  0.308826  1
  S  S45  1  0.756619  0.754124  0.439217  1
  S  S46  1  0.730448  0.258884  0.563718  1
  S  S47  1  0.247769  0.243647  0.813575  1
  S  S48  1  0.281411  0.715269  0.686757  1
  S  S49  1  0.719818  0.306832  0.683489  1
  S  S50  1  0.257298  0.244740  0.934336  1
  S  S51  1  0.268961  0.726587  0.812112  1
  S  S52  1  0.757749  0.754758  0.557984  1
  S  S53  1  0.737220  0.259001  0.810614  1
  S  S54  1  0.758700  0.757560  0.687498  1
  S  S55  1  0.299619  0.727548  0.931809  1
  S  S56  1  0.739923  0.264607  0.935482  1
  S  S57  1  0.767566  0.745588  0.807859  1
  S  S58  1  0.746988  0.752746  0.936995  1
