# generated using pymatgen
data_HfTl8(MoO4)6
_symmetry_space_group_name_H-M   'P 1'
_cell_length_a   8.00524454
_cell_length_b   10.18601830
_cell_length_c   10.88446036
_cell_angle_alpha   62.10091800
_cell_angle_beta   81.40874996
_cell_angle_gamma   71.38212590
_symmetry_Int_Tables_number   1
_chemical_formula_structural   HfTl8(MoO4)6
_chemical_formula_sum   'Hf1 Tl8 Mo6 O24'
_cell_volume   743.33290742
_cell_formula_units_Z   1
loop_
 _symmetry_equiv_pos_site_id
 _symmetry_equiv_pos_as_xyz
  1  'x, y, z'
loop_
 _atom_site_type_symbol
 _atom_site_label
 _atom_site_symmetry_multiplicity
 _atom_site_fract_x
 _atom_site_fract_y
 _atom_site_fract_z
 _atom_site_occupancy
  Hf  Hf0  1  0.000000  0.000000  0.000000  1
  Tl  Tl1  1  0.358859  0.214873  0.000000  1
  Tl  Tl2  1  0.896881  0.863629  0.652309  1
  Tl  Tl3  1  0.500000  0.333605  0.332790  1
  Tl  Tl4  1  0.641141  0.785127  1.000000  1
  Tl  Tl5  1  0.103119  0.136371  0.347691  1
  Tl  Tl6  1  0.500000  0.666395  0.667210  1
  Tl  Tl7  1  0.896881  0.515938  0.347691  1
  Tl  Tl8  1  0.103119  0.484062  0.652309  1
  Mo  Mo9  1  0.708331  0.259777  0.684504  1
  Mo  Mo10  1  0.291669  0.740223  0.315496  1
  Mo  Mo11  1  0.213252  0.612537  0.000000  1
  Mo  Mo12  1  0.291669  0.055720  0.684504  1
  Mo  Mo13  1  0.708331  0.944280  0.315496  1
  Mo  Mo14  1  0.786748  0.387463  1.000000  1
  O  O15  1  0.192286  0.908895  0.150543  1
  O  O16  1  0.207418  0.584597  0.350592  1
  O  O17  1  0.192286  0.059439  0.849457  1
  O  O18  1  0.770843  0.216936  0.540116  1
  O  O19  1  0.807714  0.091105  0.849457  1
  O  O20  1  0.229157  0.783064  0.459884  1
  O  O21  1  0.525574  0.977298  0.699690  1
  O  O22  1  0.799559  0.413210  0.149285  1
  O  O23  1  0.474426  0.323012  0.699690  1
  O  O24  1  0.770843  0.757052  0.459884  1
  O  O25  1  0.792582  0.064811  0.350592  1
  O  O26  1  0.200441  0.586790  0.850715  1
  O  O27  1  0.035917  0.785079  0.000000  1
  O  O28  1  0.229157  0.242948  0.540116  1
  O  O29  1  0.474426  0.022702  0.300310  1
  O  O30  1  0.799559  0.562495  0.850715  1
  O  O31  1  0.525574  0.676988  0.300310  1
  O  O32  1  0.207418  0.935189  0.649408  1
  O  O33  1  0.792582  0.415403  0.649408  1
  O  O34  1  0.585112  0.349533  0.000000  1
  O  O35  1  0.964083  0.214921  1.000000  1
  O  O36  1  0.807714  0.940561  0.150543  1
  O  O37  1  0.414888  0.650467  1.000000  1
  O  O38  1  0.200441  0.437505  0.149285  1
