# generated using pymatgen
data_Ba4Yb3F17
_symmetry_space_group_name_H-M   'P 1'
_cell_length_a   9.37321842
_cell_length_b   9.46629648
_cell_length_c   9.39747326
_cell_angle_alpha   72.27817206
_cell_angle_beta   72.81139761
_cell_angle_gamma   72.61896878
_symmetry_Int_Tables_number   1
_chemical_formula_structural   Ba4Yb3F17
_chemical_formula_sum   'Ba8 Yb6 F34'
_cell_volume   738.55298012
_cell_formula_units_Z   2
loop_
 _symmetry_equiv_pos_site_id
 _symmetry_equiv_pos_as_xyz
  1  'x, y, z'
loop_
 _atom_site_type_symbol
 _atom_site_label
 _atom_site_symmetry_multiplicity
 _atom_site_fract_x
 _atom_site_fract_y
 _atom_site_fract_z
 _atom_site_occupancy
  Yb  Yb0  1  0.157756  0.608546  0.469326  1
  Yb  Yb1  1  0.464863  0.160155  0.608940  1
  Yb  Yb2  1  0.389124  0.531462  0.842365  1
  Yb  Yb3  1  0.599800  0.470219  0.159276  1
  Yb  Yb4  1  0.530519  0.841817  0.390393  1
  Yb  Yb5  1  0.839025  0.393934  0.539240  1
  Ba  Ba6  1  0.071415  0.321997  0.870112  1
  Ba  Ba7  1  0.271907  0.274184  0.274227  1
  Ba  Ba8  1  0.321566  0.871829  0.068755  1
  Ba  Ba9  1  0.128660  0.930437  0.677651  1
  Ba  Ba10  1  0.873464  0.062451  0.320927  1
  Ba  Ba11  1  0.676949  0.129339  0.932964  1
  Ba  Ba12  1  0.726471  0.726420  0.728939  1
  Ba  Ba13  1  0.934875  0.684021  0.124094  1
  F  F14  1  -0.000199  0.998724  0.001641  1
  F  F15  1  0.017609  0.177881  0.454230  1
  F  F16  1  0.136212  0.138050  0.137578  1
  F  F17  1  0.037196  0.490306  0.360422  1
  F  F18  1  0.174395  0.456006  0.021507  1
  F  F19  1  0.074167  0.794631  0.264335  1
  F  F20  1  0.454188  0.021200  0.177238  1
  F  F21  1  0.360520  0.041251  0.491274  1
  F  F22  1  0.263798  0.074258  0.793896  1
  F  F23  1  0.265127  0.350575  0.544799  1
  F  F24  1  0.207631  0.588368  0.698606  1
  F  F25  1  0.346281  0.545783  0.263373  1
  F  F26  1  0.488722  0.360959  0.042640  1
  F  F27  1  0.299801  0.792438  0.413531  1
  F  F28  1  0.205851  0.736627  0.924933  1
  F  F29  1  0.546314  0.254733  0.344599  1
  F  F30  1  0.410151  0.300702  0.792069  1
  F  F31  1  0.595531  0.459492  0.448632  1
  F  F32  1  0.586812  0.702905  0.202841  1
  F  F33  1  0.454985  0.733207  0.648505  1
  F  F34  1  0.794007  0.266227  0.076493  1
  F  F35  1  0.704650  0.198087  0.593214  1
  F  F36  1  0.507661  0.639764  0.959012  1
  F  F37  1  0.651110  0.454214  0.741351  1
  F  F38  1  0.794075  0.408564  0.298942  1
  F  F39  1  0.741166  0.654465  0.453321  1
  F  F40  1  0.735359  0.926101  0.204963  1
  F  F41  1  0.638657  0.957482  0.510579  1
  F  F42  1  0.543840  0.980623  0.824236  1
  F  F43  1  0.925275  0.206832  0.737324  1
  F  F44  1  0.822499  0.542891  0.985155  1
  F  F45  1  0.957253  0.510117  0.640412  1
  F  F46  1  0.862530  0.863506  0.861976  1
  F  F47  1  0.978429  0.823225  0.545162  1
