# generated using pymatgen
data_Co2C5SO5
_symmetry_space_group_name_H-M   'P 1'
_cell_length_a   6.70610621
_cell_length_b   9.92265610
_cell_length_c   12.30626811
_cell_angle_alpha   96.78113966
_cell_angle_beta   90.00000000
_cell_angle_gamma   90.00000000
_symmetry_Int_Tables_number   1
_chemical_formula_structural   Co2C5SO5
_chemical_formula_sum   'Co8 C20 S4 O20'
_cell_volume   813.15984802
_cell_formula_units_Z   4
loop_
 _symmetry_equiv_pos_site_id
 _symmetry_equiv_pos_as_xyz
  1  'x, y, z'
loop_
 _atom_site_type_symbol
 _atom_site_label
 _atom_site_symmetry_multiplicity
 _atom_site_fract_x
 _atom_site_fract_y
 _atom_site_fract_z
 _atom_site_occupancy
  Co  Co0  1  0.928459  0.175775  0.029844  1
  Co  Co1  1  0.571541  0.675775  0.529844  1
  Co  Co2  1  0.456798  0.514243  0.357176  1
  Co  Co3  1  0.071541  0.824225  0.970156  1
  Co  Co4  1  0.428459  0.324225  0.470156  1
  Co  Co5  1  0.543202  0.485757  0.642824  1
  Co  Co6  1  0.956798  0.985757  0.142824  1
  Co  Co7  1  0.043202  0.014243  0.857176  1
  C  C8  1  0.795808  0.752594  0.491635  1
  C  C9  1  0.704192  0.252594  0.991635  1
  C  C10  1  0.620590  0.669617  0.681276  1
  C  C11  1  0.634420  0.521726  0.251360  1
  C  C12  1  0.204192  0.247406  0.508365  1
  C  C13  1  0.257915  0.598817  0.298851  1
  C  C14  1  0.742085  0.401183  0.701149  1
  C  C15  1  0.580762  0.176802  0.454900  1
  C  C16  1  0.919238  0.676802  0.954900  1
  C  C17  1  0.879410  0.169617  0.181276  1
  C  C18  1  0.865580  0.021726  0.751360  1
  C  C19  1  0.080762  0.323198  0.045100  1
  C  C20  1  0.134420  0.978274  0.248640  1
  C  C21  1  0.120590  0.830383  0.818724  1
  C  C22  1  0.295808  0.747406  0.008365  1
  C  C23  1  0.365580  0.478274  0.748640  1
  C  C24  1  0.757915  0.901183  0.201149  1
  C  C25  1  0.242085  0.098817  0.798851  1
  C  C26  1  0.379410  0.330383  0.318724  1
  C  C27  1  0.419238  0.823198  0.545100  1
  S  S28  1  0.806428  0.965541  0.977253  1
  S  S29  1  0.193572  0.034459  0.022747  1
  S  S30  1  0.693572  0.465541  0.477253  1
  S  S31  1  0.306428  0.534459  0.522747  1
  O  O32  1  0.134927  0.657746  0.258417  1
  O  O33  1  0.365073  0.157746  0.758417  1
  O  O34  1  0.255864  0.471654  0.820241  1
  O  O35  1  0.755864  0.028346  0.679759  1
  O  O36  1  0.063351  0.193547  0.536114  1
  O  O37  1  0.331411  0.257470  0.240660  1
  O  O38  1  0.668589  0.742530  0.759340  1
  O  O39  1  0.329128  0.923061  0.555901  1
  O  O40  1  0.831411  0.242530  0.259340  1
  O  O41  1  0.634927  0.842254  0.241583  1
  O  O42  1  0.563351  0.306453  0.963886  1
  O  O43  1  0.168589  0.757470  0.740660  1
  O  O44  1  0.436649  0.693547  0.036114  1
  O  O45  1  0.829128  0.576939  0.944099  1
  O  O46  1  0.936649  0.806453  0.463886  1
  O  O47  1  0.865073  0.342254  0.741583  1
  O  O48  1  0.744136  0.528346  0.179759  1
  O  O49  1  0.170872  0.423061  0.055901  1
  O  O50  1  0.670872  0.076939  0.444099  1
  O  O51  1  0.244136  0.971654  0.320241  1
