# generated using pymatgen
data_Sr22Nb10O47
_symmetry_space_group_name_H-M   'P 1'
_cell_length_a   6.00953242
_cell_length_b   5.94925281
_cell_length_c   50.42247797
_cell_angle_alpha   58.47907862
_cell_angle_beta   58.34655548
_cell_angle_gamma   61.13931640
_symmetry_Int_Tables_number   1
_chemical_formula_structural   Sr22Nb10O47
_chemical_formula_sum   'Sr22 Nb10 O47'
_cell_volume   1253.05150037
_cell_formula_units_Z   1
loop_
 _symmetry_equiv_pos_site_id
 _symmetry_equiv_pos_as_xyz
  1  'x, y, z'
loop_
 _atom_site_type_symbol
 _atom_site_label
 _atom_site_symmetry_multiplicity
 _atom_site_fract_x
 _atom_site_fract_y
 _atom_site_fract_z
 _atom_site_occupancy
  Sr  Sr0  1  0.129120  0.325336  0.036161  1
  Sr  Sr1  1  0.184429  0.327456  0.139057  1
  Sr  Sr2  1  0.456478  0.597419  0.052171  1
  Sr  Sr3  1  0.645582  0.775420  0.098317  1
  Sr  Sr4  1  0.221155  0.257256  0.277691  1
  Sr  Sr5  1  0.395814  0.518238  0.185859  1
  Sr  Sr6  1  0.647252  0.802399  0.208050  1
  Sr  Sr7  1  0.204525  0.288107  0.413293  1
  Sr  Sr8  1  0.766959  0.758019  0.347945  1
  Sr  Sr9  1  0.176129  0.342313  0.518162  1
  Sr  Sr10  1  0.470411  0.564987  0.434128  1
  Sr  Sr11  1  0.660821  0.787325  0.476040  1
  Sr  Sr12  1  0.217699  0.256955  0.654380  1
  Sr  Sr13  1  0.401711  0.525404  0.562935  1
  Sr  Sr14  1  0.212612  0.301281  0.789154  1
  Sr  Sr15  1  0.649897  0.807747  0.585233  1
  Sr  Sr16  1  0.765741  0.756053  0.723934  1
  Sr  Sr17  1  0.185011  0.330015  0.898237  1
  Sr  Sr18  1  0.475953  0.564566  0.811600  1
  Sr  Sr19  1  0.668317  0.780507  0.854730  1
  Sr  Sr20  1  0.422883  0.501908  0.942957  1
  Sr  Sr21  1  0.705930  0.773002  0.959184  1
  Nb  Nb22  1  0.996858  0.056810  0.996256  1
  Nb  Nb23  1  0.915167  0.050364  0.119949  1
  Nb  Nb24  1  0.927449  0.041455  0.238009  1
  Nb  Nb25  1  0.498861  0.508488  0.317341  1
  Nb  Nb26  1  0.005611  0.048599  0.371454  1
  Nb  Nb27  1  0.921787  0.061170  0.497700  1
  Nb  Nb28  1  0.927698  0.043605  0.615236  1
  Nb  Nb29  1  0.495769  0.508009  0.693682  1
  Nb  Nb30  1  -0.000108  0.051989  0.748287  1
  Nb  Nb31  1  0.937301  0.056435  0.874432  1
  O  O32  1  0.102254  0.364314  0.088278  1
  O  O33  1  0.809543  0.393856  0.008345  1
  O  O34  1  0.229973  0.819366  0.091886  1
  O  O35  1  0.224755  0.125517  0.233248  1
  O  O36  1  0.796686  0.825865  0.036541  1
  O  O37  1  0.725171  0.213009  0.085669  1
  O  O38  1  0.597538  0.298583  0.144836  1
  O  O39  1  0.113228  0.881494  0.150886  1
  O  O40  1  0.203701  0.700138  0.228982  1
  O  O41  1  0.178822  0.392205  0.331194  1
  O  O42  1  0.860815  0.190646  0.198353  1
  O  O43  1  0.724901  0.764311  0.147006  1
  O  O44  1  0.656008  0.349477  0.250805  1
  O  O45  1  0.749192  0.208759  0.304725  1
  O  O46  1  0.195502  0.866828  0.334257  1
  O  O47  1  0.085257  0.386823  0.468564  1
  O  O48  1  0.624223  0.373846  0.351975  1
  O  O49  1  0.672257  0.789518  0.277263  1
  O  O50  1  0.742153  0.252356  0.400778  1
  O  O51  1  0.262660  0.844011  0.467662  1
  O  O52  1  0.285189  0.897228  0.388234  1
  O  O53  1  0.224304  0.133378  0.609802  1
  O  O54  1  0.758384  0.200668  0.463612  1
  O  O55  1  0.850908  0.749197  0.396520  1
  O  O56  1  0.594367  0.295268  0.523458  1
  O  O57  1  0.123958  0.890468  0.528446  1
  O  O58  1  0.206485  0.704489  0.606000  1
  O  O59  1  0.176591  0.373561  0.708184  1
  O  O60  1  0.858210  0.190424  0.575900  1
  O  O61  1  0.748722  0.757087  0.524266  1
  O  O62  1  0.652530  0.350675  0.627886  1
  O  O63  1  0.746616  0.204001  0.681327  1
  O  O64  1  0.197517  0.847507  0.709480  1
  O  O65  1  0.095821  0.381628  0.845888  1
  O  O66  1  0.679300  0.782391  0.653779  1
  O  O67  1  0.621544  0.371712  0.728453  1
  O  O68  1  0.736586  0.247474  0.778050  1
  O  O69  1  0.278136  0.883478  0.765795  1
  O  O70  1  0.274656  0.834529  0.845859  1
  O  O71  1  0.328800  0.056203  0.996091  1
  O  O72  1  0.774157  0.200711  0.840209  1
  O  O73  1  0.851942  0.749498  0.771262  1
  O  O74  1  0.611356  0.284669  0.901841  1
  O  O75  1  0.136180  0.885803  0.906578  1
  O  O76  1  0.248140  0.737872  0.980052  1
  O  O77  1  0.757545  0.754836  0.900846  1
  O  O78  1  0.887793  0.274485  0.957568  1
