# generated using pymatgen
data_C13Cl3
_symmetry_space_group_name_H-M   'P 1'
_cell_length_a   13.06092946
_cell_length_b   13.06092976
_cell_length_c   18.77056614
_cell_angle_alpha   90.00000000
_cell_angle_beta   90.00000000
_cell_angle_gamma   119.99999923
_symmetry_Int_Tables_number   1
_chemical_formula_structural   C13Cl3
_chemical_formula_sum   'C156 Cl36'
_cell_volume   2773.04032192
_cell_formula_units_Z   12
loop_
 _symmetry_equiv_pos_site_id
 _symmetry_equiv_pos_as_xyz
  1  'x, y, z'
loop_
 _atom_site_type_symbol
 _atom_site_label
 _atom_site_symmetry_multiplicity
 _atom_site_fract_x
 _atom_site_fract_y
 _atom_site_fract_z
 _atom_site_occupancy
  C  C0  1  0.897968  0.642629  0.825722  1
  C  C1  1  0.672172  0.847442  0.212688  1
  C  C2  1  0.476435  0.451714  0.250000  1
  C  C3  1  0.699924  0.455143  0.959448  1
  C  C4  1  0.637925  0.630446  0.750000  1
  C  C5  1  0.175270  0.327828  0.212688  1
  C  C6  1  0.580323  0.369319  0.959409  1
  C  C7  1  0.244781  0.699924  0.459448  1
  C  C8  1  0.517815  0.976134  0.683435  1
  C  C9  1  0.486773  0.947991  0.376082  1
  C  C10  1  0.952098  0.286308  0.816634  1
  C  C11  1  0.975279  0.523565  0.250000  1
  C  C12  1  0.630446  0.992520  0.250000  1
  C  C13  1  0.538782  0.486773  0.876082  1
  C  C14  1  0.023866  0.541681  0.683435  1
  C  C15  1  0.665790  0.952098  0.316634  1
  C  C16  1  0.613651  0.642102  0.287291  1
  C  C17  1  0.886814  0.500811  0.918433  1
  C  C18  1  0.947991  0.461218  0.876082  1
  C  C19  1  0.263977  0.872129  0.402418  1
  C  C20  1  0.386004  0.886814  0.081567  1
  C  C21  1  0.513227  0.052009  0.623918  1
  C  C22  1  0.024721  0.476435  0.750000  1
  C  C23  1  0.086487  0.661881  0.123840  1
  C  C24  1  0.052009  0.538782  0.123918  1
  C  C25  1  0.613651  0.642102  0.212709  1
  C  C26  1  0.486773  0.947991  0.123918  1
  C  C27  1  0.327828  0.152558  0.787312  1
  C  C28  1  0.744661  0.102032  0.825722  1
  C  C29  1  0.713692  0.665790  0.816634  1
  C  C30  1  0.642102  0.028451  0.787291  1
  C  C31  1  0.175270  0.327828  0.287312  1
  C  C32  1  0.461218  0.513227  0.123918  1
  C  C33  1  0.461218  0.513227  0.376082  1
  C  C34  1  0.755219  0.300076  0.540552  1
  C  C35  1  0.357371  0.255339  0.674278  1
  C  C36  1  0.847442  0.175270  0.787312  1
  C  C37  1  0.386349  0.357898  0.712709  1
  C  C38  1  0.127871  0.391848  0.097582  1
  C  C39  1  0.255339  0.897968  0.325722  1
  C  C40  1  0.263977  0.872129  0.097582  1
  C  C41  1  0.736023  0.127871  0.902418  1
  C  C42  1  0.661881  0.575394  0.876160  1
  C  C43  1  0.127871  0.391848  0.402418  1
  C  C44  1  0.736023  0.127871  0.597582  1
  C  C45  1  0.642629  0.744661  0.174278  1
  C  C46  1  0.086487  0.661881  0.376160  1
  C  C47  1  0.455143  0.755219  0.459448  1
  C  C48  1  0.847442  0.175270  0.712688  1
  C  C49  1  0.357371  0.255339  0.825722  1
  C  C50  1  0.755219  0.300076  0.959448  1
  C  C51  1  0.211003  0.580323  0.040591  1
  C  C52  1  0.369319  0.788997  0.040591  1
  C  C53  1  0.211003  0.580323  0.459409  1
  C  C54  1  0.642102  0.028451  0.712709  1
  C  C55  1  0.744661  0.102032  0.674278  1
  C  C56  1  0.327828  0.152558  0.712688  1
  C  C57  1  0.047902  0.713692  0.183366  1
  C  C58  1  0.992520  0.362075  0.750000  1
  C  C59  1  0.007480  0.637925  0.250000  1
  C  C60  1  0.500811  0.613996  0.081567  1
  C  C61  1  0.559047  0.818455  0.081370  1
  C  C62  1  0.028451  0.386349  0.212709  1
  C  C63  1  0.947991  0.461218  0.623918  1
  C  C64  1  0.152558  0.824730  0.287312  1
  C  C65  1  0.886814  0.500811  0.581567  1
  C  C66  1  0.023866  0.541681  0.816565  1
  C  C67  1  0.538782  0.486773  0.623918  1
  C  C68  1  0.152558  0.824730  0.212688  1
  C  C69  1  0.300076  0.544857  0.040552  1
  C  C70  1  0.913513  0.338119  0.623840  1
  C  C71  1  0.499189  0.386004  0.918433  1
  C  C72  1  0.952098  0.286308  0.683366  1
  C  C73  1  0.386349  0.357898  0.787291  1
  C  C74  1  0.028451  0.386349  0.287291  1
  C  C75  1  0.517815  0.976134  0.816565  1
  C  C76  1  0.286308  0.334210  0.316634  1
  C  C77  1  0.580323  0.369319  0.540591  1
  C  C78  1  0.971549  0.613651  0.712709  1
  C  C79  1  0.047902  0.713692  0.316634  1
  C  C80  1  0.300076  0.544857  0.459448  1
  C  C81  1  0.699924  0.455143  0.540552  1
  C  C82  1  0.286308  0.334210  0.183366  1
  C  C83  1  0.513227  0.052009  0.876082  1
  C  C84  1  0.897968  0.642629  0.674278  1
  C  C85  1  0.523565  0.548286  0.750000  1
  C  C86  1  0.976134  0.458319  0.183435  1
  C  C87  1  0.661881  0.575394  0.623840  1
  C  C88  1  0.391848  0.263977  0.597582  1
  C  C89  1  0.357898  0.971549  0.212709  1
  C  C90  1  0.575394  0.913513  0.376160  1
  C  C91  1  0.369554  0.007480  0.750000  1
  C  C92  1  0.913513  0.338119  0.876160  1
  C  C93  1  0.541681  0.517815  0.183435  1
  C  C94  1  0.458319  0.482185  0.816565  1
  C  C95  1  0.113186  0.499189  0.081567  1
  C  C96  1  0.255339  0.897968  0.174278  1
  C  C97  1  0.672172  0.847442  0.287312  1
  C  C98  1  0.788997  0.419677  0.959409  1
  C  C99  1  0.102032  0.357371  0.325722  1
  C  C100  1  0.440953  0.181545  0.581370  1
  C  C101  1  0.575394  0.913513  0.123840  1
  C  C102  1  0.818455  0.259408  0.581370  1
  C  C103  1  0.482185  0.023866  0.316565  1
  C  C104  1  0.544857  0.244781  0.959448  1
  C  C105  1  0.548286  0.024721  0.250000  1
  C  C106  1  0.642629  0.744661  0.325722  1
  C  C107  1  0.181545  0.740592  0.081370  1
  C  C108  1  0.608152  0.736023  0.402418  1
  C  C109  1  0.541681  0.517815  0.316565  1
  C  C110  1  0.740592  0.559047  0.581370  1
  C  C111  1  0.259408  0.440953  0.081370  1
  C  C112  1  0.824730  0.672172  0.712688  1
  C  C113  1  0.440953  0.181545  0.918630  1
  C  C114  1  0.613996  0.113186  0.918433  1
  C  C115  1  0.424606  0.086487  0.623840  1
  C  C116  1  0.334210  0.047902  0.816634  1
  C  C117  1  0.872129  0.608152  0.597582  1
  C  C118  1  0.872129  0.608152  0.902418  1
  C  C119  1  0.181545  0.740592  0.418630  1
  C  C120  1  0.424606  0.086487  0.876160  1
  C  C121  1  0.976134  0.458319  0.316565  1
  C  C122  1  0.613996  0.113186  0.581567  1
  C  C123  1  0.102032  0.357371  0.174278  1
  C  C124  1  0.971549  0.613651  0.787291  1
  C  C125  1  0.824730  0.672172  0.787312  1
  C  C126  1  0.740592  0.559047  0.918630  1
  C  C127  1  0.713692  0.665790  0.683366  1
  C  C128  1  0.500811  0.613996  0.418433  1
  C  C129  1  0.499189  0.386004  0.581567  1
  C  C130  1  0.419677  0.630681  0.459409  1
  C  C131  1  0.544857  0.244781  0.540552  1
  C  C132  1  0.608152  0.736023  0.097582  1
  C  C133  1  0.419677  0.630681  0.040591  1
  C  C134  1  0.818455  0.259408  0.918630  1
  C  C135  1  0.357898  0.971549  0.287291  1
  C  C136  1  0.559047  0.818455  0.418630  1
  C  C137  1  0.362075  0.369554  0.250000  1
  C  C138  1  0.259408  0.440953  0.418630  1
  C  C139  1  0.788997  0.419677  0.540591  1
  C  C140  1  0.334210  0.047902  0.683366  1
  C  C141  1  0.338119  0.424606  0.376160  1
  C  C142  1  0.113186  0.499189  0.418433  1
  C  C143  1  0.630681  0.211003  0.959409  1
  C  C144  1  0.458319  0.482185  0.683435  1
  C  C145  1  0.386004  0.886814  0.418433  1
  C  C146  1  0.451714  0.975279  0.750000  1
  C  C147  1  0.455143  0.755219  0.040552  1
  C  C148  1  0.244781  0.699924  0.040552  1
  C  C149  1  0.369319  0.788997  0.459409  1
  C  C150  1  0.338119  0.424606  0.123840  1
  C  C151  1  0.391848  0.263977  0.902418  1
  C  C152  1  0.665790  0.952098  0.183366  1
  C  C153  1  0.482185  0.023866  0.183435  1
  C  C154  1  0.052009  0.538782  0.376082  1
  C  C155  1  0.630681  0.211003  0.540591  1
  Cl  Cl156  1  0.733937  0.767397  0.040342  1
  Cl  Cl157  1  0.033460  0.266063  0.040342  1
  Cl  Cl158  1  0.232603  0.966540  0.459658  1
  Cl  Cl159  1  0.744979  0.810926  0.650705  1
  Cl  Cl160  1  0.767397  0.033460  0.540342  1
  Cl  Cl161  1  0.934052  0.744979  0.150705  1
  Cl  Cl162  1  0.359533  0.533427  0.849538  1
  Cl  Cl163  1  0.359533  0.533427  0.650462  1
  Cl  Cl164  1  0.255021  0.189074  0.150705  1
  Cl  Cl165  1  0.640467  0.466573  0.349538  1
  Cl  Cl166  1  0.767397  0.033460  0.959658  1
  Cl  Cl167  1  0.640467  0.466573  0.150462  1
  Cl  Cl168  1  0.826106  0.359533  0.349538  1
  Cl  Cl169  1  0.065948  0.255021  0.650705  1
  Cl  Cl170  1  0.533427  0.173894  0.349538  1
  Cl  Cl171  1  0.466573  0.826106  0.849538  1
  Cl  Cl172  1  0.810926  0.065948  0.349295  1
  Cl  Cl173  1  0.533427  0.173894  0.150462  1
  Cl  Cl174  1  0.966540  0.733937  0.959658  1
  Cl  Cl175  1  0.826106  0.359533  0.150462  1
  Cl  Cl176  1  0.173894  0.640467  0.650462  1
  Cl  Cl177  1  0.266063  0.232603  0.959658  1
  Cl  Cl178  1  0.934052  0.744979  0.349295  1
  Cl  Cl179  1  0.189074  0.934052  0.849295  1
  Cl  Cl180  1  0.189074  0.934052  0.650705  1
  Cl  Cl181  1  0.810926  0.065948  0.150705  1
  Cl  Cl182  1  0.255021  0.189074  0.349295  1
  Cl  Cl183  1  0.266063  0.232603  0.540342  1
  Cl  Cl184  1  0.173894  0.640467  0.849538  1
  Cl  Cl185  1  0.033460  0.266063  0.459658  1
  Cl  Cl186  1  0.232603  0.966540  0.040342  1
  Cl  Cl187  1  0.966540  0.733937  0.540342  1
  Cl  Cl188  1  0.744979  0.810926  0.849295  1
  Cl  Cl189  1  0.466573  0.826106  0.650462  1
  Cl  Cl190  1  0.733937  0.767397  0.459658  1
  Cl  Cl191  1  0.065948  0.255021  0.849295  1
