# generated using pymatgen
data_Ru7C20(SO10)2
_symmetry_space_group_name_H-M   'P 1'
_cell_length_a   11.40738554
_cell_length_b   14.54865165
_cell_length_c   21.50722119
_cell_angle_alpha   90.00000000
_cell_angle_beta   90.00000000
_cell_angle_gamma   90.00000000
_symmetry_Int_Tables_number   1
_chemical_formula_structural   Ru7C20(SO10)2
_chemical_formula_sum   'Ru28 C80 S8 O80'
_cell_volume   3569.38313056
_cell_formula_units_Z   4
loop_
 _symmetry_equiv_pos_site_id
 _symmetry_equiv_pos_as_xyz
  1  'x, y, z'
loop_
 _atom_site_type_symbol
 _atom_site_label
 _atom_site_symmetry_multiplicity
 _atom_site_fract_x
 _atom_site_fract_y
 _atom_site_fract_z
 _atom_site_occupancy
  Ru  Ru0  1  0.966880  0.643826  0.297661  1
  Ru  Ru1  1  0.782710  0.393561  0.814547  1
  Ru  Ru2  1  0.457146  0.969658  0.189630  1
  Ru  Ru3  1  0.111452  0.882153  0.015045  1
  Ru  Ru4  1  0.349627  0.769542  0.598538  1
  Ru  Ru5  1  0.738134  0.437680  0.387437  1
  Ru  Ru6  1  0.033120  0.143826  0.202339  1
  Ru  Ru7  1  0.217290  0.893561  0.685453  1
  Ru  Ru8  1  0.053883  0.043855  0.081346  1
  Ru  Ru9  1  0.446117  0.956145  0.581346  1
  Ru  Ru10  1  0.542854  0.469658  0.310370  1
  Ru  Ru11  1  0.849627  0.730458  0.401462  1
  Ru  Ru12  1  0.888548  0.382153  0.484955  1
  Ru  Ru13  1  0.042854  0.030342  0.689630  1
  Ru  Ru14  1  0.533120  0.356174  0.797661  1
  Ru  Ru15  1  0.388548  0.117847  0.515045  1
  Ru  Ru16  1  0.553883  0.456145  0.918654  1
  Ru  Ru17  1  0.650373  0.269542  0.901462  1
  Ru  Ru18  1  0.611452  0.617847  0.984955  1
  Ru  Ru19  1  0.946117  0.543855  0.418654  1
  Ru  Ru20  1  0.466880  0.856174  0.702339  1
  Ru  Ru21  1  0.717290  0.606439  0.314547  1
  Ru  Ru22  1  0.282710  0.106439  0.185453  1
  Ru  Ru23  1  0.261866  0.937680  0.112563  1
  Ru  Ru24  1  0.761866  0.562320  0.887437  1
  Ru  Ru25  1  0.957146  0.530342  0.810370  1
  Ru  Ru26  1  0.238134  0.062320  0.612563  1
  Ru  Ru27  1  0.150373  0.230458  0.098538  1
  C  C28  1  0.477688  0.180296  0.580599  1
  C  C29  1  0.728657  0.169275  0.864570  1
  C  C30  1  0.004964  0.100124  0.007422  1
  C  C31  1  0.596119  0.693793  0.318048  1
  C  C32  1  0.277747  0.116296  0.272261  1
  C  C33  1  0.400785  0.498794  0.904187  1
  C  C34  1  0.859312  0.581532  0.742742  1
  C  C35  1  0.504423  0.207694  0.904544  1
  C  C36  1  0.271343  0.669275  0.635430  1
  C  C37  1  0.749153  0.679568  0.851295  1
  C  C38  1  0.558991  0.031799  0.245346  1
  C  C39  1  0.700267  0.230312  0.981884  1
  C  C40  1  0.943249  0.134774  0.680469  1
  C  C41  1  0.900785  0.001206  0.095813  1
  C  C42  1  0.941009  0.968201  0.745346  1
  C  C43  1  0.126344  0.103672  0.554453  1
  C  C44  1  0.099215  0.501206  0.404187  1
  C  C45  1  0.056751  0.634774  0.819531  1
  C  C46  1  0.249153  0.820432  0.148705  1
  C  C47  1  0.125367  0.665534  0.318139  1
  C  C48  1  0.004423  0.292306  0.095456  1
  C  C49  1  0.995036  0.600124  0.492578  1
  C  C50  1  0.977688  0.319704  0.419401  1
  C  C51  1  0.819280  0.271534  0.517418  1
  C  C52  1  0.403881  0.193793  0.181952  1
  C  C53  1  0.563998  0.236550  0.767145  1
  C  C54  1  0.979747  0.965287  0.616948  1
  C  C55  1  0.058991  0.468201  0.754654  1
  C  C56  1  0.625367  0.834466  0.681861  1
  C  C57  1  0.874633  0.165534  0.181861  1
  C  C58  1  0.750847  0.320432  0.351295  1
  C  C59  1  0.359312  0.918468  0.257258  1
  C  C60  1  0.228657  0.330725  0.135430  1
  C  C61  1  0.903881  0.306207  0.818048  1
  C  C62  1  0.987155  0.093962  0.280705  1
  C  C63  1  0.873656  0.603672  0.945547  1
  C  C64  1  0.487155  0.406038  0.719295  1
  C  C65  1  0.250847  0.179568  0.648705  1
  C  C66  1  0.599215  0.998794  0.595813  1
  C  C67  1  0.626344  0.396328  0.445547  1
  C  C68  1  0.504964  0.399876  0.992578  1
  C  C69  1  0.373656  0.896328  0.054453  1
  C  C70  1  0.200267  0.269688  0.018116  1
  C  C71  1  0.022312  0.819704  0.080599  1
  C  C72  1  0.777747  0.383704  0.727739  1
  C  C73  1  0.222253  0.883704  0.772261  1
  C  C74  1  0.180720  0.771534  0.982582  1
  C  C75  1  0.680720  0.728466  0.017418  1
  C  C76  1  0.520253  0.034713  0.116948  1
  C  C77  1  0.063998  0.263450  0.232855  1
  C  C78  1  0.198217  0.967471  0.960535  1
  C  C79  1  0.481435  0.618573  0.039610  1
  C  C80  1  0.140688  0.081532  0.757258  1
  C  C81  1  0.495036  0.899876  0.507422  1
  C  C82  1  0.012845  0.593962  0.219295  1
  C  C83  1  0.995577  0.792306  0.404544  1
  C  C84  1  0.512845  0.906038  0.780705  1
  C  C85  1  0.301783  0.032529  0.460535  1
  C  C86  1  0.522312  0.680296  0.919401  1
  C  C87  1  0.981435  0.881427  0.960390  1
  C  C88  1  0.374633  0.334466  0.818139  1
  C  C89  1  0.319280  0.228466  0.482582  1
  C  C90  1  0.479747  0.534713  0.383052  1
  C  C91  1  0.698217  0.532529  0.039465  1
  C  C92  1  0.518565  0.118573  0.460390  1
  C  C93  1  0.799733  0.769688  0.481884  1
  C  C94  1  0.556751  0.865226  0.180469  1
  C  C95  1  0.299733  0.730312  0.518116  1
  C  C96  1  0.771343  0.830725  0.364570  1
  C  C97  1  0.936002  0.763450  0.267145  1
  C  C98  1  0.096119  0.806207  0.681952  1
  C  C99  1  0.640688  0.418468  0.242742  1
  C  C100  1  0.020252  0.465287  0.883052  1
  C  C101  1  0.801783  0.467471  0.539465  1
  C  C102  1  0.441009  0.531799  0.254654  1
  C  C103  1  0.436002  0.736550  0.732855  1
  C  C104  1  0.722253  0.616296  0.227739  1
  C  C105  1  0.443249  0.365226  0.319531  1
  C  C106  1  0.495577  0.707694  0.595456  1
  C  C107  1  0.018565  0.381427  0.539610  1
  S  S108  1  0.381207  0.008139  0.687315  1
  S  S109  1  0.881207  0.491861  0.312685  1
  S  S110  1  0.762723  0.406414  0.930208  1
  S  S111  1  0.237277  0.906414  0.569792  1
  S  S112  1  0.118793  0.991861  0.187315  1
  S  S113  1  0.737277  0.593586  0.430208  1
  S  S114  1  0.618793  0.508139  0.812685  1
  S  S115  1  0.262723  0.093586  0.069792  1
  O  O116  1  0.239379  0.747939  0.171207  1
  O  O117  1  0.734273  0.207065  0.030098  1
  O  O118  1  0.745835  0.487008  0.075304  1
  O  O119  1  0.223949  0.678597  0.328319  1
  O  O120  1  0.466775  0.721591  0.884211  1
  O  O121  1  0.533225  0.221591  0.615789  1
  O  O122  1  0.420477  0.664546  0.754807  1
  O  O123  1  0.245835  0.012992  0.924696  1
  O  O124  1  0.042633  0.565549  0.171504  1
  O  O125  1  0.305370  0.524758  0.895736  1
  O  O126  1  0.775114  0.378413  0.673633  1
  O  O127  1  0.436229  0.571258  0.424686  1
  O  O128  1  0.579964  0.663826  0.590090  1
  O  O129  1  0.194630  0.475242  0.395736  1
  O  O130  1  0.754165  0.512992  0.575304  1
  O  O131  1  0.400207  0.618618  0.071996  1
  O  O132  1  0.724886  0.621587  0.173633  1
  O  O133  1  0.276051  0.321403  0.828318  1
  O  O134  1  0.805370  0.975242  0.104264  1
  O  O135  1  0.420036  0.163826  0.909910  1
  O  O136  1  0.807513  0.611490  0.701318  1
  O  O137  1  0.225765  0.605526  0.657207  1
  O  O138  1  0.722248  0.795292  0.036397  1
  O  O139  1  0.057271  0.132540  0.519449  1
  O  O140  1  0.542633  0.934451  0.828496  1
  O  O141  1  0.473996  0.366794  0.039173  1
  O  O142  1  0.563771  0.071258  0.075314  1
  O  O143  1  0.760621  0.247939  0.328793  1
  O  O144  1  0.442729  0.867460  0.019449  1
  O  O145  1  0.384168  0.301120  0.325430  1
  O  O146  1  0.774235  0.105526  0.842793  1
  O  O147  1  0.079523  0.335454  0.254807  1
  O  O148  1  0.777752  0.204708  0.536397  1
  O  O149  1  0.739379  0.752061  0.828793  1
  O  O150  1  0.618591  0.072222  0.279181  1
  O  O151  1  0.275114  0.121587  0.326367  1
  O  O152  1  0.118591  0.427778  0.720819  1
  O  O153  1  0.234273  0.292935  0.969902  1
  O  O154  1  0.776051  0.178597  0.171681  1
  O  O155  1  0.884168  0.198880  0.674570  1
  O  O156  1  0.019941  0.752662  0.681046  1
  O  O157  1  0.973996  0.133206  0.960827  1
  O  O158  1  0.881409  0.927778  0.779181  1
  O  O159  1  0.307513  0.888510  0.298682  1
  O  O160  1  0.277752  0.295292  0.463603  1
  O  O161  1  0.615832  0.801120  0.174570  1
  O  O162  1  0.900207  0.881382  0.928004  1
  O  O163  1  0.519941  0.747338  0.318954  1
  O  O164  1  0.079964  0.836174  0.409910  1
  O  O165  1  0.115832  0.698880  0.825430  1
  O  O166  1  0.579523  0.164546  0.745193  1
  O  O167  1  0.063771  0.428742  0.924686  1
  O  O168  1  0.192487  0.111490  0.798682  1
  O  O169  1  0.260621  0.252061  0.671207  1
  O  O170  1  0.381409  0.572222  0.220819  1
  O  O171  1  0.557271  0.367460  0.480551  1
  O  O172  1  0.274235  0.394474  0.157207  1
  O  O173  1  0.966775  0.778409  0.115789  1
  O  O174  1  0.254165  0.987008  0.424696  1
  O  O175  1  0.942729  0.632540  0.980551  1
  O  O176  1  0.980059  0.252662  0.818954  1
  O  O177  1  0.265727  0.707065  0.469902  1
  O  O178  1  0.723949  0.821403  0.671682  1
  O  O179  1  0.936229  0.928742  0.575314  1
  O  O180  1  0.920477  0.835454  0.245193  1
  O  O181  1  0.099793  0.381382  0.571996  1
  O  O182  1  0.765727  0.792935  0.530098  1
  O  O183  1  0.694630  0.024758  0.604264  1
  O  O184  1  0.026004  0.633206  0.539173  1
  O  O185  1  0.457367  0.434451  0.671504  1
  O  O186  1  0.920036  0.336174  0.090090  1
  O  O187  1  0.224886  0.878413  0.826367  1
  O  O188  1  0.692487  0.388510  0.201318  1
  O  O189  1  0.599793  0.118618  0.428004  1
  O  O190  1  0.033225  0.278409  0.384211  1
  O  O191  1  0.957367  0.065549  0.328496  1
  O  O192  1  0.526004  0.866794  0.460827  1
  O  O193  1  0.480059  0.247338  0.181046  1
  O  O194  1  0.725765  0.894474  0.342793  1
  O  O195  1  0.222248  0.704708  0.963603  1
