# generated using pymatgen
data_CsSO2F
_symmetry_space_group_name_H-M   'P 1'
_cell_length_a   6.78145019
_cell_length_b   8.23595344
_cell_length_c   8.15098969
_cell_angle_alpha   90.00000000
_cell_angle_beta   90.00000000
_cell_angle_gamma   90.00000000
_symmetry_Int_Tables_number   1
_chemical_formula_structural   CsSO2F
_chemical_formula_sum   'Cs4 S4 O8 F4'
_cell_volume   455.24669624
_cell_formula_units_Z   4
loop_
 _symmetry_equiv_pos_site_id
 _symmetry_equiv_pos_as_xyz
  1  'x, y, z'
loop_
 _atom_site_type_symbol
 _atom_site_label
 _atom_site_symmetry_multiplicity
 _atom_site_fract_x
 _atom_site_fract_y
 _atom_site_fract_z
 _atom_site_occupancy
  O  O0  1  0.930662  0.096475  0.234455  1
  O  O1  1  0.430662  0.903525  0.765545  1
  O  O2  1  0.069338  0.403525  0.734455  1
  O  O3  1  0.569338  0.596475  0.265545  1
  O  O4  1  0.569338  0.096475  0.234455  1
  O  O5  1  0.069338  0.903525  0.765545  1
  O  O6  1  0.930662  0.596475  0.265545  1
  O  O7  1  0.430662  0.403525  0.734455  1
  F  F8  1  0.750000  0.745372  0.490539  1
  F  F9  1  0.250000  0.254628  0.509461  1
  F  F10  1  0.250000  0.754628  0.990539  1
  F  F11  1  0.750000  0.245372  0.009461  1
  S  S12  1  0.250000  0.934042  0.862796  1
  S  S13  1  0.750000  0.065958  0.137204  1
  S  S14  1  0.250000  0.434042  0.637204  1
  S  S15  1  0.750000  0.565958  0.362796  1
  Cs  Cs16  1  0.250000  0.355034  0.116443  1
  Cs  Cs17  1  0.750000  0.644966  0.883557  1
  Cs  Cs18  1  0.250000  0.855034  0.383557  1
  Cs  Cs19  1  0.750000  0.144966  0.616443  1
