# generated using pymatgen
data_Zr2InNi2
_symmetry_space_group_name_H-M   'P 1'
_cell_length_a   6.70189715
_cell_length_b   7.23589952
_cell_length_c   7.23569420
_cell_angle_alpha   90.00053257
_cell_angle_beta   90.00203613
_cell_angle_gamma   90.00277051
_symmetry_Int_Tables_number   1
_chemical_formula_structural   Zr2InNi2
_chemical_formula_sum   'Zr8 In4 Ni8'
_cell_volume   350.88959476
_cell_formula_units_Z   4
loop_
 _symmetry_equiv_pos_site_id
 _symmetry_equiv_pos_as_xyz
  1  'x, y, z'
loop_
 _atom_site_type_symbol
 _atom_site_label
 _atom_site_symmetry_multiplicity
 _atom_site_fract_x
 _atom_site_fract_y
 _atom_site_fract_z
 _atom_site_occupancy
  Zr  Zr0  1  0.000017  0.175449  0.175436  1
  Zr  Zr1  1  0.500007  0.324499  0.675509  1
  Zr  Zr2  1  0.999984  0.662304  0.337647  1
  Zr  Zr3  1  0.499972  0.837716  0.837692  1
  Zr  Zr4  1  0.000027  0.824522  0.824505  1
  Zr  Zr5  1  0.499999  0.162266  0.162368  1
  Zr  Zr6  1  0.000005  0.337672  0.662275  1
  Zr  Zr7  1  0.499970  0.675524  0.324449  1
  In  In8  1  0.249980  0.500030  0.000062  1
  In  In9  1  0.749986  0.500093  0.000023  1
  In  In10  1  0.750037  0.000023  0.500035  1
  In  In11  1  0.250039  0.000046  0.500025  1
  Ni  Ni12  1  0.766402  0.874850  0.125138  1
  Ni  Ni13  1  0.233648  0.874856  0.125115  1
  Ni  Ni14  1  0.266379  0.374825  0.374801  1
  Ni  Ni15  1  0.233629  0.125131  0.874871  1
  Ni  Ni16  1  0.733515  0.625191  0.625168  1
  Ni  Ni17  1  0.733627  0.374803  0.374815  1
  Ni  Ni18  1  0.766374  0.125090  0.874917  1
  Ni  Ni19  1  0.266402  0.625109  0.625151  1
