# generated using pymatgen
data_Sr10Cu5Bi10O29
_symmetry_space_group_name_H-M   'P 1'
_cell_length_a   5.40342578
_cell_length_b   13.88356912
_cell_length_c   25.14482179
_cell_angle_alpha   81.97796197
_cell_angle_beta   83.82001847
_cell_angle_gamma   78.79080160
_symmetry_Int_Tables_number   1
_chemical_formula_structural   Sr10Cu5Bi10O29
_chemical_formula_sum   'Sr20 Cu10 Bi20 O58'
_cell_volume   1825.93777699
_cell_formula_units_Z   2
loop_
 _symmetry_equiv_pos_site_id
 _symmetry_equiv_pos_as_xyz
  1  'x, y, z'
loop_
 _atom_site_type_symbol
 _atom_site_label
 _atom_site_symmetry_multiplicity
 _atom_site_fract_x
 _atom_site_fract_y
 _atom_site_fract_z
 _atom_site_occupancy
  Sr  Sr0  1  0.164348  0.161125  0.488934  1
  Sr  Sr1  1  0.152947  0.579701  0.072142  1
  Sr  Sr2  1  0.792147  0.251456  0.128042  1
  Sr  Sr3  1  0.804489  0.420992  0.928030  1
  Sr  Sr4  1  0.643810  0.493726  0.172300  1
  Sr  Sr5  1  0.172850  0.941420  0.678251  1
  Sr  Sr6  1  0.657704  0.662998  0.971581  1
  Sr  Sr7  1  0.671095  0.840995  0.773806  1
  Sr  Sr8  1  0.814897  0.839022  0.511363  1
  Sr  Sr9  1  0.666383  0.048979  0.583447  1
  Sr  Sr10  1  0.310398  0.506346  0.827981  1
  Sr  Sr11  1  0.170936  0.748814  0.871984  1
  Sr  Sr12  1  0.154152  0.386154  0.282355  1
  Sr  Sr13  1  0.298129  0.951419  0.416754  1
  Sr  Sr14  1  0.823521  0.613441  0.717542  1
  Sr  Sr15  1  0.286677  0.158727  0.226005  1
  Sr  Sr16  1  0.292360  0.337420  0.028568  1
  Sr  Sr17  1  0.654944  0.274449  0.390570  1
  Sr  Sr18  1  0.320197  0.726030  0.609456  1
  Sr  Sr19  1  0.792500  0.059240  0.321840  1
  Cu  Cu20  1  0.751197  0.824644  0.644382  1
  Cu  Cu21  1  0.729761  0.059150  0.452163  1
  Cu  Cu22  1  0.219280  0.175680  0.355683  1
  Cu  Cu23  1  0.744261  0.625660  0.845232  1
  Cu  Cu24  1  0.722623  0.458417  0.051379  1
  Cu  Cu25  1  0.232144  0.542420  0.948744  1
  Cu  Cu26  1  0.241050  0.941388  0.547967  1
  Cu  Cu27  1  0.215172  0.374706  0.154703  1
  Cu  Cu28  1  0.250507  0.720704  0.744294  1
  Cu  Cu29  1  0.714841  0.278910  0.255849  1
  Bi  Bi30  1  0.036299  0.025281  0.820923  1
  Bi  Bi31  1  0.936618  0.538482  0.570277  1
  Bi  Bi32  1  0.605188  0.589607  0.317706  1
  Bi  Bi33  1  0.954006  0.674975  0.223086  1
  Bi  Bi34  1  0.518033  0.405613  0.684934  1
  Bi  Bi35  1  0.469616  0.655029  0.466630  1
  Bi  Bi36  1  0.549331  0.769555  0.108858  1
  Bi  Bi37  1  0.019923  0.852220  0.012188  1
  Bi  Bi38  1  0.592259  0.345739  0.533341  1
  Bi  Bi39  1  0.883771  0.974897  0.179222  1
  Bi  Bi40  1  0.426597  0.231020  0.891367  1
  Bi  Bi41  1  0.893109  0.774718  0.366971  1
  Bi  Bi42  1  0.858060  0.323212  0.779240  1
  Bi  Bi43  1  0.575613  0.119983  0.729105  1
  Bi  Bi44  1  0.573186  0.934899  0.914703  1
  Bi  Bi45  1  0.048385  0.461550  0.429588  1
  Bi  Bi46  1  0.423888  0.065074  0.085459  1
  Bi  Bi47  1  0.425513  0.880092  0.271646  1
  Bi  Bi48  1  0.884307  0.148236  0.987942  1
  Bi  Bi49  1  0.035809  0.226544  0.633066  1
  O  O50  1  0.593057  0.692912  0.189906  1
  O  O51  1  0.156476  0.892225  0.787528  1
  O  O52  1  0.108221  0.539761  0.194249  1
  O  O53  1  0.842356  0.459940  0.807073  1
  O  O54  1  0.181438  0.336580  0.391042  1
  O  O55  1  0.963967  0.331189  0.207774  1
  O  O56  1  0.976863  0.503126  0.000808  1
  O  O57  1  0.309373  0.367882  0.919690  1
  O  O58  1  0.476784  0.116244  0.403138  1
  O  O59  1  0.994647  0.774814  0.696920  1
  O  O60  1  0.909224  0.663596  0.608560  1
  O  O61  1  0.621261  0.990237  0.692952  1
  O  O62  1  0.475766  0.306854  0.809853  1
  O  O63  1  0.498973  0.765950  0.692231  1
  O  O64  1  0.620324  0.801271  0.882145  1
  O  O65  1  0.503217  0.668246  0.792263  1
  O  O66  1  0.995724  0.884157  0.597157  1
  O  O67  1  0.976660  0.113699  0.731233  1
  O  O68  1  0.483302  -0.000056  0.499389  1
  O  O69  1  0.304650  0.011170  0.306875  1
  O  O70  1  0.324132  0.787178  0.498407  1
  O  O71  1  0.974499  0.935129  0.908422  1
  O  O72  1  0.981576  0.000534  0.500726  1
  O  O73  1  0.304872  0.198976  0.117877  1
  O  O74  1  0.635823  0.216184  0.641716  1
  O  O75  1  0.502598  0.880767  0.594446  1
  O  O76  1  0.966894  0.417110  0.103367  1
  O  O77  1  0.954869  0.234047  0.308007  1
  O  O78  1  0.964230  0.542991  0.353086  1
  O  O79  1  0.468991  0.333525  0.206045  1
  O  O80  1  0.855664  0.457092  0.646632  1
  O  O81  1  0.550443  0.578697  0.548511  1
  O  O82  1  0.985480  0.585431  0.898124  1
  O  O83  1  0.467956  0.415338  0.102211  1
  O  O84  1  0.819889  0.065637  0.091028  1
  O  O85  1  0.479714  0.978153  0.181977  1
  O  O86  1  0.848687  0.282185  0.018260  1
  O  O87  1  0.146981  0.718306  0.981713  1
  O  O88  1  0.595080  0.632799  0.080434  1
  O  O89  1  0.628172  0.855222  0.000218  1
  O  O90  1  0.480012  0.497505  0.999288  1
  O  O91  1  0.976271  0.119811  0.405963  1
  O  O92  1  0.844970  0.906397  0.401012  1
  O  O93  1  0.008508  0.666230  0.793834  1
  O  O94  1  0.486494  0.583568  0.896940  1
  O  O95  1  0.837267  0.108335  0.212440  1
  O  O96  1  0.950333  0.775225  0.095689  1
  O  O97  1  0.484174  0.145392  0.999807  1
  O  O98  1  0.465458  0.225296  0.302925  1
  O  O99  1  0.820301  0.225409  0.904066  1
  O  O100  1  0.490328  0.788934  0.358783  1
  O  O101  1  0.638056  0.022441  0.817642  1
  O  O102  1  0.986678  0.312480  0.549584  1
  O  O103  1  0.146723  0.094204  0.599316  1
  O  O104  1  0.608948  0.213107  0.502323  1
  O  O105  1  0.821997  0.887049  0.268648  1
  O  O106  1  0.678953  0.421876  0.451367  1
  O  O107  1  0.846883  0.687926  0.450099  1
