# generated using pymatgen
data_Te7OsO5F32
_symmetry_space_group_name_H-M   'P 1'
_cell_length_a   10.77108371
_cell_length_b   10.48831695
_cell_length_c   15.71461862
_cell_angle_alpha   82.19458584
_cell_angle_beta   78.63482993
_cell_angle_gamma   72.43566518
_symmetry_Int_Tables_number   1
_chemical_formula_structural   Te7OsO5F32
_chemical_formula_sum   'Te14 Os2 O10 F64'
_cell_volume   1653.79038295
_cell_formula_units_Z   2
loop_
 _symmetry_equiv_pos_site_id
 _symmetry_equiv_pos_as_xyz
  1  'x, y, z'
loop_
 _atom_site_type_symbol
 _atom_site_label
 _atom_site_symmetry_multiplicity
 _atom_site_fract_x
 _atom_site_fract_y
 _atom_site_fract_z
 _atom_site_occupancy
  Te  Te0  1  0.599694  0.996181  0.057069  1
  Te  Te1  1  0.713453  0.522327  0.067692  1
  Te  Te2  1  0.263048  0.799447  0.143986  1
  Te  Te3  1  0.402603  0.282302  0.621769  1
  Te  Te4  1  0.736952  0.200553  0.856014  1
  Te  Te5  1  0.286547  0.477673  0.932308  1
  Te  Te6  1  0.400306  0.003819  0.942931  1
  Te  Te7  1  0.985505  0.790516  0.713025  1
  Te  Te8  1  0.463360  0.215547  0.297005  1
  Te  Te9  1  0.118496  0.718345  0.391784  1
  Te  Te10  1  0.597397  0.717698  0.378231  1
  Te  Te11  1  0.014495  0.209484  0.286975  1
  Te  Te12  1  0.536640  0.784453  0.702995  1
  Te  Te13  1  0.881504  0.281655  0.608216  1
  Os  Os14  1  0.711664  0.029871  0.626510  1
  Os  Os15  1  0.288336  0.970129  0.373490  1
  O  O16  1  0.406374  0.791687  0.382022  1
  O  O17  1  0.809248  0.866877  0.683698  1
  O  O18  1  0.560072  0.964112  0.669962  1
  O  O19  1  0.257221  0.006332  0.477978  1
  O  O20  1  0.593626  0.208313  0.617978  1
  O  O21  1  0.439928  0.035888  0.330038  1
  O  O22  1  0.142573  0.896753  0.375808  1
  O  O23  1  0.190752  0.133123  0.316302  1
  O  O24  1  0.857427  0.103247  0.624192  1
  O  O25  1  0.742779  0.993668  0.522022  1
  F  F26  1  0.011953  0.772641  0.304204  1
  F  F27  1  0.280686  0.638175  0.854272  1
  F  F28  1  0.193745  0.388683  0.874264  1
  F  F29  1  0.031933  0.065400  0.220050  1
  F  F30  1  0.608026  0.854621  0.440381  1
  F  F31  1  0.913486  0.705831  0.815657  1
  F  F32  1  0.259378  0.659317  0.294692  1
  F  F33  1  0.153390  0.706509  0.738435  1
  F  F34  1  0.428558  0.816466  0.617851  1
  F  F35  1  0.612185  0.135347  0.215248  1
  F  F36  1  0.233562  0.651261  0.473810  1
  F  F37  1  0.495608  0.382486  0.266782  1
  F  F38  1  0.391974  0.145379  0.559619  1
  F  F39  1  0.658084  0.191669  0.983330  1
  F  F40  1  0.121016  0.573625  0.987973  1
  F  F41  1  0.675409  0.098819  0.766819  1
  F  F42  1  0.998818  0.358746  0.346136  1
  F  F43  1  0.685683  0.699553  0.624128  1
  F  F44  1  0.714014  0.946267  0.946894  1
  F  F45  1  0.589626  0.349982  0.849060  1
  F  F46  1  0.368913  0.252157  0.202692  1
  F  F47  1  0.631087  0.747843  0.797308  1
  F  F48  1  0.441049  0.380928  0.515768  1
  F  F49  1  0.223334  0.364907  0.619952  1
  F  F50  1  0.707707  0.662568  0.972270  1
  F  F51  1  0.542663  0.839576  0.105400  1
  F  F52  1  0.719314  0.361825  0.145728  1
  F  F53  1  0.373237  0.555134  0.000064  1
  F  F54  1  0.324591  0.901181  0.233181  1
  F  F55  1  0.970520  0.775291  0.477177  1
  F  F56  1  0.029480  0.224709  0.522823  1
  F  F57  1  0.640602  0.806892  0.268972  1
  F  F58  1  0.932498  0.128826  0.388363  1
  F  F59  1  0.878984  0.426375  0.012027  1
  F  F60  1  0.155048  0.692799  0.131014  1
  F  F61  1  0.908181  0.451118  0.598060  1
  F  F62  1  0.195240  0.035554  0.714461  1
  F  F63  1  0.407667  0.424156  0.680944  1
  F  F64  1  0.592333  0.575844  0.319056  1
  F  F65  1  0.626763  0.444866  -0.000064  1
  F  F66  1  0.968067  0.934600  0.779950  1
  F  F67  1  0.067502  0.871174  0.611637  1
  F  F68  1  0.285986  0.053733  0.053106  1
  F  F69  1  0.740622  0.340683  0.705308  1
  F  F70  1  0.988047  0.227359  0.695796  1
  F  F71  1  0.776666  0.635093  0.380048  1
  F  F72  1  0.001182  0.641254  0.653864  1
  F  F73  1  0.292293  0.337432  0.027730  1
  F  F74  1  0.766438  0.348739  0.526190  1
  F  F75  1  0.341916  0.808331  0.016670  1
  F  F76  1  0.314317  0.300447  0.375872  1
  F  F77  1  0.804760  0.964446  0.285539  1
  F  F78  1  0.571442  0.183534  0.382149  1
  F  F79  1  0.457337  0.160424  0.894600  1
  F  F80  1  0.410374  0.650018  0.150940  1
  F  F81  1  0.806255  0.611317  0.125736  1
  F  F82  1  0.387815  0.864653  0.784752  1
  F  F83  1  0.558951  0.619072  0.484232  1
  F  F84  1  0.086514  0.294169  0.184343  1
  F  F85  1  0.091819  0.548882  0.401940  1
  F  F86  1  0.359398  0.193108  0.731028  1
  F  F87  1  0.844952  0.307201  0.868986  1
  F  F88  1  0.846610  0.293491  0.261565  1
  F  F89  1  0.504392  0.617514  0.733218  1
