# generated using pymatgen
data_La3Ni2B2N3
_symmetry_space_group_name_H-M   'P 1'
_cell_length_a   3.76713613
_cell_length_b   3.76713613
_cell_length_c   10.31581612
_cell_angle_alpha   100.52067451
_cell_angle_beta   100.52067451
_cell_angle_gamma   90.00000007
_symmetry_Int_Tables_number   1
_chemical_formula_structural   La3Ni2B2N3
_chemical_formula_sum   'La3 Ni2 B2 N3'
_cell_volume   141.43010680
_cell_formula_units_Z   1
loop_
 _symmetry_equiv_pos_site_id
 _symmetry_equiv_pos_as_xyz
  1  'x, y, z'
loop_
 _atom_site_type_symbol
 _atom_site_label
 _atom_site_symmetry_multiplicity
 _atom_site_fract_x
 _atom_site_fract_y
 _atom_site_fract_z
 _atom_site_occupancy
  B  B0  1  0.800123  0.800123  0.600247  1
  B  B1  1  0.199877  0.199877  0.399753  1
  N  N2  1  0.872726  0.872726  0.745453  1
  N  N3  1  0.500000  0.500000  0.000000  1
  N  N4  1  0.127274  0.127274  0.254547  1
  Ni  Ni5  1  0.250000  0.750000  0.500000  1
  Ni  Ni6  1  0.750000  0.250000  0.500000  1
  La  La7  1  0.630367  0.630367  0.260735  1
  La  La8  1  0.369633  0.369633  0.739265  1
  La  La9  1  0.000000  0.000000  0.000000  1
