# generated using pymatgen
data_Mo(HO2)2
_symmetry_space_group_name_H-M   'P 1'
_cell_length_a   7.94251005
_cell_length_b   3.82727033
_cell_length_c   6.38475221
_cell_angle_alpha   111.55905326
_cell_angle_beta   112.35326275
_cell_angle_gamma   93.22973896
_symmetry_Int_Tables_number   1
_chemical_formula_structural   Mo(HO2)2
_chemical_formula_sum   'Mo2 H4 O8'
_cell_volume   162.54642935
_cell_formula_units_Z   2
loop_
 _symmetry_equiv_pos_site_id
 _symmetry_equiv_pos_as_xyz
  1  'x, y, z'
loop_
 _atom_site_type_symbol
 _atom_site_label
 _atom_site_symmetry_multiplicity
 _atom_site_fract_x
 _atom_site_fract_y
 _atom_site_fract_z
 _atom_site_occupancy
  Mo  Mo0  1  0.784300  0.211494  0.917207  1
  Mo  Mo1  1  0.202173  0.854650  0.079844  1
  H  H2  1  0.917146  0.509056  0.429621  1
  H  H3  1  0.162646  0.341795  0.618638  1
  H  H4  1  0.699099  0.943434  0.455202  1
  H  H5  1  0.311316  0.958877  0.532629  1
  O  O6  1  0.545383  0.120106  0.785518  1
  O  O7  1  0.441137  0.943058  0.199341  1
  O  O8  1  0.134359  0.301993  0.060664  1
  O  O9  1  0.865546  0.716102  0.953019  1
  O  O10  1  0.827454  0.376408  0.252241  1
  O  O11  1  0.141183  0.580448  0.736057  1
  O  O12  1  0.807460  0.980059  0.608655  1
  O  O13  1  0.201719  0.002243  0.413536  1
