# generated using pymatgen
data_Si4H2O9
_symmetry_space_group_name_H-M   'P 1'
_cell_length_a   15.89038929
_cell_length_b   15.89038929
_cell_length_c   15.90114004
_cell_angle_alpha   152.66166796
_cell_angle_beta   152.66166796
_cell_angle_gamma   38.93837706
_symmetry_Int_Tables_number   1
_chemical_formula_structural   Si4H2O9
_chemical_formula_sum   'Si16 H8 O36'
_cell_volume   845.59616195
_cell_formula_units_Z   4
loop_
 _symmetry_equiv_pos_site_id
 _symmetry_equiv_pos_as_xyz
  1  'x, y, z'
loop_
 _atom_site_type_symbol
 _atom_site_label
 _atom_site_symmetry_multiplicity
 _atom_site_fract_x
 _atom_site_fract_y
 _atom_site_fract_z
 _atom_site_occupancy
  Si  Si0  1  0.958979  0.045978  0.500566  1
  Si  Si1  1  0.541587  0.454588  0.500566  1
  Si  Si2  1  0.204588  0.791587  0.000566  1
  Si  Si3  1  0.795978  0.208979  0.000566  1
  Si  Si4  1  0.966936  0.466936  0.933872  1
  Si  Si5  1  0.542624  0.042624  0.085247  1
  Si  Si6  1  0.216936  0.216936  0.433872  1
  Si  Si7  1  0.792624  0.792624  0.585247  1
  Si  Si8  1  0.174855  0.470363  0.299104  1
  Si  Si9  1  0.189993  0.881124  0.729342  1
  Si  Si10  1  0.578741  0.374248  0.799104  1
  Si  Si11  1  0.598218  0.789350  0.229342  1
  Si  Si12  1  0.539350  0.848218  0.729342  1
  Si  Si13  1  0.124248  0.828741  0.299104  1
  Si  Si14  1  0.631124  0.439993  0.229342  1
  Si  Si15  1  0.220362  0.424855  0.799104  1
  H  H16  1  0.130495  0.163925  0.029434  1
  H  H17  1  0.615509  0.148939  0.529434  1
  H  H18  1  0.898939  0.865509  0.029434  1
  H  H19  1  0.913925  0.380495  0.529434  1
  H  H20  1  0.526766  0.232280  0.850185  1
  H  H21  1  0.367905  0.573419  0.350185  1
  H  H22  1  0.323419  0.617905  0.850185  1
  H  H23  1  0.982280  0.776766  0.350185  1
  O  O24  1  0.124729  0.304609  0.167739  1
  O  O25  1  0.125352  0.983834  0.841445  1
  O  O26  1  0.613130  0.293010  0.667739  1
  O  O27  1  0.607611  0.966093  0.341445  1
  O  O28  1  0.716093  0.857611  0.841445  1
  O  O29  1  0.043010  0.863130  0.167739  1
  O  O30  1  0.733834  0.375352  0.341445  1
  O  O31  1  0.054609  0.374729  0.667739  1
  O  O32  1  0.217405  0.634091  0.941130  1
  O  O33  1  0.654597  0.278950  0.017089  1
  O  O34  1  0.057039  0.973725  0.441130  1
  O  O35  1  0.488139  0.612493  0.517089  1
  O  O36  1  0.250584  0.278052  0.615493  1
  O  O37  1  0.692503  0.633799  0.411232  1
  O  O38  1  0.087441  0.614909  0.115493  1
  O  O39  1  0.527433  0.968729  0.911232  1
  O  O40  1  0.362493  0.738139  0.017089  1
  O  O41  1  0.723725  0.307039  0.941130  1
  O  O42  1  0.028950  0.904597  0.517089  1
  O  O43  1  0.384091  0.467405  0.441130  1
  O  O44  1  0.364909  0.337441  0.615493  1
  O  O45  1  0.718729  0.777433  0.411232  1
  O  O46  1  0.028052  0.500584  0.115493  1
  O  O47  1  0.383799  0.942503  0.911232  1
  O  O48  1  0.346887  0.854296  0.513973  1
  O  O49  1  0.409677  0.417086  0.013973  1
  O  O50  1  0.167086  0.659677  0.513973  1
  O  O51  1  0.604296  0.596887  0.013973  1
  O  O52  1  0.006768  0.262111  0.260212  1
  O  O53  1  0.013917  0.773755  0.764605  1
  O  O54  1  0.748101  0.503444  0.760212  1
  O  O55  1  0.740849  0.000687  0.264605  1
  O  O56  1  0.750687  0.990849  0.764605  1
  O  O57  1  0.253444  0.998101  0.260212  1
  O  O58  1  0.523755  0.263917  0.264605  1
  O  O59  1  0.012111  0.256768  0.760212  1
