# generated using pymatgen
data_Ca18Eu2P12(SO16)3
_symmetry_space_group_name_H-M   'P 1'
_cell_length_a   9.84698349
_cell_length_b   19.68394046
_cell_length_c   6.68839172
_cell_angle_alpha   89.96701227
_cell_angle_beta   90.01919247
_cell_angle_gamma   120.10557931
_symmetry_Int_Tables_number   1
_chemical_formula_structural   Ca18Eu2P12(SO16)3
_chemical_formula_sum   'Ca18 Eu2 P12 S3 O48'
_cell_volume   1121.51345450
_cell_formula_units_Z   1
loop_
 _symmetry_equiv_pos_site_id
 _symmetry_equiv_pos_as_xyz
  1  'x, y, z'
loop_
 _atom_site_type_symbol
 _atom_site_label
 _atom_site_symmetry_multiplicity
 _atom_site_fract_x
 _atom_site_fract_y
 _atom_site_fract_z
 _atom_site_occupancy
  Eu  Eu0  1  0.248169  0.505998  0.245848  1
  Eu  Eu1  1  0.751386  0.494187  0.748561  1
  Ca  Ca2  1  0.018517  0.878798  0.761700  1
  Ca  Ca3  1  0.337323  0.835281  -0.004279  1
  Ca  Ca4  1  0.328222  0.831414  0.487873  1
  Ca  Ca5  1  0.242750  0.632118  0.745556  1
  Ca  Ca6  1  0.016140  0.376317  0.746174  1
  Ca  Ca7  1  0.735182  0.990675  0.759431  1
  Ca  Ca8  1  0.756309  0.870876  0.233043  1
  Ca  Ca9  1  0.660697  0.665117  0.506590  1
  Ca  Ca10  1  0.672878  0.670638  -0.002115  1
  Ca  Ca11  1  0.327242  0.330169  -0.001650  1
  Ca  Ca12  1  0.336095  0.333281  0.489931  1
  Ca  Ca13  1  0.242953  0.130046  0.762410  1
  Ca  Ca14  1  0.265525  0.007710  0.236479  1
  Ca  Ca15  1  0.982944  0.624680  0.249941  1
  Ca  Ca16  1  0.754912  0.366784  0.250023  1
  Ca  Ca17  1  0.674573  0.169722  0.510911  1
  Ca  Ca18  1  0.663144  0.164125  0.002269  1
  Ca  Ca19  1  0.985236  0.121791  0.232786  1
  P  P20  1  0.034013  0.707607  0.747341  1
  P  P21  1  0.377260  0.984793  0.742364  1
  P  P22  1  0.415313  0.691128  0.246634  1
  P  P23  1  0.592226  0.812224  0.741952  1
  P  P24  1  0.032292  0.204021  0.742626  1
  P  P25  1  0.382033  0.482333  0.746877  1
  P  P26  1  0.617858  0.517502  0.246090  1
  P  P27  1  0.969577  0.798373  0.252235  1
  P  P28  1  0.403460  0.185839  0.253242  1
  P  P29  1  0.584685  0.309098  0.748827  1
  P  P30  1  0.626438  0.014918  0.252400  1
  P  P31  1  0.965176  0.292110  0.246967  1
  S  S32  1  -0.000620  0.499815  0.999635  1
  S  S33  1  0.000313  0.000100  0.998599  1
  S  S34  1  -0.000288  0.499971  0.498392  1
  O  O35  1  0.278198  0.955211  0.937094  1
  O  O36  1  0.257367  0.962061  0.567217  1
  O  O37  1  0.147122  0.826903  0.243809  1
  O  O38  1  0.129342  0.799739  0.746698  1
  O  O39  1  0.089309  0.681140  0.561167  1
  O  O40  1  0.087601  0.680607  0.934561  1
  O  O41  1  0.462803  0.935613  0.724009  1
  O  O42  1  0.505657  0.926306  0.244584  1
  O  O43  1  0.351715  0.748350  0.244982  1
  O  O44  1  0.407941  0.768945  0.725782  1
  O  O45  1  0.359392  0.635739  0.432011  1
  O  O46  1  0.362750  0.637421  0.058377  1
  O  O47  1  0.666831  0.871479  0.564634  1
  O  O48  1  0.631988  0.863145  0.935018  1
  O  O49  1  0.271347  0.453723  0.931582  1
  O  O50  1  0.274767  0.455062  0.559394  1
  O  O51  1  0.144209  0.325415  0.244694  1
  O  O52  1  0.129698  0.296034  0.726727  1
  O  O53  1  0.599520  0.735098  0.250717  1
  O  O54  1  0.651526  0.752821  0.748167  1
  O  O55  1  0.077093  0.167650  0.565395  1
  O  O56  1  0.092861  0.184012  0.935741  1
  O  O57  1  0.497703  0.571227  0.749692  1
  O  O58  1  0.530550  0.565848  0.247822  1
  O  O59  1  0.468950  0.433766  0.747568  1
  O  O60  1  0.502715  0.428690  0.243910  1
  O  O61  1  0.930138  0.838955  0.423891  1
  O  O62  1  0.906309  0.814925  0.056299  1
  O  O63  1  0.345661  0.245891  0.243724  1
  O  O64  1  0.400927  0.265206  0.746451  1
  O  O65  1  0.871676  0.706512  0.276807  1
  O  O66  1  0.855015  0.674936  0.747722  1
  O  O67  1  0.727311  0.547029  0.061570  1
  O  O68  1  0.725804  0.544399  0.432126  1
  O  O69  1  0.321026  0.125344  0.424915  1
  O  O70  1  0.371853  0.137008  0.057972  1
  O  O71  1  0.638342  0.363846  0.562479  1
  O  O72  1  0.639162  0.363100  0.935424  1
  O  O73  1  0.587034  0.229430  0.279004  1
  O  O74  1  0.647691  0.251793  0.749913  1
  O  O75  1  0.496806  0.073822  0.747755  1
  O  O76  1  0.541087  0.064000  0.279943  1
  O  O77  1  0.911893  0.320114  0.432267  1
  O  O78  1  0.907938  0.316774  0.059275  1
  O  O79  1  0.871178  0.200074  0.251988  1
  O  O80  1  0.854457  0.174351  0.749518  1
  O  O81  1  0.721272  0.046117  0.055658  1
  O  O82  1  0.748528  0.034808  0.422491  1
