# generated using pymatgen
data_Cu(NO3)2
_symmetry_space_group_name_H-M   'P 1'
_cell_length_a   5.13316500
_cell_length_b   8.35759157
_cell_length_c   11.29452347
_cell_angle_alpha   89.99791780
_cell_angle_beta   89.99934952
_cell_angle_gamma   89.99018451
_symmetry_Int_Tables_number   1
_chemical_formula_structural   Cu(NO3)2
_chemical_formula_sum   'Cu4 N8 O24'
_cell_volume   484.54517540
_cell_formula_units_Z   4
loop_
 _symmetry_equiv_pos_site_id
 _symmetry_equiv_pos_as_xyz
  1  'x, y, z'
loop_
 _atom_site_type_symbol
 _atom_site_label
 _atom_site_symmetry_multiplicity
 _atom_site_fract_x
 _atom_site_fract_y
 _atom_site_fract_z
 _atom_site_occupancy
  Cu  Cu0  1  0.767245  0.246265  0.748725  1
  Cu  Cu1  1  0.767028  0.246314  0.251282  1
  Cu  Cu2  1  0.232815  0.746252  0.751285  1
  Cu  Cu3  1  0.232914  0.746291  0.248694  1
  N  N4  1  0.778880  0.290685  0.500012  1
  N  N5  1  0.221062  0.790659  0.999985  1
  N  N6  1  0.224960  0.412997  0.786076  1
  N  N7  1  0.232264  0.716979  0.499996  1
  N  N8  1  0.224951  0.412983  0.213923  1
  N  N9  1  0.774998  0.912992  0.713924  1
  N  N10  1  0.767790  0.216956  0.000010  1
  N  N11  1  0.775012  0.913011  0.286075  1
  O  O12  1  0.160992  0.644814  0.404435  1
  O  O13  1  0.980009  0.444595  0.217337  1
  O  O14  1  0.980001  0.444583  0.782664  1
  O  O15  1  0.670128  0.342464  0.595364  1
  O  O16  1  0.645936  0.343356  0.999989  1
  O  O17  1  0.019986  0.944607  0.282663  1
  O  O18  1  0.670060  0.342508  0.404687  1
  O  O19  1  0.382931  0.529410  0.799318  1
  O  O20  1  0.616973  0.029456  0.299326  1
  O  O21  1  0.617008  0.029474  0.700687  1
  O  O22  1  0.382936  0.529394  0.200671  1
  O  O23  1  0.839073  0.144791  0.904476  1
  O  O24  1  0.019983  0.944580  0.717333  1
  O  O25  1  0.354021  0.843288  0.500001  1
  O  O26  1  0.160963  0.644798  0.595552  1
  O  O27  1  0.968127  0.200500  0.499997  1
  O  O28  1  0.329878  0.842462  0.904618  1
  O  O29  1  0.839033  0.144826  0.095569  1
  O  O30  1  0.305460  0.273525  0.223468  1
  O  O31  1  0.031999  0.700558  0.000001  1
  O  O32  1  0.305477  0.273537  0.776533  1
  O  O33  1  0.329911  0.842495  0.095333  1
  O  O34  1  0.694602  0.773603  0.276533  1
  O  O35  1  0.694594  0.773594  0.723459  1
