# generated using pymatgen
data_Ba2BiSbO6
_symmetry_space_group_name_H-M   'P 1'
_cell_length_a   9.20130518
_cell_length_b   5.69868507
_cell_length_c   5.65197289
_cell_angle_alpha   111.94989161
_cell_angle_beta   125.68964269
_cell_angle_gamma   58.54136826
_symmetry_Int_Tables_number   1
_chemical_formula_structural   Ba2BiSbO6
_chemical_formula_sum   'Ba2 Bi1 Sb1 O6'
_cell_volume   204.29296866
_cell_formula_units_Z   1
loop_
 _symmetry_equiv_pos_site_id
 _symmetry_equiv_pos_as_xyz
  1  'x, y, z'
loop_
 _atom_site_type_symbol
 _atom_site_label
 _atom_site_symmetry_multiplicity
 _atom_site_fract_x
 _atom_site_fract_y
 _atom_site_fract_z
 _atom_site_occupancy
  Ba  Ba0  1  0.353249  0.292366  0.706948  1
  Ba  Ba1  1  0.646751  0.707634  0.293052  1
  Bi  Bi2  1  0.000000  0.000000  0.000000  1
  Sb  Sb3  1  0.000000  0.500000  0.000000  1
  O  O4  1  0.729524  0.124310  0.082513  1
  O  O5  1  0.688444  0.869804  0.919434  1
  O  O6  1  0.005959  0.383885  0.539816  1
  O  O7  1  0.270476  0.875690  0.917487  1
  O  O8  1  0.311556  0.130196  0.080566  1
  O  O9  1  0.994041  0.616115  0.460184  1
