# generated using pymatgen
data_Tb5(RuO6)2
_symmetry_space_group_name_H-M   'P 1'
_cell_length_a   5.92301846
_cell_length_b   6.90110031
_cell_length_c   7.25496674
_cell_angle_alpha   105.36037121
_cell_angle_beta   90.00481176
_cell_angle_gamma   115.32563614
_symmetry_Int_Tables_number   1
_chemical_formula_structural   Tb5(RuO6)2
_chemical_formula_sum   'Tb5 Ru2 O12'
_cell_volume   256.27657003
_cell_formula_units_Z   1
loop_
 _symmetry_equiv_pos_site_id
 _symmetry_equiv_pos_as_xyz
  1  'x, y, z'
loop_
 _atom_site_type_symbol
 _atom_site_label
 _atom_site_symmetry_multiplicity
 _atom_site_fract_x
 _atom_site_fract_y
 _atom_site_fract_z
 _atom_site_occupancy
  Tb  Tb0  1  0.695492  0.388955  0.833756  1
  Tb  Tb1  1  0.699768  0.400072  0.360403  1
  Tb  Tb2  1  0.000000  0.000000  0.500000  1
  Tb  Tb3  1  0.300232  0.599928  0.639597  1
  Tb  Tb4  1  0.304508  0.611045  0.166244  1
  Ru  Ru5  1  0.258618  0.000499  0.000083  1
  Ru  Ru6  1  0.741382  0.999501  0.999917  1
  O  O7  1  0.397848  0.301574  0.571844  1
  O  O8  1  0.563644  0.667645  0.914998  1
  O  O9  1  0.894158  0.331838  0.084464  1
  O  O10  1  0.095079  0.696713  0.427384  1
  O  O11  1  0.999794  0.999613  0.166464  1
  O  O12  1  0.500371  0.000708  0.801857  1
  O  O13  1  0.904921  0.303287  0.572616  1
  O  O14  1  0.105842  0.668162  0.915536  1
  O  O15  1  0.436356  0.332355  0.085002  1
  O  O16  1  0.602152  0.698426  0.428156  1
  O  O17  1  0.499629  -0.000708  0.198143  1
  O  O18  1  0.000206  0.000387  0.833536  1
