# generated using pymatgen
data_MnC4BrO4
_symmetry_space_group_name_H-M   'P 1'
_cell_length_a   9.76946438
_cell_length_b   11.95851789
_cell_length_c   13.03584868
_cell_angle_alpha   90.00000000
_cell_angle_beta   109.34225199
_cell_angle_gamma   90.00000000
_symmetry_Int_Tables_number   1
_chemical_formula_structural   MnC4BrO4
_chemical_formula_sum   'Mn8 C32 Br8 O32'
_cell_volume   1436.99595343
_cell_formula_units_Z   8
loop_
 _symmetry_equiv_pos_site_id
 _symmetry_equiv_pos_as_xyz
  1  'x, y, z'
loop_
 _atom_site_type_symbol
 _atom_site_label
 _atom_site_symmetry_multiplicity
 _atom_site_fract_x
 _atom_site_fract_y
 _atom_site_fract_z
 _atom_site_occupancy
  Mn  Mn0  1  0.186628  0.874083  0.719440  1
  Mn  Mn1  1  0.813372  0.125917  0.280560  1
  Mn  Mn2  1  0.186628  0.625917  0.219440  1
  Mn  Mn3  1  0.602105  0.623170  0.321259  1
  Mn  Mn4  1  0.813372  0.374083  0.780560  1
  Mn  Mn5  1  0.397895  0.123170  0.178741  1
  Mn  Mn6  1  0.397895  0.376830  0.678741  1
  Mn  Mn7  1  0.602105  0.876830  0.821259  1
  C  C8  1  0.807332  0.281813  0.661579  1
  C  C9  1  0.045369  0.539242  0.243057  1
  C  C10  1  0.262284  0.029046  0.088463  1
  C  C11  1  0.262284  0.470954  0.588463  1
  C  C12  1  0.804863  0.033368  0.395182  1
  C  C13  1  0.400677  0.212970  0.060690  1
  C  C14  1  0.047758  0.714308  0.125351  1
  C  C15  1  0.599323  0.787030  0.939310  1
  C  C16  1  0.804863  0.466632  0.895182  1
  C  C17  1  0.743756  0.710806  0.299787  1
  C  C18  1  0.743756  0.789194  0.799787  1
  C  C19  1  0.588203  0.535640  0.197375  1
  C  C20  1  0.045369  0.960758  0.743057  1
  C  C21  1  0.954631  0.039242  0.256943  1
  C  C22  1  0.588203  0.964360  0.697375  1
  C  C23  1  0.047758  0.785692  0.625351  1
  C  C24  1  0.195137  0.533368  0.104818  1
  C  C25  1  0.737716  0.970954  0.911537  1
  C  C26  1  0.952242  0.285692  0.874649  1
  C  C27  1  0.192668  0.781813  0.838421  1
  C  C28  1  0.400677  0.287030  0.560690  1
  C  C29  1  0.256244  0.210806  0.200213  1
  C  C30  1  0.411797  0.035640  0.302625  1
  C  C31  1  0.954631  0.460758  0.756943  1
  C  C32  1  0.411797  0.464360  0.802625  1
  C  C33  1  0.599323  0.712970  0.439310  1
  C  C34  1  0.195137  0.966632  0.604818  1
  C  C35  1  0.807332  0.218187  0.161579  1
  C  C36  1  0.952242  0.214308  0.374649  1
  C  C37  1  0.192668  0.718187  0.338421  1
  C  C38  1  0.256244  0.289194  0.700213  1
  C  C39  1  0.737716  0.529046  0.411537  1
  Br  Br40  1  0.392879  0.507440  0.346968  1
  Br  Br41  1  0.604873  0.243080  0.304985  1
  Br  Br42  1  0.392879  0.992560  0.846968  1
  Br  Br43  1  0.607121  0.007440  0.153032  1
  Br  Br44  1  0.395127  0.756920  0.695015  1
  Br  Br45  1  0.604873  0.256920  0.804985  1
  Br  Br46  1  0.395127  0.743080  0.195015  1
  Br  Br47  1  0.607121  0.492560  0.653032  1
  O  O48  1  0.042932  0.267885  0.434378  1
  O  O49  1  0.192969  0.774551  0.410427  1
  O  O50  1  0.164583  0.265690  0.212104  1
  O  O51  1  0.599268  0.768582  0.511635  1
  O  O52  1  0.042932  0.232115  0.934378  1
  O  O53  1  0.579589  0.015674  0.620570  1
  O  O54  1  0.192969  0.725449  0.910427  1
  O  O55  1  0.400732  0.231417  0.488365  1
  O  O56  1  0.802408  0.975864  0.465832  1
  O  O57  1  0.807031  0.225449  0.589573  1
  O  O58  1  0.420411  0.515674  0.879430  1
  O  O59  1  0.197592  0.024136  0.534168  1
  O  O60  1  0.176414  0.530276  0.531830  1
  O  O61  1  0.400732  0.268583  0.988365  1
  O  O62  1  0.823586  0.469724  0.468170  1
  O  O63  1  0.835417  0.765690  0.287896  1
  O  O64  1  0.599268  0.731418  0.011635  1
  O  O65  1  0.823586  0.030276  0.968170  1
  O  O66  1  0.579589  0.484326  0.120570  1
  O  O67  1  0.957068  0.767885  0.065622  1
  O  O68  1  0.957068  0.732115  0.565622  1
  O  O69  1  0.952626  0.013045  0.756352  1
  O  O70  1  0.047374  0.986955  0.243648  1
  O  O71  1  0.802408  0.524136  0.965832  1
  O  O72  1  0.420411  0.984326  0.379430  1
  O  O73  1  0.047374  0.513045  0.743648  1
  O  O74  1  0.835417  0.734310  0.787896  1
  O  O75  1  0.952626  0.486955  0.256352  1
  O  O76  1  0.807031  0.274551  0.089573  1
  O  O77  1  0.176414  0.969724  0.031830  1
  O  O78  1  0.197592  0.475864  0.034168  1
  O  O79  1  0.164583  0.234310  0.712104  1
