# generated using pymatgen
data_Ba3(SnP2)2
_symmetry_space_group_name_H-M   'P 1'
_cell_length_a   7.82314669
_cell_length_b   7.98730977
_cell_length_c   19.69270709
_cell_angle_alpha   90.00000000
_cell_angle_beta   90.00000000
_cell_angle_gamma   112.49617621
_symmetry_Int_Tables_number   1
_chemical_formula_structural   Ba3(SnP2)2
_chemical_formula_sum   'Ba12 Sn8 P16'
_cell_volume   1136.88038373
_cell_formula_units_Z   4
loop_
 _symmetry_equiv_pos_site_id
 _symmetry_equiv_pos_as_xyz
  1  'x, y, z'
loop_
 _atom_site_type_symbol
 _atom_site_label
 _atom_site_symmetry_multiplicity
 _atom_site_fract_x
 _atom_site_fract_y
 _atom_site_fract_z
 _atom_site_occupancy
  Ba  Ba0  1  0.991213  0.737139  0.940489  1
  Ba  Ba1  1  0.491213  0.737139  0.559511  1
  Ba  Ba2  1  0.507301  0.208893  0.682573  1
  Ba  Ba3  1  0.987438  0.740053  0.434045  1
  Ba  Ba4  1  0.508787  0.262861  0.440489  1
  Ba  Ba5  1  0.512562  0.259947  0.934045  1
  Ba  Ba6  1  0.008787  0.262861  0.059511  1
  Ba  Ba7  1  0.487438  0.740053  0.065955  1
  Ba  Ba8  1  0.992699  0.791107  0.182573  1
  Ba  Ba9  1  0.012562  0.259947  0.565955  1
  Ba  Ba10  1  0.492699  0.791107  0.317427  1
  Ba  Ba11  1  0.007301  0.208893  0.817427  1
  Sn  Sn12  1  0.393153  0.316123  0.242708  1
  Sn  Sn13  1  0.477406  0.790275  0.878143  1
  Sn  Sn14  1  0.977406  0.790275  0.621857  1
  Sn  Sn15  1  0.106847  0.683877  0.742708  1
  Sn  Sn16  1  0.022594  0.209725  0.378143  1
  Sn  Sn17  1  0.522594  0.209725  0.121857  1
  Sn  Sn18  1  0.606847  0.683877  0.757292  1
  Sn  Sn19  1  0.893153  0.316123  0.257292  1
  P  P20  1  0.786458  0.958513  0.681992  1
  P  P21  1  0.743521  0.493886  0.064818  1
  P  P22  1  0.713542  0.041487  0.181992  1
  P  P23  1  0.247308  0.998491  0.553435  1
  P  P24  1  0.790704  0.490588  0.797885  1
  P  P25  1  0.256479  0.506114  0.935182  1
  P  P26  1  0.209296  0.509412  0.202115  1
  P  P27  1  0.709296  0.509412  0.297885  1
  P  P28  1  0.252692  0.001509  0.053435  1
  P  P29  1  0.243521  0.493886  0.435182  1
  P  P30  1  0.756479  0.506114  0.564818  1
  P  P31  1  0.286458  0.958513  0.818008  1
  P  P32  1  0.747308  0.998491  0.946565  1
  P  P33  1  0.213542  0.041487  0.318008  1
  P  P34  1  0.752692  0.001509  0.446565  1
  P  P35  1  0.290704  0.490588  0.702115  1
