# generated using pymatgen
data_Li2ZrTeO6
_symmetry_space_group_name_H-M   'P 1'
_cell_length_a   5.57863138
_cell_length_b   5.57863138
_cell_length_c   5.57863139
_cell_angle_alpha   56.09074111
_cell_angle_beta   56.09074113
_cell_angle_gamma   56.09074113
_symmetry_Int_Tables_number   1
_chemical_formula_structural   Li2ZrTeO6
_chemical_formula_sum   'Li2 Zr1 Te1 O6'
_cell_volume   111.64954521
_cell_formula_units_Z   1
loop_
 _symmetry_equiv_pos_site_id
 _symmetry_equiv_pos_as_xyz
  1  'x, y, z'
loop_
 _atom_site_type_symbol
 _atom_site_label
 _atom_site_symmetry_multiplicity
 _atom_site_fract_x
 _atom_site_fract_y
 _atom_site_fract_z
 _atom_site_occupancy
  Li  Li0  1  0.276480  0.276480  0.276480  1
  Li  Li1  1  0.787412  0.787412  0.787412  1
  O  O2  1  0.860531  0.608216  0.241131  1
  O  O3  1  0.715741  0.126630  0.388738  1
  O  O4  1  0.126630  0.388738  0.715741  1
  O  O5  1  0.388738  0.715741  0.126630  1
  O  O6  1  0.241131  0.860531  0.608216  1
  O  O7  1  0.608216  0.241131  0.860531  1
  Zr  Zr8  1  0.000861  0.000861  0.000861  1
  Te  Te9  1  0.496260  0.496260  0.496260  1
