# generated using pymatgen
data_Ti9S10
_symmetry_space_group_name_H-M   'P 1'
_cell_length_a   9.11860041
_cell_length_b   45.59533608
_cell_length_c   35.83040113
_cell_angle_alpha   10.79042091
_cell_angle_beta   18.80541802
_cell_angle_gamma   21.58428515
_symmetry_Int_Tables_number   1
_chemical_formula_structural   Ti9S10
_chemical_formula_sum   'Ti27 S30'
_cell_volume   899.04297814
_cell_formula_units_Z   3
loop_
 _symmetry_equiv_pos_site_id
 _symmetry_equiv_pos_as_xyz
  1  'x, y, z'
loop_
 _atom_site_type_symbol
 _atom_site_label
 _atom_site_symmetry_multiplicity
 _atom_site_fract_x
 _atom_site_fract_y
 _atom_site_fract_z
 _atom_site_occupancy
  Ti  Ti0  1  0.006481  0.999315  0.999967  1
  Ti  Ti1  1  0.090830  0.000775  0.065611  1
  Ti  Ti2  1  0.992444  0.200774  0.000789  1
  Ti  Ti3  1  0.117027  0.199349  0.059172  1
  Ti  Ti4  1  0.005895  0.398173  0.001364  1
  Ti  Ti5  1  0.996582  0.001857  0.497092  1
  Ti  Ti6  1  0.131733  0.391776  0.066800  1
  Ti  Ti7  1  0.115541  0.996719  0.562544  1
  Ti  Ti8  1  0.004335  0.198583  0.501983  1
  Ti  Ti9  1  0.993845  0.600124  0.001419  1
  Ti  Ti10  1  0.136034  0.608407  0.044721  1
  Ti  Ti11  1  0.884117  0.201791  0.439404  1
  Ti  Ti12  1  0.001777  0.402726  0.497016  1
  Ti  Ti13  1  0.998944  0.798884  0.001949  1
  Ti  Ti14  1  0.117011  0.800682  0.058271  1
  Ti  Ti15  1  0.118827  0.399230  0.559962  1
  Ti  Ti16  1  0.864063  0.991957  0.955551  1
  Ti  Ti17  1  0.882578  0.398705  0.443327  1
  Ti  Ti18  1  0.005464  0.599755  0.500614  1
  Ti  Ti19  1  0.892530  0.207530  0.927518  1
  Ti  Ti20  1  0.887117  0.602276  0.438152  1
  Ti  Ti21  1  0.117715  0.802971  0.554527  1
  Ti  Ti22  1  0.880372  0.798723  0.443846  1
  Ti  Ti23  1  0.885989  0.399553  0.941604  1
  Ti  Ti24  1  0.001271  0.799910  0.499704  1
  Ti  Ti25  1  0.891523  0.592051  0.947070  1
  Ti  Ti26  1  0.867576  0.808173  0.933638  1
  S  S27  1  0.465390  0.002147  0.259266  1
  S  S28  1  0.279078  0.201059  0.135711  1
  S  S29  1  0.719939  0.000386  0.361654  1
  S  S30  1  0.524219  0.186591  0.263511  1
  S  S31  1  0.275312  0.401409  0.136868  1
  S  S32  1  0.729763  0.198753  0.361846  1
  S  S33  1  0.478355  0.388402  0.267013  1
  S  S34  1  0.277787  0.199729  0.638969  1
  S  S35  1  0.276648  0.598821  0.139329  1
  S  S36  1  0.724268  0.400648  0.360968  1
  S  S37  1  0.723793  0.999941  0.862155  1
  S  S38  1  0.535573  0.198087  0.740948  1
  S  S39  1  0.505851  0.600923  0.247556  1
  S  S40  1  0.273771  0.399989  0.638804  1
  S  S41  1  0.274413  0.800776  0.137804  1
  S  S42  1  0.719687  0.198127  0.865119  1
  S  S43  1  0.724693  0.600358  0.361475  1
  S  S44  1  0.478074  0.412446  0.737399  1
  S  S45  1  0.471025  0.788166  0.269331  1
  S  S46  1  0.281231  0.599608  0.638206  1
  S  S47  1  0.279893  0.001153  0.135610  1
  S  S48  1  0.723699  0.398819  0.863678  1
  S  S49  1  0.722979  0.800815  0.361438  1
  S  S50  1  0.532115  0.598342  0.741231  1
  S  S51  1  0.277409  0.798084  0.640055  1
  S  S52  1  0.722520  0.600983  0.860956  1
  S  S53  1  0.528097  0.811316  0.732153  1
  S  S54  1  0.269198  0.000417  0.639617  1
  S  S55  1  0.727510  0.799603  0.861164  1
  S  S56  1  0.472589  0.013334  0.737802  1
