# generated using pymatgen
data_Y2BeAlBO7
_symmetry_space_group_name_H-M   'P 1'
_cell_length_a   10.19185054
_cell_length_b   7.13794976
_cell_length_c   7.41288209
_cell_angle_alpha   90.00000000
_cell_angle_beta   90.00000000
_cell_angle_gamma   90.00000000
_symmetry_Int_Tables_number   1
_chemical_formula_structural   Y2BeAlBO7
_chemical_formula_sum   'Y8 Be4 Al4 B4 O28'
_cell_volume   539.27914476
_cell_formula_units_Z   4
loop_
 _symmetry_equiv_pos_site_id
 _symmetry_equiv_pos_as_xyz
  1  'x, y, z'
loop_
 _atom_site_type_symbol
 _atom_site_label
 _atom_site_symmetry_multiplicity
 _atom_site_fract_x
 _atom_site_fract_y
 _atom_site_fract_z
 _atom_site_occupancy
  Y  Y0  1  0.102569  0.327601  0.278802  1
  Y  Y1  1  0.267342  0.741711  0.775930  1
  Y  Y2  1  0.397431  0.172399  0.778802  1
  Y  Y3  1  0.232658  0.758289  0.275930  1
  Y  Y4  1  0.767342  0.258289  0.224070  1
  Y  Y5  1  0.602569  0.672399  0.721198  1
  Y  Y6  1  0.732658  0.241711  0.724070  1
  Y  Y7  1  0.897431  0.827601  0.221198  1
  Be  Be8  1  0.884033  0.667259  0.861524  1
  Be  Be9  1  0.615967  0.832741  0.361524  1
  Be  Be10  1  0.384033  0.332741  0.138476  1
  Be  Be11  1  0.115967  0.167259  0.638476  1
  Al  Al12  1  0.014083  0.018364  0.917758  1
  Al  Al13  1  0.514083  0.981636  0.082242  1
  Al  Al14  1  0.485917  0.481636  0.417758  1
  Al  Al15  1  -0.014083  0.518364  0.582242  1
  B  B16  1  0.940018  0.081859  0.528918  1
  B  B17  1  0.559982  0.418141  0.028918  1
  B  B18  1  0.440018  0.918141  0.471082  1
  B  B19  1  0.059982  0.581859  0.971082  1
  O  O20  1  0.321527  -0.024018  0.535423  1
  O  O21  1  0.051900  0.664349  0.403448  1
  O  O22  1  0.173275  0.051400  0.799782  1
  O  O23  1  0.096065  0.869062  0.084454  1
  O  O24  1  0.138950  0.373238  0.587169  1
  O  O25  1  0.939700  0.554757  0.052434  1
  O  O26  1  0.950028  0.151463  0.708723  1
  O  O27  1  0.549972  0.348537  0.208723  1
  O  O28  1  0.560300  0.945243  0.552434  1
  O  O29  1  0.361050  0.126762  0.087169  1
  O  O30  1  0.403935  0.630938  0.584454  1
  O  O31  1  0.326725  0.448600  0.299782  1
  O  O32  1  0.448100  0.835651  0.903448  1
  O  O33  1  0.178473  0.524018  0.035423  1
  O  O34  1  0.821527  0.024018  0.464577  1
  O  O35  1  0.638950  0.626762  0.412831  1
  O  O36  1  0.596065  0.130938  0.915546  1
  O  O37  1  0.673275  0.948600  0.200218  1
  O  O38  1  0.551900  0.335651  0.596552  1
  O  O39  1  0.450028  0.848537  0.291277  1
  O  O40  1  0.439700  0.445243  0.947566  1
  O  O41  1  0.049972  0.651463  0.791277  1
  O  O42  1  0.060300  0.054757  0.447566  1
  O  O43  1  0.948100  0.164349  0.096552  1
  O  O44  1  0.826725  0.551400  0.700218  1
  O  O45  1  0.903935  0.369062  0.415546  1
  O  O46  1  0.861050  0.873238  0.912831  1
  O  O47  1  0.678473  0.475982  -0.035423  1
