# generated using pymatgen
data_Bi9Rh2Br3
_symmetry_space_group_name_H-M   'P 1'
_cell_length_a   9.43783056
_cell_length_b   13.88328103
_cell_length_c   20.24333996
_cell_angle_alpha   90.00000000
_cell_angle_beta   100.98004893
_cell_angle_gamma   90.00000000
_symmetry_Int_Tables_number   1
_chemical_formula_structural   Bi9Rh2Br3
_chemical_formula_sum   'Bi54 Rh12 Br18'
_cell_volume   2603.88862330
_cell_formula_units_Z   6
loop_
 _symmetry_equiv_pos_site_id
 _symmetry_equiv_pos_as_xyz
  1  'x, y, z'
loop_
 _atom_site_type_symbol
 _atom_site_label
 _atom_site_symmetry_multiplicity
 _atom_site_fract_x
 _atom_site_fract_y
 _atom_site_fract_z
 _atom_site_occupancy
  Bi  Bi0  1  0.297696  0.250000  0.360690  1
  Bi  Bi1  1  0.472894  0.634757  0.395119  1
  Bi  Bi2  1  0.492525  0.466012  0.116412  1
  Bi  Bi3  1  0.796790  0.134702  0.261867  1
  Bi  Bi4  1  0.941849  0.531020  0.391262  1
  Bi  Bi5  1  0.472894  0.865243  0.395119  1
  Bi  Bi6  1  0.507475  0.533988  0.883588  1
  Bi  Bi7  1  0.969779  0.750000  0.303049  1
  Bi  Bi8  1  0.254459  0.467683  0.944580  1
  Bi  Bi9  1  0.475336  0.250000  0.886589  1
  Bi  Bi10  1  0.246876  0.462815  0.447342  1
  Bi  Bi11  1  0.034301  0.964442  0.215643  1
  Bi  Bi12  1  0.965699  0.464442  0.784357  1
  Bi  Bi13  1  0.213568  0.750000  0.444834  1
  Bi  Bi14  1  0.034301  0.535558  0.215643  1
  Bi  Bi15  1  0.753124  0.537185  0.552658  1
  Bi  Bi16  1  0.065692  0.250000  0.217686  1
  Bi  Bi17  1  0.203210  0.865298  0.738133  1
  Bi  Bi18  1  0.753124  0.962815  0.552658  1
  Bi  Bi19  1  0.058151  0.468980  0.608738  1
  Bi  Bi20  1  0.254459  0.032317  0.944580  1
  Bi  Bi21  1  0.664321  0.965467  0.722896  1
  Bi  Bi22  1  0.031546  0.750000  0.609002  1
  Bi  Bi23  1  0.934308  0.750000  0.782314  1
  Bi  Bi24  1  0.664321  0.534533  0.722896  1
  Bi  Bi25  1  0.965699  0.035558  0.784357  1
  Bi  Bi26  1  0.492525  0.033988  0.116412  1
  Bi  Bi27  1  0.796790  0.365298  0.261867  1
  Bi  Bi28  1  0.289557  0.750000  0.938812  1
  Bi  Bi29  1  0.527106  0.134757  0.604881  1
  Bi  Bi30  1  0.710443  0.250000  0.061188  1
  Bi  Bi31  1  0.335679  0.034533  0.277104  1
  Bi  Bi32  1  0.781833  0.365207  0.933841  1
  Bi  Bi33  1  0.781833  0.134793  0.933841  1
  Bi  Bi34  1  0.218167  0.634793  0.066159  1
  Bi  Bi35  1  0.786432  0.250000  0.555166  1
  Bi  Bi36  1  0.941849  0.968980  0.391262  1
  Bi  Bi37  1  0.294377  0.750000  0.268959  1
  Bi  Bi38  1  0.030221  0.250000  0.696951  1
  Bi  Bi39  1  0.745541  0.967683  0.055420  1
  Bi  Bi40  1  0.705623  0.250000  0.731041  1
  Bi  Bi41  1  0.218167  0.865207  0.066159  1
  Bi  Bi42  1  0.356453  0.250000  0.030300  1
  Bi  Bi43  1  0.507475  0.966012  0.883588  1
  Bi  Bi44  1  0.524664  0.750000  0.113411  1
  Bi  Bi45  1  0.527106  0.365243  0.604881  1
  Bi  Bi46  1  0.203210  0.634702  0.738133  1
  Bi  Bi47  1  0.745541  0.532317  0.055420  1
  Bi  Bi48  1  0.058151  0.031020  0.608738  1
  Bi  Bi49  1  0.643547  0.750000  0.969700  1
  Bi  Bi50  1  0.335679  0.465467  0.277104  1
  Bi  Bi51  1  0.702304  0.750000  0.639310  1
  Bi  Bi52  1  0.968454  0.250000  0.390998  1
  Bi  Bi53  1  0.246876  0.037185  0.447342  1
  Rh  Rh54  1  0.534799  0.398808  0.988970  1
  Rh  Rh55  1  0.180899  0.600496  0.342821  1
  Rh  Rh56  1  0.465201  0.898808  0.011030  1
  Rh  Rh57  1  0.087075  0.100265  0.320369  1
  Rh  Rh58  1  0.465201  0.601192  0.011030  1
  Rh  Rh59  1  0.912925  0.899735  0.679631  1
  Rh  Rh60  1  0.534799  0.101192  0.988970  1
  Rh  Rh61  1  0.819101  0.100496  0.657179  1
  Rh  Rh62  1  0.087075  0.399735  0.320369  1
  Rh  Rh63  1  0.819101  0.399504  0.657179  1
  Rh  Rh64  1  0.180899  0.899504  0.342821  1
  Rh  Rh65  1  0.912925  0.600265  0.679631  1
  Br  Br66  1  0.355960  0.396146  0.739292  1
  Br  Br67  1  0.644040  0.896146  0.260708  1
  Br  Br68  1  0.574870  0.750000  0.799875  1
  Br  Br69  1  0.644040  0.603854  0.260708  1
  Br  Br70  1  0.896874  0.750000  0.127688  1
  Br  Br71  1  0.103126  0.250000  0.872312  1
  Br  Br72  1  0.062477  0.106049  0.074084  1
  Br  Br73  1  0.937523  0.606049  0.925916  1
  Br  Br74  1  0.172364  0.250000  0.542841  1
  Br  Br75  1  0.364103  0.604858  0.588576  1
  Br  Br76  1  0.635897  0.104858  0.411424  1
  Br  Br77  1  0.827636  0.750000  0.457159  1
  Br  Br78  1  0.355960  0.103854  0.739292  1
  Br  Br79  1  0.937523  0.893951  0.925916  1
  Br  Br80  1  0.425130  0.250000  0.200125  1
  Br  Br81  1  0.062477  0.393951  0.074084  1
  Br  Br82  1  0.635897  0.395142  0.411424  1
  Br  Br83  1  0.364103  0.895142  0.588576  1
