# generated using pymatgen
data_V3P4Pb2O17
_symmetry_space_group_name_H-M   'P 1'
_cell_length_a   9.52815809
_cell_length_b   12.87586086
_cell_length_c   12.87586156
_cell_angle_alpha   90.93606375
_cell_angle_beta   108.60725213
_cell_angle_gamma   108.60725413
_symmetry_Int_Tables_number   1
_chemical_formula_structural   V3P4Pb2O17
_chemical_formula_sum   'V12 P16 Pb8 O68'
_cell_volume   1406.49697861
_cell_formula_units_Z   4
loop_
 _symmetry_equiv_pos_site_id
 _symmetry_equiv_pos_as_xyz
  1  'x, y, z'
loop_
 _atom_site_type_symbol
 _atom_site_label
 _atom_site_symmetry_multiplicity
 _atom_site_fract_x
 _atom_site_fract_y
 _atom_site_fract_z
 _atom_site_occupancy
  V  V0  1  0.752952  0.443128  0.062910  1
  V  V1  1  0.445486  0.657411  0.236797  1
  V  V2  1  0.750000  0.444273  0.555727  1
  V  V3  1  0.247048  0.556872  0.937090  1
  V  V4  1  0.750000  0.938825  0.061175  1
  V  V5  1  0.252952  0.062910  0.443128  1
  V  V6  1  0.054514  0.763203  0.342589  1
  V  V7  1  0.250000  0.061175  0.938825  1
  V  V8  1  0.945486  0.236797  0.657411  1
  V  V9  1  0.554514  0.342589  0.763203  1
  V  V10  1  0.747048  0.937090  0.556872  1
  V  V11  1  0.250000  0.555727  0.444273  1
  P  P12  1  0.629387  0.661921  0.503723  1
  P  P13  1  0.370613  0.338079  0.496277  1
  P  P14  1  0.157301  0.055625  0.168229  1
  P  P15  1  0.135594  0.059877  0.661726  1
  P  P16  1  0.648701  0.166466  0.497716  1
  P  P17  1  0.870613  0.496277  0.338079  1
  P  P18  1  0.148701  0.497716  0.166466  1
  P  P19  1  0.864406  0.940123  0.338274  1
  P  P20  1  0.635594  0.661726  0.059877  1
  P  P21  1  0.657301  0.168229  0.055625  1
  P  P22  1  0.129387  0.503723  0.661921  1
  P  P23  1  0.351299  0.833534  0.502284  1
  P  P24  1  0.342699  0.831771  0.944375  1
  P  P25  1  0.842699  0.944375  0.831771  1
  P  P26  1  0.364406  0.338274  0.940123  1
  P  P27  1  0.851299  0.502284  0.833534  1
  Pb  Pb28  1  0.517108  0.984846  0.237180  1
  Pb  Pb29  1  0.031754  0.244743  0.295427  1
  Pb  Pb30  1  0.468246  0.704573  0.755257  1
  Pb  Pb31  1  0.968246  0.755257  0.704573  1
  Pb  Pb32  1  0.982892  0.762820  0.015154  1
  Pb  Pb33  1  0.531754  0.295427  0.244743  1
  Pb  Pb34  1  0.017108  0.237180  0.984846  1
  Pb  Pb35  1  0.482892  0.015154  0.762820  1
  O  O36  1  0.261093  0.219347  0.435526  1
  O  O37  1  0.979284  0.533096  0.632058  1
  O  O38  1  0.264066  0.219220  0.953423  1
  O  O39  1  0.020716  0.466904  0.367942  1
  O  O40  1  0.482906  0.621002  0.958166  1
  O  O41  1  0.761093  0.435526  0.219347  1
  O  O42  1  0.365294  0.826854  0.829922  1
  O  O43  1  0.235934  0.046577  0.780780  1
  O  O44  1  0.271593  0.059527  0.102399  1
  O  O45  1  0.479284  0.632058  0.533096  1
  O  O46  1  0.733160  0.593304  0.562220  1
  O  O47  1  0.503723  0.889583  0.036745  1
  O  O48  1  0.229808  0.894852  0.447071  1
  O  O49  1  0.248598  0.036980  0.286321  1
  O  O50  1  0.770192  0.105148  0.552929  1
  O  O51  1  0.096955  0.379013  0.650973  1
  O  O52  1  0.497018  0.116896  0.521768  1
  O  O53  1  0.634706  0.173146  0.170078  1
  O  O54  1  0.771593  0.102399  0.059527  1
  O  O55  1  0.403045  0.349027  0.620987  1
  O  O56  1  0.246692  0.057605  0.596183  1
  O  O57  1  0.517094  0.378998  0.041834  1
  O  O58  1  0.753308  0.942395  0.403817  1
  O  O59  1  0.903045  0.620987  0.349027  1
  O  O60  1  0.375805  0.831350  0.625601  1
  O  O61  1  0.746692  0.596183  0.057605  1
  O  O62  1  0.898183  0.831437  0.342475  1
  O  O63  1  0.738907  0.780653  0.564474  1
  O  O64  1  0.423084  0.778494  0.231425  1
  O  O65  1  0.124195  0.374399  0.168650  1
  O  O66  1  0.576916  0.221506  0.768575  1
  O  O67  1  0.601817  0.657525  0.168563  1
  O  O68  1  0.520716  0.367942  0.466904  1
  O  O69  1  0.228407  0.897601  0.940473  1
  O  O70  1  0.728407  0.940473  0.897601  1
  O  O71  1  0.076916  0.768575  0.221506  1
  O  O72  1  0.865294  0.829922  0.826854  1
  O  O73  1  0.982906  0.958166  0.621002  1
  O  O74  1  0.738195  0.434823  0.715059  1
  O  O75  1  0.238195  0.715059  0.434823  1
  O  O76  1  0.253308  0.403817  0.942395  1
  O  O77  1  0.017094  0.041834  0.378998  1
  O  O78  1  0.266840  0.406696  0.437780  1
  O  O79  1  0.923084  0.231425  0.778494  1
  O  O80  1  0.251402  0.713679  0.963020  1
  O  O81  1  0.496277  0.110417  0.963255  1
  O  O82  1  0.875805  0.625601  0.831350  1
  O  O83  1  0.003723  0.036745  0.889583  1
  O  O84  1  0.101817  0.168563  0.657525  1
  O  O85  1  0.233160  0.562220  0.593304  1
  O  O86  1  0.764066  0.953423  0.219220  1
  O  O87  1  0.748598  0.286321  0.036980  1
  O  O88  1  0.261805  0.565177  0.284941  1
  O  O89  1  0.270192  0.552929  0.105148  1
  O  O90  1  0.502982  0.883104  0.478232  1
  O  O91  1  0.398183  0.342475  0.831437  1
  O  O92  1  0.002982  0.478232  0.883104  1
  O  O93  1  0.761805  0.284941  0.565177  1
  O  O94  1  0.996277  0.963255  0.110417  1
  O  O95  1  0.624195  0.168650  0.374399  1
  O  O96  1  0.596955  0.650973  0.379013  1
  O  O97  1  0.238907  0.564474  0.780653  1
  O  O98  1  0.735934  0.780780  0.046577  1
  O  O99  1  0.729808  0.447071  0.894852  1
  O  O100  1  0.766840  0.437780  0.406696  1
  O  O101  1  0.134706  0.170078  0.173146  1
  O  O102  1  0.751402  0.963020  0.713679  1
  O  O103  1  0.997018  0.521768  0.116896  1
