# generated using pymatgen
data_Ca(CeTe2)2
_symmetry_space_group_name_H-M   'P 1'
_cell_length_a   8.30215695
_cell_length_b   8.30215724
_cell_length_c   8.30215711
_cell_angle_alpha   109.77696753
_cell_angle_beta   109.77696815
_cell_angle_gamma   108.86144067
_symmetry_Int_Tables_number   1
_chemical_formula_structural   Ca(CeTe2)2
_chemical_formula_sum   'Ca2 Ce4 Te8'
_cell_volume   440.46774234
_cell_formula_units_Z   2
loop_
 _symmetry_equiv_pos_site_id
 _symmetry_equiv_pos_as_xyz
  1  'x, y, z'
loop_
 _atom_site_type_symbol
 _atom_site_label
 _atom_site_symmetry_multiplicity
 _atom_site_fract_x
 _atom_site_fract_y
 _atom_site_fract_z
 _atom_site_occupancy
  Ca  Ca0  1  0.625000  0.375000  0.250000  1
  Ca  Ca1  1  0.875000  0.125000  0.750000  1
  Ce  Ce2  1  0.123281  0.750000  0.873281  1
  Ce  Ce3  1  0.250000  0.623281  0.373281  1
  Ce  Ce4  1  0.376719  0.250000  0.626719  1
  Ce  Ce5  1  0.750000  0.876719  0.126720  1
  Te  Te6  1  0.002681  0.855142  0.502132  1
  Te  Te7  1  0.000549  0.353010  0.497868  1
  Te  Te8  1  0.497319  -0.000549  0.852461  1
  Te  Te9  1  0.144858  0.146990  0.147539  1
  Te  Te10  1  0.355142  0.502681  0.002132  1
  Te  Te11  1  0.646990  0.644858  0.647539  1
  Te  Te12  1  0.499451  0.997319  0.352461  1
  Te  Te13  1  0.853010  0.500549  0.997868  1
