# generated using pymatgen
data_FeS
_symmetry_space_group_name_H-M   'P 1'
_cell_length_a   6.58146025
_cell_length_b   6.58146043
_cell_length_c   5.17302894
_cell_angle_alpha   90.00000000
_cell_angle_beta   90.00000000
_cell_angle_gamma   119.99999917
_symmetry_Int_Tables_number   1
_chemical_formula_structural   FeS
_chemical_formula_sum   'Fe8 S8'
_cell_volume   194.05287445
_cell_formula_units_Z   8
loop_
 _symmetry_equiv_pos_site_id
 _symmetry_equiv_pos_as_xyz
  1  'x, y, z'
loop_
 _atom_site_type_symbol
 _atom_site_label
 _atom_site_symmetry_multiplicity
 _atom_site_fract_x
 _atom_site_fract_y
 _atom_site_fract_z
 _atom_site_occupancy
  Fe  Fe0  1  0.524371  0.475629  0.014851  1
  Fe  Fe1  1  0.951258  0.475629  0.014851  1
  Fe  Fe2  1  0.000000  0.000000  0.453504  1
  Fe  Fe3  1  0.475629  0.524371  0.514851  1
  Fe  Fe4  1  0.524371  0.048742  0.014851  1
  Fe  Fe5  1  0.000000  0.000000  0.953504  1
  Fe  Fe6  1  0.048742  0.524371  0.514851  1
  Fe  Fe7  1  0.475629  0.951258  0.514851  1
  S  S8  1  0.166676  0.333352  0.227296  1
  S  S9  1  0.166676  0.833324  0.227296  1
  S  S10  1  0.833324  0.666648  0.727296  1
  S  S11  1  0.666648  0.833324  0.227296  1
  S  S12  1  0.666667  0.333333  0.295055  1
  S  S13  1  0.333352  0.166676  0.727296  1
  S  S14  1  0.833324  0.166676  0.727296  1
  S  S15  1  0.333333  0.666667  0.795055  1
