# generated using pymatgen
data_Eu2H4Pd
_symmetry_space_group_name_H-M   'P 1'
_cell_length_a   7.47629852
_cell_length_b   5.40193301
_cell_length_c   9.52579743
_cell_angle_alpha   90.00477481
_cell_angle_beta   90.17484473
_cell_angle_gamma   89.99010438
_symmetry_Int_Tables_number   1
_chemical_formula_structural   Eu2H4Pd
_chemical_formula_sum   'Eu8 H16 Pd4'
_cell_volume   384.71147493
_cell_formula_units_Z   4
loop_
 _symmetry_equiv_pos_site_id
 _symmetry_equiv_pos_as_xyz
  1  'x, y, z'
loop_
 _atom_site_type_symbol
 _atom_site_label
 _atom_site_symmetry_multiplicity
 _atom_site_fract_x
 _atom_site_fract_y
 _atom_site_fract_z
 _atom_site_occupancy
  Eu  Eu0  1  0.650747  0.249625  0.091910  1
  Eu  Eu1  1  0.149667  0.249821  0.406984  1
  Eu  Eu2  1  0.349113  0.749984  0.908434  1
  Eu  Eu3  1  0.849166  0.750304  0.593162  1
  Eu  Eu4  1  0.988527  0.250078  0.830674  1
  Eu  Eu5  1  0.489091  0.250158  0.668567  1
  Eu  Eu6  1  0.011448  0.750007  0.168775  1
  Eu  Eu7  1  0.512120  0.749800  0.331934  1
  H  H8  1  0.827065  0.521948  0.339404  1
  H  H9  1  0.327369  0.977825  0.160033  1
  H  H10  1  0.172818  0.020908  0.660378  1
  H  H11  1  0.673483  0.477415  0.839917  1
  H  H12  1  0.173181  0.478166  0.660510  1
  H  H13  1  0.672729  0.022172  0.840268  1
  H  H14  1  0.827345  0.979070  0.339487  1
  H  H15  1  0.326562  0.522536  0.160370  1
  H  H16  1  0.501370  0.250369  0.397934  1
  H  H17  1  0.001760  0.250037  0.102281  1
  H  H18  1  0.498437  0.749735  0.602509  1
  H  H19  1  0.997932  0.749938  0.897011  1
  H  H20  1  0.822336  0.249911  0.595132  1
  H  H21  1  0.322653  0.249875  0.904981  1
  H  H22  1  0.178207  0.750172  0.404557  1
  H  H23  1  0.677346  0.750174  0.095083  1
  Pd  Pd24  1  0.739382  0.250668  0.415651  1
  Pd  Pd25  1  0.239576  0.250179  0.084239  1
  Pd  Pd26  1  0.260404  0.749365  0.583997  1
  Pd  Pd27  1  0.760165  0.749757  0.915817  1
