# generated using pymatgen
data_YbBeF4
_symmetry_space_group_name_H-M   'P 1'
_cell_length_a   7.44359431
_cell_length_b   7.02518677
_cell_length_c   6.56348939
_cell_angle_alpha   76.99333666
_cell_angle_beta   88.04333622
_cell_angle_gamma   104.63406130
_symmetry_Int_Tables_number   1
_chemical_formula_structural   YbBeF4
_chemical_formula_sum   'Yb4 Be4 F16'
_cell_volume   322.05656712
_cell_formula_units_Z   4
loop_
 _symmetry_equiv_pos_site_id
 _symmetry_equiv_pos_as_xyz
  1  'x, y, z'
loop_
 _atom_site_type_symbol
 _atom_site_label
 _atom_site_symmetry_multiplicity
 _atom_site_fract_x
 _atom_site_fract_y
 _atom_site_fract_z
 _atom_site_occupancy
  Yb  Yb0  1  0.885194  0.010262  0.758227  1
  Yb  Yb1  1  0.422637  0.943653  0.777054  1
  Yb  Yb2  1  0.145331  -0.003408  0.203408  1
  Yb  Yb3  1  0.695494  0.109928  0.251406  1
  Be  Be4  1  0.614800  0.591408  0.202713  1
  Be  Be5  1  0.299485  0.479301  0.762856  1
  Be  Be6  1  0.608513  0.363243  0.586927  1
  Be  Be7  1  0.229402  0.625600  0.392939  1
  F  F8  1  0.281603  0.817271  0.489237  1
  F  F9  1  0.160977  0.439920  0.605032  1
  F  F10  1  0.643140  0.887218  0.584927  1
  F  F11  1  0.946895  0.154736  0.029350  1
  F  F12  1  0.078712  0.663062  0.254231  1
  F  F13  1  0.723393  0.238743  0.720594  1
  F  F14  1  0.657662  0.425244  0.112095  1
  F  F15  1  0.977949  0.094160  0.423896  1
  F  F16  1  0.459998  0.389320  0.752993  1
  F  F17  1  0.148369  0.970125  0.860019  1
  F  F18  1  0.298822  0.613242  0.898190  1
  F  F19  1  0.687114  0.808843  0.051812  1
  F  F20  1  0.402247  0.579117  0.289049  1
  F  F21  1  0.488732  0.203579  0.477203  1
  F  F22  1  0.437825  0.032174  0.088854  1
  F  F23  1  0.705706  0.563259  0.426988  1
