# generated using pymatgen
data_NaCa2TiSi2O8F
_symmetry_space_group_name_H-M   'P 1'
_cell_length_a   5.80596335
_cell_length_b   7.62293934
_cell_length_c   19.40946680
_cell_angle_alpha   101.30739304
_cell_angle_beta   90.31445517
_cell_angle_gamma   90.09387378
_symmetry_Int_Tables_number   1
_chemical_formula_structural   NaCa2TiSi2O8F
_chemical_formula_sum   'Na4 Ca8 Ti4 Si8 O32 F4'
_cell_volume   842.34370361
_cell_formula_units_Z   4
loop_
 _symmetry_equiv_pos_site_id
 _symmetry_equiv_pos_as_xyz
  1  'x, y, z'
loop_
 _atom_site_type_symbol
 _atom_site_label
 _atom_site_symmetry_multiplicity
 _atom_site_fract_x
 _atom_site_fract_y
 _atom_site_fract_z
 _atom_site_occupancy
  Na  Na0  1  0.262115  0.487356  0.491277  1
  Na  Na1  1  0.978982  0.000827  0.996600  1
  Na  Na2  1  0.979809  0.495642  0.996850  1
  Na  Na3  1  0.265929  0.011873  0.490713  1
  Ca  Ca4  1  0.092239  0.665324  0.331141  1
  Ca  Ca5  1  0.460086  0.332435  0.673498  1
  Ca  Ca6  1  0.783293  0.839314  0.176631  1
  Ca  Ca7  1  0.465927  0.837560  0.677173  1
  Ca  Ca8  1  0.192523  0.658434  0.823129  1
  Ca  Ca9  1  0.777027  0.335224  0.177973  1
  Ca  Ca10  1  0.178895  0.163590  0.823417  1
  Ca  Ca11  1  0.059642  0.161940  0.326173  1
  Ti  Ti12  1  0.742911  0.747429  0.484173  1
  Ti  Ti13  1  0.535882  0.236836  0.974709  1
  Ti  Ti14  1  0.406725  0.763663  0.027957  1
  Ti  Ti15  1  0.816424  0.258305  0.525227  1
  Si  Si16  1  0.288963  0.095209  0.152432  1
  Si  Si17  1  0.579617  0.452143  0.352415  1
  Si  Si18  1  0.688420  0.905211  0.846497  1
  Si  Si19  1  0.687125  0.442491  0.847835  1
  Si  Si20  1  0.954292  0.588254  0.652941  1
  Si  Si21  1  0.954151  0.053287  0.650459  1
  Si  Si22  1  0.576255  0.900276  0.351048  1
  Si  Si23  1  0.286904  0.561254  0.155873  1
  O  O24  1  0.705674  0.772191  0.049619  1
  O  O25  1  0.709610  0.591686  0.689247  1
  O  O26  1  0.663550  0.408892  0.927534  1
  O  O27  1  0.678338  0.279290  0.058099  1
  O  O28  1  0.671970  0.022802  0.925594  1
  O  O29  1  0.235384  0.226678  0.952963  1
  O  O30  1  0.315755  0.941561  0.333882  1
  O  O31  1  0.061098  0.604595  0.204191  1
  O  O32  1  0.516067  0.271477  0.546012  1
  O  O33  1  0.612261  0.915396  0.435059  1
  O  O34  1  0.611293  0.529853  0.435896  1
  O  O35  1  0.322452  0.388039  0.333847  1
  O  O36  1  0.052567  0.091204  0.195036  1
  O  O37  1  0.966177  0.083850  0.569846  1
  O  O38  1  0.805155  0.390902  0.307104  1
  O  O39  1  0.269939  0.984101  0.072481  1
  O  O40  1  0.455063  0.903120  0.801966  1
  O  O41  1  0.250458  0.607248  0.078710  1
  O  O42  1  0.535177  0.094440  0.187937  1
  O  O43  1  0.710470  0.091405  0.686600  1
  O  O44  1  0.942312  0.907513  0.815964  1
  O  O45  1  0.041081  0.728874  0.454897  1
  O  O46  1  0.799758  0.917317  0.305368  1
  O  O47  1  0.943519  0.409370  0.820273  1
  O  O48  1  0.594247  0.783019  0.564899  1
  O  O49  1  0.969197  0.472392  0.573268  1
  O  O50  1  0.190612  0.103384  0.693856  1
  O  O51  1  0.940201  0.223737  0.441090  1
  O  O52  1  0.457946  0.397353  0.801304  1
  O  O53  1  0.541147  0.591046  0.186363  1
  O  O54  1  0.191394  0.583860  0.696031  1
  O  O55  1  0.270083  0.718066  0.943787  1
  F  F56  1  0.682713  0.685212  0.868248  1
  F  F57  1  0.000792  0.810627  0.632380  1
  F  F58  1  0.252120  0.319980  0.132855  1
  F  F59  1  0.547283  0.662644  0.325648  1
