# generated using pymatgen
data_Sr2Co2O5
_symmetry_space_group_name_H-M   'P 1'
_cell_length_a   7.82027582
_cell_length_b   5.65595517
_cell_length_c   5.60015823
_cell_angle_alpha   60.89681496
_cell_angle_beta   46.01480784
_cell_angle_gamma   46.89932575
_symmetry_Int_Tables_number   1
_chemical_formula_structural   Sr2Co2O5
_chemical_formula_sum   'Sr2 Co2 O5'
_cell_volume   130.09920307
_cell_formula_units_Z   1
loop_
 _symmetry_equiv_pos_site_id
 _symmetry_equiv_pos_as_xyz
  1  'x, y, z'
loop_
 _atom_site_type_symbol
 _atom_site_label
 _atom_site_symmetry_multiplicity
 _atom_site_fract_x
 _atom_site_fract_y
 _atom_site_fract_z
 _atom_site_occupancy
  Sr  Sr0  1  0.108626  0.609638  0.547124  1
  Sr  Sr1  1  0.608516  0.609101  0.553602  1
  Co  Co2  1  0.909135  0.071109  0.993718  1
  Co  Co3  1  0.314633  0.160619  0.059565  1
  O  O4  1  0.580868  0.245544  0.069838  1
  O  O5  1  0.109608  0.615737  0.053778  1
  O  O6  1  0.622305  0.955667  0.683235  1
  O  O7  1  0.189017  0.010474  0.500037  1
  O  O8  1  0.005632  0.231098  0.073465  1
