# generated using pymatgen
data_SnC2(SN)2
_symmetry_space_group_name_H-M   'P 1'
_cell_length_a   5.01525381
_cell_length_b   5.74034370
_cell_length_c   10.40709347
_cell_angle_alpha   100.51148783
_cell_angle_beta   96.64627534
_cell_angle_gamma   93.00601487
_symmetry_Int_Tables_number   1
_chemical_formula_structural   SnC2(SN)2
_chemical_formula_sum   'Sn2 C4 S4 N4'
_cell_volume   291.77391001
_cell_formula_units_Z   2
loop_
 _symmetry_equiv_pos_site_id
 _symmetry_equiv_pos_as_xyz
  1  'x, y, z'
loop_
 _atom_site_type_symbol
 _atom_site_label
 _atom_site_symmetry_multiplicity
 _atom_site_fract_x
 _atom_site_fract_y
 _atom_site_fract_z
 _atom_site_occupancy
  Sn  Sn0  1  0.828210  0.812186  0.256073  1
  Sn  Sn1  1  0.171790  0.187814  0.743927  1
  C  C2  1  0.796978  0.251892  0.000276  1
  C  C3  1  0.203022  0.748108  -0.000276  1
  C  C4  1  0.814314  0.601065  0.628600  1
  C  C5  1  0.185686  0.398935  0.371400  1
  S  S6  1  0.624376  0.284729  0.123694  1
  S  S7  1  0.735758  0.857307  0.596019  1
  S  S8  1  0.264242  0.142693  0.403981  1
  S  S9  1  0.375624  0.715271  0.876306  1
  N  N10  1  0.137913  0.587942  0.348482  1
  N  N11  1  0.915723  0.225033  0.907402  1
  N  N12  1  0.084277  0.774967  0.092598  1
  N  N13  1  0.862087  0.412058  0.651518  1
