# generated using pymatgen
data_K3NaFeCl6
_symmetry_space_group_name_H-M   'P 1'
_cell_length_a   8.94055204
_cell_length_b   12.47001346
_cell_length_c   8.22534879
_cell_angle_alpha   86.66831776
_cell_angle_beta   122.92055697
_cell_angle_gamma   96.13861118
_symmetry_Int_Tables_number   1
_chemical_formula_structural   K3NaFeCl6
_chemical_formula_sum   'K6 Na2 Fe2 Cl12'
_cell_volume   765.36760715
_cell_formula_units_Z   2
loop_
 _symmetry_equiv_pos_site_id
 _symmetry_equiv_pos_as_xyz
  1  'x, y, z'
loop_
 _atom_site_type_symbol
 _atom_site_label
 _atom_site_symmetry_multiplicity
 _atom_site_fract_x
 _atom_site_fract_y
 _atom_site_fract_z
 _atom_site_occupancy
  K  K0  1  0.500000  0.000000  0.000000  1
  K  K1  1  0.500000  0.000000  0.500000  1
  K  K2  1  0.000000  0.000000  0.500000  1
  K  K3  1  0.000000  0.500000  0.500000  1
  K  K4  1  0.500000  0.500000  0.500000  1
  K  K5  1  0.500000  0.500000  0.000000  1
  Na  Na6  1  0.000000  0.500000  0.000000  1
  Na  Na7  1  0.000000  0.000000  0.000000  1
  Fe  Fe8  1  0.500000  0.250000  0.000000  1
  Fe  Fe9  1  0.500000  0.750000  0.000000  1
  Cl  Cl10  1  0.491041  0.664021  0.741606  1
  Cl  Cl11  1  0.766698  0.876137  0.000000  1
  Cl  Cl12  1  0.749434  0.664021  0.258394  1
  Cl  Cl13  1  0.508959  0.335979  0.258394  1
  Cl  Cl14  1  0.233302  0.123863  1.000000  1
  Cl  Cl15  1  0.250566  0.335979  0.741606  1
  Cl  Cl16  1  0.766698  0.376137  0.000000  1
  Cl  Cl17  1  0.491041  0.164021  0.741606  1
  Cl  Cl18  1  0.749434  0.164021  0.258394  1
  Cl  Cl19  1  0.233302  0.623863  1.000000  1
  Cl  Cl20  1  0.508959  0.835979  0.258394  1
  Cl  Cl21  1  0.250566  0.835979  0.741606  1
