# generated using pymatgen
data_U11S20
_symmetry_space_group_name_H-M   'P 1'
_cell_length_a   20.37444866
_cell_length_b   9.40712872
_cell_length_c   6.65184451
_cell_angle_alpha   45.00000000
_cell_angle_beta   90.00000000
_cell_angle_gamma   90.00000000
_symmetry_Int_Tables_number   1
_chemical_formula_structural   U11S20
_chemical_formula_sum   'U22 S40'
_cell_volume   901.50895081
_cell_formula_units_Z   2
loop_
 _symmetry_equiv_pos_site_id
 _symmetry_equiv_pos_as_xyz
  1  'x, y, z'
loop_
 _atom_site_type_symbol
 _atom_site_label
 _atom_site_symmetry_multiplicity
 _atom_site_fract_x
 _atom_site_fract_y
 _atom_site_fract_z
 _atom_site_occupancy
  U  U0  1  0.041608  0.000000  0.750000  1
  U  U1  1  0.351855  0.256006  0.437122  1
  U  U2  1  0.204942  0.302948  0.138926  1
  U  U3  1  0.204942  0.697052  0.361074  1
  U  U4  1  0.351855  0.743994  0.062878  1
  U  U5  1  0.351855  0.056872  0.949134  1
  U  U6  1  0.204942  0.308126  0.744822  1
  U  U7  1  0.204942  0.691874  0.755178  1
  U  U8  1  0.351855  0.943128  0.550866  1
  U  U9  1  0.251137  0.000000  0.250000  1
  U  U10  1  0.251137  0.500000  0.250000  1
  U  U11  1  0.541608  0.500000  0.750000  1
  U  U12  1  0.851855  0.443128  0.062878  1
  U  U13  1  0.704942  0.191874  0.361074  1
  U  U14  1  0.704942  0.197052  0.744822  1
  U  U15  1  0.851855  0.243994  0.949134  1
  U  U16  1  0.704942  0.808126  0.138926  1
  U  U17  1  0.851855  0.556872  0.437122  1
  U  U18  1  0.704942  0.802948  0.755178  1
  U  U19  1  0.851855  0.756006  0.550866  1
  U  U20  1  0.751137  0.500000  0.250000  1
  U  U21  1  0.751137  0.000000  0.250000  1
  S  S22  1  0.131907  0.002133  0.022007  1
  S  S23  1  0.087455  0.244265  -0.001758  1
  S  S24  1  0.131907  0.274140  0.473726  1
  S  S25  1  0.087455  0.492507  0.013229  1
  S  S26  1  0.087455  0.507493  0.486771  1
  S  S27  1  0.131907  0.725860  0.026274  1
  S  S28  1  0.087455  0.755735  0.501758  1
  S  S29  1  0.131907  -0.002133  0.477993  1
  S  S30  1  0.352358  0.435644  0.576090  1
  S  S31  1  0.468919  0.115418  0.426172  1
  S  S32  1  0.468919  0.208410  0.657008  1
  S  S33  1  0.352358  0.738266  0.447378  1
  S  S34  1  0.352358  0.261734  0.052622  1
  S  S35  1  0.468919  0.791590  0.842992  1
  S  S36  1  0.468919  -0.115418  0.073828  1
  S  S37  1  0.352358  0.564356  0.923910  1
  S  S38  1  0.482643  0.189595  0.011640  1
  S  S39  1  0.482643  0.451235  0.109171  1
  S  S40  1  0.482643  0.810405  0.488360  1
  S  S41  1  0.482643  0.548765  0.390829  1
  S  S42  1  0.631907  0.497867  0.026274  1
  S  S43  1  0.587455  0.007493  -0.001758  1
  S  S44  1  0.631907  0.225860  0.022007  1
  S  S45  1  0.587455  0.744265  0.013229  1
  S  S46  1  0.587455  0.255735  0.486771  1
  S  S47  1  0.631907  0.774140  0.477993  1
  S  S48  1  0.587455  -0.007493  0.501758  1
  S  S49  1  0.631907  0.502133  0.473726  1
  S  S50  1  0.852358  0.064356  0.447378  1
  S  S51  1  0.968919  0.384582  0.657008  1
  S  S52  1  0.852358  0.238266  0.576090  1
  S  S53  1  0.968919  0.291590  0.073828  1
  S  S54  1  0.968919  0.615418  0.842992  1
  S  S55  1  0.968919  0.708410  0.426172  1
  S  S56  1  0.852358  0.761734  0.923910  1
  S  S57  1  0.852358  -0.064356  0.052622  1
  S  S58  1  0.982643  0.310405  0.390829  1
  S  S59  1  0.982643  0.048765  0.011640  1
  S  S60  1  0.982643  0.689595  0.109171  1
  S  S61  1  0.982643  0.951235  0.488360  1
