# generated using pymatgen
data_Na3PH24SO15
_symmetry_space_group_name_H-M   'P 1'
_cell_length_a   13.75801338
_cell_length_b   13.75801316
_cell_length_c   13.75801374
_cell_angle_alpha   39.39458510
_cell_angle_beta   39.39458607
_cell_angle_gamma   39.39458479
_symmetry_Int_Tables_number   1
_chemical_formula_structural   Na3PH24SO15
_chemical_formula_sum   'Na6 P2 H48 S2 O30'
_cell_volume   944.02134887
_cell_formula_units_Z   2
loop_
 _symmetry_equiv_pos_site_id
 _symmetry_equiv_pos_as_xyz
  1  'x, y, z'
loop_
 _atom_site_type_symbol
 _atom_site_label
 _atom_site_symmetry_multiplicity
 _atom_site_fract_x
 _atom_site_fract_y
 _atom_site_fract_z
 _atom_site_occupancy
  Na  Na0  1  -0.015581  -0.015581  -0.015581  1
  Na  Na1  1  0.126285  0.126285  0.126285  1
  Na  Na2  1  0.373715  0.373715  0.373715  1
  Na  Na3  1  0.515581  0.515581  0.515581  1
  Na  Na4  1  0.598129  0.598129  0.598129  1
  Na  Na5  1  0.901871  0.901871  0.901871  1
  P  P6  1  0.277410  0.277410  0.277410  1
  P  P7  1  0.222590  0.222590  0.222590  1
  H  H8  1  0.011891  0.199381  0.626308  1
  H  H9  1  0.199381  0.626308  0.011891  1
  H  H10  1  0.110407  0.307880  0.592744  1
  H  H11  1  0.626308  0.011891  0.199381  1
  H  H12  1  -0.012161  0.555551  0.578346  1
  H  H13  1  0.307880  0.592744  0.110407  1
  H  H14  1  0.216936  0.727164  0.159657  1
  H  H15  1  0.592744  0.110407  0.307880  1
  H  H16  1  0.159657  0.216936  0.727164  1
  H  H17  1  0.555551  0.578346  -0.012161  1
  H  H18  1  0.578346  -0.012161  0.555551  1
  H  H19  1  -0.055551  0.512161  0.921654  1
  H  H20  1  0.727164  0.159657  0.216936  1
  H  H21  1  0.074193  0.756667  0.536938  1
  H  H22  1  0.340343  0.772836  0.283064  1
  H  H23  1  0.283064  0.340343  0.772836  1
  H  H24  1  0.192120  0.389593  0.907256  1
  H  H25  1  0.536938  0.074193  0.756667  1
  H  H26  1  0.512161  0.921654  -0.055551  1
  H  H27  1  0.036129  0.853179  0.631668  1
  H  H28  1  0.756667  0.536938  0.074193  1
  H  H29  1  0.389593  0.907256  0.192120  1
  H  H30  1  0.772836  0.283064  0.340343  1
  H  H31  1  0.130570  0.947303  0.541751  1
  H  H32  1  0.921654  -0.055551  0.512161  1
  H  H33  1  0.238595  0.668143  0.729064  1
  H  H34  1  0.631668  0.036129  0.853179  1
  H  H35  1  0.300619  0.488109  0.873692  1
  H  H36  1  0.907256  0.192120  0.389593  1
  H  H37  1  0.541751  0.130570  0.947303  1
  H  H38  1  0.488109  0.873692  0.300619  1
  H  H39  1  0.853179  0.631668  0.036129  1
  H  H40  1  0.668143  0.729064  0.238595  1
  H  H41  1  0.729064  0.238595  0.668143  1
  H  H42  1  0.873692  0.300619  0.488109  1
  H  H43  1  0.261405  0.770936  0.831857  1
  H  H44  1  0.947303  0.541751  0.130570  1
  H  H45  1  0.369430  0.958249  0.552697  1
  H  H46  1  0.552697  0.369430  0.958249  1
  H  H47  1  0.770936  0.831857  0.261405  1
  H  H48  1  0.463871  0.868332  0.646821  1
  H  H49  1  0.831857  0.261405  0.770936  1
  H  H50  1  0.646821  0.463871  0.868332  1
  H  H51  1  0.958249  0.552697  0.369430  1
  H  H52  1  0.425807  0.963062  0.743333  1
  H  H53  1  0.868332  0.646821  0.463871  1
  H  H54  1  0.743333  0.425807  0.963062  1
  H  H55  1  0.963062  0.743333  0.425807  1
  S  S56  1  0.056398  0.056398  0.056398  1
  S  S57  1  0.443602  0.443602  0.443602  1
  O  O58  1  0.149408  0.321720  0.616440  1
  O  O59  1  0.045317  0.885801  0.187661  1
  O  O60  1  0.187661  0.045317  0.885801  1
  O  O61  1  0.321720  0.616440  0.149408  1
  O  O62  1  0.616440  0.149408  0.321720  1
  O  O63  1  0.885801  0.187661  0.045317  1
  O  O64  1  0.178280  0.350592  0.883560  1
  O  O65  1  0.312339  0.614199  0.454683  1
  O  O66  1  0.454683  0.312339  0.614199  1
  O  O67  1  0.350592  0.883560  0.178280  1
  O  O68  1  0.614199  0.454683  0.312339  1
  O  O69  1  0.082601  0.865878  0.652850  1
  O  O70  1  0.883560  0.178280  0.350592  1
  O  O71  1  0.340346  0.561195  0.751173  1
  O  O72  1  0.652850  0.082601  0.865878  1
  O  O73  1  0.561195  0.751173  0.340346  1
  O  O74  1  0.751173  0.340346  0.561195  1
  O  O75  1  0.865878  0.652850  0.082601  1
  O  O76  1  0.159654  0.748827  0.938805  1
  O  O77  1  0.417399  0.847150  0.634122  1
  O  O78  1  0.634122  0.417399  0.847150  1
  O  O79  1  0.748827  0.938805  0.159654  1
  O  O80  1  0.938805  0.159654  0.748827  1
  O  O81  1  0.847150  0.634122  0.417399  1
  O  O82  1  0.526709  0.909110  0.665616  1
  O  O83  1  0.665616  0.526709  0.909110  1
  O  O84  1  0.909110  0.665616  0.526709  1
  O  O85  1  0.590890  0.973291  0.834384  1
  O  O86  1  0.834384  0.590890  0.973291  1
  O  O87  1  0.973291  0.834384  0.590890  1
