# generated using pymatgen
data_K2AgC3(SN)3
_symmetry_space_group_name_H-M   'P 1'
_cell_length_a   9.96864030
_cell_length_b   10.72892971
_cell_length_c   20.27050298
_cell_angle_alpha   90.00000000
_cell_angle_beta   90.00000000
_cell_angle_gamma   105.57382753
_symmetry_Int_Tables_number   1
_chemical_formula_structural   K2AgC3(SN)3
_chemical_formula_sum   'K16 Ag8 C24 S24 N24'
_cell_volume   2088.39087471
_cell_formula_units_Z   8
loop_
 _symmetry_equiv_pos_site_id
 _symmetry_equiv_pos_as_xyz
  1  'x, y, z'
loop_
 _atom_site_type_symbol
 _atom_site_label
 _atom_site_symmetry_multiplicity
 _atom_site_fract_x
 _atom_site_fract_y
 _atom_site_fract_z
 _atom_site_occupancy
  K  K0  1  0.368642  0.877000  0.107357  1
  K  K1  1  0.359256  0.390218  0.902066  1
  K  K2  1  0.859256  0.890218  0.597934  1
  K  K3  1  0.751867  0.957267  0.235502  1
  K  K4  1  0.631358  0.123000  0.892643  1
  K  K5  1  0.748133  0.542733  0.735502  1
  K  K6  1  0.248133  0.042733  0.764498  1
  K  K7  1  0.009756  0.711395  0.280214  1
  K  K8  1  0.140744  0.109782  0.402066  1
  K  K9  1  0.868642  0.377000  0.392643  1
  K  K10  1  0.640744  0.609782  0.097934  1
  K  K11  1  0.131358  0.623000  0.607357  1
  K  K12  1  0.251867  0.457267  0.264498  1
  K  K13  1  0.490244  0.788605  0.780214  1
  K  K14  1  0.509756  0.211395  0.219786  1
  K  K15  1  0.990244  0.288605  0.719786  1
  Ag  Ag16  1  0.876528  0.378477  0.048166  1
  Ag  Ag17  1  0.417264  0.400112  0.571987  1
  Ag  Ag18  1  0.123472  0.621523  0.951834  1
  Ag  Ag19  1  0.082736  0.099888  0.071987  1
  Ag  Ag20  1  0.623472  0.121523  0.548166  1
  Ag  Ag21  1  0.376528  0.878477  0.451834  1
  Ag  Ag22  1  0.917264  0.900112  0.928013  1
  Ag  Ag23  1  0.582736  0.599888  0.428013  1
  C  C24  1  0.895918  0.367449  0.872119  1
  C  C25  1  0.825437  0.876882  0.387418  1
  C  C26  1  0.325437  0.376882  0.112582  1
  C  C27  1  0.959065  0.275635  0.548098  1
  C  C28  1  0.097584  0.638975  0.781971  1
  C  C29  1  0.843352  0.913745  0.772342  1
  C  C30  1  0.104082  0.632551  0.127881  1
  C  C31  1  0.604082  0.132551  0.372119  1
  C  C32  1  0.902416  0.361025  0.218029  1
  C  C33  1  0.174563  0.123118  0.612582  1
  C  C34  1  0.540935  0.224365  0.048098  1
  C  C35  1  0.656648  0.586255  0.272342  1
  C  C36  1  0.597584  0.138975  0.718029  1
  C  C37  1  0.459065  0.775635  0.951902  1
  C  C38  1  0.156648  0.086255  0.227658  1
  C  C39  1  0.766105  0.546193  0.564121  1
  C  C40  1  0.266105  0.046193  0.935879  1
  C  C41  1  0.040935  0.724365  0.451902  1
  C  C42  1  0.674563  0.623118  0.887418  1
  C  C43  1  0.233895  0.453807  0.435879  1
  C  C44  1  0.395918  0.867449  0.627881  1
  C  C45  1  0.343352  0.413745  0.727658  1
  C  C46  1  0.402416  0.861025  0.281971  1
  C  C47  1  0.733895  0.953807  0.064121  1
  S  S48  1  0.922033  0.031881  0.822739  1
  S  S49  1  0.121545  0.849682  0.497824  1
  S  S50  1  0.835054  0.254686  0.160140  1
  S  S51  1  0.664946  0.245314  0.660140  1
  S  S52  1  0.577967  0.468119  0.322739  1
  S  S53  1  0.378455  0.650318  0.997824  1
  S  S54  1  0.166258  0.939695  0.985997  1
  S  S55  1  0.077967  0.968119  0.177261  1
  S  S56  1  0.294828  0.164373  0.555050  1
  S  S57  1  0.878455  0.150318  0.502176  1
  S  S58  1  0.794828  0.664373  0.944950  1
  S  S59  1  0.621545  0.349682  0.002176  1
  S  S60  1  0.833742  0.060305  0.014003  1
  S  S61  1  0.512773  0.868275  0.569560  1
  S  S62  1  0.012773  0.368275  0.930440  1
  S  S63  1  0.487227  0.131725  0.430440  1
  S  S64  1  0.705172  0.835627  0.444950  1
  S  S65  1  0.335054  0.754686  0.339860  1
  S  S66  1  0.333742  0.560305  0.485997  1
  S  S67  1  0.205172  0.335627  0.055050  1
  S  S68  1  0.164946  0.745314  0.839860  1
  S  S69  1  0.987227  0.631725  0.069560  1
  S  S70  1  0.666258  0.439695  0.514003  1
  S  S71  1  0.422033  0.531881  0.677261  1
  N  N72  1  0.951266  0.436536  0.260055  1
  N  N73  1  0.811288  0.362187  0.830411  1
  N  N74  1  0.188712  0.637813  0.169589  1
  N  N75  1  0.548734  0.063464  0.760055  1
  N  N76  1  0.688712  0.137813  0.330411  1
  N  N77  1  0.015573  0.364516  0.581515  1
  N  N78  1  0.662620  0.878558  0.100897  1
  N  N79  1  0.912757  0.911046  0.346438  1
  N  N80  1  0.214134  0.170170  0.264039  1
  N  N81  1  0.412757  0.411046  0.153562  1
  N  N82  1  0.515573  0.864516  0.918485  1
  N  N83  1  0.785866  0.829830  0.735961  1
  N  N84  1  0.048734  0.563464  0.739945  1
  N  N85  1  0.587243  0.588954  0.846438  1
  N  N86  1  0.451266  0.936536  0.239945  1
  N  N87  1  0.311288  0.862187  0.669589  1
  N  N88  1  0.162620  0.378558  0.399103  1
  N  N89  1  0.714134  0.670170  0.235961  1
  N  N90  1  0.484427  0.135484  0.081515  1
  N  N91  1  0.337380  0.121442  0.899103  1
  N  N92  1  0.984427  0.635484  0.418485  1
  N  N93  1  0.837380  0.621442  0.600897  1
  N  N94  1  0.087243  0.088954  0.653562  1
  N  N95  1  0.285866  0.329830  0.764039  1
