# generated using pymatgen
data_H4N2O3
_symmetry_space_group_name_H-M   'P 1'
_cell_length_a   4.59517650
_cell_length_b   4.29522245
_cell_length_c   4.29522245
_cell_angle_alpha   91.31944056
_cell_angle_beta   92.03883062
_cell_angle_gamma   92.03883062
_symmetry_Int_Tables_number   1
_chemical_formula_structural   H4N2O3
_chemical_formula_sum   'H4 N2 O3'
_cell_volume   84.64376543
_cell_formula_units_Z   1
loop_
 _symmetry_equiv_pos_site_id
 _symmetry_equiv_pos_as_xyz
  1  'x, y, z'
loop_
 _atom_site_type_symbol
 _atom_site_label
 _atom_site_symmetry_multiplicity
 _atom_site_fract_x
 _atom_site_fract_y
 _atom_site_fract_z
 _atom_site_occupancy
  H  H0  1  0.000000  0.233788  0.766212  1
  H  H1  1  0.000000  0.698156  0.301844  1
  H  H2  1  0.374231  0.337516  0.079270  1
  H  H3  1  0.625769  0.920730  0.662484  1
  N  N4  1  0.000000  0.061987  0.938013  1
  N  N5  1  0.500000  0.594756  0.405244  1
  O  O6  1  0.000000  0.537203  0.462797  1
  O  O7  1  0.462475  0.552557  0.097399  1
  O  O8  1  0.537525  0.902601  0.447443  1
