# generated using pymatgen
data_Cs3Nb2AsSe11
_symmetry_space_group_name_H-M   'P 1'
_cell_length_a   10.43520916
_cell_length_b   10.62076071
_cell_length_c   10.62076126
_cell_angle_alpha   85.08424034
_cell_angle_beta   84.68275518
_cell_angle_gamma   84.68275504
_symmetry_Int_Tables_number   1
_chemical_formula_structural   Cs3Nb2AsSe11
_chemical_formula_sum   'Cs6 Nb4 As2 Se22'
_cell_volume   1163.45429894
_cell_formula_units_Z   2
loop_
 _symmetry_equiv_pos_site_id
 _symmetry_equiv_pos_as_xyz
  1  'x, y, z'
loop_
 _atom_site_type_symbol
 _atom_site_label
 _atom_site_symmetry_multiplicity
 _atom_site_fract_x
 _atom_site_fract_y
 _atom_site_fract_z
 _atom_site_occupancy
  Cs  Cs0  1  0.345181  0.644826  0.798717  1
  Cs  Cs1  1  0.845181  0.798717  0.644826  1
  Cs  Cs2  1  0.603598  0.044626  0.181264  1
  Cs  Cs3  1  0.103598  0.181264  0.044626  1
  Cs  Cs4  1  0.432567  0.441056  0.287203  1
  Cs  Cs5  1  0.932567  0.287203  0.441056  1
  Nb  Nb6  1  0.830612  0.541984  0.080641  1
  Nb  Nb7  1  0.016394  0.791609  0.194688  1
  Nb  Nb8  1  0.330612  0.080641  0.541984  1
  Nb  Nb9  1  0.516394  0.194688  0.791609  1
  As  As10  1  0.772524  0.411543  0.747795  1
  As  As11  1  0.272524  0.747795  0.411543  1
  Se  Se12  1  0.674851  0.563930  0.893027  1
  Se  Se13  1  0.073899  0.863351  0.956462  1
  Se  Se14  1  0.088873  0.621521  0.388760  1
  Se  Se15  1  0.580733  0.108751  0.531693  1
  Se  Se16  1  0.764566  0.193420  0.829011  1
  Se  Se17  1  0.014815  0.512648  0.900650  1
  Se  Se18  1  0.588873  0.388760  0.621521  1
  Se  Se19  1  0.264566  0.829011  0.193420  1
  Se  Se20  1  0.775075  0.336102  0.156710  1
  Se  Se21  1  0.936024  0.969664  0.305689  1
  Se  Se22  1  0.436024  0.305689  0.969664  1
  Se  Se23  1  0.514815  0.900650  0.512648  1
  Se  Se24  1  0.318396  0.301458  0.650078  1
  Se  Se25  1  0.080733  0.531693  0.108751  1
  Se  Se26  1  0.857569  0.813035  0.015852  1
  Se  Se27  1  0.357569  0.015852  0.813035  1
  Se  Se28  1  0.275075  0.156710  0.336102  1
  Se  Se29  1  0.136864  0.176443  0.691595  1
  Se  Se30  1  0.636864  0.691595  0.176443  1
  Se  Se31  1  0.573899  0.956462  0.863351  1
  Se  Se32  1  0.818396  0.650078  0.301458  1
  Se  Se33  1  0.174851  0.893027  0.563930  1
