# generated using pymatgen
data_CdH6C4(S2O)2
_symmetry_space_group_name_H-M   'P 1'
_cell_length_a   9.83048927
_cell_length_b   9.83048927
_cell_length_c   12.66901449
_cell_angle_alpha   73.22966746
_cell_angle_beta   106.77033254
_cell_angle_gamma   156.09271019
_symmetry_Int_Tables_number   1
_chemical_formula_structural   CdH6C4(S2O)2
_chemical_formula_sum   'Cd2 H12 C8 S8 O4'
_cell_volume   474.09311480
_cell_formula_units_Z   2
loop_
 _symmetry_equiv_pos_site_id
 _symmetry_equiv_pos_as_xyz
  1  'x, y, z'
loop_
 _atom_site_type_symbol
 _atom_site_label
 _atom_site_symmetry_multiplicity
 _atom_site_fract_x
 _atom_site_fract_y
 _atom_site_fract_z
 _atom_site_occupancy
  Cd  Cd0  1  0.000000  0.500000  0.500000  1
  Cd  Cd1  1  0.500000  0.000000  0.000000  1
  H  H2  1  0.987021  0.071255  0.332986  1
  H  H3  1  0.071255  0.987021  0.167014  1
  H  H4  1  0.012979  0.928745  0.667014  1
  H  H5  1  0.928745  0.012979  0.832986  1
  H  H6  1  0.657532  0.641020  0.368395  1
  H  H7  1  0.641020  0.657532  0.131605  1
  H  H8  1  0.342468  0.358980  0.631605  1
  H  H9  1  0.358980  0.342468  0.868395  1
  H  H10  1  0.557882  0.728999  0.282179  1
  H  H11  1  0.728999  0.557882  0.217821  1
  H  H12  1  0.442118  0.271001  0.717821  1
  H  H13  1  0.271001  0.442118  0.782179  1
  C  C14  1  0.721201  0.811279  0.350798  1
  C  C15  1  0.811279  0.721201  0.149202  1
  C  C16  1  0.278799  0.188721  0.649202  1
  C  C17  1  0.188721  0.278799  0.850798  1
  C  C18  1  0.735361  0.991111  0.456794  1
  C  C19  1  0.991111  0.735361  0.043206  1
  C  C20  1  0.264639  0.008889  0.543206  1
  C  C21  1  0.008889  0.264639  0.956794  1
  S  S22  1  0.646673  0.940069  0.580003  1
  S  S23  1  0.940069  0.646673  0.919997  1
  S  S24  1  0.353327  0.059931  0.419997  1
  S  S25  1  0.059931  0.353327  0.080003  1
  S  S26  1  0.901752  0.267121  0.351707  1
  S  S27  1  0.267121  0.901752  0.148293  1
  S  S28  1  0.098248  0.732879  0.648293  1
  S  S29  1  0.732879  0.098248  0.851707  1
  O  O30  1  0.662573  0.794226  0.451393  1
  O  O31  1  0.794226  0.662573  0.048607  1
  O  O32  1  0.337427  0.205774  0.548607  1
  O  O33  1  0.205774  0.337427  0.951393  1
