# generated using pymatgen
data_Zr4Fe2H2O
_symmetry_space_group_name_H-M   'P 1'
_cell_length_a   8.97013032
_cell_length_b   8.97013032
_cell_length_c   8.97013032
_cell_angle_alpha   60.00000000
_cell_angle_beta   60.00000000
_cell_angle_gamma   60.00000000
_symmetry_Int_Tables_number   1
_chemical_formula_structural   Zr4Fe2H2O
_chemical_formula_sum   'Zr16 Fe8 H8 O4'
_cell_volume   510.36544306
_cell_formula_units_Z   4
loop_
 _symmetry_equiv_pos_site_id
 _symmetry_equiv_pos_as_xyz
  1  'x, y, z'
loop_
 _atom_site_type_symbol
 _atom_site_label
 _atom_site_symmetry_multiplicity
 _atom_site_fract_x
 _atom_site_fract_y
 _atom_site_fract_z
 _atom_site_occupancy
  Zr  Zr0  1  0.685473  0.064527  0.064527  1
  Zr  Zr1  1  0.064527  0.685473  0.685473  1
  Zr  Zr2  1  0.064527  0.064527  0.685473  1
  Zr  Zr3  1  0.685473  0.685473  0.064527  1
  Zr  Zr4  1  0.064527  0.685473  0.064527  1
  Zr  Zr5  1  0.685473  0.064527  0.685473  1
  Zr  Zr6  1  0.314527  0.935473  0.935473  1
  Zr  Zr7  1  0.935473  0.314527  0.314527  1
  Zr  Zr8  1  0.935473  0.935473  0.314527  1
  Zr  Zr9  1  0.314527  0.314527  0.935473  1
  Zr  Zr10  1  0.935473  0.314527  0.935473  1
  Zr  Zr11  1  0.314527  0.935473  0.314527  1
  Zr  Zr12  1  0.500000  0.000000  0.500000  1
  Zr  Zr13  1  0.500000  0.500000  0.000000  1
  Zr  Zr14  1  0.000000  0.500000  0.500000  1
  Zr  Zr15  1  0.500000  0.500000  0.500000  1
  Fe  Fe16  1  0.705249  0.384254  0.705249  1
  Fe  Fe17  1  0.705249  0.705249  0.384254  1
  Fe  Fe18  1  0.384254  0.705249  0.705249  1
  Fe  Fe19  1  0.705249  0.705249  0.705249  1
  Fe  Fe20  1  0.294751  0.615746  0.294751  1
  Fe  Fe21  1  0.294751  0.294751  0.615746  1
  Fe  Fe22  1  0.615746  0.294751  0.294751  1
  Fe  Fe23  1  0.294751  0.294751  0.294751  1
  H  H24  1  0.792964  0.121107  0.792964  1
  H  H25  1  0.792964  0.792964  0.121107  1
  H  H26  1  0.121107  0.792964  0.792964  1
  H  H27  1  0.792964  0.792964  0.792964  1
  H  H28  1  0.207036  0.878893  0.207036  1
  H  H29  1  0.207036  0.207036  0.878893  1
  H  H30  1  0.878893  0.207036  0.207036  1
  H  H31  1  0.207036  0.207036  0.207036  1
  O  O32  1  0.000000  0.500000  0.000000  1
  O  O33  1  0.000000  0.000000  0.500000  1
  O  O34  1  0.500000  0.000000  0.000000  1
  O  O35  1  0.000000  0.000000  0.000000  1
