# generated using pymatgen
data_Na2BeSiO4
_symmetry_space_group_name_H-M   'P 1'
_cell_length_a   4.96259493
_cell_length_b   9.96591059
_cell_length_c   14.00428037
_cell_angle_alpha   90.00000000
_cell_angle_beta   90.00000000
_cell_angle_gamma   90.00000000
_symmetry_Int_Tables_number   1
_chemical_formula_structural   Na2BeSiO4
_chemical_formula_sum   'Na16 Be8 Si8 O32'
_cell_volume   692.60657644
_cell_formula_units_Z   8
loop_
 _symmetry_equiv_pos_site_id
 _symmetry_equiv_pos_as_xyz
  1  'x, y, z'
loop_
 _atom_site_type_symbol
 _atom_site_label
 _atom_site_symmetry_multiplicity
 _atom_site_fract_x
 _atom_site_fract_y
 _atom_site_fract_z
 _atom_site_occupancy
  Be  Be0  1  0.992975  0.768222  0.550276  1
  Be  Be1  1  0.007025  0.231778  0.050276  1
  Be  Be2  1  0.007025  0.268222  0.550276  1
  Be  Be3  1  0.992975  0.731778  0.050276  1
  Be  Be4  1  0.473577  0.986298  0.294559  1
  Be  Be5  1  0.526423  0.013702  0.794559  1
  Be  Be6  1  0.526423  0.486298  0.294559  1
  Be  Be7  1  0.473577  0.513702  0.794559  1
  O  O8  1  0.119763  0.913844  0.587846  1
  O  O9  1  0.703417  0.511125  0.195895  1
  O  O10  1  0.296583  0.488875  0.695895  1
  O  O11  1  0.296583  0.011125  0.195895  1
  O  O12  1  0.703417  0.988875  0.695895  1
  O  O13  1  0.202008  0.513160  0.272003  1
  O  O14  1  0.797992  0.486840  0.772003  1
  O  O15  1  0.797992  0.013160  0.272003  1
  O  O16  1  0.202008  0.986840  0.772003  1
  O  O17  1  0.620483  0.592950  0.379070  1
  O  O18  1  0.379517  0.407050  0.879070  1
  O  O19  1  0.379517  0.092950  0.379070  1
  O  O20  1  0.620483  0.907050  0.879070  1
  O  O21  1  0.119763  0.586156  0.087846  1
  O  O22  1  0.880237  0.413844  0.587846  1
  O  O23  1  0.880237  0.086156  0.087846  1
  O  O24  1  0.226866  0.692679  0.485380  1
  O  O25  1  0.773134  0.307321  0.985380  1
  O  O26  1  0.773134  0.192679  0.485380  1
  O  O27  1  0.226866  0.807321  0.985380  1
  O  O28  1  0.724292  0.691821  0.984938  1
  O  O29  1  0.275708  0.308179  0.484938  1
  O  O30  1  0.275708  0.191821  0.984938  1
  O  O31  1  0.724292  0.808179  0.484938  1
  O  O32  1  0.914542  0.826145  0.142899  1
  O  O33  1  0.085458  0.173855  0.642899  1
  O  O34  1  0.085458  0.326145  0.142899  1
  O  O35  1  0.914542  0.673855  0.642899  1
  O  O36  1  0.402758  0.669132  0.830160  1
  O  O37  1  0.597242  0.169132  0.830160  1
  O  O38  1  0.597242  0.330868  0.330160  1
  O  O39  1  0.402758  0.830868  0.330160  1
  Na  Na40  1  0.971537  0.727835  0.300051  1
  Na  Na41  1  0.028463  0.272165  0.800051  1
  Na  Na42  1  0.028463  0.227835  0.300051  1
  Na  Na43  1  0.971537  0.772165  0.800051  1
  Na  Na44  1  0.468368  0.732512  0.168932  1
  Na  Na45  1  0.531632  0.267488  0.668932  1
  Na  Na46  1  0.531632  0.232512  0.168932  1
  Na  Na47  1  0.468368  0.767488  0.668932  1
  Na  Na48  1  0.477923  0.996990  0.042212  1
  Na  Na49  1  0.007877  0.010749  0.925512  1
  Na  Na50  1  0.992123  0.989251  0.425512  1
  Na  Na51  1  0.992123  0.510749  0.925512  1
  Na  Na52  1  0.522077  0.003010  0.542212  1
  Na  Na53  1  0.477923  0.503010  0.542212  1
  Na  Na54  1  0.522077  0.496990  0.042212  1
  Na  Na55  1  0.007877  0.489251  0.425512  1
  Si  Si56  1  0.974317  0.983209  0.174270  1
  Si  Si57  1  0.490912  0.766116  0.919998  1
  Si  Si58  1  0.509088  0.233884  0.419998  1
  Si  Si59  1  0.509088  0.266116  0.919998  1
  Si  Si60  1  0.490912  0.733884  0.419998  1
  Si  Si61  1  0.974317  0.516791  0.674270  1
  Si  Si62  1  0.025683  0.483209  0.174270  1
  Si  Si63  1  0.025683  0.016791  0.674270  1
