# generated using pymatgen
data_SrLaTiMnO6
_symmetry_space_group_name_H-M   'P 1'
_cell_length_a   5.59358143
_cell_length_b   22.27312371
_cell_length_c   9.63208220
_cell_angle_alpha   30.12799553
_cell_angle_beta   55.00791702
_cell_angle_gamma   60.26481775
_symmetry_Int_Tables_number   1
_chemical_formula_structural   SrLaTiMnO6
_chemical_formula_sum   'Sr4 La4 Ti4 Mn4 O24'
_cell_volume   493.45085432
_cell_formula_units_Z   4
loop_
 _symmetry_equiv_pos_site_id
 _symmetry_equiv_pos_as_xyz
  1  'x, y, z'
loop_
 _atom_site_type_symbol
 _atom_site_label
 _atom_site_symmetry_multiplicity
 _atom_site_fract_x
 _atom_site_fract_y
 _atom_site_fract_z
 _atom_site_occupancy
  Sr  Sr0  1  0.250000  0.999602  0.250796  1
  Sr  Sr1  1  0.250000  0.251941  0.246119  1
  Sr  Sr2  1  0.750000  0.998059  0.753881  1
  Sr  Sr3  1  0.750000  0.250398  0.749204  1
  La  La4  1  0.250000  0.499446  0.251109  1
  La  La5  1  0.250000  0.747755  0.254490  1
  La  La6  1  0.750000  0.502245  0.745510  1
  La  La7  1  0.750000  0.750554  0.748891  1
  Ti  Ti8  1  0.994357  0.000228  0.000863  1
  Ti  Ti9  1  0.005643  0.249772  0.999137  1
  Ti  Ti10  1  0.505643  0.000228  0.498226  1
  Ti  Ti11  1  0.494357  0.249772  0.501774  1
  Mn  Mn12  1  0.002804  0.499145  0.001005  1
  Mn  Mn13  1  0.997196  0.750855  -0.001005  1
  Mn  Mn14  1  0.497196  0.499145  0.502415  1
  Mn  Mn15  1  0.502804  0.750855  0.497585  1
  O  O16  1  0.211980  0.114925  0.291298  1
  O  O17  1  0.750000  0.019648  0.210703  1
  O  O18  1  0.211950  0.363005  0.298816  1
  O  O19  1  0.711980  0.135075  0.250998  1
  O  O20  1  0.288020  0.114925  0.749002  1
  O  O21  1  0.250000  0.230352  0.789297  1
  O  O22  1  0.750000  0.276722  0.196557  1
  O  O23  1  0.193059  0.611468  0.303384  1
  O  O24  1  0.686829  0.388569  0.247200  1
  O  O25  1  0.288050  0.363005  0.749166  1
  O  O26  1  0.788020  0.135075  0.708702  1
  O  O27  1  0.250000  0.481811  0.786378  1
  O  O28  1  0.750000  0.530250  0.189501  1
  O  O29  1  0.186829  0.861431  0.301476  1
  O  O30  1  0.693059  0.638532  0.249258  1
  O  O31  1  0.306941  0.611468  0.750742  1
  O  O32  1  0.813171  0.388569  0.698524  1
  O  O33  1  0.250000  0.719750  0.810499  1
  O  O34  1  0.750000  0.768189  0.213622  1
  O  O35  1  0.711950  0.886996  0.250834  1
  O  O36  1  0.313171  0.861431  0.752800  1
  O  O37  1  0.806941  0.638532  0.696616  1
  O  O38  1  0.250000  0.973278  0.803443  1
  O  O39  1  0.788050  0.886996  0.701184  1
