# generated using pymatgen
data_Ta2H4O7
_symmetry_space_group_name_H-M   'P 1'
_cell_length_a   7.35230706
_cell_length_b   7.35229986
_cell_length_c   7.35230656
_cell_angle_alpha   60.00002431
_cell_angle_beta   59.99994747
_cell_angle_gamma   60.00000582
_symmetry_Int_Tables_number   1
_chemical_formula_structural   Ta2H4O7
_chemical_formula_sum   'Ta4 H8 O14'
_cell_volume   281.03174697
_cell_formula_units_Z   2
loop_
 _symmetry_equiv_pos_site_id
 _symmetry_equiv_pos_as_xyz
  1  'x, y, z'
loop_
 _atom_site_type_symbol
 _atom_site_label
 _atom_site_symmetry_multiplicity
 _atom_site_fract_x
 _atom_site_fract_y
 _atom_site_fract_z
 _atom_site_occupancy
  Ta  Ta0  1  0.500000  1.000000  0.500000  1
  Ta  Ta1  1  0.500000  0.500001  0.000000  1
  Ta  Ta2  1  0.000000  0.500000  0.499999  1
  Ta  Ta3  1  0.500000  0.500000  0.500001  1
  H  H4  1  0.933375  0.699876  0.933375  1
  H  H5  1  0.699876  0.933375  0.933375  1
  H  H6  1  0.933375  0.933375  0.933374  1
  H  H7  1  0.933375  0.933375  0.699876  1
  H  H8  1  0.066626  0.066625  0.066625  1
  H  H9  1  0.066625  0.066626  0.300124  1
  H  H10  1  0.300125  0.066625  0.066625  1
  H  H11  1  0.066625  0.300124  0.066626  1
  O  O12  1  0.572205  0.177795  0.177795  1
  O  O13  1  0.177795  0.572205  0.572204  1
  O  O14  1  0.177795  0.177794  0.572205  1
  O  O15  1  0.572204  0.572205  0.177796  1
  O  O16  1  0.177796  0.572204  0.177795  1
  O  O17  1  0.572204  0.177795  0.572205  1
  O  O18  1  0.427794  0.822206  0.822205  1
  O  O19  1  0.822205  0.427794  0.427795  1
  O  O20  1  0.822205  0.822204  0.427796  1
  O  O21  1  0.427795  0.427796  0.822205  1
  O  O22  1  0.822204  0.427797  0.822203  1
  O  O23  1  0.427796  0.822204  0.427796  1
  O  O24  1  0.875000  0.875000  0.875001  1
  O  O25  1  0.124999  0.125000  0.125000  1
