# generated using pymatgen
data_Na3In(PO4)2
_symmetry_space_group_name_H-M   'P 1'
_cell_length_a   5.21618842
_cell_length_b   7.21065981
_cell_length_c   18.46323248
_cell_angle_alpha   90.00000000
_cell_angle_beta   90.00000000
_cell_angle_gamma   92.21421548
_symmetry_Int_Tables_number   1
_chemical_formula_structural   Na3In(PO4)2
_chemical_formula_sum   'Na12 In4 P8 O32'
_cell_volume   693.92356098
_cell_formula_units_Z   4
loop_
 _symmetry_equiv_pos_site_id
 _symmetry_equiv_pos_as_xyz
  1  'x, y, z'
loop_
 _atom_site_type_symbol
 _atom_site_label
 _atom_site_symmetry_multiplicity
 _atom_site_fract_x
 _atom_site_fract_y
 _atom_site_fract_z
 _atom_site_occupancy
  O  O0  1  0.367915  0.895085  0.562016  1
  O  O1  1  0.132085  0.604915  0.062016  1
  O  O2  1  0.632085  0.104915  0.437984  1
  O  O3  1  0.867915  0.395085  0.937984  1
  O  O4  1  0.361290  0.543506  0.567607  1
  O  O5  1  0.138710  0.956494  0.067607  1
  O  O6  1  0.638710  0.456494  0.432393  1
  O  O7  1  0.861290  0.043506  0.932393  1
  O  O8  1  0.224502  0.712711  0.451402  1
  O  O9  1  0.275498  0.787289  0.951402  1
  O  O10  1  0.775498  0.287289  0.548598  1
  O  O11  1  0.724502  0.212711  0.048598  1
  O  O12  1  0.942790  0.715001  0.563391  1
  O  O13  1  0.557210  0.784999  0.063391  1
  O  O14  1  0.057210  0.284999  0.436609  1
  O  O15  1  0.442790  0.215001  0.936609  1
  O  O16  1  0.458226  0.040899  0.197702  1
  O  O17  1  0.041774  0.459101  0.697702  1
  O  O18  1  0.541774  0.959101  0.802298  1
  O  O19  1  0.958226  0.540899  0.302298  1
  O  O20  1  0.012741  0.183161  0.194487  1
  O  O21  1  0.487259  0.316839  0.694487  1
  O  O22  1  0.987259  0.816839  0.805513  1
  O  O23  1  0.512741  0.683161  0.305513  1
  O  O24  1  0.829633  0.748052  0.201961  1
  O  O25  1  0.670367  0.751948  0.701961  1
  O  O26  1  0.170367  0.251948  0.798039  1
  O  O27  1  0.329633  0.248052  0.298039  1
  O  O28  1  0.907611  0.886315  0.328661  1
  O  O29  1  0.592389  0.613685  0.828661  1
  O  O30  1  0.092389  0.113685  0.671339  1
  O  O31  1  0.407611  0.386315  0.171339  1
  Na  Na32  1  0.798830  0.195499  0.306002  1
  Na  Na33  1  0.786634  0.485992  0.124599  1
  Na  Na34  1  0.713366  0.014008  0.624599  1
  Na  Na35  1  0.213366  0.514008  0.875401  1
  Na  Na36  1  0.286634  0.985992  0.375401  1
  Na  Na37  1  0.298830  0.695499  0.193998  1
  Na  Na38  1  0.201170  0.804501  0.693998  1
  Na  Na39  1  0.701170  0.304501  0.806002  1
  Na  Na40  1  0.741789  0.791137  0.450091  1
  Na  Na41  1  0.241789  0.291137  0.049909  1
  Na  Na42  1  0.258211  0.208863  0.549909  1
  Na  Na43  1  0.758211  0.708863  0.950091  1
  P  P44  1  0.769747  0.283483  0.463302  1
  P  P45  1  0.804132  0.718279  0.286369  1
  P  P46  1  0.695868  0.781721  0.786369  1
  P  P47  1  0.195868  0.281721  0.713631  1
  P  P48  1  0.304132  0.218279  0.213631  1
  P  P49  1  0.730253  0.216517  0.963302  1
  P  P50  1  0.269747  0.783483  0.036698  1
  P  P51  1  0.230253  0.716517  0.536698  1
  In  In52  1  0.283324  0.487611  0.372149  1
  In  In53  1  0.216676  0.012389  0.872149  1
  In  In54  1  0.716676  0.512389  0.627851  1
  In  In55  1  0.783324  0.987611  0.127851  1
