# generated using pymatgen
data_SrIn
_symmetry_space_group_name_H-M   'P 1'
_cell_length_a   6.62115182
_cell_length_b   6.61939229
_cell_length_c   13.72551985
_cell_angle_alpha   101.09503422
_cell_angle_beta   101.10443436
_cell_angle_gamma   100.74422597
_symmetry_Int_Tables_number   1
_chemical_formula_structural   SrIn
_chemical_formula_sum   'Sr8 In8'
_cell_volume   563.44917364
_cell_formula_units_Z   8
loop_
 _symmetry_equiv_pos_site_id
 _symmetry_equiv_pos_as_xyz
  1  'x, y, z'
loop_
 _atom_site_type_symbol
 _atom_site_label
 _atom_site_symmetry_multiplicity
 _atom_site_fract_x
 _atom_site_fract_y
 _atom_site_fract_z
 _atom_site_occupancy
  Sr  Sr0  1  0.717510  0.422825  0.643375  1
  Sr  Sr1  1  0.210581  0.913299  0.155038  1
  Sr  Sr2  1  0.780515  0.078087  0.360054  1
  Sr  Sr3  1  0.307824  0.512067  0.345893  1
  Sr  Sr4  1  0.330109  0.529801  0.857201  1
  Sr  Sr5  1  0.760966  0.059162  0.846806  1
  Sr  Sr6  1  0.160527  0.958201  0.655461  1
  Sr  Sr7  1  0.671209  0.469060  0.142065  1
  In  In8  1  0.871919  0.628663  0.426462  1
  In  In9  1  0.285203  0.036347  0.929643  1
  In  In10  1  0.109316  0.356706  0.071725  1
  In  In11  1  0.200471  0.444058  0.574662  1
  In  In12  1  0.693398  0.951997  0.073875  1
  In  In13  1  0.881797  0.621962  0.925711  1
  In  In14  1  0.603896  0.859080  0.571666  1
  In  In15  1  0.288870  0.040313  0.430615  1
