# generated using pymatgen
data_Ag4SI
_symmetry_space_group_name_H-M   'P 1'
_cell_length_a   4.96075981
_cell_length_b   4.96075950
_cell_length_c   8.85696831
_cell_angle_alpha   112.68568824
_cell_angle_beta   112.34616498
_cell_angle_gamma   108.43927648
_symmetry_Int_Tables_number   1
_chemical_formula_structural   Ag4SI
_chemical_formula_sum   'Ag4 S1 I1'
_cell_volume   156.24951618
_cell_formula_units_Z   1
loop_
 _symmetry_equiv_pos_site_id
 _symmetry_equiv_pos_as_xyz
  1  'x, y, z'
loop_
 _atom_site_type_symbol
 _atom_site_label
 _atom_site_symmetry_multiplicity
 _atom_site_fract_x
 _atom_site_fract_y
 _atom_site_fract_z
 _atom_site_occupancy
  Ag  Ag0  1  0.228137  0.507172  0.367654  1
  Ag  Ag1  1  0.000000  0.500000  0.000000  1
  Ag  Ag2  1  0.771863  0.492828  0.632346  1
  Ag  Ag3  1  0.500000  0.000000  0.000000  1
  S  S4  1  0.000000  0.000000  0.000000  1
  I  I5  1  0.000000  0.000000  0.500000  1
