# generated using pymatgen
data_AlH20Ru(Cl3O5)2
_symmetry_space_group_name_H-M   'P 1'
_cell_length_a   7.10269087
_cell_length_b   10.47691221
_cell_length_c   11.56478149
_cell_angle_alpha   90.00000000
_cell_angle_beta   90.00000000
_cell_angle_gamma   92.32988470
_symmetry_Int_Tables_number   1
_chemical_formula_structural   AlH20Ru(Cl3O5)2
_chemical_formula_sum   'Al2 H40 Ru2 Cl12 O20'
_cell_volume   859.87333501
_cell_formula_units_Z   2
loop_
 _symmetry_equiv_pos_site_id
 _symmetry_equiv_pos_as_xyz
  1  'x, y, z'
loop_
 _atom_site_type_symbol
 _atom_site_label
 _atom_site_symmetry_multiplicity
 _atom_site_fract_x
 _atom_site_fract_y
 _atom_site_fract_z
 _atom_site_occupancy
  Al  Al0  1  0.500000  0.500000  0.500000  1
  Al  Al1  1  0.000000  0.000000  0.000000  1
  H  H2  1  0.943430  0.187247  0.136218  1
  H  H3  1  0.153073  0.114504  0.671413  1
  H  H4  1  0.490717  0.792090  0.842784  1
  H  H5  1  0.072040  0.897791  0.198347  1
  H  H6  1  0.509283  0.207910  0.157216  1
  H  H7  1  0.829171  0.603080  0.450026  1
  H  H8  1  0.163840  0.814178  0.094689  1
  H  H9  1  0.009283  0.707910  0.342784  1
  H  H10  1  0.329171  0.103080  0.049974  1
  H  H11  1  0.041215  0.920299  0.388365  1
  H  H12  1  0.170829  0.396920  0.549974  1
  H  H13  1  0.336160  0.685822  0.594689  1
  H  H14  1  0.218249  0.198646  0.962589  1
  H  H15  1  0.020005  0.429297  0.714208  1
  H  H16  1  0.958785  0.079701  0.611635  1
  H  H17  1  0.750184  0.097699  0.129267  1
  H  H18  1  0.718249  0.698646  0.537411  1
  H  H19  1  0.427960  0.602209  0.698347  1
  H  H20  1  0.781751  0.801354  0.037411  1
  H  H21  1  0.979995  0.570703  0.285792  1
  H  H22  1  0.056570  0.812753  0.863782  1
  H  H23  1  0.443430  0.687247  0.363782  1
  H  H24  1  0.990717  0.292090  0.657216  1
  H  H25  1  0.346927  0.385496  0.171413  1
  H  H26  1  0.653073  0.614504  0.828587  1
  H  H27  1  0.520005  0.929297  0.785792  1
  H  H28  1  0.670829  0.896920  0.950026  1
  H  H29  1  0.479995  0.070703  0.214208  1
  H  H30  1  0.749816  0.402301  0.629267  1
  H  H31  1  0.836160  0.185822  0.905311  1
  H  H32  1  0.250184  0.597699  0.370733  1
  H  H33  1  0.281751  0.301354  0.462589  1
  H  H34  1  0.846927  0.885496  0.328587  1
  H  H35  1  0.458785  0.579701  0.888365  1
  H  H36  1  0.249816  0.902301  0.870733  1
  H  H37  1  0.541215  0.420299  0.111635  1
  H  H38  1  0.927960  0.102209  0.801653  1
  H  H39  1  0.556570  0.312753  0.636218  1
  H  H40  1  0.572040  0.397791  0.301653  1
  H  H41  1  0.663840  0.314178  0.405311  1
  Ru  Ru42  1  0.000000  0.500000  0.000000  1
  Ru  Ru43  1  0.500000  0.000000  0.500000  1
  Cl  Cl44  1  0.754954  0.134800  0.434384  1
  Cl  Cl45  1  0.964445  0.626380  0.829304  1
  Cl  Cl46  1  0.745046  0.365200  0.934384  1
  Cl  Cl47  1  0.282284  0.122556  0.396257  1
  Cl  Cl48  1  0.217716  0.377444  0.896257  1
  Cl  Cl49  1  0.035555  0.373620  0.170696  1
  Cl  Cl50  1  0.245046  0.865200  0.565616  1
  Cl  Cl51  1  0.254954  0.634800  0.065616  1
  Cl  Cl52  1  0.535555  0.873620  0.329304  1
  Cl  Cl53  1  0.717716  0.877444  0.603743  1
  Cl  Cl54  1  0.782284  0.622556  0.103743  1
  Cl  Cl55  1  0.464445  0.126380  0.670696  1
  O  O56  1  0.482962  0.368015  0.173664  1
  O  O57  1  0.391156  0.599839  0.382140  1
  O  O58  1  0.883222  0.099420  0.885012  1
  O  O59  1  0.015165  0.613771  0.359190  1
  O  O60  1  0.017038  0.131985  0.673664  1
  O  O61  1  0.982962  0.868015  0.326336  1
  O  O62  1  0.280958  0.389937  0.495846  1
  O  O63  1  0.108844  0.900161  0.882140  1
  O  O64  1  0.484835  0.886229  0.859190  1
  O  O65  1  0.383222  0.599420  0.614988  1
  O  O66  1  0.719042  0.610063  0.504154  1
  O  O67  1  0.780958  0.889937  0.004154  1
  O  O68  1  0.616778  0.400580  0.385012  1
  O  O69  1  0.116778  0.900580  0.114988  1
  O  O70  1  0.219042  0.110063  0.995846  1
  O  O71  1  0.515165  0.113771  0.140810  1
  O  O72  1  0.891156  0.099839  0.117860  1
  O  O73  1  0.608844  0.400161  0.617860  1
  O  O74  1  0.517038  0.631985  0.826336  1
  O  O75  1  0.984835  0.386229  0.640810  1
