# generated using pymatgen
data_Gd3(CuGe)4
_symmetry_space_group_name_H-M   'P 1'
_cell_length_a   4.26344489
_cell_length_b   6.69460838
_cell_length_c   8.09473018
_cell_angle_alpha   114.42592733
_cell_angle_beta   105.26874980
_cell_angle_gamma   90.00000013
_symmetry_Int_Tables_number   1
_chemical_formula_structural   Gd3(CuGe)4
_chemical_formula_sum   'Gd3 Cu4 Ge4'
_cell_volume   201.37042965
_cell_formula_units_Z   1
loop_
 _symmetry_equiv_pos_site_id
 _symmetry_equiv_pos_as_xyz
  1  'x, y, z'
loop_
 _atom_site_type_symbol
 _atom_site_label
 _atom_site_symmetry_multiplicity
 _atom_site_fract_x
 _atom_site_fract_y
 _atom_site_fract_z
 _atom_site_occupancy
  Gd  Gd0  1  0.130922  0.130922  0.261845  1
  Gd  Gd1  1  0.000000  0.500000  0.000000  1
  Gd  Gd2  1  0.869078  0.869078  0.738155  1
  Cu  Cu3  1  0.331176  0.142410  0.662351  1
  Cu  Cu4  1  0.668824  0.857590  0.337649  1
  Cu  Cu5  1  0.668824  0.480059  0.337649  1
  Cu  Cu6  1  0.331176  0.519941  0.662351  1
  Ge  Ge7  1  0.500000  0.809437  0.000000  1
  Ge  Ge8  1  0.783602  0.283602  0.567204  1
  Ge  Ge9  1  0.216398  0.716398  0.432796  1
  Ge  Ge10  1  0.500000  0.190563  0.000000  1
