# generated using pymatgen
data_LiAsH2OF6
_symmetry_space_group_name_H-M   'P 1'
_cell_length_a   7.28782899
_cell_length_b   7.28782899
_cell_length_c   7.28782899
_cell_angle_alpha   117.29480719
_cell_angle_beta   85.15065813
_cell_angle_gamma   128.75319457
_symmetry_Int_Tables_number   1
_chemical_formula_structural   LiAsH2OF6
_chemical_formula_sum   'Li2 As2 H4 O2 F12'
_cell_volume   256.54174085
_cell_formula_units_Z   2
loop_
 _symmetry_equiv_pos_site_id
 _symmetry_equiv_pos_as_xyz
  1  'x, y, z'
loop_
 _atom_site_type_symbol
 _atom_site_label
 _atom_site_symmetry_multiplicity
 _atom_site_fract_x
 _atom_site_fract_y
 _atom_site_fract_z
 _atom_site_occupancy
  Li  Li0  1  0.000000  0.000000  0.500000  1
  Li  Li1  1  0.000000  0.500000  0.000000  1
  As  As2  1  0.500000  0.000000  0.500000  1
  As  As3  1  0.000000  0.000000  0.000000  1
  H  H4  1  0.190952  0.513436  0.677516  1
  H  H5  1  0.809048  0.486564  0.322484  1
  H  H6  1  0.664080  0.486564  0.177516  1
  H  H7  1  0.335920  0.513436  0.822484  1
  O  O8  1  0.168523  0.418523  0.750000  1
  O  O9  1  0.831477  0.581477  0.250000  1
  F  F10  1  0.258115  0.725172  0.532943  1
  F  F11  1  0.741885  0.274828  0.467057  1
  F  F12  1  0.307770  0.274828  0.032943  1
  F  F13  1  0.692230  0.725172  0.967057  1
  F  F14  1  0.076816  0.796177  0.949703  1
  F  F15  1  0.923184  0.872887  0.719361  1
  F  F16  1  0.653526  0.872887  0.449703  1
  F  F17  1  0.346474  0.796177  0.219361  1
  F  F18  1  0.923184  0.203823  0.050297  1
  F  F19  1  0.076816  0.127113  0.280639  1
  F  F20  1  0.346474  0.127113  0.550297  1
  F  F21  1  0.653526  0.203823  0.780639  1
