# generated using pymatgen
data_Sr(HO)2
_symmetry_space_group_name_H-M   'P 1'
_cell_length_a   10.07212428
_cell_length_b   6.07787963
_cell_length_c   3.99687089
_cell_angle_alpha   90.00000000
_cell_angle_beta   90.00000000
_cell_angle_gamma   90.00000000
_symmetry_Int_Tables_number   1
_chemical_formula_structural   Sr(HO)2
_chemical_formula_sum   'Sr4 H8 O8'
_cell_volume   244.67708074
_cell_formula_units_Z   4
loop_
 _symmetry_equiv_pos_site_id
 _symmetry_equiv_pos_as_xyz
  1  'x, y, z'
loop_
 _atom_site_type_symbol
 _atom_site_label
 _atom_site_symmetry_multiplicity
 _atom_site_fract_x
 _atom_site_fract_y
 _atom_site_fract_z
 _atom_site_occupancy
  Sr  Sr0  1  0.658782  0.403482  0.250000  1
  Sr  Sr1  1  0.158782  0.096518  0.250000  1
  Sr  Sr2  1  0.339528  0.589830  0.750000  1
  Sr  Sr3  1  0.839528  0.910170  0.750000  1
  H  H4  1  0.908960  0.323939  0.250000  1
  H  H5  1  0.408960  0.176061  0.250000  1
  H  H6  1  0.091905  0.685563  0.750000  1
  H  H7  1  0.591905  0.814437  0.750000  1
  H  H8  1  0.961306  0.661134  0.250000  1
  H  H9  1  0.461306  0.838866  0.250000  1
  H  H10  1  0.033404  0.376124  0.750000  1
  H  H11  1  0.533404  0.123876  0.750000  1
  O  O12  1  0.895422  0.163764  0.250000  1
  O  O13  1  0.395422  0.336236  0.250000  1
  O  O14  1  0.099293  0.847073  0.750000  1
  O  O15  1  0.599293  0.652927  0.750000  1
  O  O16  1  0.864640  0.644871  0.250000  1
  O  O17  1  0.364640  0.855129  0.250000  1
  O  O18  1  0.130572  0.366653  0.750000  1
  O  O19  1  0.630572  0.133347  0.750000  1
