# generated using pymatgen
data_P3H18OsC6(SO)6
_symmetry_space_group_name_H-M   'P 1'
_cell_length_a   9.16140806
_cell_length_b   9.16140806
_cell_length_c   13.17390057
_cell_angle_alpha   84.28599218
_cell_angle_beta   95.71400782
_cell_angle_gamma   103.17026074
_symmetry_Int_Tables_number   1
_chemical_formula_structural   P3H18OsC6(SO)6
_chemical_formula_sum   'P6 H36 Os2 C12 S12 O12'
_cell_volume   1067.89360298
_cell_formula_units_Z   2
loop_
 _symmetry_equiv_pos_site_id
 _symmetry_equiv_pos_as_xyz
  1  'x, y, z'
loop_
 _atom_site_type_symbol
 _atom_site_label
 _atom_site_symmetry_multiplicity
 _atom_site_fract_x
 _atom_site_fract_y
 _atom_site_fract_z
 _atom_site_occupancy
  P  P0  1  0.351306  0.709834  0.649234  1
  P  P1  1  0.709834  0.351306  0.850766  1
  P  P2  1  0.648694  0.290166  0.350766  1
  P  P3  1  0.290166  0.648694  0.149234  1
  P  P4  1  0.933917  0.933917  0.750000  1
  P  P5  1  0.066083  0.066083  0.250000  1
  H  H6  1  0.303756  0.080452  0.658787  1
  H  H7  1  0.080452  0.303756  0.841213  1
  H  H8  1  0.696244  0.919548  0.341213  1
  H  H9  1  0.919548  0.696244  0.158787  1
  H  H10  1  0.403002  0.981698  0.756805  1
  H  H11  1  0.981698  0.403002  0.743195  1
  H  H12  1  0.596998  0.018302  0.243195  1
  H  H13  1  0.018302  0.596998  0.256805  1
  H  H14  1  0.475646  0.033094  0.632889  1
  H  H15  1  0.033094  0.475646  0.867111  1
  H  H16  1  0.524354  0.966906  0.367111  1
  H  H17  1  0.966906  0.524354  0.132889  1
  H  H18  1  0.110195  0.408583  0.526819  1
  H  H19  1  0.408583  0.110195  0.973181  1
  H  H20  1  0.889805  0.591417  0.473181  1
  H  H21  1  0.591417  0.889805  0.026819  1
  H  H22  1  0.310329  0.459192  0.521655  1
  H  H23  1  0.459192  0.310329  0.978345  1
  H  H24  1  0.689671  0.540808  0.478345  1
  H  H25  1  0.540808  0.689671  0.021655  1
  H  H26  1  0.230799  0.389402  0.641651  1
  H  H27  1  0.389402  0.230799  0.858349  1
  H  H28  1  0.769201  0.610598  0.358349  1
  H  H29  1  0.610598  0.769201  0.141651  1
  H  H30  1  0.928272  0.202744  0.539015  1
  H  H31  1  0.202744  0.928272  0.960985  1
  H  H32  1  0.071728  0.797256  0.460985  1
  H  H33  1  0.797256  0.071728  0.039015  1
  H  H34  1  0.855971  0.004460  0.535075  1
  H  H35  1  0.004460  0.855971  0.964925  1
  H  H36  1  0.144029  0.995540  0.464925  1
  H  H37  1  0.995540  0.144029  0.035075  1
  H  H38  1  0.768818  0.112610  0.608403  1
  H  H39  1  0.112610  0.768818  0.891597  1
  H  H40  1  0.231182  0.887390  0.391597  1
  H  H41  1  0.887390  0.231182  0.108403  1
  Os  Os42  1  0.663355  0.663355  0.750000  1
  Os  Os43  1  0.336645  0.336645  0.250000  1
  C  C44  1  0.373438  0.997124  0.674262  1
  C  C45  1  0.997124  0.373438  0.825738  1
  C  C46  1  0.626562  0.002876  0.325738  1
  C  C47  1  0.002876  0.626562  0.174262  1
  C  C48  1  0.217045  0.456223  0.568712  1
  C  C49  1  0.456223  0.217045  0.931288  1
  C  C50  1  0.782955  0.543777  0.431288  1
  C  C51  1  0.543777  0.782955  0.068712  1
  C  C52  1  0.875386  0.100036  0.582618  1
  C  C53  1  0.100036  0.875386  0.917382  1
  C  C54  1  0.124614  0.899964  0.417382  1
  C  C55  1  0.899964  0.124614  0.082618  1
  S  S56  1  0.398802  0.629997  0.793117  1
  S  S57  1  0.629997  0.398802  0.706883  1
  S  S58  1  0.601198  0.370003  0.206883  1
  S  S59  1  0.370003  0.601198  0.293117  1
  S  S60  1  0.548417  0.732353  0.585259  1
  S  S61  1  0.732353  0.548417  0.914741  1
  S  S62  1  0.451583  0.267647  0.414741  1
  S  S63  1  0.267647  0.451583  0.085259  1
  S  S64  1  0.731859  0.908119  0.809002  1
  S  S65  1  0.908119  0.731859  0.690998  1
  S  S66  1  0.268141  0.091881  0.190998  1
  S  S67  1  0.091881  0.268141  0.309002  1
  O  O68  1  0.283155  0.858141  0.637123  1
  O  O69  1  0.858141  0.283155  0.862877  1
  O  O70  1  0.716845  0.141859  0.362877  1
  O  O71  1  0.141859  0.716845  0.137123  1
  O  O72  1  0.210643  0.608074  0.587451  1
  O  O73  1  0.608074  0.210643  0.912549  1
  O  O74  1  0.789357  0.391926  0.412549  1
  O  O75  1  0.391926  0.789357  0.087451  1
  O  O76  1  0.979486  0.078642  0.670751  1
  O  O77  1  0.078642  0.979486  0.829249  1
  O  O78  1  0.020514  0.921358  0.329249  1
  O  O79  1  0.921358  0.020514  0.170751  1
