# generated using pymatgen
data_Na5Ti7Al(PO4)12
_symmetry_space_group_name_H-M   'P 1'
_cell_length_a   8.85330234
_cell_length_b   8.86220368
_cell_length_c   17.71498846
_cell_angle_alpha   58.18938197
_cell_angle_beta   58.03569990
_cell_angle_gamma   58.15201853
_symmetry_Int_Tables_number   1
_chemical_formula_structural   Na5Ti7Al(PO4)12
_chemical_formula_sum   'Na5 Ti7 Al1 P12 O48'
_cell_volume   940.58685440
_cell_formula_units_Z   1
loop_
 _symmetry_equiv_pos_site_id
 _symmetry_equiv_pos_as_xyz
  1  'x, y, z'
loop_
 _atom_site_type_symbol
 _atom_site_label
 _atom_site_symmetry_multiplicity
 _atom_site_fract_x
 _atom_site_fract_y
 _atom_site_fract_z
 _atom_site_occupancy
  Na  Na0  1  0.004173  0.995330  0.999674  1
  Na  Na1  1  0.500669  0.499809  0.249854  1
  Na  Na2  1  0.000188  0.999633  0.500217  1
  Na  Na3  1  0.498458  0.504116  0.747619  1
  Na  Na4  1  0.602127  0.248989  0.948808  1
  Ti  Ti5  1  0.142865  0.145098  0.072306  1
  Ti  Ti6  1  0.355807  0.356349  0.176896  1
  Ti  Ti7  1  0.144224  0.144065  0.573099  1
  Ti  Ti8  1  0.352950  0.355695  0.678600  1
  Ti  Ti9  1  0.644908  0.643620  0.323457  1
  Ti  Ti10  1  0.855233  0.854982  0.427601  1
  Ti  Ti11  1  0.647283  0.653854  0.819895  1
  Al  Al12  1  0.857949  0.847792  0.926992  1
  P  P13  1  0.036926  0.749933  0.231537  1
  P  P14  1  0.462761  0.037238  0.374953  1
  P  P15  1  0.751068  0.468458  0.017562  1
  P  P16  1  0.249650  0.536602  0.481735  1
  P  P17  1  0.540397  0.956383  0.125325  1
  P  P18  1  0.037732  0.752011  0.733639  1
  P  P19  1  0.962950  0.249834  0.268639  1
  P  P20  1  0.467638  0.037591  0.875759  1
  P  P21  1  0.750258  0.462360  0.518878  1
  P  P22  1  0.239517  0.546590  0.980927  1
  P  P23  1  0.536655  0.963951  0.624796  1
  P  P24  1  0.962063  0.244719  0.770583  1
  O  O25  1  0.134702  0.282480  0.252088  1
  O  O26  1  0.280737  0.506496  0.066044  1
  O  O27  1  0.061529  0.923125  0.140382  1
  O  O28  1  0.507628  0.133510  0.138309  1
  O  O29  1  0.219278  0.576467  0.219219  1
  O  O30  1  0.004996  0.782283  0.317030  1
  O  O31  1  0.280451  0.061477  0.461825  1
  O  O32  1  0.438711  0.218725  0.287912  1
  O  O33  1  0.576857  0.438204  0.109189  1
  O  O34  1  0.217566  0.365651  0.497601  1
  O  O35  1  0.076490  0.719003  0.469232  1
  O  O36  1  0.366493  0.995168  0.108571  1
  O  O37  1  0.634294  0.004776  0.391037  1
  O  O38  1  0.132619  0.280624  0.753102  1
  O  O39  1  0.923256  0.282462  0.030861  1
  O  O40  1  0.782203  0.637220  0.001282  1
  O  O41  1  0.423601  0.561468  0.390454  1
  O  O42  1  0.282474  0.504433  0.567181  1
  O  O43  1  0.561812  0.778049  0.212537  1
  O  O44  1  0.061291  0.923209  0.640942  1
  O  O45  1  0.720016  0.937811  0.036211  1
  O  O46  1  0.504714  0.133993  0.641385  1
  O  O47  1  0.217945  0.577075  0.719393  1
  O  O48  1  0.003336  0.783046  0.818572  1
  O  O49  1  0.995293  0.217650  0.182859  1
  O  O50  1  0.781029  0.423286  0.280908  1
  O  O51  1  0.495584  0.865866  0.358678  1
  O  O52  1  0.281604  0.061471  0.961827  1
  O  O53  1  0.938494  0.076469  0.359560  1
  O  O54  1  0.439173  0.217948  0.788679  1
  O  O55  1  0.717851  0.495142  0.433110  1
  O  O56  1  0.576054  0.438656  0.609818  1
  O  O57  1  0.221251  0.365543  0.997105  1
  O  O58  1  0.068568  0.724508  0.968572  1
  O  O59  1  0.865805  0.717534  0.247603  1
  O  O60  1  0.365941  0.994818  0.608903  1
  O  O61  1  0.635699  0.007860  0.892426  1
  O  O62  1  0.923790  0.280711  0.530547  1
  O  O63  1  0.782399  0.634073  0.502271  1
  O  O64  1  0.421527  0.561432  0.891079  1
  O  O65  1  0.561406  0.780675  0.711675  1
  O  O66  1  0.719439  0.938161  0.538284  1
  O  O67  1  0.995547  0.217086  0.683253  1
  O  O68  1  0.777505  0.419243  0.783900  1
  O  O69  1  0.497076  0.866456  0.859051  1
  O  O70  1  0.930493  0.075002  0.862518  1
  O  O71  1  0.716379  0.490858  0.933832  1
  O  O72  1  0.866646  0.717797  0.747837  1
