# generated using pymatgen
data_YPb2
_symmetry_space_group_name_H-M   'P 1'
_cell_length_a   4.56512667
_cell_length_b   4.63721796
_cell_length_c   8.74966542
_cell_angle_alpha   105.36659718
_cell_angle_beta   90.00000000
_cell_angle_gamma   90.00000000
_symmetry_Int_Tables_number   1
_chemical_formula_structural   YPb2
_chemical_formula_sum   'Y2 Pb4'
_cell_volume   178.60411525
_cell_formula_units_Z   2
loop_
 _symmetry_equiv_pos_site_id
 _symmetry_equiv_pos_as_xyz
  1  'x, y, z'
loop_
 _atom_site_type_symbol
 _atom_site_label
 _atom_site_symmetry_multiplicity
 _atom_site_fract_x
 _atom_site_fract_y
 _atom_site_fract_z
 _atom_site_occupancy
  Y  Y0  1  0.250000  0.903293  0.806587  1
  Y  Y1  1  0.750000  0.096707  0.193413  1
  Pb  Pb2  1  0.750000  0.430611  0.861221  1
  Pb  Pb3  1  0.250000  0.569389  0.138779  1
  Pb  Pb4  1  0.750000  0.749488  0.498976  1
  Pb  Pb5  1  0.250000  0.250512  0.501023  1
