# generated using pymatgen
data_LiH3(SeO3)2
_symmetry_space_group_name_H-M   'P 1'
_cell_length_a   6.31062657
_cell_length_b   8.01307628
_cell_length_c   5.56004831
_cell_angle_alpha   90.00000000
_cell_angle_beta   105.55696528
_cell_angle_gamma   90.00000000
_symmetry_Int_Tables_number   1
_chemical_formula_structural   LiH3(SeO3)2
_chemical_formula_sum   'Li2 H6 Se4 O12'
_cell_volume   270.85749820
_cell_formula_units_Z   2
loop_
 _symmetry_equiv_pos_site_id
 _symmetry_equiv_pos_as_xyz
  1  'x, y, z'
loop_
 _atom_site_type_symbol
 _atom_site_label
 _atom_site_symmetry_multiplicity
 _atom_site_fract_x
 _atom_site_fract_y
 _atom_site_fract_z
 _atom_site_occupancy
  Li  Li0  1  0.996949  0.752811  0.522071  1
  Li  Li1  1  0.496949  0.247189  0.022071  1
  H  H2  1  0.674721  0.855055  0.100239  1
  H  H3  1  0.174721  0.144945  0.600239  1
  H  H4  1  0.383621  0.617006  0.926363  1
  H  H5  1  0.883621  0.382994  0.426363  1
  H  H6  1  0.447513  0.769735  0.472925  1
  H  H7  1  0.947513  0.230265  0.972925  1
  Se  Se8  1  0.766057  0.606909  0.911546  1
  Se  Se9  1  0.266057  0.393091  0.411546  1
  Se  Se10  1  0.233033  0.896693  0.086015  1
  Se  Se11  1  0.733033  0.103307  0.586015  1
  O  O12  1  0.808560  0.774657  0.135224  1
  O  O13  1  0.308560  0.225343  0.635224  1
  O  O14  1  0.201347  0.722994  0.897468  1
  O  O15  1  0.701347  0.277006  0.397468  1
  O  O16  1  0.698052  0.708660  0.636913  1
  O  O17  1  0.198052  0.291340  0.136913  1
  O  O18  1  0.287757  0.796236  0.391958  1
  O  O19  1  0.787757  0.203764  0.891958  1
  O  O20  1  0.513499  0.525505  0.944273  1
  O  O21  1  0.013499  0.474495  0.444273  1
  O  O22  1  0.483080  0.976005  0.083435  1
  O  O23  1  0.983080  0.023995  0.583435  1
