# generated using pymatgen
data_SrTeO3
_symmetry_space_group_name_H-M   'P 1'
_cell_length_a   5.99654594
_cell_length_b   14.58929409
_cell_length_c   26.71530825
_cell_angle_alpha   83.54535156
_cell_angle_beta   83.55722438
_cell_angle_gamma   78.15374116
_symmetry_Int_Tables_number   1
_chemical_formula_structural   SrTeO3
_chemical_formula_sum   'Sr24 Te24 O72'
_cell_volume   2263.35443390
_cell_formula_units_Z   24
loop_
 _symmetry_equiv_pos_site_id
 _symmetry_equiv_pos_as_xyz
  1  'x, y, z'
loop_
 _atom_site_type_symbol
 _atom_site_label
 _atom_site_symmetry_multiplicity
 _atom_site_fract_x
 _atom_site_fract_y
 _atom_site_fract_z
 _atom_site_occupancy
  Sr  Sr0  1  0.723640  0.562288  0.554674  1
  Sr  Sr1  1  0.844063  0.937327  0.945155  1
  Sr  Sr2  1  0.048532  0.328186  0.076201  1
  Sr  Sr3  1  0.869577  0.346744  0.361911  1
  Sr  Sr4  1  0.086197  0.539837  0.790038  1
  Sr  Sr5  1  0.579905  0.155018  0.137463  1
  Sr  Sr6  1  0.426388  0.846562  0.861167  1
  Sr  Sr7  1  0.668889  0.444616  0.697513  1
  Sr  Sr8  1  0.414938  0.961949  0.710043  1
  Sr  Sr9  1  0.951484  0.673162  0.922743  1
  Sr  Sr10  1  0.128395  0.652070  0.637565  1
  Sr  Sr11  1  0.786760  0.751883  0.250104  1
  Sr  Sr12  1  0.501531  0.499803  0.999658  1
  Sr  Sr13  1  0.334525  0.556186  0.301797  1
  Sr  Sr14  1  0.450539  0.171477  0.422968  1
  Sr  Sr15  1  0.193689  0.943910  0.197562  1
  Sr  Sr16  1  0.545911  0.826472  0.576826  1
  Sr  Sr17  1  0.274782  0.435905  0.444269  1
  Sr  Sr18  1  0.000683  0.998894  0.499039  1
  Sr  Sr19  1  0.914458  0.462516  0.210176  1
  Sr  Sr20  1  0.210876  0.250440  0.750650  1
  Sr  Sr21  1  0.586623  0.038231  0.289118  1
  Sr  Sr22  1  0.803724  0.056443  0.803164  1
  Sr  Sr23  1  0.158259  0.064510  0.054618  1
  Te  Te24  1  0.256461  0.403502  0.615386  1
  Te  Te25  1  0.568853  0.685810  0.707647  1
  Te  Te26  1  0.860721  0.295649  0.500040  1
  Te  Te27  1  0.275185  0.094645  0.885525  1
  Te  Te28  1  0.657737  0.206034  0.999440  1
  Te  Te29  1  0.144575  0.841123  0.327294  1
  Te  Te30  1  0.138333  0.703439  0.499565  1
  Te  Te31  1  0.599561  0.883693  0.425852  1
  Te  Te32  1  0.966091  0.813907  0.791998  1
  Te  Te33  1  0.406496  0.114076  0.573451  1
  Te  Te34  1  0.723209  0.906415  0.115360  1
  Te  Te35  1  0.465596  0.413959  0.139744  1
  Te  Te36  1  0.035572  0.185695  0.207444  1
  Te  Te37  1  0.343997  0.796460  0.999869  1
  Te  Te38  1  0.909108  0.614963  0.072679  1
  Te  Te39  1  0.745381  0.594056  0.384114  1
  Te  Te40  1  0.016077  0.086559  0.359918  1
  Te  Te41  1  0.430637  0.314860  0.292080  1
  Te  Te42  1  0.536132  0.586284  0.860472  1
  Te  Te43  1  0.091111  0.384762  0.925979  1
  Te  Te44  1  0.684007  0.340632  0.827283  1
  Te  Te45  1  0.311848  0.661169  0.172352  1
  Te  Te46  1  0.982852  0.912203  0.639129  1
  Te  Te47  1  0.853468  0.158305  0.673638  1
  O  O48  1  0.180835  0.895179  0.785935  1
  O  O49  1  0.916357  0.700777  0.556121  1
  O  O50  1  0.254138  0.663770  0.843220  1
  O  O51  1  0.284219  0.898181  0.443324  1
  O  O52  1  0.563565  0.672656  0.637920  1
  O  O53  1  0.268405  0.337163  0.174224  1
  O  O54  1  0.858807  0.604504  0.714228  1
  O  O55  1  0.396718  0.697060  0.535275  1
  O  O56  1  0.611327  -0.000123  0.386530  1
  O  O57  1  0.772838  0.077852  0.990564  1
  O  O58  1  0.082343  0.296130  0.443428  1
  O  O59  1  0.767904  0.831672  0.655335  1
  O  O60  1  0.537674  0.998030  0.889451  1
  O  O61  1  0.319731  0.365115  0.682300  1
  O  O62  1  0.990518  0.497948  0.111706  1
  O  O63  1  0.836590  0.219112  0.812844  1
  O  O64  1  0.400405  0.997424  0.612720  1
  O  O65  1  0.872127  0.280794  0.686035  1
  O  O66  1  0.966986  0.483345  0.623627  1
  O  O67  1  0.086502  0.879593  0.573106  1
  O  O68  1  0.440612  0.325563  0.361996  1
  O  O69  1  0.464221  0.004223  0.110342  1
  O  O70  1  0.776100  0.164675  0.326144  1
  O  O71  1  0.073197  0.016206  0.875916  1
  O  O72  1  0.704001  0.901053  0.487713  1
  O  O73  1  0.818210  0.105394  0.213116  1
  O  O74  1  0.998692  0.502420  0.888365  1
  O  O75  1  0.093776  0.597251  0.010998  1
  O  O76  1  0.823504  0.202900  0.056367  1
  O  O77  1  0.381404  0.593510  0.726577  1
  O  O78  1  0.914046  0.119744  0.425971  1
  O  O79  1  0.363798  0.136205  0.818936  1
  O  O80  1  0.733824  0.664483  0.827522  1
  O  O81  1  0.721134  0.099885  0.555176  1
  O  O82  1  0.625500  0.602442  0.054457  1
  O  O83  1  0.373007  0.399366  0.944197  1
  O  O84  1  0.874989  0.826068  0.861762  1
  O  O85  1  0.231858  0.925255  0.007701  1
  O  O86  1  0.032308  0.512907  0.375213  1
  O  O87  1  0.141059  0.396747  0.286458  1
  O  O88  1  0.571691  0.498861  0.388132  1
  O  O89  1  0.425830  0.500385  0.610038  1
  O  O90  1  0.633300  0.868627  0.182523  1
  O  O91  1  0.115106  0.596202  0.217537  1
  O  O92  1  0.292996  0.092326  0.227096  1
  O  O93  1  0.460450  0.380144  0.073940  1
  O  O94  1  0.567626  0.630149  0.211165  1
  O  O95  1  0.181013  0.798781  0.942582  1
  O  O96  1  0.906009  0.399218  0.987815  1
  O  O97  1  0.368795  0.199251  0.034459  1
  O  O98  1  0.070980  0.095275  0.719111  1
  O  O99  1  0.431089  0.372034  0.787553  1
  O  O100  1  0.408793  0.872002  0.288427  1
  O  O101  1  0.600875  0.303267  0.464634  1
  O  O102  1  0.618298  0.407023  0.272539  1
  O  O103  1  0.746636  0.334691  0.155724  1
  O  O104  1  0.845458  0.423901  0.507654  1
  O  O105  1  0.684343  0.634464  0.317225  1
  O  O106  1  0.929222  0.904001  0.281229  1
  O  O107  1  0.163995  0.575139  0.490707  1
  O  O108  1  0.534179  0.620551  0.926379  1
  O  O109  1  0.225671  0.835628  0.672706  1
  O  O110  1  0.128221  0.718881  0.313915  1
  O  O111  1  0.883986  0.405396  0.782770  1
  O  O112  1  0.158686  0.781911  0.187980  1
  O  O113  1  0.929836  0.984053  0.123179  1
  O  O114  1  0.590881  0.128460  0.713664  1
  O  O115  1  0.125770  0.174701  0.137553  1
  O  O116  1  0.703746  0.905342  0.772965  1
  O  O117  1  0.237719  0.164320  0.343998  1
  O  O118  1  0.296270  0.097480  0.512115  1
  O  O119  1  0.635566  0.801780  0.965909  1
