# generated using pymatgen
data_H12C4S3(N3Cl2)2
_symmetry_space_group_name_H-M   'P 1'
_cell_length_a   10.17584718
_cell_length_b   10.32919745
_cell_length_c   10.07896068
_cell_angle_alpha   99.32858532
_cell_angle_beta   98.13755815
_cell_angle_gamma   96.01602708
_symmetry_Int_Tables_number   1
_chemical_formula_structural   H12C4S3(N3Cl2)2
_chemical_formula_sum   'H24 C8 S6 N12 Cl8'
_cell_volume   1025.95871352
_cell_formula_units_Z   2
loop_
 _symmetry_equiv_pos_site_id
 _symmetry_equiv_pos_as_xyz
  1  'x, y, z'
loop_
 _atom_site_type_symbol
 _atom_site_label
 _atom_site_symmetry_multiplicity
 _atom_site_fract_x
 _atom_site_fract_y
 _atom_site_fract_z
 _atom_site_occupancy
  H  H0  1  0.040382  0.835476  0.352679  1
  H  H1  1  0.161221  0.623654  0.958616  1
  H  H2  1  0.192849  0.692794  0.612239  1
  H  H3  1  0.055826  0.611049  0.360120  1
  H  H4  1  0.355967  0.899475  0.914901  1
  H  H5  1  0.106988  0.089926  0.638925  1
  H  H6  1  0.086667  0.636870  0.103639  1
  H  H7  1  0.388856  0.636447  0.949354  1
  H  H8  1  0.378998  0.814970  0.313870  1
  H  H9  1  0.312620  0.383040  0.812143  1
  H  H10  1  0.358924  0.040029  0.843349  1
  H  H11  1  0.650494  0.945141  0.381511  1
  H  H12  1  0.347402  0.056344  0.618996  1
  H  H13  1  0.631975  0.961376  0.158807  1
  H  H14  1  0.682742  0.618448  0.199353  1
  H  H15  1  0.616630  0.192822  0.687417  1
  H  H16  1  0.592024  0.360855  0.054047  1
  H  H17  1  0.906528  0.360017  0.896909  1
  H  H18  1  0.893589  0.905205  0.361862  1
  H  H19  1  0.637415  0.104463  0.085526  1
  H  H20  1  0.943079  0.384857  0.642337  1
  H  H21  1  0.812472  0.307828  0.387969  1
  H  H22  1  0.839404  0.357267  0.044262  1
  H  H23  1  0.961680  0.165755  0.627449  1
  C  C24  1  0.139262  0.287637  0.720322  1
  C  C25  1  0.283082  0.862673  0.711997  1
  C  C26  1  0.203725  0.209576  0.248889  1
  C  C27  1  0.280575  0.723635  0.139686  1
  C  C28  1  0.710634  0.283571  0.863948  1
  C  C29  1  0.751651  0.750760  0.752499  1
  C  C30  1  0.719790  0.138442  0.287255  1
  C  C31  1  0.861872  0.709038  0.282438  1
  S  S32  1  0.060547  0.436185  0.723371  1
  S  S33  1  0.273063  0.938454  0.563453  1
  S  S34  1  0.564111  0.264592  0.939938  1
  S  S35  1  0.432938  0.720353  0.068842  1
  S  S36  1  0.724898  0.062862  0.437460  1
  S  S37  1  0.941158  0.560319  0.274269  1
  N  N38  1  0.232229  0.742146  0.708556  1
  N  N39  1  0.061137  0.172332  0.659674  1
  N  N40  1  0.352265  0.939866  0.829043  1
  N  N41  1  0.261981  0.290278  0.773611  1
  N  N42  1  0.165249  0.664693  0.057487  1
  N  N43  1  0.283690  0.781158  0.263469  1
  N  N44  1  0.710239  0.233208  0.737937  1
  N  N45  1  0.823077  0.356942  0.942475  1
  N  N46  1  0.740451  0.709848  0.229754  1
  N  N47  1  0.652394  0.061100  0.169703  1
  N  N48  1  0.940396  0.821984  0.355023  1
  N  N49  1  0.774518  0.257454  0.291629  1
  Cl  Cl50  1  0.070393  0.086684  0.257596  1
  Cl  Cl51  1  0.165961  0.272827  0.096501  1
  Cl  Cl52  1  0.225434  0.339269  0.393639  1
  Cl  Cl53  1  0.481419  0.494063  0.205446  1
  Cl  Cl54  1  0.355031  0.137681  0.247376  1
  Cl  Cl55  1  0.637263  0.856711  0.758297  1
  Cl  Cl56  1  0.756558  0.639060  0.856348  1
  Cl  Cl57  1  0.859374  0.756093  0.641288  1
