# generated using pymatgen
data_Sr9U9O34
_symmetry_space_group_name_H-M   'P 1'
_cell_length_a   59.65585992
_cell_length_b   19.06092222
_cell_length_c   12.62905212
_cell_angle_alpha   16.13709171
_cell_angle_beta   17.69119234
_cell_angle_gamma   11.54455152
_symmetry_Int_Tables_number   1
_chemical_formula_structural   Sr9U9O34
_chemical_formula_sum   'Sr9 U9 O34'
_cell_volume   781.38986849
_cell_formula_units_Z   1
loop_
 _symmetry_equiv_pos_site_id
 _symmetry_equiv_pos_as_xyz
  1  'x, y, z'
loop_
 _atom_site_type_symbol
 _atom_site_label
 _atom_site_symmetry_multiplicity
 _atom_site_fract_x
 _atom_site_fract_y
 _atom_site_fract_z
 _atom_site_occupancy
  Sr  Sr0  1  0.107245  0.517001  0.488586  1
  Sr  Sr1  1  0.224469  0.495661  0.496369  1
  Sr  Sr2  1  0.334879  0.491684  0.509655  1
  Sr  Sr3  1  0.443132  0.499073  0.508046  1
  Sr  Sr4  1  0.553654  0.512533  0.488827  1
  Sr  Sr5  1  0.664362  0.509390  0.494714  1
  Sr  Sr6  1  0.783580  0.484278  0.496376  1
  Sr  Sr7  1  0.887438  0.497302  0.516714  1
  Sr  Sr8  1  0.000855  0.496686  0.502171  1
  U  U9  1  0.996167  0.017656  0.995401  1
  U  U10  1  0.120056  0.981688  0.984562  1
  U  U11  1  0.215372  0.032412  0.982980  1
  U  U12  1  0.333126  0.981638  0.026447  1
  U  U13  1  0.446434  0.004162  0.985659  1
  U  U14  1  0.565077  0.982529  0.983476  1
  U  U15  1  0.667975  0.988644  0.013580  1
  U  U16  1  0.769900  0.034273  0.981859  1
  U  U17  1  0.886862  0.981486  0.034606  1
  O  O18  1  0.084755  0.108732  0.113737  1
  O  O19  1  0.035322  0.344046  0.355086  1
  O  O20  1  0.202480  0.089585  0.115771  1
  O  O21  1  0.136485  0.385581  0.336857  1
  O  O22  1  0.308643  0.116339  0.095316  1
  O  O23  1  0.045598  0.791896  0.585933  1
  O  O24  1  0.257005  0.338165  0.366739  1
  O  O25  1  0.420583  0.117616  0.093603  1
  O  O26  1  0.029278  0.867614  0.911652  1
  O  O27  1  0.232036  0.576212  0.569907  1
  O  O28  1  0.526981  0.117438  0.113598  1
  O  O29  1  0.141418  0.879067  0.881107  1
  O  O30  1  0.306418  0.627497  0.642267  1
  O  O31  1  0.479760  0.369129  0.324596  1
  O  O32  1  0.646704  0.093883  0.110544  1
  O  O33  1  0.233816  0.947775  0.865617  1
  O  O34  1  0.401544  0.567447  0.819862  1
  O  O35  1  0.584209  0.362652  0.357356  1
  O  O36  1  0.755905  0.088998  0.123042  1
  O  O37  1  0.357423  0.878152  0.910661  1
  O  O38  1  0.486548  0.816087  0.563674  1
  O  O39  1  0.697288  0.357221  0.356641  1
  O  O40  1  0.865921  0.111160  0.095986  1
  O  O41  1  0.467363  0.873168  0.928168  1
  O  O42  1  0.632619  0.657201  0.628632  1
  O  O43  1  0.814639  0.332573  0.372431  1
  O  O44  1  0.973994  0.128669  0.088495  1
  O  O45  1  0.594785  0.865945  0.863303  1
  O  O46  1  0.781552  0.584114  0.585688  1
  O  O47  1  0.681478  0.928917  0.882351  1
  O  O48  1  0.857603  0.623316  0.666816  1
  O  O49  1  0.796579  0.919254  0.873254  1
  O  O50  1  0.957523  0.570056  0.813231  1
  O  O51  1  0.911830  0.876397  0.918052  1
