# generated using pymatgen
data_NaNO3
_symmetry_space_group_name_H-M   'P 1'
_cell_length_a   6.47355886
_cell_length_b   6.49230268
_cell_length_c   26.02143860
_cell_angle_alpha   47.03932418
_cell_angle_beta   47.15051752
_cell_angle_gamma   46.60601110
_symmetry_Int_Tables_number   1
_chemical_formula_structural   NaNO3
_chemical_formula_sum   'Na8 N8 O24'
_cell_volume   533.41319513
_cell_formula_units_Z   8
loop_
 _symmetry_equiv_pos_site_id
 _symmetry_equiv_pos_as_xyz
  1  'x, y, z'
loop_
 _atom_site_type_symbol
 _atom_site_label
 _atom_site_symmetry_multiplicity
 _atom_site_fract_x
 _atom_site_fract_y
 _atom_site_fract_z
 _atom_site_occupancy
  Na  Na0  1  0.989220  0.005552  0.000543  1
  Na  Na1  1  0.492400  0.480642  0.126125  1
  Na  Na2  1  0.005768  0.996777  0.250007  1
  Na  Na3  1  0.499466  0.499357  0.375293  1
  Na  Na4  1  0.999565  0.999017  0.500392  1
  Na  Na5  1  0.499414  0.499649  0.625392  1
  Na  Na6  1  -0.000059  0.998125  0.750350  1
  Na  Na7  1  0.506661  0.505592  0.868475  1
  N  N8  1  0.301578  0.255903  0.050031  1
  N  N9  1  0.250752  0.249073  0.312534  1
  N  N10  1  0.748978  0.748706  0.188335  1
  N  N11  1  0.250250  0.250116  0.562388  1
  N  N12  1  0.750093  0.750076  0.437422  1
  N  N13  1  0.257392  0.248445  0.810970  1
  N  N14  1  0.750852  0.750528  0.687000  1
  N  N15  1  0.749909  0.750173  0.937262  1
  O  O16  1  0.016356  0.407717  0.081494  1
  O  O17  1  0.440500  0.976123  0.088728  1
  O  O18  1  0.455244  0.384838  0.980244  1
  O  O19  1  0.006588  0.249308  0.373556  1
  O  O20  1  0.247900  0.494718  0.251596  1
  O  O21  1  0.499650  0.002624  0.312001  1
  O  O22  1  0.500580  0.994993  0.189720  1
  O  O23  1  0.751904  0.500170  0.248240  1
  O  O24  1  0.992560  0.753015  0.127187  1
  O  O25  1  0.005067  0.251829  0.623268  1
  O  O26  1  0.248565  0.495578  0.501461  1
  O  O27  1  0.497711  0.002783  0.562325  1
  O  O28  1  0.502882  0.997531  0.437357  1
  O  O29  1  0.752031  0.504908  0.498250  1
  O  O30  1  0.995639  0.748448  0.376431  1
  O  O31  1  0.013040  0.248909  0.871815  1
  O  O32  1  0.253925  0.495133  0.750291  1
  O  O33  1  0.505305  0.001581  0.810623  1
  O  O34  1  0.503087  0.997312  0.687381  1
  O  O35  1  0.753383  0.504166  0.747705  1
  O  O36  1  0.995794  0.749345  0.626164  1
  O  O37  1  0.500494  0.995474  0.937169  1
  O  O38  1  0.753938  0.505267  0.998156  1
  O  O39  1  0.995318  0.750501  0.876395  1
