# generated using pymatgen
data_Al(HO)3
_symmetry_space_group_name_H-M   'P 1'
_cell_length_a   8.78018374
_cell_length_b   5.23747881
_cell_length_c   9.42376371
_cell_angle_alpha   90.00000000
_cell_angle_beta   90.00000000
_cell_angle_gamma   90.00000000
_symmetry_Int_Tables_number   1
_chemical_formula_structural   Al(HO)3
_chemical_formula_sum   'Al8 H24 O24'
_cell_volume   433.36144568
_cell_formula_units_Z   8
loop_
 _symmetry_equiv_pos_site_id
 _symmetry_equiv_pos_as_xyz
  1  'x, y, z'
loop_
 _atom_site_type_symbol
 _atom_site_label
 _atom_site_symmetry_multiplicity
 _atom_site_fract_x
 _atom_site_fract_y
 _atom_site_fract_z
 _atom_site_occupancy
  Al  Al0  1  0.830598  0.016917  0.498202  1
  Al  Al1  1  0.330598  0.483083  0.501798  1
  Al  Al2  1  0.169402  0.516917  0.001798  1
  Al  Al3  1  0.669402  0.983083  0.998202  1
  Al  Al4  1  0.169402  0.983083  0.501798  1
  Al  Al5  1  0.669402  0.516917  0.498202  1
  Al  Al6  1  0.830598  0.483083  0.998202  1
  Al  Al7  1  0.330598  0.016917  0.001798  1
  H  H8  1  0.487639  0.801843  0.613883  1
  H  H9  1  0.987639  0.698157  0.386117  1
  H  H10  1  0.512361  0.301843  0.886117  1
  H  H11  1  0.012361  0.198157  0.113883  1
  H  H12  1  0.512361  0.198157  0.386117  1
  H  H13  1  0.012361  0.301843  0.613883  1
  H  H14  1  0.487639  0.698157  0.113883  1
  H  H15  1  0.987639  0.801843  0.886117  1
  H  H16  1  0.853466  0.677010  0.694658  1
  H  H17  1  0.353466  0.822990  0.305342  1
  H  H18  1  0.146534  0.177010  0.805342  1
  H  H19  1  0.646534  0.322990  0.194658  1
  H  H20  1  0.146534  0.322990  0.305342  1
  H  H21  1  0.646534  0.177010  0.694658  1
  H  H22  1  0.853466  0.822990  0.194658  1
  H  H23  1  0.353466  0.677010  0.805342  1
  H  H24  1  0.364913  0.145477  0.698748  1
  H  H25  1  0.864913  0.354523  0.301252  1
  H  H26  1  0.635087  0.645477  0.801252  1
  H  H27  1  0.135087  0.854523  0.198748  1
  H  H28  1  0.635087  0.854523  0.301252  1
  H  H29  1  0.135087  0.645477  0.698748  1
  H  H30  1  0.364913  0.354523  0.198748  1
  H  H31  1  0.864913  0.145477  0.801252  1
  O  O32  1  0.495630  0.616186  0.617535  1
  O  O33  1  0.995630  0.883814  0.382465  1
  O  O34  1  0.504370  0.116186  0.882465  1
  O  O35  1  0.004370  0.383814  0.117535  1
  O  O36  1  0.504370  0.383814  0.382465  1
  O  O37  1  0.004370  0.116186  0.617535  1
  O  O38  1  0.495630  0.883814  0.117535  1
  O  O39  1  0.995630  0.616186  0.882465  1
  O  O40  1  0.807720  0.716466  0.603674  1
  O  O41  1  0.307720  0.783534  0.396326  1
  O  O42  1  0.192280  0.216466  0.896326  1
  O  O43  1  0.692280  0.283534  0.103674  1
  O  O44  1  0.192280  0.283534  0.396326  1
  O  O45  1  0.692280  0.216466  0.603674  1
  O  O46  1  0.807720  0.783534  0.103674  1
  O  O47  1  0.307720  0.716466  0.896326  1
  O  O48  1  0.322265  0.170174  0.604331  1
  O  O49  1  0.822265  0.329826  0.395669  1
  O  O50  1  0.677735  0.670174  0.895669  1
  O  O51  1  0.177735  0.829826  0.104331  1
  O  O52  1  0.677735  0.829826  0.395669  1
  O  O53  1  0.177735  0.670174  0.604331  1
  O  O54  1  0.322265  0.329826  0.104331  1
  O  O55  1  0.822265  0.170174  0.895669  1
