# generated using pymatgen
data_AgSbS2
_symmetry_space_group_name_H-M   'P 1'
_cell_length_a   5.74913708
_cell_length_b   7.39912924
_cell_length_c   13.54944047
_cell_angle_alpha   85.08589492
_cell_angle_beta   90.00000000
_cell_angle_gamma   112.86125456
_symmetry_Int_Tables_number   1
_chemical_formula_structural   AgSbS2
_chemical_formula_sum   'Ag4 Sb4 S8'
_cell_volume   528.79919902
_cell_formula_units_Z   4
loop_
 _symmetry_equiv_pos_site_id
 _symmetry_equiv_pos_as_xyz
  1  'x, y, z'
loop_
 _atom_site_type_symbol
 _atom_site_label
 _atom_site_symmetry_multiplicity
 _atom_site_fract_x
 _atom_site_fract_y
 _atom_site_fract_z
 _atom_site_occupancy
  Ag  Ag0  1  0.005413  0.006468  0.990640  1
  Ag  Ag1  1  0.506618  0.020135  0.500455  1
  Ag  Ag2  1  0.513517  0.020135  0.000455  1
  Ag  Ag3  1  0.001056  0.006468  0.490640  1
  Sb  Sb4  1  0.333644  0.569550  0.135229  1
  Sb  Sb5  1  0.769931  0.451404  0.348705  1
  Sb  Sb6  1  0.235906  0.569550  0.635229  1
  Sb  Sb7  1  0.681472  0.451404  0.848705  1
  S  S8  1  0.475474  0.674321  0.787102  1
  S  S9  1  0.182460  0.888504  0.629285  1
  S  S10  1  0.325244  0.123201  0.859882  1
  S  S11  1  0.797956  0.123201  0.359882  1
  S  S12  1  0.812560  0.338018  0.698701  1
  S  S13  1  0.525458  0.338018  0.198701  1
  S  S14  1  0.198847  0.674321  0.287102  1
  S  S15  1  0.706044  0.888504  0.129285  1
