# generated using pymatgen
data_HOF
_symmetry_space_group_name_H-M   'P 1'
_cell_length_a   4.33214539
_cell_length_b   5.25619193
_cell_length_c   5.80023512
_cell_angle_alpha   90.00000000
_cell_angle_beta   90.00000000
_cell_angle_gamma   90.00000000
_symmetry_Int_Tables_number   1
_chemical_formula_structural   HOF
_chemical_formula_sum   'H4 O4 F4'
_cell_volume   132.07476212
_cell_formula_units_Z   4
loop_
 _symmetry_equiv_pos_site_id
 _symmetry_equiv_pos_as_xyz
  1  'x, y, z'
loop_
 _atom_site_type_symbol
 _atom_site_label
 _atom_site_symmetry_multiplicity
 _atom_site_fract_x
 _atom_site_fract_y
 _atom_site_fract_z
 _atom_site_occupancy
  H  H0  1  0.396888  0.526874  0.278654  1
  H  H1  1  0.103112  0.473126  0.778654  1
  H  H2  1  0.896888  0.973126  0.721346  1
  H  H3  1  0.603112  0.026874  0.221346  1
  O  O4  1  0.640001  0.877843  0.324108  1
  O  O5  1  0.859999  0.122157  0.824108  1
  O  O6  1  0.140001  0.622157  0.675892  1
  O  O7  1  0.359999  0.377843  0.175892  1
  F  F8  1  0.884969  0.754581  0.192148  1
  F  F9  1  0.615031  0.245419  0.692148  1
  F  F10  1  0.384969  0.745419  0.807852  1
  F  F11  1  0.115031  0.254581  0.307852  1
