# generated using pymatgen
data_VHO3
_symmetry_space_group_name_H-M   'P 1'
_cell_length_a   5.04568854
_cell_length_b   8.69704856
_cell_length_c   7.87183598
_cell_angle_alpha   90.00000000
_cell_angle_beta   103.97230235
_cell_angle_gamma   90.00000000
_symmetry_Int_Tables_number   1
_chemical_formula_structural   VHO3
_chemical_formula_sum   'V6 H6 O18'
_cell_volume   335.21603156
_cell_formula_units_Z   6
loop_
 _symmetry_equiv_pos_site_id
 _symmetry_equiv_pos_as_xyz
  1  'x, y, z'
loop_
 _atom_site_type_symbol
 _atom_site_label
 _atom_site_symmetry_multiplicity
 _atom_site_fract_x
 _atom_site_fract_y
 _atom_site_fract_z
 _atom_site_occupancy
  V  V0  1  0.468837  0.442237  0.185990  1
  V  V1  1  0.531163  0.942237  0.814010  1
  V  V2  1  0.529756  0.550746  0.815004  1
  V  V3  1  0.470244  0.050746  0.184996  1
  V  V4  1  0.942689  0.246849  0.078132  1
  V  V5  1  0.057311  0.746849  0.921868  1
  H  H6  1  0.086982  0.154528  0.578291  1
  H  H7  1  0.830411  0.252997  0.440386  1
  H  H8  1  0.098243  0.337144  0.592349  1
  H  H9  1  0.913018  0.654528  0.421709  1
  H  H10  1  0.169589  0.752997  0.559614  1
  H  H11  1  0.901757  0.837144  0.407651  1
  O  O12  1  0.676842  0.406471  0.003498  1
  O  O13  1  0.323158  0.906471  0.996502  1
  O  O14  1  0.322665  0.587209  0.996913  1
  O  O15  1  0.677335  0.087209  0.003087  1
  O  O16  1  0.152331  0.395053  0.233483  1
  O  O17  1  0.847669  0.895053  0.766517  1
  O  O18  1  0.845355  0.597093  0.767085  1
  O  O19  1  0.154645  0.097093  0.232915  1
  O  O20  1  0.634434  0.246945  0.263975  1
  O  O21  1  0.365566  0.746945  0.736025  1
  O  O22  1  0.120146  0.246578  0.931176  1
  O  O23  1  0.879854  0.746578  0.068824  1
  O  O24  1  0.636075  0.551837  0.344635  1
  O  O25  1  0.363925  0.051837  0.655365  1
  O  O26  1  0.359371  0.439755  0.658461  1
  O  O27  1  0.640629  0.939755  0.341539  1
  O  O28  1  0.964635  0.247747  0.563565  1
  O  O29  1  0.035365  0.747746  0.436435  1
