# generated using pymatgen
data_Ga6Te10Pb
_symmetry_space_group_name_H-M   'P 1'
_cell_length_a   14.86457310
_cell_length_b   14.86457266
_cell_length_c   18.09503210
_cell_angle_alpha   90.00000000
_cell_angle_beta   90.00000000
_cell_angle_gamma   120.00000098
_symmetry_Int_Tables_number   1
_chemical_formula_structural   Ga6Te10Pb
_chemical_formula_sum   'Ga36 Te60 Pb6'
_cell_volume   3462.54044123
_cell_formula_units_Z   6
loop_
 _symmetry_equiv_pos_site_id
 _symmetry_equiv_pos_as_xyz
  1  'x, y, z'
loop_
 _atom_site_type_symbol
 _atom_site_label
 _atom_site_symmetry_multiplicity
 _atom_site_fract_x
 _atom_site_fract_y
 _atom_site_fract_z
 _atom_site_occupancy
  Ga  Ga0  1  0.072772  0.988587  0.413805  1
  Ga  Ga1  1  0.084185  0.011413  0.919529  1
  Ga  Ga2  1  0.219250  0.144184  0.735766  1
  Ga  Ga3  1  0.075066  0.855816  0.597568  1
  Ga  Ga4  1  0.521645  0.406944  0.731109  1
  Ga  Ga5  1  0.114701  0.593056  0.602225  1
  Ga  Ga6  1  0.812029  0.555570  0.592058  1
  Ga  Ga7  1  0.256459  0.444430  0.741276  1
  Ga  Ga8  1  0.747677  0.323584  0.748230  1
  Ga  Ga9  1  0.424093  0.676416  0.585104  1
  Ga  Ga10  1  0.187971  0.743541  0.074609  1
  Ga  Ga11  1  0.444430  0.256459  0.258724  1
  Ga  Ga12  1  0.252418  0.595015  0.415800  1
  Ga  Ga13  1  0.252323  0.575907  0.918437  1
  Ga  Ga14  1  0.676416  0.424093  0.414896  1
  Ga  Ga15  1  0.342597  0.747582  0.749134  1
  Ga  Ga16  1  0.478355  0.885299  0.935558  1
  Ga  Ga17  1  0.593056  0.114701  0.397775  1
  Ga  Ga18  1  0.404985  0.657403  0.082467  1
  Ga  Ga19  1  0.780750  0.924934  0.930901  1
  Ga  Ga20  1  0.855816  0.075066  0.402432  1
  Ga  Ga21  1  0.575907  0.252323  0.081563  1
  Ga  Ga22  1  0.323584  0.747677  0.251770  1
  Ga  Ga23  1  0.915815  0.927228  0.747138  1
  Ga  Ga24  1  0.988587  0.072772  0.586195  1
  Ga  Ga25  1  0.657403  0.404985  0.917533  1
  Ga  Ga26  1  0.595015  0.252418  0.584200  1
  Ga  Ga27  1  0.927228  0.915815  0.252862  1
  Ga  Ga28  1  0.011413  0.084185  0.080471  1
  Ga  Ga29  1  0.924934  0.780750  0.069099  1
  Ga  Ga30  1  0.144184  0.219250  0.264234  1
  Ga  Ga31  1  0.747582  0.342597  0.250866  1
  Ga  Ga32  1  0.885299  0.478355  0.064442  1
  Ga  Ga33  1  0.406944  0.521645  0.268891  1
  Ga  Ga34  1  0.555570  0.812029  0.407942  1
  Ga  Ga35  1  0.743541  0.187971  0.925391  1
  Te  Te36  1  0.033741  0.135224  0.729194  1
  Te  Te37  1  0.898517  0.864776  0.604140  1
  Te  Te38  1  0.000000  0.844795  0.833333  1
  Te  Te39  1  0.329485  0.332209  0.669092  1
  Te  Te40  1  0.997276  0.667791  0.664242  1
  Te  Te41  1  0.275189  0.146358  0.876462  1
  Te  Te42  1  0.128831  0.853642  0.456872  1
  Te  Te43  1  0.246626  0.000000  0.666667  1
  Te  Te44  1  0.060788  0.539426  0.460647  1
  Te  Te45  1  0.521362  0.460574  0.872687  1
  Te  Te46  1  0.657516  0.575117  0.654860  1
  Te  Te47  1  0.082399  0.424883  0.678474  1
  Te  Te48  1  0.536106  0.235245  0.727651  1
  Te  Te49  1  0.300862  0.764755  0.605683  1
  Te  Te50  1  0.338722  0.511468  0.497584  1
  Te  Te51  1  0.827253  0.488532  0.835750  1
  Te  Te52  1  0.432720  0.629911  0.729333  1
  Te  Te53  1  0.802809  0.370089  0.604001  1
  Te  Te54  1  0.782194  0.174282  0.785627  1
  Te  Te55  1  0.607912  0.825718  0.547707  1
  Te  Te56  1  0.172747  0.661278  0.830917  1
  Te  Te57  1  0.511468  0.338722  0.502416  1
  Te  Te58  1  0.342484  0.917601  0.011807  1
  Te  Te59  1  0.424883  0.082399  0.321526  1
  Te  Te60  1  0.197191  0.567280  0.062666  1
  Te  Te61  1  0.629911  0.432720  0.270667  1
  Te  Te62  1  0.478638  0.939212  0.793980  1
  Te  Te63  1  0.539426  0.060788  0.539353  1
  Te  Te64  1  0.217806  0.392088  0.881040  1
  Te  Te65  1  0.825718  0.607912  0.452293  1
  Te  Te66  1  0.463894  0.699138  0.939016  1
  Te  Te67  1  0.764755  0.300862  0.394317  1
  Te  Te68  1  0.670515  0.002724  0.997575  1
  Te  Te69  1  0.667791  0.997276  0.335758  1
  Te  Te70  1  0.174282  0.782194  0.214373  1
  Te  Te71  1  0.392088  0.217806  0.118960  1
  Te  Te72  1  0.724811  0.871169  0.790205  1
  Te  Te73  1  0.853642  0.128831  0.543128  1
  Te  Te74  1  0.844795  0.000000  0.166667  1
  Te  Te75  1  0.753374  0.753374  0.000000  1
  Te  Te76  1  0.000000  0.246626  0.333333  1
  Te  Te77  1  0.966259  0.101483  0.937473  1
  Te  Te78  1  0.864776  0.898517  0.395860  1
  Te  Te79  1  0.699138  0.463894  0.060984  1
  Te  Te80  1  0.235245  0.536106  0.272349  1
  Te  Te81  1  0.567280  0.197191  0.937334  1
  Te  Te82  1  0.370089  0.802809  0.395999  1
  Te  Te83  1  0.871169  0.724811  0.209795  1
  Te  Te84  1  0.146358  0.275189  0.123538  1
  Te  Te85  1  0.661278  0.172747  0.169083  1
  Te  Te86  1  0.488532  0.827253  0.164250  1
  Te  Te87  1  0.155205  0.155205  0.500000  1
  Te  Te88  1  0.101483  0.966259  0.062527  1
  Te  Te89  1  0.135224  0.033741  0.270806  1
  Te  Te90  1  0.002724  0.670515  0.002425  1
  Te  Te91  1  0.332209  0.329485  0.330908  1
  Te  Te92  1  0.460574  0.521362  0.127313  1
  Te  Te93  1  0.939212  0.478638  0.206020  1
  Te  Te94  1  0.917601  0.342484  0.988193  1
  Te  Te95  1  0.575117  0.657516  0.345140  1
  Pb  Pb96  1  0.263225  0.918061  0.846160  1
  Pb  Pb97  1  0.081939  0.345164  0.512827  1
  Pb  Pb98  1  0.654836  0.736775  0.179493  1
  Pb  Pb99  1  0.345164  0.081939  0.487173  1
  Pb  Pb100  1  0.736775  0.654836  0.820507  1
  Pb  Pb101  1  0.918061  0.263225  0.153840  1
