# generated using pymatgen
data_Ce4Sn25Pt12
_symmetry_space_group_name_H-M   'P 1'
_cell_length_a   10.70705230
_cell_length_b   10.70809616
_cell_length_c   10.70772894
_cell_angle_alpha   109.46407214
_cell_angle_beta   109.45712813
_cell_angle_gamma   109.45901212
_symmetry_Int_Tables_number   1
_chemical_formula_structural   Ce4Sn25Pt12
_chemical_formula_sum   'Ce4 Sn25 Pt12'
_cell_volume   945.44618998
_cell_formula_units_Z   1
loop_
 _symmetry_equiv_pos_site_id
 _symmetry_equiv_pos_as_xyz
  1  'x, y, z'
loop_
 _atom_site_type_symbol
 _atom_site_label
 _atom_site_symmetry_multiplicity
 _atom_site_fract_x
 _atom_site_fract_y
 _atom_site_fract_z
 _atom_site_occupancy
  Ce  Ce0  1  0.999976  0.499985  0.000001  1
  Ce  Ce1  1  0.499974  0.500020  0.499988  1
  Ce  Ce2  1  0.000011  0.999982  0.499986  1
  Ce  Ce3  1  0.500014  0.000026  0.000015  1
  Sn  Sn4  1  0.126819  0.249829  0.876976  1
  Sn  Sn5  1  0.373459  0.620184  0.993598  1
  Sn  Sn6  1  0.750148  0.123011  0.873197  1
  Sn  Sn7  1  0.249662  0.122767  0.372763  1
  Sn  Sn8  1  0.373366  0.379755  0.753282  1
  Sn  Sn9  1  0.000039  0.000014  0.000009  1
  Sn  Sn10  1  0.122759  0.372740  0.249660  1
  Sn  Sn11  1  0.123052  0.873209  0.750197  1
  Sn  Sn12  1  0.876944  0.126792  0.249805  1
  Sn  Sn13  1  0.877233  0.627241  0.750331  1
  Sn  Sn14  1  0.006431  0.626586  0.379831  1
  Sn  Sn15  1  0.627237  0.750383  0.877264  1
  Sn  Sn16  1  0.620207  0.246699  0.626607  1
  Sn  Sn17  1  0.379778  0.753277  0.373387  1
  Sn  Sn18  1  0.873184  0.750182  0.123010  1
  Sn  Sn19  1  0.993574  0.373431  0.620179  1
  Sn  Sn20  1  0.249845  0.877000  0.126809  1
  Sn  Sn21  1  0.379822  0.006397  0.626579  1
  Sn  Sn22  1  0.372752  0.249613  0.122728  1
  Sn  Sn23  1  0.620156  0.993591  0.373410  1
  Sn  Sn24  1  0.753277  0.373390  0.379784  1
  Sn  Sn25  1  0.246720  0.626632  0.620217  1
  Sn  Sn26  1  0.750340  0.877241  0.627230  1
  Sn  Sn27  1  0.626569  0.379792  0.006389  1
  Sn  Sn28  1  0.626633  0.620218  0.246711  1
  Pt  Pt29  1  0.680649  0.848297  0.167618  1
  Pt  Pt30  1  0.680720  0.513052  0.832523  1
  Pt  Pt31  1  0.513054  0.832578  0.680784  1
  Pt  Pt32  1  0.167408  0.319227  0.486944  1
  Pt  Pt33  1  0.319294  0.486940  0.167472  1
  Pt  Pt34  1  0.848278  0.167587  0.680630  1
  Pt  Pt35  1  0.832341  0.319303  0.151748  1
  Pt  Pt36  1  0.167673  0.680705  0.848290  1
  Pt  Pt37  1  0.832567  0.680745  0.513051  1
  Pt  Pt38  1  0.486951  0.167452  0.319219  1
  Pt  Pt39  1  0.151726  0.832433  0.319392  1
  Pt  Pt40  1  0.319357  0.151697  0.832384  1
