# generated using pymatgen
data_Na3Nd5Cl18
_symmetry_space_group_name_H-M   'P 1'
_cell_length_a   7.60723609
_cell_length_b   7.60723594
_cell_length_c   12.76807706
_cell_angle_alpha   90.00000000
_cell_angle_beta   90.00000000
_cell_angle_gamma   120.00000068
_symmetry_Int_Tables_number   1
_chemical_formula_structural   Na3Nd5Cl18
_chemical_formula_sum   'Na3 Nd5 Cl18'
_cell_volume   639.89675045
_cell_formula_units_Z   1
loop_
 _symmetry_equiv_pos_site_id
 _symmetry_equiv_pos_as_xyz
  1  'x, y, z'
loop_
 _atom_site_type_symbol
 _atom_site_label
 _atom_site_symmetry_multiplicity
 _atom_site_fract_x
 _atom_site_fract_y
 _atom_site_fract_z
 _atom_site_occupancy
  Na  Na0  1  0.333333  0.666667  0.750000  1
  Na  Na1  1  0.000000  0.000000  0.607867  1
  Na  Na2  1  0.000000  0.000000  0.892133  1
  Nd  Nd3  1  0.333333  0.666667  0.084737  1
  Nd  Nd4  1  0.333333  0.666667  0.415263  1
  Nd  Nd5  1  0.666667  0.333333  0.250000  1
  Nd  Nd6  1  0.666667  0.333333  0.583169  1
  Nd  Nd7  1  0.666667  0.333333  0.916831  1
  Cl  Cl8  1  0.304710  0.911941  0.250000  1
  Cl  Cl9  1  0.311334  0.921082  0.574919  1
  Cl  Cl10  1  0.311334  0.921082  0.925081  1
  Cl  Cl11  1  0.088059  0.392769  0.250000  1
  Cl  Cl12  1  0.078918  0.390252  0.574919  1
  Cl  Cl13  1  0.078918  0.390252  0.925081  1
  Cl  Cl14  1  0.392210  0.304155  0.086059  1
  Cl  Cl15  1  0.392210  0.304155  0.413941  1
  Cl  Cl16  1  0.381762  0.281330  0.750000  1
  Cl  Cl17  1  0.607231  0.695290  0.250000  1
  Cl  Cl18  1  0.609748  0.688666  0.574919  1
  Cl  Cl19  1  0.609748  0.688666  0.925081  1
  Cl  Cl20  1  0.911946  0.607790  0.086059  1
  Cl  Cl21  1  0.911946  0.607790  0.413941  1
  Cl  Cl22  1  0.899567  0.618238  0.750000  1
  Cl  Cl23  1  0.695845  0.088054  0.086059  1
  Cl  Cl24  1  0.695845  0.088054  0.413941  1
  Cl  Cl25  1  0.718670  0.100433  0.750000  1
