# generated using pymatgen
data_MnInFe(CO)9
_symmetry_space_group_name_H-M   'P 1'
_cell_length_a   13.43237179
_cell_length_b   13.44192588
_cell_length_c   17.92098677
_cell_angle_alpha   112.05560858
_cell_angle_beta   111.89544168
_cell_angle_gamma   89.92569883
_symmetry_Int_Tables_number   1
_chemical_formula_structural   MnInFe(CO)9
_chemical_formula_sum   'Mn8 In8 Fe8 C72 O72'
_cell_volume   2746.18837510
_cell_formula_units_Z   8
loop_
 _symmetry_equiv_pos_site_id
 _symmetry_equiv_pos_as_xyz
  1  'x, y, z'
loop_
 _atom_site_type_symbol
 _atom_site_label
 _atom_site_symmetry_multiplicity
 _atom_site_fract_x
 _atom_site_fract_y
 _atom_site_fract_z
 _atom_site_occupancy
  Mn  Mn0  1  0.839077  0.184521  0.062983  1
  Mn  Mn1  1  0.879024  0.338876  0.562096  1
  Mn  Mn2  1  0.122895  0.662641  0.437719  1
  Mn  Mn3  1  0.224462  0.378409  0.062000  1
  Mn  Mn4  1  0.316250  0.275072  0.436748  1
  Mn  Mn5  1  0.161158  0.815367  0.937046  1
  Mn  Mn6  1  0.773664  0.620676  0.936481  1
  Mn  Mn7  1  0.682609  0.725669  0.562246  1
  In  In8  1  0.265639  0.082927  0.438329  1
  In  In9  1  0.738699  0.917928  0.564035  1
  In  In10  1  0.824778  0.147296  0.562628  1
  In  In11  1  0.353308  0.762394  0.937026  1
  In  In12  1  0.646501  0.237336  0.062020  1
  In  In13  1  0.416827  0.325719  0.062695  1
  In  In14  1  0.583064  0.672710  0.938038  1
  In  In15  1  0.174596  0.854685  0.437585  1
  Fe  Fe16  1  0.398509  0.647438  0.797613  1
  Fe  Fe17  1  0.149791  0.897860  0.296823  1
  Fe  Fe18  1  0.289704  0.039248  0.578810  1
  Fe  Fe19  1  0.462637  0.211278  0.921378  1
  Fe  Fe20  1  0.601199  0.351568  0.202412  1
  Fe  Fe21  1  0.711180  0.961623  0.422373  1
  Fe  Fe22  1  0.538122  0.788842  0.077593  1
  Fe  Fe23  1  0.852528  0.102802  0.703734  1
  C  C24  1  0.895276  0.322687  0.151038  1
  C  C25  1  0.716789  0.134122  0.680187  1
  C  C26  1  0.787982  0.570474  0.023159  1
  C  C27  1  0.526157  0.343351  0.945743  1
  C  C28  1  0.744976  0.670889  0.848490  1
  C  C29  1  0.078971  0.764770  0.220093  1
  C  C30  1  0.692673  0.486737  0.850950  1
  C  C31  1  0.265818  0.639841  0.719898  1
  C  C32  1  0.177465  0.245487  0.349818  1
  C  C33  1  0.734514  0.358345  0.278667  1
  C  C34  1  0.929033  0.265321  0.475608  1
  C  C35  1  0.288283  0.982103  0.654098  1
  C  C36  1  0.650413  0.593660  0.560284  1
  C  C37  1  0.632289  0.804782  0.647443  1
  C  C38  1  0.421743  0.102120  0.943629  1
  C  C39  1  0.262493  0.326051  0.523008  1
  C  C40  1  0.091830  0.532878  0.439821  1
  C  C41  1  0.013595  0.344590  0.647336  1
  C  C42  1  0.601932  0.023972  0.445350  1
  C  C43  1  0.070386  0.734563  0.522835  1
  C  C44  1  0.157958  0.865497  0.852674  1
  C  C45  1  0.285774  0.866499  0.321803  1
  C  C46  1  0.546724  0.712582  0.475358  1
  C  C47  1  0.102878  0.677878  0.847673  1
  C  C48  1  0.545775  0.216200  0.179162  1
  C  C49  1  0.262888  0.697070  0.523679  1
  C  C50  1  0.578566  0.897774  0.054886  1
  C  C51  1  0.739017  0.303919  0.476916  1
  C  C52  1  0.368576  0.536082  0.822516  1
  C  C53  1  0.212194  0.430967  0.977184  1
  C  C54  1  0.921922  0.236462  0.779437  1
  C  C55  1  0.819783  0.756008  0.651173  1
  C  C56  1  0.520629  0.134753  0.846376  1
  C  C57  1  0.453013  0.783087  0.820761  1
  C  C58  1  0.714879  0.019102  0.347838  1
  C  C59  1  0.253518  0.328640  0.150036  1
  C  C60  1  0.987901  0.657328  0.353021  1
  C  C61  1  0.825192  0.761652  0.020575  1
  C  C62  1  0.174604  0.237759  0.977200  1
  C  C63  1  0.805811  0.241046  0.978571  1
  C  C64  1  0.964193  0.047273  0.679432  1
  C  C65  1  0.969764  0.151635  0.062289  1
  C  C66  1  0.143163  0.955757  0.220838  1
  C  C67  1  0.910378  0.469008  0.560458  1
  C  C68  1  0.031380  0.849096  0.939499  1
  C  C69  1  0.766899  0.047808  0.977018  1
  C  C70  1  0.172444  0.604301  0.348847  1
  C  C71  1  0.633905  0.463669  0.179243  1
  C  C72  1  0.842235  0.134920  0.147640  1
  C  C73  1  0.330227  0.214432  0.847616  1
  C  C74  1  0.860433  0.046766  0.781114  1
  C  C75  1  0.398586  0.975412  0.556034  1
  C  C76  1  0.738995  0.673058  0.477738  1
  C  C77  1  0.842761  0.921379  0.446583  1
  C  C78  1  0.475495  0.657568  0.055843  1
  C  C79  1  0.157110  0.077622  0.556061  1
  C  C80  1  0.347919  0.406470  0.437306  1
  C  C81  1  0.092546  0.409765  0.059752  1
  C  C82  1  0.544473  0.421265  0.279296  1
  C  C83  1  0.828477  0.396336  0.650068  1
  C  C84  1  0.364221  0.193847  0.350552  1
  C  C85  1  0.481757  0.866792  0.153113  1
  C  C86  1  0.904821  0.588508  0.937546  1
  C  C87  1  0.037653  0.953837  0.319902  1
  C  C88  1  0.305025  0.511636  0.148701  1
  C  C89  1  0.670631  0.786486  0.151378  1
  C  C90  1  0.452989  0.289111  0.522575  1
  C  C91  1  0.233981  0.951625  0.023231  1
  C  C92  1  0.195790  0.760115  0.022211  1
  C  C93  1  0.635088  0.828720  0.348294  1
  C  C94  1  0.454905  0.577661  0.720646  1
  C  C95  1  0.365549  0.172597  0.651521  1
  O  O96  1  0.948755  0.870635  0.942432  1
  O  O97  1  0.611826  0.972497  0.047382  1
  O  O98  1  0.566904  0.427395  0.956209  1
  O  O99  1  0.933170  0.408696  0.206766  1
  O  O100  1  0.372530  0.843487  0.332924  1
  O  O101  1  0.859425  0.849873  0.073801  1
  O  O102  1  0.179813  0.632797  0.667083  1
  O  O103  1  0.725892  0.960687  0.925095  1
  O  O104  1  0.512200  0.130475  0.170135  1
  O  O105  1  0.007006  0.427517  0.057363  1
  O  O106  1  0.393560  0.144215  0.296311  1
  O  O107  1  0.435838  0.574480  0.047802  1
  O  O108  1  0.903081  0.652239  0.300347  1
  O  O109  1  0.539307  0.301788  0.576084  1
  O  O110  1  0.527424  0.063911  0.454910  1
  O  O111  1  0.272611  0.301429  0.207559  1
  O  O112  1  0.353732  0.595107  0.203180  1
  O  O113  1  0.033408  0.678415  0.167812  1
  O  O114  1  0.962107  0.223862  0.422151  1
  O  O115  1  0.243397  0.216562  0.800853  1
  O  O116  1  0.091484  0.228965  0.294456  1
  O  O117  1  0.926411  0.890158  0.456502  1
  O  O118  1  0.486003  0.869081  0.829869  1
  O  O119  1  0.142688  0.148784  0.924893  1
  O  O120  1  0.928092  0.552081  0.558073  1
  O  O121  1  0.274402  0.038742  0.075448  1
  O  O122  1  0.651335  0.281044  0.422432  1
  O  O123  1  0.064608  0.592577  0.790977  1
  O  O124  1  0.487554  0.533293  0.666966  1
  O  O125  1  0.460439  0.701305  0.422268  1
  O  O126  1  0.800792  0.536414  0.076034  1
  O  O127  1  0.154982  0.895343  0.799139  1
  O  O128  1  0.349813  0.717813  0.578943  1
  O  O129  1  0.630727  0.507899  0.557539  1
  O  O130  1  0.097579  0.350520  0.701298  1
  O  O131  1  0.472885  0.934511  0.547131  1
  O  O132  1  0.960381  0.986820  0.328506  1
  O  O133  1  0.586698  0.741651  0.301718  1
  O  O134  1  0.772968  0.637383  0.423825  1
  O  O135  1  0.643184  0.403649  0.796301  1
  O  O136  1  0.821311  0.366209  0.330732  1
  O  O137  1  0.367719  0.491694  0.439123  1
  O  O138  1  0.201060  0.565619  0.292038  1
  O  O139  1  0.072946  0.450418  0.442715  1
  O  O140  1  0.287367  0.944221  0.702496  1
  O  O141  1  0.229784  0.358803  0.577955  1
  O  O142  1  0.966254  0.323434  0.831069  1
  O  O143  1  0.717098  0.056113  0.299231  1
  O  O144  1  0.052560  0.130299  0.059643  1
  O  O145  1  0.845741  0.105200  0.201346  1
  O  O146  1  0.798019  0.433974  0.705903  1
  O  O147  1  0.989882  0.569702  0.939306  1
  O  O148  1  0.390296  0.027284  0.952024  1
  O  O149  1  0.199732  0.465791  0.924797  1
  O  O150  1  0.602873  0.852658  0.702053  1
  O  O151  1  0.729557  0.701273  0.793042  1
  O  O152  1  0.073132  0.107735  0.547164  1
  O  O153  1  0.784061  0.276042  0.925135  1
  O  O154  1  0.414408  0.259474  0.698011  1
  O  O155  1  0.033774  0.774602  0.574142  1
  O  O156  1  0.630495  0.157905  0.670116  1
  O  O157  1  0.904872  0.772716  0.707669  1
  O  O158  1  0.756702  0.784685  0.199418  1
  O  O159  1  0.868345  0.012725  0.833667  1
  O  O160  1  0.218157  0.728438  0.077645  1
  O  O161  1  0.558672  0.086248  0.797664  1
  O  O162  1  0.346688  0.459460  0.832818  1
  O  O163  1  0.659277  0.540463  0.170674  1
  O  O164  1  0.509681  0.465409  0.331566  1
  O  O165  1  0.135171  0.992890  0.170060  1
  O  O166  1  0.040828  0.013850  0.669827  1
  O  O167  1  0.445356  0.917743  0.202250  1
