# generated using pymatgen
data_Na6Mo11O36
_symmetry_space_group_name_H-M   'P 1'
_cell_length_a   7.41534733
_cell_length_b   9.82743947
_cell_length_c   22.85616581
_cell_angle_alpha   90.08668421
_cell_angle_beta   90.23302062
_cell_angle_gamma   67.83603800
_symmetry_Int_Tables_number   1
_chemical_formula_structural   Na6Mo11O36
_chemical_formula_sum   'Na12 Mo22 O72'
_cell_volume   1542.52894999
_cell_formula_units_Z   2
loop_
 _symmetry_equiv_pos_site_id
 _symmetry_equiv_pos_as_xyz
  1  'x, y, z'
loop_
 _atom_site_type_symbol
 _atom_site_label
 _atom_site_symmetry_multiplicity
 _atom_site_fract_x
 _atom_site_fract_y
 _atom_site_fract_z
 _atom_site_occupancy
  Na  Na0  1  0.980789  0.005469  0.170384  1
  Na  Na1  1  0.513538  0.502888  0.588515  1
  Na  Na2  1  0.500000  0.000000  0.500000  1
  Na  Na3  1  0.496830  0.506433  0.750022  1
  Na  Na4  1  0.513996  0.005605  0.329633  1
  Na  Na5  1  0.486462  0.497112  0.411485  1
  Na  Na6  1  0.486004  0.994395  0.670367  1
  Na  Na7  1  0.019211  0.994531  0.829616  1
  Na  Na8  1  0.483525  0.502985  0.911520  1
  Na  Na9  1  0.000000  0.000000  0.000000  1
  Na  Na10  1  0.516475  0.497015  0.088480  1
  Na  Na11  1  0.503170  0.493567  0.249978  1
  Mo  Mo12  1  0.126948  0.812530  0.676638  1
  Mo  Mo13  1  0.057400  0.309249  0.085128  1
  Mo  Mo14  1  0.547998  0.836365  0.170725  1
  Mo  Mo15  1  0.549175  0.811650  0.001795  1
  Mo  Mo16  1  0.133466  0.309160  0.414906  1
  Mo  Mo17  1  0.139285  0.811640  0.498195  1
  Mo  Mo18  1  0.860715  0.188360  0.501805  1
  Mo  Mo19  1  0.866534  0.690840  0.585094  1
  Mo  Mo20  1  0.958277  0.682117  0.083557  1
  Mo  Mo21  1  0.069295  0.361376  0.749998  1
  Mo  Mo22  1  0.884181  0.163611  0.670717  1
  Mo  Mo23  1  0.930705  0.638624  0.250002  1
  Mo  Mo24  1  0.115819  0.836389  0.329283  1
  Mo  Mo25  1  0.452002  0.163635  0.829275  1
  Mo  Mo26  1  0.041723  0.317883  0.916443  1
  Mo  Mo27  1  0.873052  0.187470  0.323362  1
  Mo  Mo28  1  0.450825  0.188350  0.998205  1
  Mo  Mo29  1  0.859616  0.682157  0.416434  1
  Mo  Mo30  1  0.439645  0.187413  0.176611  1
  Mo  Mo31  1  0.942600  0.690751  0.914872  1
  Mo  Mo32  1  0.140384  0.317843  0.583566  1
  Mo  Mo33  1  0.560355  0.812587  0.823389  1
  O  O34  1  0.129113  0.309077  0.998334  1
  O  O35  1  0.515748  0.318843  0.834497  1
  O  O36  1  0.806428  0.521674  0.256752  1
  O  O37  1  0.059399  0.294539  0.338884  1
  O  O38  1  0.367438  0.669373  0.497218  1
  O  O39  1  0.897435  0.174782  0.247745  1
  O  O40  1  0.634765  0.827867  0.418053  1
  O  O41  1  0.192095  0.973188  0.498910  1
  O  O42  1  0.849847  0.480027  0.083983  1
  O  O43  1  0.940485  0.197411  0.423287  1
  O  O44  1  0.962592  0.172176  0.918087  1
  O  O45  1  0.168811  0.981047  0.657342  1
  O  O46  1  0.363476  0.175317  0.754099  1
  O  O47  1  0.642248  0.804335  0.082415  1
  O  O48  1  0.637909  0.802584  0.923274  1
  O  O49  1  0.073132  0.305962  0.665058  1
  O  O50  1  0.170175  0.479953  0.416057  1
  O  O51  1  0.571994  0.825269  0.747770  1
  O  O52  1  0.171962  0.521755  0.243208  1
  O  O53  1  0.318176  0.986623  0.169700  1
  O  O54  1  0.633060  0.826334  0.580970  1
  O  O55  1  0.349935  0.981086  0.842682  1
  O  O56  1  0.879133  0.694113  0.165057  1
  O  O57  1  0.177781  0.526242  0.082196  1
  O  O58  1  0.463347  0.669350  0.002775  1
  O  O59  1  0.040505  0.826298  0.919012  1
  O  O60  1  0.484252  0.681157  0.165503  1
  O  O61  1  0.038956  0.824723  0.254114  1
  O  O62  1  0.357752  0.195665  0.917585  1
  O  O63  1  0.524857  0.330107  0.165703  1
  O  O64  1  0.940601  0.705461  0.661116  1
  O  O65  1  0.365235  0.172133  0.581947  1
  O  O66  1  0.102565  0.825218  0.752255  1
  O  O67  1  0.037408  0.827824  0.081913  1
  O  O68  1  0.959495  0.173702  0.080988  1
  O  O69  1  0.536653  0.330650  0.997225  1
  O  O70  1  0.829825  0.520047  0.583943  1
  O  O71  1  0.193572  0.478326  0.743248  1
  O  O72  1  0.650065  0.018914  0.157318  1
  O  O73  1  0.061804  0.309007  0.501680  1
  O  O74  1  0.120867  0.305887  0.834943  1
  O  O75  1  0.665236  0.318836  0.665486  1
  O  O76  1  0.828038  0.478245  0.756792  1
  O  O77  1  0.665207  0.026822  0.998909  1
  O  O78  1  0.804570  0.013371  0.669707  1
  O  O79  1  0.428006  0.174731  0.252230  1
  O  O80  1  0.636524  0.824683  0.245901  1
  O  O81  1  0.645121  0.330141  0.334255  1
  O  O82  1  0.053497  0.804358  0.417578  1
  O  O83  1  0.831189  0.018953  0.342658  1
  O  O84  1  0.334764  0.681164  0.334514  1
  O  O85  1  0.150153  0.519973  0.916017  1
  O  O86  1  0.204041  0.473707  0.582175  1
  O  O87  1  0.946503  0.195642  0.582422  1
  O  O88  1  0.146143  0.294523  0.161138  1
  O  O89  1  0.938196  0.690993  0.498320  1
  O  O90  1  0.795959  0.526293  0.417825  1
  O  O91  1  0.195430  0.986629  0.330293  1
  O  O92  1  0.926868  0.694038  0.334942  1
  O  O93  1  0.853857  0.705477  0.838862  1
  O  O94  1  0.807906  0.026812  0.501090  1
  O  O95  1  0.354879  0.669859  0.665745  1
  O  O96  1  0.632562  0.330627  0.502782  1
  O  O97  1  0.059515  0.802589  0.576713  1
  O  O98  1  0.366940  0.173666  0.419030  1
  O  O99  1  0.870887  0.690923  0.001666  1
  O  O100  1  0.334793  0.973178  0.001091  1
  O  O101  1  0.961044  0.175277  0.745886  1
  O  O102  1  0.475143  0.669893  0.834297  1
  O  O103  1  0.362091  0.197416  0.076726  1
  O  O104  1  0.822219  0.473758  0.917804  1
  O  O105  1  0.681824  0.013377  0.830300  1
