# generated using pymatgen
data_H6S(NO2)2
_symmetry_space_group_name_H-M   'P 1'
_cell_length_a   5.54446049
_cell_length_b   8.19895542
_cell_length_c   9.21762347
_cell_angle_alpha   90.00000000
_cell_angle_beta   90.00000000
_cell_angle_gamma   90.00000000
_symmetry_Int_Tables_number   1
_chemical_formula_structural   H6S(NO2)2
_chemical_formula_sum   'H24 S4 N8 O16'
_cell_volume   419.02195787
_cell_formula_units_Z   4
loop_
 _symmetry_equiv_pos_site_id
 _symmetry_equiv_pos_as_xyz
  1  'x, y, z'
loop_
 _atom_site_type_symbol
 _atom_site_label
 _atom_site_symmetry_multiplicity
 _atom_site_fract_x
 _atom_site_fract_y
 _atom_site_fract_z
 _atom_site_occupancy
  H  H0  1  0.267581  0.964798  0.433658  1
  H  H1  1  0.232419  0.035202  0.933658  1
  H  H2  1  0.767581  0.535202  0.566342  1
  H  H3  1  0.732419  0.464798  0.066342  1
  H  H4  1  0.042536  0.988712  0.311407  1
  H  H5  1  0.457464  0.011288  0.811407  1
  H  H6  1  0.542536  0.511288  0.688593  1
  H  H7  1  0.957464  0.488712  0.188593  1
  H  H8  1  0.319625  0.927453  0.250973  1
  H  H9  1  0.180375  0.072547  0.750973  1
  H  H10  1  0.819625  0.572547  0.749027  1
  H  H11  1  0.680375  0.427453  0.249027  1
  H  H12  1  0.266729  0.199624  0.198933  1
  H  H13  1  0.233271  0.800376  0.698933  1
  H  H14  1  0.766729  0.300376  0.801067  1
  H  H15  1  0.733271  0.699624  0.301067  1
  H  H16  1  0.205256  0.245360  0.375343  1
  H  H17  1  0.294744  0.754640  0.875343  1
  H  H18  1  0.705256  0.254640  0.624657  1
  H  H19  1  0.794744  0.745360  0.124657  1
  H  H20  1  0.487039  0.170423  0.322748  1
  H  H21  1  0.012961  0.829577  0.822748  1
  H  H22  1  0.987039  0.329577  0.677252  1
  H  H23  1  0.512961  0.670423  0.177252  1
  S  S24  1  0.247740  0.549390  0.426511  1
  S  S25  1  0.252260  0.450610  0.926511  1
  S  S26  1  0.747740  0.950610  0.573489  1
  S  S27  1  0.752260  0.049390  0.073489  1
  N  N28  1  0.227445  0.997538  0.327557  1
  N  N29  1  0.272555  0.002462  0.827557  1
  N  N30  1  0.727445  0.502462  0.672443  1
  N  N31  1  0.772555  0.497538  0.172443  1
  N  N32  1  0.301463  0.163342  0.306266  1
  N  N33  1  0.198537  0.836658  0.806266  1
  N  N34  1  0.801463  0.336658  0.693734  1
  N  N35  1  0.698537  0.663342  0.193734  1
  O  O36  1  0.490106  0.470192  0.410771  1
  O  O37  1  0.009894  0.529808  0.910771  1
  O  O38  1  0.990106  0.029808  0.589229  1
  O  O39  1  0.509894  0.970192  0.089229  1
  O  O40  1  0.237013  0.644178  0.563211  1
  O  O41  1  0.262987  0.355822  0.063211  1
  O  O42  1  0.737013  0.855822  0.436789  1
  O  O43  1  0.762987  0.144178  0.936789  1
  O  O44  1  0.198954  0.654330  0.297543  1
  O  O45  1  0.301046  0.345670  0.797543  1
  O  O46  1  0.698954  0.845670  0.702457  1
  O  O47  1  0.801046  0.154330  0.202457  1
  O  O48  1  0.060523  0.415385  0.432291  1
  O  O49  1  0.439477  0.584615  0.932291  1
  O  O50  1  0.560523  0.084615  0.567709  1
  O  O51  1  0.939477  0.915385  0.067710  1
