# generated using pymatgen
data_Ti10Cu7S20
_symmetry_space_group_name_H-M   'P 1'
_cell_length_a   6.66552113
_cell_length_b   6.66552138
_cell_length_c   66.83943459
_cell_angle_alpha   29.75520973
_cell_angle_beta   29.75520597
_cell_angle_gamma   29.90585427
_symmetry_Int_Tables_number   1
_chemical_formula_structural   Ti10Cu7S20
_chemical_formula_sum   'Ti10 Cu7 S20'
_cell_volume   649.68999016
_cell_formula_units_Z   1
loop_
 _symmetry_equiv_pos_site_id
 _symmetry_equiv_pos_as_xyz
  1  'x, y, z'
loop_
 _atom_site_type_symbol
 _atom_site_label
 _atom_site_symmetry_multiplicity
 _atom_site_fract_x
 _atom_site_fract_y
 _atom_site_fract_z
 _atom_site_occupancy
  Ti  Ti0  1  0.997853  0.997853  0.001010  1
  Ti  Ti1  1  -0.001179  -0.001179  0.100080  1
  Ti  Ti2  1  0.003403  0.003403  0.199770  1
  Ti  Ti3  1  0.995612  0.995612  0.300429  1
  Ti  Ti4  1  0.004499  0.004499  0.499523  1
  Ti  Ti5  1  0.000416  0.000416  0.399898  1
  Ti  Ti6  1  0.996038  0.996038  0.600351  1
  Ti  Ti7  1  0.000917  0.000917  0.699812  1
  Ti  Ti8  1  0.003474  0.003474  0.799658  1
  Ti  Ti9  1  0.001471  0.001471  0.900019  1
  Cu  Cu10  1  0.135910  0.135910  0.314983  1
  Cu  Cu11  1  0.863630  0.863630  0.185028  1
  Cu  Cu12  1  0.136017  0.136017  0.614947  1
  Cu  Cu13  1  0.863905  0.863905  0.485035  1
  Cu  Cu14  1  0.869726  0.869726  0.783535  1
  Cu  Cu15  1  0.856633  0.856633  0.885883  1
  Cu  Cu16  1  0.851076  0.851076  0.987318  1
  S  S17  1  0.249068  0.249068  0.026717  1
  S  S18  1  0.257877  0.257877  0.125605  1
  S  S19  1  0.740223  0.740223  0.074080  1
  S  S20  1  0.250034  0.250034  0.226719  1
  S  S21  1  0.746104  0.746104  0.173790  1
  S  S22  1  0.255263  0.255263  0.325834  1
  S  S23  1  0.749590  0.749590  0.273299  1
  S  S24  1  0.260579  0.260579  0.425186  1
  S  S25  1  0.739307  0.739307  0.374832  1
  S  S26  1  0.249969  0.249969  0.526736  1
  S  S27  1  0.744925  0.744925  0.474129  1
  S  S28  1  0.255144  0.255144  0.625845  1
  S  S29  1  0.749914  0.749914  0.573277  1
  S  S30  1  0.262726  0.262726  0.724818  1
  S  S31  1  0.739439  0.739439  0.674780  1
  S  S32  1  0.256629  0.256629  0.825143  1
  S  S33  1  0.742041  0.742041  0.774517  1
  S  S34  1  0.252974  0.252974  0.925931  1
  S  S35  1  0.742946  0.742946  0.874128  1
  S  S36  1  0.743846  0.743846  0.974151  1
