# generated using pymatgen
data_Co19Te34
_symmetry_space_group_name_H-M   'P 1'
_cell_length_a   64.79652436
_cell_length_b   13.72351917
_cell_length_c   9.38179116
_cell_angle_alpha   37.70092245
_cell_angle_beta   35.39980236
_cell_angle_gamma   13.95021312
_symmetry_Int_Tables_number   1
_chemical_formula_structural   Co19Te34
_chemical_formula_sum   'Co19 Te34'
_cell_volume   1165.06158726
_cell_formula_units_Z   1
loop_
 _symmetry_equiv_pos_site_id
 _symmetry_equiv_pos_as_xyz
  1  'x, y, z'
loop_
 _atom_site_type_symbol
 _atom_site_label
 _atom_site_symmetry_multiplicity
 _atom_site_fract_x
 _atom_site_fract_y
 _atom_site_fract_z
 _atom_site_occupancy
  Co  Co0  1  0.001901  0.991700  0.999950  1
  Co  Co1  1  0.059061  0.997652  0.999104  1
  Co  Co2  1  0.117382  0.999265  -0.000018  1
  Co  Co3  1  0.176475  0.001827  0.000303  1
  Co  Co4  1  0.234947  0.002842  0.000756  1
  Co  Co5  1  0.292175  0.008557  -0.000014  1
  Co  Co6  1  0.352093  0.000491  0.007570  1
  Co  Co7  1  0.411353  0.001604  0.999845  1
  Co  Co8  1  0.471492  0.999064  0.993184  1
  Co  Co9  1  0.531320  0.991980  0.999732  1
  Co  Co10  1  0.589364  0.993016  0.997596  1
  Co  Co11  1  0.647188  0.999456  0.999912  1
  Co  Co12  1  0.411260  0.001842  0.500495  1
  Co  Co13  1  0.704996  0.005984  0.002260  1
  Co  Co14  1  0.762818  0.007908  0.000327  1
  Co  Co15  1  0.822456  0.000749  0.008597  1
  Co  Co16  1  0.882768  0.998327  0.000114  1
  Co  Co17  1  0.942236  0.999472  0.990725  1
  Co  Co18  1  0.882826  0.998304  0.499593  1
  Te  Te19  1  0.050872  0.333781  0.234004  1
  Te  Te20  1  0.108941  0.335215  0.238526  1
  Te  Te21  1  0.009678  0.661871  0.755721  1
  Te  Te22  1  0.167811  0.334637  0.238702  1
  Te  Te23  1  0.068927  0.662275  0.757110  1
  Te  Te24  1  0.225209  0.338159  0.242250  1
  Te  Te25  1  0.126263  0.665672  0.761084  1
  Te  Te26  1  0.284382  0.338421  0.243810  1
  Te  Te27  1  0.185021  0.665441  0.761664  1
  Te  Te28  1  0.344335  0.336079  0.234111  1
  Te  Te29  1  0.242885  0.668041  0.765845  1
  Te  Te30  1  0.403495  0.335296  0.234681  1
  Te  Te31  1  0.302643  0.666044  0.761229  1
  Te  Te32  1  0.462786  0.328340  0.242525  1
  Te  Te33  1  0.360763  0.671991  0.757480  1
  Te  Te34  1  0.520920  0.333994  0.238415  1
  Te  Te35  1  0.420096  0.664612  0.765020  1
  Te  Te36  1  0.580716  0.332074  0.233567  1
  Te  Te37  1  0.479206  0.663713  0.765190  1
  Te  Te38  1  0.638090  0.335026  0.241080  1
  Te  Te39  1  0.538508  0.663597  0.758154  1
  Te  Te40  1  0.695856  0.337418  0.242916  1
  Te  Te41  1  0.598192  0.662385  0.757806  1
  Te  Te42  1  0.755647  0.336045  0.242494  1
  Te  Te43  1  0.656083  0.664675  0.758920  1
  Te  Te44  1  0.815308  0.335022  0.234096  1
  Te  Te45  1  0.713750  0.666052  0.766851  1
  Te  Te46  1  0.874180  0.334780  0.234279  1
  Te  Te47  1  0.773384  0.665217  0.761531  1
  Te  Te48  1  0.933393  0.327464  0.243015  1
  Te  Te49  1  0.831375  0.671986  0.756849  1
  Te  Te50  1  0.991390  0.334358  0.238515  1
  Te  Te51  1  0.890433  0.665488  0.766018  1
  Te  Te52  1  0.949470  0.664793  0.766511  1
