# generated using pymatgen
data_KP(HO2)2
_symmetry_space_group_name_H-M   'P 1'
_cell_length_a   7.32833396
_cell_length_b   7.74001315
_cell_length_c   7.69678557
_cell_angle_alpha   90.00000000
_cell_angle_beta   90.00000000
_cell_angle_gamma   90.00000000
_symmetry_Int_Tables_number   1
_chemical_formula_structural   KP(HO2)2
_chemical_formula_sum   'K4 P4 H8 O16'
_cell_volume   436.57246240
_cell_formula_units_Z   4
loop_
 _symmetry_equiv_pos_site_id
 _symmetry_equiv_pos_as_xyz
  1  'x, y, z'
loop_
 _atom_site_type_symbol
 _atom_site_label
 _atom_site_symmetry_multiplicity
 _atom_site_fract_x
 _atom_site_fract_y
 _atom_site_fract_z
 _atom_site_occupancy
  K  K0  1  0.580345  0.437250  0.497436  1
  K  K1  1  0.419655  0.937250  0.002564  1
  K  K2  1  0.919655  0.562750  0.997436  1
  K  K3  1  0.080345  0.062750  0.502564  1
  P  P4  1  0.426505  0.484503  0.017771  1
  P  P5  1  0.573495  0.984503  0.482229  1
  P  P6  1  0.926505  0.015497  0.982229  1
  P  P7  1  0.073495  0.515497  0.517771  1
  H  H8  1  0.135033  0.180443  0.103860  1
  H  H9  1  0.364967  0.819557  0.603860  1
  H  H10  1  0.317266  0.322175  0.227062  1
  H  H11  1  0.817266  0.177825  0.772938  1
  H  H12  1  0.635033  0.319557  0.896140  1
  H  H13  1  0.864967  0.680443  0.396140  1
  H  H14  1  0.682734  0.822175  0.272938  1
  H  H15  1  0.182734  0.677825  0.727062  1
  O  O16  1  0.962930  0.600126  0.356665  1
  O  O17  1  0.824532  0.187189  0.901832  1
  O  O18  1  0.057482  0.948538  0.847357  1
  O  O19  1  0.037070  0.100126  0.143335  1
  O  O20  1  0.175468  0.687189  0.598168  1
  O  O21  1  0.442518  0.051462  0.347357  1
  O  O22  1  0.557482  0.551462  0.152643  1
  O  O23  1  0.712680  0.105161  0.560698  1
  O  O24  1  0.675468  0.812811  0.401832  1
  O  O25  1  0.324532  0.312811  0.098168  1
  O  O26  1  0.537070  0.399874  0.856665  1
  O  O27  1  0.212680  0.394839  0.439302  1
  O  O28  1  0.462930  0.899874  0.643335  1
  O  O29  1  0.787320  0.894839  0.060698  1
  O  O30  1  0.287320  0.605161  0.939302  1
  O  O31  1  0.942518  0.448538  0.652643  1
