# generated using pymatgen
data_Na3Sr14Nd3Ti20O60
_symmetry_space_group_name_H-M   'P 1'
_cell_length_a   5.53353728
_cell_length_b   5.53353708
_cell_length_c   55.57971284
_cell_angle_alpha   119.83743584
_cell_angle_beta   119.83743462
_cell_angle_gamma   90.02448887
_symmetry_Int_Tables_number   1
_chemical_formula_structural   Na3Sr14Nd3Ti20O60
_chemical_formula_sum   'Na3 Sr14 Nd3 Ti20 O60'
_cell_volume   1209.02765262
_cell_formula_units_Z   1
loop_
 _symmetry_equiv_pos_site_id
 _symmetry_equiv_pos_as_xyz
  1  'x, y, z'
loop_
 _atom_site_type_symbol
 _atom_site_label
 _atom_site_symmetry_multiplicity
 _atom_site_fract_x
 _atom_site_fract_y
 _atom_site_fract_z
 _atom_site_occupancy
  Na  Na0  1  0.741558  0.241558  0.948311  1
  Na  Na1  1  0.751484  0.251484  0.850287  1
  Na  Na2  1  0.764882  0.264882  0.752993  1
  Sr  Sr3  1  0.258981  0.758981  0.751799  1
  Sr  Sr4  1  0.258188  0.758188  0.651639  1
  Sr  Sr5  1  0.249608  0.749608  0.549922  1
  Sr  Sr6  1  0.248929  0.748929  0.449784  1
  Sr  Sr7  1  0.747153  0.247153  0.549431  1
  Sr  Sr8  1  0.248303  0.748303  0.349658  1
  Sr  Sr9  1  0.749294  0.249294  0.449859  1
  Sr  Sr10  1  0.247323  0.747323  0.249464  1
  Sr  Sr11  1  0.748286  0.248286  0.349657  1
  Sr  Sr12  1  0.245676  0.745676  0.149134  1
  Sr  Sr13  1  0.747387  0.247387  0.249478  1
  Sr  Sr14  1  0.242688  0.742688  0.048536  1
  Sr  Sr15  1  0.745340  0.245340  0.149068  1
  Sr  Sr16  1  0.743781  0.243781  0.048755  1
  Nd  Nd17  1  0.246310  0.746310  0.949252  1
  Nd  Nd18  1  0.243040  0.743040  0.848610  1
  Nd  Nd19  1  0.760354  0.260354  0.652084  1
  Ti  Ti20  1  0.003487  0.003494  0.800701  1
  Ti  Ti21  1  0.494767  0.494723  0.898943  1
  Ti  Ti22  1  0.012509  0.012497  0.702506  1
  Ti  Ti23  1  0.503494  0.503487  0.800701  1
  Ti  Ti24  1  0.994723  0.994767  0.898943  1
  Ti  Ti25  1  0.002507  0.002510  0.600504  1
  Ti  Ti26  1  0.512497  0.512509  0.702506  1
  Ti  Ti27  1  0.998123  0.998121  0.499624  1
  Ti  Ti28  1  0.502510  0.502507  0.600504  1
  Ti  Ti29  1  0.996247  0.996247  0.399248  1
  Ti  Ti30  1  0.498121  0.498123  0.499624  1
  Ti  Ti31  1  0.995390  0.995396  0.299077  1
  Ti  Ti32  1  0.496247  0.496247  0.399248  1
  Ti  Ti33  1  0.993882  0.993881  0.198777  1
  Ti  Ti34  1  0.495396  0.495390  0.299077  1
  Ti  Ti35  1  0.991230  0.991232  0.098245  1
  Ti  Ti36  1  0.493881  0.493882  0.198777  1
  Ti  Ti37  1  0.987345  0.987363  0.997462  1
  Ti  Ti38  1  0.491232  0.491230  0.098245  1
  Ti  Ti39  1  0.487364  0.487345  0.997462  1
  O  O40  1  0.246778  0.246750  0.949358  1
  O  O41  1  0.207336  0.312748  0.902013  1
  O  O42  1  0.292893  0.792893  0.897962  1
  O  O43  1  0.253403  0.253450  0.850686  1
  O  O44  1  0.746750  0.746778  0.949358  1
  O  O45  1  0.225681  0.298583  0.802427  1
  O  O46  1  0.686676  0.186676  0.897958  1
  O  O47  1  0.285470  0.785470  0.801452  1
  O  O48  1  0.812748  0.707336  0.902013  1
  O  O49  1  0.251604  0.251610  0.750321  1
  O  O50  1  0.753450  0.753403  0.850686  1
  O  O51  1  0.206909  0.273662  0.698054  1
  O  O52  1  0.729038  0.229038  0.801446  1
  O  O53  1  0.264035  0.764035  0.698962  1
  O  O54  1  0.798583  0.725681  0.802427  1
  O  O55  1  0.250922  0.250898  0.650177  1
  O  O56  1  0.751610  0.751604  0.750321  1
  O  O57  1  0.219480  0.287837  0.600730  1
  O  O58  1  0.725599  0.225599  0.698958  1
  O  O59  1  0.304967  0.804967  0.602596  1
  O  O60  1  0.773662  0.706909  0.698054  1
  O  O61  1  0.255839  0.255843  0.551167  1
  O  O62  1  0.750898  0.750922  0.650177  1
  O  O63  1  0.232596  0.274225  0.500682  1
  O  O64  1  0.721014  0.221014  0.602598  1
  O  O65  1  0.274924  0.774924  0.500799  1
  O  O66  1  0.787837  0.719480  0.600730  1
  O  O67  1  0.253888  0.253897  0.450779  1
  O  O68  1  0.755843  0.755839  0.551167  1
  O  O69  1  0.231730  0.273249  0.400498  1
  O  O70  1  0.733051  0.233051  0.500797  1
  O  O71  1  0.273323  0.773323  0.400519  1
  O  O72  1  0.774225  0.732596  0.500682  1
  O  O73  1  0.252500  0.252510  0.350502  1
  O  O74  1  0.753897  0.753888  0.450779  1
  O  O75  1  0.230775  0.272469  0.300325  1
  O  O76  1  0.731852  0.231852  0.400516  1
  O  O77  1  0.272428  0.772428  0.300320  1
  O  O78  1  0.773249  0.731730  0.400498  1
  O  O79  1  0.251336  0.251342  0.250268  1
  O  O80  1  0.752510  0.752500  0.350502  1
  O  O81  1  0.229729  0.271497  0.200122  1
  O  O82  1  0.730754  0.230754  0.300318  1
  O  O83  1  0.271337  0.771337  0.200094  1
  O  O84  1  0.772469  0.730775  0.300325  1
  O  O85  1  0.249549  0.249555  0.149911  1
  O  O86  1  0.751342  0.751336  0.250268  1
  O  O87  1  0.227492  0.269879  0.099737  1
  O  O88  1  0.729590  0.229590  0.200092  1
  O  O89  1  0.268361  0.768361  0.099403  1
  O  O90  1  0.771497  0.729729  0.200122  1
  O  O91  1  0.246334  0.246336  0.049268  1
  O  O92  1  0.749555  0.749549  0.149911  1
  O  O93  1  0.218379  0.276296  0.999471  1
  O  O94  1  0.725657  0.225657  0.099401  1
  O  O95  1  0.278552  0.778552  0.997462  1
  O  O96  1  0.769879  0.727492  0.099737  1
  O  O97  1  0.746336  0.746334  0.049268  1
  O  O98  1  0.696065  0.196065  0.997464  1
  O  O99  1  0.776296  0.718379  0.999471  1
