# generated using pymatgen
data_Rb2ZnCl3
_symmetry_space_group_name_H-M   'P 1'
_cell_length_a   9.13263733
_cell_length_b   11.66087569
_cell_length_c   9.59307732
_cell_angle_alpha   90.00000000
_cell_angle_beta   90.00000000
_cell_angle_gamma   82.14283318
_symmetry_Int_Tables_number   1
_chemical_formula_structural   Rb2ZnCl3
_chemical_formula_sum   'Rb8 Zn4 Cl12'
_cell_volume   1012.01949655
_cell_formula_units_Z   4
loop_
 _symmetry_equiv_pos_site_id
 _symmetry_equiv_pos_as_xyz
  1  'x, y, z'
loop_
 _atom_site_type_symbol
 _atom_site_label
 _atom_site_symmetry_multiplicity
 _atom_site_fract_x
 _atom_site_fract_y
 _atom_site_fract_z
 _atom_site_occupancy
  Rb  Rb0  1  0.349977  0.458271  0.778862  1
  Rb  Rb1  1  0.256803  0.183752  0.155848  1
  Rb  Rb2  1  0.349977  0.958271  0.721138  1
  Rb  Rb3  1  0.256803  0.683752  0.344152  1
  Rb  Rb4  1  0.808879  0.773767  0.782228  1
  Rb  Rb5  1  0.808879  0.273767  0.717772  1
  Rb  Rb6  1  0.773045  0.036270  0.383416  1
  Rb  Rb7  1  0.773045  0.536270  0.116584  1
  Zn  Zn8  1  0.141085  0.192240  0.518278  1
  Zn  Zn9  1  0.141085  0.692240  0.981722  1
  Zn  Zn10  1  0.562951  0.822875  0.220579  1
  Zn  Zn11  1  0.562951  0.322875  0.279421  1
  Cl  Cl12  1  0.417590  0.960411  0.353718  1
  Cl  Cl13  1  0.423983  0.803324  0.024219  1
  Cl  Cl14  1  0.417590  0.460411  0.146282  1
  Cl  Cl15  1  0.423983  0.303324  0.475781  1
  Cl  Cl16  1  0.679220  0.028591  0.696944  1
  Cl  Cl17  1  0.604674  0.670056  0.376926  1
  Cl  Cl18  1  0.679220  0.528591  0.803056  1
  Cl  Cl19  1  0.604674  0.170056  0.123074  1
  Cl  Cl20  1  0.150361  0.232375  0.841404  1
  Cl  Cl21  1  0.150361  0.732375  0.658596  1
  Cl  Cl22  1  0.801331  0.333968  0.354578  1
  Cl  Cl23  1  0.801331  0.833968  0.145422  1
