# generated using pymatgen
data_Ti20H2N17
_symmetry_space_group_name_H-M   'P 1'
_cell_length_a   3.01282295
_cell_length_b   30.02983287
_cell_length_c   24.57285888
_cell_angle_alpha   12.23176841
_cell_angle_beta   56.52665709
_cell_angle_gamma   59.90763099
_symmetry_Int_Tables_number   1
_chemical_formula_structural   Ti20H2N17
_chemical_formula_sum   'Ti20 H2 N17'
_cell_volume   383.89161822
_cell_formula_units_Z   1
loop_
 _symmetry_equiv_pos_site_id
 _symmetry_equiv_pos_as_xyz
  1  'x, y, z'
loop_
 _atom_site_type_symbol
 _atom_site_label
 _atom_site_symmetry_multiplicity
 _atom_site_fract_x
 _atom_site_fract_y
 _atom_site_fract_z
 _atom_site_occupancy
  Ti  Ti0  1  0.504215  0.077553  0.245644  1
  Ti  Ti1  1  0.498877  0.161915  0.264579  1
  Ti  Ti2  1  0.483907  0.270651  0.258461  1
  Ti  Ti3  1  0.513552  0.378748  0.242935  1
  Ti  Ti4  1  0.500491  0.485972  0.237590  1
  Ti  Ti5  1  0.496535  0.013857  0.762970  1
  Ti  Ti6  1  0.493463  0.121623  0.754804  1
  Ti  Ti7  1  0.493951  0.572129  0.254178  1
  Ti  Ti8  1  0.505097  0.227691  0.745565  1
  Ti  Ti9  1  0.505471  0.677791  0.245477  1
  Ti  Ti10  1  0.500951  0.785753  0.237423  1
  Ti  Ti11  1  0.498195  0.313305  0.762898  1
  Ti  Ti12  1  0.492452  0.873680  0.252561  1
  Ti  Ti13  1  0.484644  0.420884  0.757390  1
  Ti  Ti14  1  0.514067  0.529573  0.741156  1
  Ti  Ti15  1  0.497934  0.973847  0.251206  1
  Ti  Ti16  1  0.499350  0.638485  0.734753  1
  Ti  Ti17  1  0.493864  0.722531  0.754139  1
  Ti  Ti18  1  0.500184  0.826506  0.748193  1
  Ti  Ti19  1  0.506497  0.926524  0.746889  1
  H  H20  1  0.991643  0.246544  0.504946  1
  H  H21  1  0.003112  0.547718  0.501942  1
  N  N22  1  0.001609  0.998818  0.000580  1
  N  N23  1  0.001050  0.101013  0.998144  1
  N  N24  1  0.002950  0.201876  0.996694  1
  N  N25  1  0.993384  0.301922  0.998698  1
  N  N26  1  0.005018  0.498628  0.000472  1
  N  N27  1  0.995840  0.598336  0.002815  1
  N  N28  1  0.005833  0.053963  0.494297  1
  N  N29  1  0.997658  0.698668  0.001885  1
  N  N30  1  0.995504  0.150482  0.500509  1
  N  N31  1  0.996621  0.800257  0.000231  1
  N  N32  1  0.001978  0.349031  0.500305  1
  N  N33  1  0.996580  0.450638  0.499755  1
  N  N34  1  0.998514  0.899396  0.000699  1
  N  N35  1  0.002854  0.649332  0.499520  1
  N  N36  1  0.992763  0.746620  0.504756  1
  N  N37  1  0.996483  0.846487  0.504147  1
  N  N38  1  0.002138  0.954037  0.494968  1
