# generated using pymatgen
data_Zr2FeH5
_symmetry_space_group_name_H-M   'P 1'
_cell_length_a   6.92016567
_cell_length_b   6.92021954
_cell_length_c   5.65283359
_cell_angle_alpha   89.99995095
_cell_angle_beta   90.00029876
_cell_angle_gamma   90.00013901
_symmetry_Int_Tables_number   1
_chemical_formula_structural   Zr2FeH5
_chemical_formula_sum   'Zr8 Fe4 H20'
_cell_volume   270.70891912
_cell_formula_units_Z   4
loop_
 _symmetry_equiv_pos_site_id
 _symmetry_equiv_pos_as_xyz
  1  'x, y, z'
loop_
 _atom_site_type_symbol
 _atom_site_label
 _atom_site_symmetry_multiplicity
 _atom_site_fract_x
 _atom_site_fract_y
 _atom_site_fract_z
 _atom_site_occupancy
  Zr  Zr0  1  0.088236  0.911674  0.249904  1
  Zr  Zr1  1  0.411774  0.911654  0.750099  1
  Zr  Zr2  1  0.088236  0.588339  0.750085  1
  Zr  Zr3  1  0.411766  0.588324  0.249898  1
  Zr  Zr4  1  0.911657  0.088234  0.750096  1
  Zr  Zr5  1  0.588327  0.088237  0.249906  1
  Zr  Zr6  1  0.911678  0.411759  0.249908  1
  Zr  Zr7  1  0.588346  0.411764  0.750091  1
  Fe  Fe8  1  0.750007  0.749983  0.487690  1
  Fe  Fe9  1  0.749998  0.750009  0.987572  1
  Fe  Fe10  1  0.249986  0.250002  0.512618  1
  Fe  Fe11  1  0.250007  0.250011  0.012513  1
  H  H12  1  0.750000  0.249999  0.499946  1
  H  H13  1  0.750000  0.249999  0.999980  1
  H  H14  1  0.249998  0.749999  0.999975  1
  H  H15  1  0.250001  0.750001  0.499945  1
  H  H16  1  0.667251  0.536632  0.427084  1
  H  H17  1  0.832799  0.536525  0.927047  1
  H  H18  1  0.667199  0.963476  0.927048  1
  H  H19  1  0.832752  0.963372  0.427086  1
  H  H20  1  0.536525  0.667200  0.927046  1
  H  H21  1  0.963367  0.667249  0.427083  1
  H  H22  1  0.536629  0.832752  0.427084  1
  H  H23  1  0.963477  0.832802  0.927050  1
  H  H24  1  0.332835  0.463596  0.572932  1
  H  H25  1  0.167236  0.463418  0.072879  1
  H  H26  1  0.332764  0.036591  0.072875  1
  H  H27  1  0.167160  0.036402  0.572939  1
  H  H28  1  0.463411  0.332765  0.072876  1
  H  H29  1  0.036402  0.332836  0.572935  1
  H  H30  1  0.463592  0.167162  0.572933  1
  H  H31  1  0.036585  0.167235  0.072877  1
