# generated using pymatgen
data_UO3
_symmetry_space_group_name_H-M   'P 1'
_cell_length_a   4.07455608
_cell_length_b   10.48608921
_cell_length_c   14.50997867
_cell_angle_alpha   90.00000000
_cell_angle_beta   90.00000000
_cell_angle_gamma   97.47673638
_symmetry_Int_Tables_number   1
_chemical_formula_structural   UO3
_chemical_formula_sum   'U10 O30'
_cell_volume   614.68464820
_cell_formula_units_Z   10
loop_
 _symmetry_equiv_pos_site_id
 _symmetry_equiv_pos_as_xyz
  1  'x, y, z'
loop_
 _atom_site_type_symbol
 _atom_site_label
 _atom_site_symmetry_multiplicity
 _atom_site_fract_x
 _atom_site_fract_y
 _atom_site_fract_z
 _atom_site_occupancy
  U  U0  1  0.655280  0.334397  0.497860  1
  U  U1  1  0.798324  0.198534  0.233869  1
  U  U2  1  0.002600  0.001372  0.481843  1
  U  U3  1  0.839796  0.656961  0.217669  1
  U  U4  1  0.614561  0.300826  0.957730  1
  U  U5  1  0.344720  0.665603  0.997860  1
  U  U6  1  0.160204  0.343039  0.717669  1
  U  U7  1  0.385439  0.699174  0.457730  1
  U  U8  1  0.997400  0.998628  0.981843  1
  U  U9  1  0.201676  0.801466  0.733869  1
  O  O10  1  0.338536  0.650520  0.144607  1
  O  O11  1  0.703645  0.528046  0.477832  1
  O  O12  1  0.097055  0.170581  0.722202  1
  O  O13  1  0.801760  0.702368  0.725909  1
  O  O14  1  0.422905  0.860420  0.012262  1
  O  O15  1  0.224818  0.516004  0.717769  1
  O  O16  1  0.648066  0.282282  0.086450  1
  O  O17  1  0.995741  0.075683  0.366093  1
  O  O18  1  0.309380  0.700928  0.860966  1
  O  O19  1  0.092650  0.227797  0.936806  1
  O  O20  1  0.461331  0.910193  0.457295  1
  O  O21  1  0.547504  0.926672  0.736394  1
  O  O22  1  0.661464  0.349480  0.644607  1
  O  O23  1  0.775182  0.483996  0.217769  1
  O  O24  1  0.643936  0.342303  0.826686  1
  O  O25  1  0.577095  0.139580  0.512262  1
  O  O26  1  0.296355  0.471954  0.977832  1
  O  O27  1  0.351934  0.717718  0.586450  1
  O  O28  1  0.452496  0.073328  0.236394  1
  O  O29  1  0.356064  0.657697  0.326686  1
  O  O30  1  0.907350  0.772203  0.436806  1
  O  O31  1  0.152715  0.327876  0.535200  1
  O  O32  1  0.847285  0.672124  0.035200  1
  O  O33  1  0.198240  0.297632  0.225909  1
  O  O34  1  0.017714  0.938981  0.600557  1
  O  O35  1  0.690620  0.299072  0.360966  1
  O  O36  1  0.004259  0.924317  0.866093  1
  O  O37  1  0.982286  0.061019  0.100557  1
  O  O38  1  0.902945  0.829419  0.222202  1
  O  O39  1  0.538669  0.089807  0.957295  1
