# generated using pymatgen
data_Yb2FeS4
_symmetry_space_group_name_H-M   'P 1'
_cell_length_a   7.74841183
_cell_length_b   7.76747945
_cell_length_c   31.14527647
_cell_angle_alpha   59.99313303
_cell_angle_beta   59.75822400
_cell_angle_gamma   59.78890729
_symmetry_Int_Tables_number   1
_chemical_formula_structural   Yb2FeS4
_chemical_formula_sum   'Yb16 Fe8 S32'
_cell_volume   1320.84739539
_cell_formula_units_Z   8
loop_
 _symmetry_equiv_pos_site_id
 _symmetry_equiv_pos_as_xyz
  1  'x, y, z'
loop_
 _atom_site_type_symbol
 _atom_site_label
 _atom_site_symmetry_multiplicity
 _atom_site_fract_x
 _atom_site_fract_y
 _atom_site_fract_z
 _atom_site_occupancy
  Yb  Yb0  1  0.124393  0.625071  0.032784  1
  Yb  Yb1  1  0.625007  0.126619  0.030801  1
  Yb  Yb2  1  0.622398  0.624638  0.031781  1
  Yb  Yb3  1  0.626731  0.130580  0.154888  1
  Yb  Yb4  1  0.621104  0.620251  0.157642  1
  Yb  Yb5  1  0.626231  0.626541  0.280384  1
  Yb  Yb6  1  0.624880  0.125505  0.406105  1
  Yb  Yb7  1  0.113312  0.623339  0.660018  1
  Yb  Yb8  1  0.624956  0.625274  0.406089  1
  Yb  Yb9  1  0.620230  0.122329  0.657684  1
  Yb  Yb10  1  0.632412  0.623170  0.530306  1
  Yb  Yb11  1  0.620232  0.626635  0.657703  1
  Yb  Yb12  1  0.119855  0.627576  0.904805  1
  Yb  Yb13  1  0.620864  0.121506  0.907336  1
  Yb  Yb14  1  0.620054  0.627430  0.781132  1
  Yb  Yb15  1  0.626128  0.629477  0.905186  1
  Fe  Fe16  1  0.028192  0.988779  0.248396  1
  Fe  Fe17  1  0.217845  0.259445  0.315951  1
  Fe  Fe18  1  0.033081  0.989911  0.496680  1
  Fe  Fe19  1  0.627306  0.125233  0.280722  1
  Fe  Fe20  1  0.218568  0.260713  0.565105  1
  Fe  Fe21  1  0.628332  0.128976  0.528453  1
  Fe  Fe22  1  0.230062  0.259518  0.812836  1
  Fe  Fe23  1  0.706427  0.096763  0.774955  1
  S  S24  1  0.372641  0.374783  0.095733  1
  S  S25  1  0.392491  0.343620  0.229680  1
  S  S26  1  0.373529  0.865571  0.096065  1
  S  S27  1  0.867661  0.378674  0.095117  1
  S  S28  1  0.395465  0.348454  0.336861  1
  S  S29  1  0.366974  0.877158  0.220077  1
  S  S30  1  0.856534  0.334475  0.225927  1
  S  S31  1  0.391941  0.350427  0.476849  1
  S  S32  1  0.866279  0.867866  0.098278  1
  S  S33  1  0.395464  0.908694  0.336818  1
  S  S34  1  0.871007  0.377342  0.343525  1
  S  S35  1  0.856663  0.905313  0.225979  1
  S  S36  1  0.382585  0.360434  0.589496  1
  S  S37  1  0.379965  0.872817  0.468630  1
  S  S38  1  0.861462  0.342638  0.473999  1
  S  S39  1  0.857712  0.901580  0.334893  1
  S  S40  1  0.373460  0.365517  0.723866  1
  S  S41  1  0.382625  0.898559  0.589573  1
  S  S42  1  0.873834  0.374677  0.594181  1
  S  S43  1  0.861439  0.900015  0.474079  1
  S  S44  1  0.380055  0.356487  0.838753  1
  S  S45  1  0.387183  0.870961  0.717789  1
  S  S46  1  0.860124  0.355386  0.723144  1
  S  S47  1  0.868924  0.891831  0.586808  1
  S  S48  1  0.376319  0.385331  0.964579  1
  S  S49  1  0.379854  0.908475  0.838786  1
  S  S50  1  0.887153  0.371219  0.842290  1
  S  S51  1  0.859951  0.891792  0.723104  1
  S  S52  1  0.379975  0.871615  0.968152  1
  S  S53  1  0.871443  0.383794  0.967534  1
  S  S54  1  0.859545  0.901003  0.835231  1
  S  S55  1  0.876142  0.873215  0.967715  1
