# generated using pymatgen
data_Zn(HO)2
_symmetry_space_group_name_H-M   'P 1'
_cell_length_a   4.87176463
_cell_length_b   8.75225514
_cell_length_c   5.06348099
_cell_angle_alpha   90.00000000
_cell_angle_beta   90.00000000
_cell_angle_gamma   90.00000000
_symmetry_Int_Tables_number   1
_chemical_formula_structural   Zn(HO)2
_chemical_formula_sum   'Zn4 H8 O8'
_cell_volume   215.90139642
_cell_formula_units_Z   4
loop_
 _symmetry_equiv_pos_site_id
 _symmetry_equiv_pos_as_xyz
  1  'x, y, z'
loop_
 _atom_site_type_symbol
 _atom_site_label
 _atom_site_symmetry_multiplicity
 _atom_site_fract_x
 _atom_site_fract_y
 _atom_site_fract_z
 _atom_site_occupancy
  Zn  Zn0  1  0.682430  0.626610  0.107774  1
  Zn  Zn1  1  0.817570  0.373390  0.607774  1
  Zn  Zn2  1  0.182430  0.873390  0.892226  1
  Zn  Zn3  1  0.317570  0.126610  0.392226  1
  H  H4  1  0.492591  0.591643  0.574785  1
  H  H5  1  0.007409  0.408357  0.074785  1
  H  H6  1  0.992591  0.908357  0.425215  1
  H  H7  1  0.507409  0.091643  0.925215  1
  H  H8  1  0.719081  0.902717  0.108060  1
  H  H9  1  0.780919  0.097283  0.608060  1
  H  H10  1  0.219081  0.597283  0.891940  1
  H  H11  1  0.280919  0.402717  0.391940  1
  O  O12  1  0.561714  0.521039  0.433887  1
  O  O13  1  0.938286  0.478961  0.933887  1
  O  O14  1  0.061714  0.978961  0.566113  1
  O  O15  1  0.438286  0.021039  0.066113  1
  O  O16  1  0.870869  0.827116  0.138227  1
  O  O17  1  0.629131  0.172884  0.638227  1
  O  O18  1  0.370869  0.672884  0.861773  1
  O  O19  1  0.129131  0.327116  0.361773  1
