# generated using pymatgen
data_Ba2LaCu3O7
_symmetry_space_group_name_H-M   'P 1'
_cell_length_a   3.91203274
_cell_length_b   3.97857459
_cell_length_c   11.90092453
_cell_angle_alpha   89.99991697
_cell_angle_beta   90.00020453
_cell_angle_gamma   90.00032633
_symmetry_Int_Tables_number   1
_chemical_formula_structural   Ba2LaCu3O7
_chemical_formula_sum   'Ba2 La1 Cu3 O7'
_cell_volume   185.22972692
_cell_formula_units_Z   1
loop_
 _symmetry_equiv_pos_site_id
 _symmetry_equiv_pos_as_xyz
  1  'x, y, z'
loop_
 _atom_site_type_symbol
 _atom_site_label
 _atom_site_symmetry_multiplicity
 _atom_site_fract_x
 _atom_site_fract_y
 _atom_site_fract_z
 _atom_site_occupancy
  Ba  Ba0  1  0.500006  0.499995  0.179119  1
  Ba  Ba1  1  0.500000  0.500002  0.820744  1
  La  La2  1  0.499996  0.499997  0.500103  1
  Cu  Cu3  1  0.000002  0.000000  0.344410  1
  Cu  Cu4  1  0.000001  -0.000000  0.655453  1
  Cu  Cu5  1  0.000003  0.999995  0.000060  1
  O  O6  1  0.000002  0.000001  0.842499  1
  O  O7  1  0.999995  0.499999  0.999989  1
  O  O8  1  0.999996  0.500002  0.366420  1
  O  O9  1  0.499998  0.000004  0.631042  1
  O  O10  1  0.000005  -0.000001  0.157652  1
  O  O11  1  0.999995  0.500002  0.633463  1
  O  O12  1  0.500001  0.000002  0.369045  1
