# generated using pymatgen
data_Nd4Si4N7ClO3
_symmetry_space_group_name_H-M   'P 1'
_cell_length_a   10.55743101
_cell_length_b   10.38525838
_cell_length_c   10.42901384
_cell_angle_alpha   90.00000000
_cell_angle_beta   90.00000000
_cell_angle_gamma   90.00000000
_symmetry_Int_Tables_number   1
_chemical_formula_structural   Nd4Si4N7ClO3
_chemical_formula_sum   'Nd16 Si16 N28 Cl4 O12'
_cell_volume   1143.45427348
_cell_formula_units_Z   4
loop_
 _symmetry_equiv_pos_site_id
 _symmetry_equiv_pos_as_xyz
  1  'x, y, z'
loop_
 _atom_site_type_symbol
 _atom_site_label
 _atom_site_symmetry_multiplicity
 _atom_site_fract_x
 _atom_site_fract_y
 _atom_site_fract_z
 _atom_site_occupancy
  Nd  Nd0  1  0.043821  0.816787  0.689908  1
  Nd  Nd1  1  0.102210  0.108005  0.108929  1
  Nd  Nd2  1  0.178663  0.193480  0.449911  1
  Nd  Nd3  1  0.189317  0.454672  0.185565  1
  Nd  Nd4  1  0.310683  0.545328  0.685565  1
  Nd  Nd5  1  0.321337  0.806520  0.949911  1
  Nd  Nd6  1  0.397790  0.891995  0.608929  1
  Nd  Nd7  1  0.456179  0.183213  0.189908  1
  Nd  Nd8  1  0.543821  0.683213  0.310092  1
  Nd  Nd9  1  0.602210  0.391995  0.891071  1
  Nd  Nd10  1  0.678663  0.306520  0.550089  1
  Nd  Nd11  1  0.689317  0.045328  0.814435  1
  Nd  Nd12  1  0.810683  0.954672  0.314435  1
  Nd  Nd13  1  0.821337  0.693480  0.050089  1
  Nd  Nd14  1  0.897790  0.608005  0.391071  1
  Nd  Nd15  1  0.956179  0.316787  0.810092  1
  Si  Si16  1  0.069761  0.570111  0.930071  1
  Si  Si17  1  0.075735  0.746783  0.198499  1
  Si  Si18  1  0.196298  0.080203  0.742990  1
  Si  Si19  1  0.244434  0.303256  0.919735  1
  Si  Si20  1  0.255566  0.696744  0.419735  1
  Si  Si21  1  0.303702  0.919797  0.242990  1
  Si  Si22  1  0.424265  0.253217  0.698499  1
  Si  Si23  1  0.430239  0.429889  0.430071  1
  Si  Si24  1  0.569761  0.929889  0.069929  1
  Si  Si25  1  0.575735  0.753217  0.801501  1
  Si  Si26  1  0.696298  0.419797  0.257010  1
  Si  Si27  1  0.744434  0.196744  0.080265  1
  Si  Si28  1  0.755566  0.803256  0.580265  1
  Si  Si29  1  0.803702  0.580203  0.757010  1
  Si  Si30  1  0.924265  0.246783  0.301501  1
  Si  Si31  1  0.930239  0.070111  0.569929  1
  N  N32  1  0.053500  0.632226  0.079854  1
  N  N33  1  0.076281  0.286720  0.259485  1
  N  N34  1  0.078705  0.050789  0.633264  1
  N  N35  1  0.130361  0.650700  0.326937  1
  N  N36  1  0.132052  0.419227  0.945751  1
  N  N37  1  0.151294  0.172969  0.871466  1
  N  N38  1  0.175095  0.870609  0.152152  1
  N  N39  1  0.324905  0.129391  0.652152  1
  N  N40  1  0.348706  0.827031  0.371466  1
  N  N41  1  0.367948  0.580773  0.445751  1
  N  N42  1  0.369639  0.349300  0.826937  1
  N  N43  1  0.421295  0.949211  0.133264  1
  N  N44  1  0.423719  0.713280  0.759485  1
  N  N45  1  0.446500  0.367774  0.579854  1
  N  N46  1  0.553500  0.867774  0.920146  1
  N  N47  1  0.576281  0.213280  0.740515  1
  N  N48  1  0.578705  0.449211  0.366736  1
  N  N49  1  0.630361  0.849300  0.673063  1
  N  N50  1  0.632052  0.080773  0.054249  1
  N  N51  1  0.651294  0.327031  0.128534  1
  N  N52  1  0.675095  0.629391  0.847848  1
  N  N53  1  0.824905  0.370609  0.347848  1
  N  N54  1  0.848706  0.672969  0.628534  1
  N  N55  1  0.867948  0.919227  0.554249  1
  N  N56  1  0.869639  0.150700  0.173063  1
  N  N57  1  0.921295  0.550789  0.866736  1
  N  N58  1  0.923719  0.786720  0.240515  1
  N  N59  1  0.946500  0.132226  0.420146  1
  Cl  Cl60  1  0.072573  0.425193  0.576525  1
  Cl  Cl61  1  0.427427  0.574807  0.076525  1
  Cl  Cl62  1  0.572573  0.074807  0.423475  1
  Cl  Cl63  1  0.927427  0.925193  0.923475  1
  O  O64  1  0.158813  0.663853  0.836597  1
  O  O65  1  0.209749  0.739259  0.569220  1
  O  O66  1  0.235731  0.929109  0.787506  1
  O  O67  1  0.264269  0.070891  0.287506  1
  O  O68  1  0.290251  0.260741  0.069220  1
  O  O69  1  0.341187  0.336147  0.336597  1
  O  O70  1  0.658813  0.836147  0.163403  1
  O  O71  1  0.709749  0.760741  0.430780  1
  O  O72  1  0.735731  0.570891  0.212494  1
  O  O73  1  0.764269  0.429109  0.712494  1
  O  O74  1  0.790251  0.239259  0.930780  1
  O  O75  1  0.841187  0.163853  0.663403  1
