# generated using pymatgen
data_NaClO2
_symmetry_space_group_name_H-M   'P 1'
_cell_length_a   4.74172122
_cell_length_b   9.10581979
_cell_length_c   7.91191139
_cell_angle_alpha   31.34357629
_cell_angle_beta   54.86508164
_cell_angle_gamma   60.26344394
_symmetry_Int_Tables_number   1
_chemical_formula_structural   NaClO2
_chemical_formula_sum   'Na2 Cl2 O4'
_cell_volume   145.31257131
_cell_formula_units_Z   2
loop_
 _symmetry_equiv_pos_site_id
 _symmetry_equiv_pos_as_xyz
  1  'x, y, z'
loop_
 _atom_site_type_symbol
 _atom_site_label
 _atom_site_symmetry_multiplicity
 _atom_site_fract_x
 _atom_site_fract_y
 _atom_site_fract_z
 _atom_site_occupancy
  Na  Na0  1  0.031712  0.003683  0.001087  1
  Na  Na1  1  0.030972  0.504752  0.993882  1
  Cl  Cl2  1  0.573135  0.432409  0.562914  1
  Cl  Cl3  1  0.560597  0.932933  0.571619  1
  O  O4  1  0.501318  0.287679  0.906687  1
  O  O5  1  0.895048  0.279317  0.518407  1
  O  O6  1  0.894012  0.790688  0.516152  1
  O  O7  1  0.489261  0.784876  0.917268  1
