# generated using pymatgen
data_SiO2
_symmetry_space_group_name_H-M   'P 1'
_cell_length_a   9.83258610
_cell_length_b   25.85761591
_cell_length_c   8.38918936
_cell_angle_alpha   90.00000000
_cell_angle_beta   90.00000000
_cell_angle_gamma   90.00000000
_symmetry_Int_Tables_number   1
_chemical_formula_structural   SiO2
_chemical_formula_sum   'Si40 O80'
_cell_volume   2132.92819679
_cell_formula_units_Z   40
loop_
 _symmetry_equiv_pos_site_id
 _symmetry_equiv_pos_as_xyz
  1  'x, y, z'
loop_
 _atom_site_type_symbol
 _atom_site_label
 _atom_site_symmetry_multiplicity
 _atom_site_fract_x
 _atom_site_fract_y
 _atom_site_fract_z
 _atom_site_occupancy
  Si  Si0  1  0.204832  0.356932  0.061365  1
  Si  Si1  1  0.204832  0.643068  0.938635  1
  Si  Si2  1  0.795168  0.356932  0.438635  1
  Si  Si3  1  0.795168  0.643068  0.561365  1
  Si  Si4  1  0.795168  0.643068  0.938635  1
  Si  Si5  1  0.795168  0.356932  0.061365  1
  Si  Si6  1  0.204832  0.643068  0.561365  1
  Si  Si7  1  0.204832  0.356932  0.438635  1
  Si  Si8  1  0.704832  0.856932  0.061365  1
  Si  Si9  1  0.704832  0.143068  0.938635  1
  Si  Si10  1  0.295168  0.856932  0.438635  1
  Si  Si11  1  0.295168  0.143068  0.561365  1
  Si  Si12  1  0.295168  0.143068  0.938635  1
  Si  Si13  1  0.295168  0.856932  0.061365  1
  Si  Si14  1  0.704832  0.143068  0.561365  1
  Si  Si15  1  0.704832  0.856932  0.438635  1
  Si  Si16  1  0.500000  0.059651  0.057278  1
  Si  Si17  1  0.500000  0.940349  0.942722  1
  Si  Si18  1  0.500000  0.059651  0.442722  1
  Si  Si19  1  0.500000  0.940349  0.557278  1
  Si  Si20  1  0.000000  0.559651  0.057278  1
  Si  Si21  1  0.000000  0.440349  0.942722  1
  Si  Si22  1  0.000000  0.559651  0.442722  1
  Si  Si23  1  0.000000  0.440349  0.557278  1
  Si  Si24  1  0.500000  0.225011  0.067342  1
  Si  Si25  1  0.500000  0.774989  0.932658  1
  Si  Si26  1  0.500000  0.225011  0.432658  1
  Si  Si27  1  0.500000  0.774989  0.567342  1
  Si  Si28  1  0.000000  0.725011  0.067342  1
  Si  Si29  1  0.000000  0.274989  0.932658  1
  Si  Si30  1  0.000000  0.725011  0.432658  1
  Si  Si31  1  0.000000  0.274989  0.567342  1
  Si  Si32  1  0.000000  0.163574  0.064653  1
  Si  Si33  1  0.000000  0.836426  0.935347  1
  Si  Si34  1  0.000000  0.163574  0.435347  1
  Si  Si35  1  0.000000  0.836426  0.564653  1
  Si  Si36  1  0.500000  0.663574  0.064653  1
  Si  Si37  1  0.500000  0.336426  0.935347  1
  Si  Si38  1  0.500000  0.663574  0.435347  1
  Si  Si39  1  0.500000  0.336426  0.564653  1
  O  O40  1  0.180357  0.346231  0.250000  1
  O  O41  1  0.180357  0.653769  0.750000  1
  O  O42  1  0.819643  0.346231  0.250000  1
  O  O43  1  0.819643  0.653769  0.750000  1
  O  O44  1  0.680357  0.846231  0.250000  1
  O  O45  1  0.680357  0.153769  0.750000  1
  O  O46  1  0.319643  0.846231  0.250000  1
  O  O47  1  0.319643  0.153769  0.750000  1
  O  O48  1  0.365899  0.359269  0.023714  1
  O  O49  1  0.365899  0.640731  0.976286  1
  O  O50  1  0.634101  0.359269  0.476286  1
  O  O51  1  0.634101  0.640731  0.523714  1
  O  O52  1  0.634101  0.640731  0.976286  1
  O  O53  1  0.634101  0.359269  0.023714  1
  O  O54  1  0.365899  0.640731  0.523714  1
  O  O55  1  0.365899  0.359269  0.476286  1
  O  O56  1  0.865899  0.859269  0.023714  1
  O  O57  1  0.865899  0.140731  0.976286  1
  O  O58  1  0.134101  0.859269  0.476286  1
  O  O59  1  0.134101  0.140731  0.523714  1
  O  O60  1  0.134101  0.140731  0.976286  1
  O  O61  1  0.134101  0.859269  0.023714  1
  O  O62  1  0.865899  0.140731  0.523714  1
  O  O63  1  0.865899  0.859269  0.476286  1
  O  O64  1  0.135725  0.309881  0.960105  1
  O  O65  1  0.135725  0.690119  0.039895  1
  O  O66  1  0.864275  0.309881  0.539895  1
  O  O67  1  0.864275  0.690119  0.460105  1
  O  O68  1  0.864275  0.690119  0.039895  1
  O  O69  1  0.864275  0.309881  0.960105  1
  O  O70  1  0.135725  0.690119  0.460105  1
  O  O71  1  0.135725  0.309881  0.539895  1
  O  O72  1  0.635725  0.809881  0.960105  1
  O  O73  1  0.635725  0.190119  0.039895  1
  O  O74  1  0.364275  0.809881  0.539895  1
  O  O75  1  0.364275  0.190119  0.460105  1
  O  O76  1  0.364275  0.190119  0.039895  1
  O  O77  1  0.364275  0.809881  0.960105  1
  O  O78  1  0.635725  0.190119  0.460105  1
  O  O79  1  0.635725  0.809881  0.539895  1
  O  O80  1  0.135507  0.411721  0.011422  1
  O  O81  1  0.135507  0.588279  0.988578  1
  O  O82  1  0.864493  0.411721  0.488578  1
  O  O83  1  0.864493  0.588279  0.511422  1
  O  O84  1  0.864493  0.588279  0.988578  1
  O  O85  1  0.864493  0.411721  0.011422  1
  O  O86  1  0.135507  0.588279  0.511422  1
  O  O87  1  0.135507  0.411721  0.488578  1
  O  O88  1  0.635507  0.911721  0.011422  1
  O  O89  1  0.635507  0.088279  0.988578  1
  O  O90  1  0.364493  0.911721  0.488578  1
  O  O91  1  0.364493  0.088279  0.511422  1
  O  O92  1  0.364493  0.088279  0.988578  1
  O  O93  1  0.364493  0.911721  0.011422  1
  O  O94  1  0.635507  0.088279  0.511422  1
  O  O95  1  0.635507  0.911721  0.488578  1
  O  O96  1  0.500000  0.000000  0.000000  1
  O  O97  1  0.500000  0.000000  0.500000  1
  O  O98  1  0.000000  0.500000  0.000000  1
  O  O99  1  0.000000  0.500000  0.500000  1
  O  O100  1  0.500000  0.062737  0.250000  1
  O  O101  1  0.500000  0.937263  0.750000  1
  O  O102  1  0.000000  0.562737  0.250000  1
  O  O103  1  0.000000  0.437263  0.750000  1
  O  O104  1  0.500000  0.246732  0.250000  1
  O  O105  1  0.500000  0.753268  0.750000  1
  O  O106  1  0.000000  0.746732  0.250000  1
  O  O107  1  0.000000  0.253268  0.750000  1
  O  O108  1  0.500000  0.273391  0.944949  1
  O  O109  1  0.500000  0.726609  0.055051  1
  O  O110  1  0.500000  0.273391  0.555051  1
  O  O111  1  0.500000  0.726609  0.444949  1
  O  O112  1  0.000000  0.773391  0.944949  1
  O  O113  1  0.000000  0.226609  0.055051  1
  O  O114  1  0.000000  0.773391  0.555051  1
  O  O115  1  0.000000  0.226609  0.444949  1
  O  O116  1  0.000000  0.145708  0.250000  1
  O  O117  1  0.000000  0.854292  0.750000  1
  O  O118  1  0.500000  0.645708  0.250000  1
  O  O119  1  0.500000  0.354292  0.750000  1
