# generated using pymatgen
data_UI4
_symmetry_space_group_name_H-M   'P 1'
_cell_length_a   7.62131611
_cell_length_b   8.86320738
_cell_length_c   8.86320685
_cell_angle_alpha   61.03354221
_cell_angle_beta   91.63395156
_cell_angle_gamma   91.63394717
_symmetry_Int_Tables_number   1
_chemical_formula_structural   UI4
_chemical_formula_sum   'U2 I8'
_cell_volume   523.52068056
_cell_formula_units_Z   2
loop_
 _symmetry_equiv_pos_site_id
 _symmetry_equiv_pos_as_xyz
  1  'x, y, z'
loop_
 _atom_site_type_symbol
 _atom_site_label
 _atom_site_symmetry_multiplicity
 _atom_site_fract_x
 _atom_site_fract_y
 _atom_site_fract_z
 _atom_site_occupancy
  U  U0  1  0.250000  0.857811  0.142189  1
  U  U1  1  0.750000  0.142189  0.857811  1
  I  I2  1  0.588920  0.001448  0.222823  1
  I  I3  1  0.088920  0.222823  0.001448  1
  I  I4  1  0.114458  0.756929  0.480985  1
  I  I5  1  0.885542  0.243071  0.519015  1
  I  I6  1  0.614458  0.480985  0.756929  1
  I  I7  1  0.411080  -0.001448  0.777177  1
  I  I8  1  0.385542  0.519015  0.243071  1
  I  I9  1  0.911080  0.777177  -0.001448  1
