# generated using pymatgen
data_Mn2InC10IO10
_symmetry_space_group_name_H-M   'P 1'
_cell_length_a   9.15926668
_cell_length_b   10.05481199
_cell_length_c   10.55866448
_cell_angle_alpha   117.06946580
_cell_angle_beta   92.42683722
_cell_angle_gamma   92.99119105
_symmetry_Int_Tables_number   1
_chemical_formula_structural   Mn2InC10IO10
_chemical_formula_sum   'Mn4 In2 C20 I2 O20'
_cell_volume   862.30508730
_cell_formula_units_Z   2
loop_
 _symmetry_equiv_pos_site_id
 _symmetry_equiv_pos_as_xyz
  1  'x, y, z'
loop_
 _atom_site_type_symbol
 _atom_site_label
 _atom_site_symmetry_multiplicity
 _atom_site_fract_x
 _atom_site_fract_y
 _atom_site_fract_z
 _atom_site_occupancy
  Mn  Mn0  1  0.249184  0.718205  0.070027  1
  Mn  Mn1  1  0.757110  0.755960  0.590559  1
  Mn  Mn2  1  0.750816  0.281795  0.929973  1
  Mn  Mn3  1  0.242890  0.244040  0.409441  1
  In  In4  1  0.160353  0.999554  0.157226  1
  In  In5  1  0.839647  0.000446  0.842774  1
  C  C6  1  0.609174  0.215366  0.013697  1
  C  C7  1  0.309787  0.400354  0.578244  1
  C  C8  1  0.375527  0.786901  0.233660  1
  C  C9  1  0.207748  0.107378  0.480498  1
  C  C10  1  0.430406  0.181103  0.367747  1
  C  C11  1  0.902895  0.296988  0.825326  1
  C  C12  1  0.734522  0.647026  0.692603  1
  C  C13  1  0.046479  0.286260  0.430704  1
  C  C14  1  0.624473  0.213099  0.766340  1
  C  C15  1  0.265478  0.352974  0.307397  1
  C  C16  1  0.118033  0.671929  0.913318  1
  C  C17  1  0.792252  0.892622  0.519502  1
  C  C18  1  0.303998  0.527114  0.998479  1
  C  C19  1  0.690213  0.599646  0.421756  1
  C  C20  1  0.569594  0.818897  0.632253  1
  C  C21  1  0.953521  0.713740  0.569296  1
  C  C22  1  0.097105  0.703012  0.174674  1
  C  C23  1  0.696002  0.472886  0.001521  1
  C  C24  1  0.390826  0.784634  0.986303  1
  C  C25  1  0.881967  0.328071  0.086682  1
  I  I26  1  0.836310  0.952013  0.100523  1
  I  I27  1  0.163690  0.047987  0.899477  1
  O  O28  1  0.356275  0.501213  0.684592  1
  O  O29  1  0.479523  0.822949  0.932350  1
  O  O30  1  0.717038  0.573692  0.749723  1
  O  O31  1  0.548336  0.145105  0.346068  1
  O  O32  1  0.073598  0.684633  0.549636  1
  O  O33  1  0.926402  0.315367  0.450364  1
  O  O34  1  0.520477  0.177051  0.067650  1
  O  O35  1  0.455001  0.825845  0.334574  1
  O  O36  1  0.039144  0.637981  0.812929  1
  O  O37  1  0.643725  0.498787  0.315408  1
  O  O38  1  0.997248  0.306461  0.759296  1
  O  O39  1  0.814149  0.977202  0.474955  1
  O  O40  1  0.451664  0.854895  0.653932  1
  O  O41  1  0.340620  0.406128  0.949136  1
  O  O42  1  0.185851  0.022798  0.525045  1
  O  O43  1  0.282962  0.426308  0.250277  1
  O  O44  1  0.002752  0.693539  0.240704  1
  O  O45  1  0.960856  0.362019  0.187071  1
  O  O46  1  0.659380  0.593872  0.050864  1
  O  O47  1  0.544999  0.174155  0.665426  1
