# generated using pymatgen
data_DyZr9Si9PO40
_symmetry_space_group_name_H-M   'P 1'
_cell_length_a   5.64106335
_cell_length_b   5.64106339
_cell_length_c   56.40693103
_cell_angle_alpha   106.60361989
_cell_angle_beta   106.60362002
_cell_angle_gamma   115.37491543
_symmetry_Int_Tables_number   1
_chemical_formula_structural   DyZr9Si9PO40
_chemical_formula_sum   'Dy2 Zr18 Si18 P2 O80'
_cell_volume   1370.60844558
_cell_formula_units_Z   2
loop_
 _symmetry_equiv_pos_site_id
 _symmetry_equiv_pos_as_xyz
  1  'x, y, z'
loop_
 _atom_site_type_symbol
 _atom_site_label
 _atom_site_symmetry_multiplicity
 _atom_site_fract_x
 _atom_site_fract_y
 _atom_site_fract_z
 _atom_site_occupancy
  Dy  Dy0  1  0.126198  0.876198  0.925240  1
  Dy  Dy1  1  0.123802  0.873802  0.824760  1
  Zr  Zr2  1  0.124100  0.874100  0.724820  1
  Zr  Zr3  1  0.124991  0.874991  0.624998  1
  Zr  Zr4  1  0.879191  0.129191  0.975838  1
  Zr  Zr5  1  0.124998  0.874998  0.525000  1
  Zr  Zr6  1  0.875000  0.125000  0.875000  1
  Zr  Zr7  1  0.124999  0.874999  0.425000  1
  Zr  Zr8  1  0.870809  0.120809  0.774162  1
  Zr  Zr9  1  0.125001  0.875001  0.325000  1
  Zr  Zr10  1  0.875015  0.125015  0.675003  1
  Zr  Zr11  1  0.125002  0.875002  0.225000  1
  Zr  Zr12  1  0.875000  0.125000  0.575000  1
  Zr  Zr13  1  0.125009  0.875009  0.125002  1
  Zr  Zr14  1  0.874998  0.124998  0.475000  1
  Zr  Zr15  1  0.125900  0.875900  0.025180  1
  Zr  Zr16  1  0.875000  0.125000  0.375000  1
  Zr  Zr17  1  0.875002  0.125002  0.275000  1
  Zr  Zr18  1  0.875000  0.125000  0.175000  1
  Zr  Zr19  1  0.874985  0.124985  0.074997  1
  Si  Si20  1  0.379332  0.629332  0.975866  1
  Si  Si21  1  0.375000  0.625000  0.875000  1
  Si  Si22  1  0.370668  0.620668  0.774134  1
  Si  Si23  1  0.374757  0.624757  0.674951  1
  Si  Si24  1  0.625137  0.375137  0.725027  1
  Si  Si25  1  0.374996  0.624996  0.574999  1
  Si  Si26  1  0.625017  0.375017  0.625003  1
  Si  Si27  1  0.375000  0.625000  0.475000  1
  Si  Si28  1  0.624999  0.374999  0.525000  1
  Si  Si29  1  0.375000  0.625000  0.375000  1
  Si  Si30  1  0.624999  0.374999  0.425000  1
  Si  Si31  1  0.375000  0.625000  0.275000  1
  Si  Si32  1  0.625001  0.375001  0.325000  1
  Si  Si33  1  0.375004  0.625004  0.175001  1
  Si  Si34  1  0.625001  0.375001  0.225000  1
  Si  Si35  1  0.375243  0.625243  0.075049  1
  Si  Si36  1  0.624983  0.374983  0.124997  1
  Si  Si37  1  0.624863  0.374863  0.024973  1
  P  P38  1  0.624558  0.374558  0.924912  1
  P  P39  1  0.625442  0.375442  0.825088  1
  O  O40  1  0.196676  0.634109  0.994019  1
  O  O41  1  0.389385  0.812191  0.958033  1
  O  O42  1  0.190943  0.268137  0.958033  1
  O  O43  1  0.189485  0.617073  0.892778  1
  O  O44  1  0.743518  0.806085  0.994019  1
  O  O45  1  0.382927  0.810515  0.857222  1
  O  O46  1  0.286111  0.216156  0.906958  1
  O  O47  1  0.189292  0.261704  0.857222  1
  O  O48  1  0.187809  0.610615  0.791967  1
  O  O49  1  0.783140  0.713765  0.943087  1
  O  O50  1  0.738296  0.810708  0.892778  1
  O  O51  1  0.647726  0.217101  0.943087  1
  O  O52  1  0.365891  0.803324  0.755981  1
  O  O53  1  0.286235  0.216860  0.806913  1
  O  O54  1  0.193915  0.256482  0.755981  1
  O  O55  1  0.195131  0.627659  0.693238  1
  O  O56  1  0.783464  0.353419  0.906958  1
  O  O57  1  0.783844  0.713889  0.843042  1
  O  O58  1  0.731863  0.809057  0.791967  1
  O  O59  1  0.646581  0.216536  0.843042  1
  O  O60  1  0.371956  0.804958  0.656687  1
  O  O61  1  0.262765  0.195688  0.706719  1
  O  O62  1  0.194919  0.261916  0.656687  1
  O  O63  1  0.195050  0.627957  0.593290  1
  O  O64  1  0.782899  0.352274  0.806913  1
  O  O65  1  0.804899  0.738020  0.743299  1
  O  O66  1  0.737246  0.804718  0.693238  1
  O  O67  1  0.628089  0.194968  0.743299  1
  O  O68  1  0.372030  0.804948  0.556707  1
  O  O69  1  0.262168  0.195071  0.606711  1
  O  O70  1  0.195043  0.262125  0.556707  1
  O  O71  1  0.195050  0.627967  0.493292  1
  O  O72  1  0.804427  0.371504  0.706719  1
  O  O73  1  0.804963  0.737908  0.643299  1
  O  O74  1  0.737853  0.804946  0.593290  1
  O  O75  1  0.628030  0.195084  0.643299  1
  O  O76  1  0.372034  0.804949  0.456709  1
  O  O77  1  0.262134  0.195049  0.506708  1
  O  O78  1  0.195051  0.262136  0.456709  1
  O  O79  1  0.195053  0.627969  0.393292  1
  O  O80  1  0.804940  0.372038  0.606711  1
  O  O81  1  0.804949  0.737867  0.543292  1
  O  O82  1  0.737868  0.804951  0.493292  1
  O  O83  1  0.627968  0.195049  0.543292  1
  O  O84  1  0.372031  0.804947  0.356708  1
  O  O85  1  0.262134  0.195052  0.406708  1
  O  O86  1  0.195048  0.262132  0.356708  1
  O  O87  1  0.195051  0.627966  0.293291  1
  O  O88  1  0.804948  0.372032  0.506708  1
  O  O89  1  0.804954  0.737870  0.443292  1
  O  O90  1  0.737868  0.804952  0.393292  1
  O  O91  1  0.627968  0.195052  0.443292  1
  O  O92  1  0.372033  0.804950  0.256708  1
  O  O93  1  0.262130  0.195046  0.306708  1
  O  O94  1  0.195049  0.262132  0.256708  1
  O  O95  1  0.195052  0.627970  0.193293  1
  O  O96  1  0.804949  0.372031  0.406708  1
  O  O97  1  0.804948  0.737866  0.343292  1
  O  O98  1  0.737864  0.804949  0.293291  1
  O  O99  1  0.627969  0.195051  0.343292  1
  O  O100  1  0.372043  0.804950  0.156710  1
  O  O101  1  0.262133  0.195051  0.206708  1
  O  O102  1  0.195054  0.262147  0.156710  1
  O  O103  1  0.195042  0.628044  0.093313  1
  O  O104  1  0.804948  0.372032  0.306708  1
  O  O105  1  0.804951  0.737866  0.243292  1
  O  O106  1  0.737875  0.804957  0.193293  1
  O  O107  1  0.627968  0.195052  0.243292  1
  O  O108  1  0.372341  0.804869  0.056762  1
  O  O109  1  0.262092  0.195037  0.106701  1
  O  O110  1  0.195282  0.262754  0.056762  1
  O  O111  1  0.804951  0.372032  0.206708  1
  O  O112  1  0.804929  0.737832  0.143289  1
  O  O113  1  0.738084  0.805081  0.093313  1
  O  O114  1  0.627962  0.195060  0.143289  1
  O  O115  1  0.261980  0.195101  0.006701  1
  O  O116  1  0.804916  0.371970  0.106701  1
  O  O117  1  0.804312  0.737235  0.043281  1
  O  O118  1  0.628496  0.195573  0.043281  1
  O  O119  1  0.805032  0.371911  0.006701  1
