# generated using pymatgen
data_B5H9
_symmetry_space_group_name_H-M   'P 1'
_cell_length_a   5.81015178
_cell_length_b   5.81015178
_cell_length_c   5.81015178
_cell_angle_alpha   102.15931496
_cell_angle_beta   102.15931496
_cell_angle_gamma   125.36187241
_symmetry_Int_Tables_number   1
_chemical_formula_structural   B5H9
_chemical_formula_sum   'B5 H9'
_cell_volume   142.11289655
_cell_formula_units_Z   1
loop_
 _symmetry_equiv_pos_site_id
 _symmetry_equiv_pos_as_xyz
  1  'x, y, z'
loop_
 _atom_site_type_symbol
 _atom_site_label
 _atom_site_symmetry_multiplicity
 _atom_site_fract_x
 _atom_site_fract_y
 _atom_site_fract_z
 _atom_site_occupancy
  B  B0  1  0.229934  0.229934  0.000000  1
  B  B1  1  0.190862  0.017798  0.173064  1
  B  B2  1  0.844734  0.017798  0.826936  1
  B  B3  1  0.017798  0.190862  0.173064  1
  B  B4  1  0.017798  0.844734  0.826936  1
  H  H5  1  0.452568  0.452568  0.000000  1
  H  H6  1  0.379825  0.045364  0.334460  1
  H  H7  1  0.710904  0.045364  0.665540  1
  H  H8  1  0.045364  0.379825  0.334460  1
  H  H9  1  0.045364  0.710904  0.665540  1
  H  H10  1  0.984001  0.716924  0.000000  1
  H  H11  1  0.716924  0.984001  0.000000  1
  H  H12  1  0.716924  0.716924  0.732923  1
  H  H13  1  0.984001  0.984001  0.267077  1
