# generated using pymatgen
data_CuH4C2NCl3O
_symmetry_space_group_name_H-M   'P 1'
_cell_length_a   6.32024054
_cell_length_b   7.92178263
_cell_length_c   8.38389452
_cell_angle_alpha   71.11153530
_cell_angle_beta   76.47625097
_cell_angle_gamma   81.97237604
_symmetry_Int_Tables_number   1
_chemical_formula_structural   CuH4C2NCl3O
_chemical_formula_sum   'Cu2 H8 C4 N2 Cl6 O2'
_cell_volume   385.21127090
_cell_formula_units_Z   2
loop_
 _symmetry_equiv_pos_site_id
 _symmetry_equiv_pos_as_xyz
  1  'x, y, z'
loop_
 _atom_site_type_symbol
 _atom_site_label
 _atom_site_symmetry_multiplicity
 _atom_site_fract_x
 _atom_site_fract_y
 _atom_site_fract_z
 _atom_site_occupancy
  Cu  Cu0  1  0.703289  0.911379  0.612463  1
  Cu  Cu1  1  0.296711  0.088621  0.387537  1
  H  H2  1  0.969845  0.277637  0.753653  1
  H  H3  1  0.030155  0.722363  0.246347  1
  H  H4  1  0.913613  0.462039  0.858494  1
  H  H5  1  0.086387  0.537961  0.141506  1
  H  H6  1  0.719068  0.527215  0.572693  1
  H  H7  1  0.280932  0.472785  0.427307  1
  H  H8  1  0.509987  0.360047  0.708879  1
  H  H9  1  0.490013  0.639953  0.291121  1
  C  C10  1  0.884561  0.324804  0.865024  1
  C  C11  1  0.115439  0.675196  0.134976  1
  C  C12  1  0.569210  0.495360  0.675296  1
  C  C13  1  0.430790  0.504640  0.324704  1
  N  N14  1  0.757148  0.229779  0.986239  1
  N  N15  1  0.242852  0.770221  0.013761  1
  Cl  Cl16  1  0.621244  0.924662  0.359726  1
  Cl  Cl17  1  0.378756  0.075338  0.640274  1
  Cl  Cl18  1  0.017891  0.759516  0.565442  1
  Cl  Cl19  1  0.982109  0.240484  0.434558  1
  Cl  Cl20  1  0.756028  0.916962  0.857380  1
  Cl  Cl21  1  0.243972  0.083038  0.142620  1
  O  O22  1  0.477749  0.605733  0.745942  1
  O  O23  1  0.522251  0.394267  0.254058  1
