# generated using pymatgen
data_HgTe3H12C4N
_symmetry_space_group_name_H-M   'P 1'
_cell_length_a   10.56215186
_cell_length_b   22.29623317
_cell_length_c   11.22349161
_cell_angle_alpha   90.00000000
_cell_angle_beta   110.46588817
_cell_angle_gamma   90.00000000
_symmetry_Int_Tables_number   1
_chemical_formula_structural   HgTe3H12C4N
_chemical_formula_sum   'Hg8 Te24 H96 C32 N8'
_cell_volume   2476.25919786
_cell_formula_units_Z   8
loop_
 _symmetry_equiv_pos_site_id
 _symmetry_equiv_pos_as_xyz
  1  'x, y, z'
loop_
 _atom_site_type_symbol
 _atom_site_label
 _atom_site_symmetry_multiplicity
 _atom_site_fract_x
 _atom_site_fract_y
 _atom_site_fract_z
 _atom_site_occupancy
  Hg  Hg0  1  0.461987  0.535699  0.254173  1
  Hg  Hg1  1  0.961987  0.964301  0.754173  1
  Hg  Hg2  1  0.538013  0.464301  0.745827  1
  Hg  Hg3  1  0.038012  0.035699  0.245827  1
  Hg  Hg4  1  0.404055  0.388352  0.399611  1
  Hg  Hg5  1  0.904055  0.111648  0.899611  1
  Hg  Hg6  1  0.595945  0.611648  0.600389  1
  Hg  Hg7  1  0.095945  0.888352  0.100389  1
  Te  Te8  1  0.350451  0.426222  0.149070  1
  Te  Te9  1  0.850451  0.073778  0.649070  1
  Te  Te10  1  0.649549  0.573778  0.850930  1
  Te  Te11  1  0.149549  0.926222  0.350930  1
  Te  Te12  1  0.311955  0.585972  0.419457  1
  Te  Te13  1  0.811955  0.914028  0.919457  1
  Te  Te14  1  0.688045  0.414028  0.580543  1
  Te  Te15  1  0.188045  0.085972  0.080543  1
  Te  Te16  1  0.723192  0.522671  0.471699  1
  Te  Te17  1  0.223192  0.977329  0.971699  1
  Te  Te18  1  0.276808  0.477329  0.528301  1
  Te  Te19  1  0.776808  0.022671  0.028301  1
  Te  Te20  1  0.360783  0.273080  0.487723  1
  Te  Te21  1  0.860783  0.226920  0.987723  1
  Te  Te22  1  0.639217  0.726920  0.512277  1
  Te  Te23  1  0.139217  0.773080  0.012277  1
  Te  Te24  1  0.565643  0.278858  0.725236  1
  Te  Te25  1  0.065643  0.221142  0.225236  1
  Te  Te26  1  0.434357  0.721142  0.274764  1
  Te  Te27  1  0.934357  0.778858  0.774764  1
  Te  Te28  1  0.524823  0.640142  0.133605  1
  Te  Te29  1  0.024823  0.859858  0.633605  1
  Te  Te30  1  0.475177  0.359858  0.866395  1
  Te  Te31  1  0.975177  0.140142  0.366395  1
  H  H32  1  0.755906  0.741424  0.236821  1
  H  H33  1  0.255906  0.758576  0.736821  1
  H  H34  1  0.244094  0.258576  0.763179  1
  H  H35  1  0.744094  0.241424  0.263179  1
  H  H36  1  0.863452  0.787333  0.364300  1
  H  H37  1  0.363452  0.712667  0.864300  1
  H  H38  1  0.136548  0.212667  0.635700  1
  H  H39  1  0.636548  0.287333  0.135700  1
  H  H40  1  0.878316  0.791516  0.209459  1
  H  H41  1  0.378316  0.708484  0.709459  1
  H  H42  1  0.121684  0.208484  0.790541  1
  H  H43  1  0.621684  0.291516  0.290541  1
  H  H44  1  0.107739  0.772701  0.290652  1
  H  H45  1  0.607739  0.727299  0.790652  1
  H  H46  1  0.892261  0.227299  0.709348  1
  H  H47  1  0.392261  0.272701  0.209348  1
  H  H48  1  0.102363  0.769706  0.448854  1
  H  H49  1  0.602363  0.730294  0.948854  1
  H  H50  1  0.897637  0.230294  0.551146  1
  H  H51  1  0.397637  0.269706  0.051146  1
  H  H52  1  0.175546  0.708176  0.389262  1
  H  H53  1  0.675546  0.791824  0.889262  1
  H  H54  1  0.824454  0.291824  0.610738  1
  H  H55  1  0.324454  0.208176  0.110738  1
  H  H56  1  0.971378  0.700655  0.130726  1
  H  H57  1  0.471378  0.799345  0.630726  1
  H  H58  1  0.028622  0.299345  0.869274  1
  H  H59  1  0.528622  0.200655  0.369274  1
  H  H60  1  0.027957  0.638780  0.239579  1
  H  H61  1  0.527957  0.861220  0.739579  1
  H  H62  1  0.972043  0.361220  0.760421  1
  H  H63  1  0.472043  0.138780  0.260421  1
  H  H64  1  0.849275  0.654465  0.169685  1
  H  H65  1  0.349275  0.845535  0.669685  1
  H  H66  1  0.150725  0.345535  0.830315  1
  H  H67  1  0.650725  0.154465  0.330315  1
  H  H68  1  0.029313  0.641821  0.441810  1
  H  H69  1  0.529313  0.858179  0.941810  1
  H  H70  1  0.970687  0.358179  0.558190  1
  H  H71  1  0.470687  0.141821  0.058190  1
  H  H72  1  0.953112  0.702808  0.500530  1
  H  H73  1  0.453112  0.797192  0.000530  1
  H  H74  1  0.046888  0.297192  0.499470  1
  H  H75  1  0.546888  0.202808  0.999470  1
  H  H76  1  0.848173  0.652212  0.382531  1
  H  H77  1  0.348173  0.847788  0.882531  1
  H  H78  1  0.151827  0.347788  0.617469  1
  H  H79  1  0.651827  0.152212  0.117469  1
  H  H80  1  0.999284  0.416608  0.049401  1
  H  H81  1  0.499284  0.083392  0.549401  1
  H  H82  1  0.000716  0.583392  0.950599  1
  H  H83  1  0.500716  0.916608  0.450599  1
  H  H84  1  0.840958  0.377293  0.015970  1
  H  H85  1  0.340958  0.122707  0.515970  1
  H  H86  1  0.159042  0.622707  0.984030  1
  H  H87  1  0.659042  0.877293  0.484030  1
  H  H88  1  0.840309  0.453918  0.965290  1
  H  H89  1  0.340309  0.046082  0.465290  1
  H  H90  1  0.159691  0.546082  0.034710  1
  H  H91  1  0.659691  0.953918  0.534710  1
  H  H92  1  0.686301  0.407644  0.121126  1
  H  H93  1  0.186301  0.092356  0.621126  1
  H  H94  1  0.313699  0.592356  0.878874  1
  H  H95  1  0.813699  0.907644  0.378874  1
  H  H96  1  0.738072  0.464156  0.244601  1
  H  H97  1  0.238072  0.035844  0.744601  1
  H  H98  1  0.261928  0.535844  0.755399  1
  H  H99  1  0.761928  0.964156  0.255399  1
  H  H100  1  0.694229  0.484683  0.079597  1
  H  H101  1  0.194229  0.015317  0.579597  1
  H  H102  1  0.305771  0.515317  0.920403  1
  H  H103  1  0.805771  0.984683  0.420403  1
  H  H104  1  0.059504  0.396661  0.283618  1
  H  H105  1  0.559504  0.103339  0.783618  1
  H  H106  1  0.940496  0.603339  0.716382  1
  H  H107  1  0.440496  0.896661  0.216382  1
  H  H108  1  0.936453  0.416215  0.353857  1
  H  H109  1  0.436453  0.083785  0.853857  1
  H  H110  1  0.063547  0.583785  0.646143  1
  H  H111  1  0.563547  0.916215  0.146143  1
  H  H112  1  0.905737  0.354229  0.243059  1
  H  H113  1  0.405737  0.145771  0.743059  1
  H  H114  1  0.094263  0.645771  0.756941  1
  H  H115  1  0.594263  0.854229  0.256941  1
  H  H116  1  0.901873  0.534811  0.127638  1
  H  H117  1  0.401873  0.965189  0.627638  1
  H  H118  1  0.098127  0.465189  0.872362  1
  H  H119  1  0.598127  0.034811  0.372362  1
  H  H120  1  0.952592  0.513193  0.293184  1
  H  H121  1  0.452592  0.986807  0.793184  1
  H  H122  1  0.047408  0.486807  0.706816  1
  H  H123  1  0.547408  0.013193  0.206816  1
  H  H124  1  0.060479  0.496220  0.204488  1
  H  H125  1  0.560479  0.003780  0.704488  1
  H  H126  1  0.939521  0.503780  0.795512  1
  H  H127  1  0.439521  0.996220  0.295512  1
  C  C128  1  0.856265  0.762243  0.278134  1
  C  C129  1  0.356265  0.737757  0.778134  1
  C  C130  1  0.143735  0.237757  0.721866  1
  C  C131  1  0.643735  0.262243  0.221866  1
  C  C132  1  0.097755  0.743407  0.364905  1
  C  C133  1  0.597755  0.756593  0.864905  1
  C  C134  1  0.902245  0.256593  0.635095  1
  C  C135  1  0.402245  0.243407  0.135095  1
  C  C136  1  0.951200  0.674035  0.204248  1
  C  C137  1  0.451200  0.825965  0.704248  1
  C  C138  1  0.048800  0.325965  0.795752  1
  C  C139  1  0.548800  0.174035  0.295752  1
  C  C140  1  0.946668  0.674695  0.418646  1
  C  C141  1  0.446668  0.825305  0.918646  1
  C  C142  1  0.053332  0.325305  0.581354  1
  C  C143  1  0.553332  0.174695  0.081354  1
  C  C144  1  0.892237  0.420839  0.038671  1
  C  C145  1  0.392237  0.079161  0.538671  1
  C  C146  1  0.107763  0.579161  0.961329  1
  C  C147  1  0.607763  0.920839  0.461329  1
  C  C148  1  0.739692  0.450104  0.151457  1
  C  C149  1  0.239692  0.049896  0.651457  1
  C  C150  1  0.260308  0.549896  0.848543  1
  C  C151  1  0.760308  0.950104  0.348543  1
  C  C152  1  0.951157  0.398797  0.268299  1
  C  C153  1  0.451157  0.101203  0.768299  1
  C  C154  1  0.048843  0.601203  0.731701  1
  C  C155  1  0.548843  0.898797  0.231701  1
  C  C156  1  0.955571  0.501410  0.199413  1
  C  C157  1  0.455571  0.998590  0.699413  1
  C  C158  1  0.044429  0.498590  0.800587  1
  C  C159  1  0.544429  0.001410  0.300587  1
  N  N160  1  0.961730  0.713713  0.315676  1
  N  N161  1  0.461730  0.786287  0.815676  1
  N  N162  1  0.038270  0.286287  0.684324  1
  N  N163  1  0.538270  0.213713  0.184324  1
  N  N164  1  0.884689  0.442304  0.163134  1
  N  N165  1  0.384689  0.057696  0.663134  1
  N  N166  1  0.115311  0.557696  0.836866  1
  N  N167  1  0.615311  0.942304  0.336866  1
