# generated using pymatgen
data_P(HO)3
_symmetry_space_group_name_H-M   'P 1'
_cell_length_a   7.54698223
_cell_length_b   12.20663614
_cell_length_c   7.00579413
_cell_angle_alpha   89.70296052
_cell_angle_beta   90.00000000
_cell_angle_gamma   90.00000000
_symmetry_Int_Tables_number   1
_chemical_formula_structural   P(HO)3
_chemical_formula_sum   'P8 H24 O24'
_cell_volume   645.38796320
_cell_formula_units_Z   8
loop_
 _symmetry_equiv_pos_site_id
 _symmetry_equiv_pos_as_xyz
  1  'x, y, z'
loop_
 _atom_site_type_symbol
 _atom_site_label
 _atom_site_symmetry_multiplicity
 _atom_site_fract_x
 _atom_site_fract_y
 _atom_site_fract_z
 _atom_site_occupancy
  P  P0  1  0.476695  0.380977  0.020671  1
  P  P1  1  0.511243  0.636526  0.535625  1
  P  P2  1  0.023305  0.880977  0.520671  1
  P  P3  1  0.988757  0.136526  0.035625  1
  P  P4  1  0.546280  0.103429  0.462666  1
  P  P5  1  0.419881  0.873406  0.945847  1
  P  P6  1  0.953720  0.603429  0.962666  1
  P  P7  1  0.080119  0.373406  0.445847  1
  H  H8  1  0.770487  0.452430  0.985127  1
  H  H9  1  0.780958  0.313265  0.920458  1
  H  H10  1  0.231482  0.685174  0.448568  1
  H  H11  1  0.729513  0.952430  0.485127  1
  H  H12  1  0.719042  0.813265  0.420458  1
  H  H13  1  0.268518  0.185174  0.948568  1
  H  H14  1  0.450404  0.272634  0.746208  1
  H  H15  1  0.568882  0.718475  0.240051  1
  H  H16  1  0.049596  0.772634  0.246208  1
  H  H17  1  0.931118  0.218475  0.740051  1
  H  H18  1  0.292206  0.521194  0.962251  1
  H  H19  1  0.478431  0.474692  0.405786  1
  H  H20  1  0.207794  0.021194  0.462251  1
  H  H21  1  0.021569  0.974692  0.905786  1
  H  H22  1  0.443013  0.271652  0.430276  1
  H  H23  1  0.536641  0.708101  0.885829  1
  H  H24  1  0.056987  0.771652  0.930276  1
  H  H25  1  0.963359  0.208101  0.385829  1
  H  H26  1  0.535066  0.071372  0.152683  1
  H  H27  1  0.425045  0.940084  0.647012  1
  H  H28  1  0.964934  0.571372  0.652683  1
  H  H29  1  0.074955  0.440084  0.147012  1
  H  H30  1  0.695576  0.952426  0.991684  1
  H  H31  1  0.804424  0.452426  0.491684  1
  O  O32  1  0.702905  0.386297  0.939920  1
  O  O33  1  0.316820  0.622148  0.443451  1
  O  O34  1  0.797095  0.886297  0.439920  1
  O  O35  1  0.183180  0.122148  0.943451  1
  O  O36  1  0.427262  0.277240  0.889121  1
  O  O37  1  0.610881  0.720189  0.375717  1
  O  O38  1  0.072738  0.777240  0.389121  1
  O  O39  1  0.889119  0.220189  0.875717  1
  O  O40  1  0.421122  0.489408  0.913180  1
  O  O41  1  0.578212  0.513861  0.464494  1
  O  O42  1  0.078878  0.989408  0.413180  1
  O  O43  1  0.921788  0.013861  0.964494  1
  O  O44  1  0.507053  0.233671  0.532869  1
  O  O45  1  0.501146  0.750235  0.999515  1
  O  O46  1  0.992947  0.733671  0.032869  1
  O  O47  1  0.998854  0.250235  0.499515  1
  O  O48  1  0.525534  0.136631  0.237243  1
  O  O49  1  0.472202  0.872739  0.722288  1
  O  O50  1  0.974466  0.636631  0.737243  1
  O  O51  1  0.027798  0.372739  0.222288  1
  O  O52  1  0.375922  0.037912  0.522357  1
  O  O53  1  0.572696  0.953127  0.041553  1
  O  O54  1  0.124078  0.537912  0.022357  1
  O  O55  1  0.927304  0.453127  0.541553  1
