# generated using pymatgen
data_Sr11Ru10O33
_symmetry_space_group_name_H-M   'P 1'
_cell_length_a   44.07375826
_cell_length_b   16.50610377
_cell_length_c   8.94671310
_cell_angle_alpha   29.62038303
_cell_angle_beta   26.40885424
_cell_angle_gamma   13.89925612
_symmetry_Int_Tables_number   1
_chemical_formula_structural   Sr11Ru10O33
_chemical_formula_sum   'Sr11 Ru10 O33'
_cell_volume   695.38912188
_cell_formula_units_Z   1
loop_
 _symmetry_equiv_pos_site_id
 _symmetry_equiv_pos_as_xyz
  1  'x, y, z'
loop_
 _atom_site_type_symbol
 _atom_site_label
 _atom_site_symmetry_multiplicity
 _atom_site_fract_x
 _atom_site_fract_y
 _atom_site_fract_z
 _atom_site_occupancy
  Sr  Sr0  1  0.042955  0.529089  0.470372  1
  Sr  Sr1  1  0.127342  0.531747  0.471663  1
  Sr  Sr2  1  0.211927  0.532629  0.533265  1
  Sr  Sr3  1  0.300322  0.526761  0.529565  1
  Sr  Sr4  1  0.408957  0.500945  0.497033  1
  Sr  Sr5  1  0.500000  0.500000  0.500000  1
  Sr  Sr6  1  0.591043  0.499055  0.502967  1
  Sr  Sr7  1  0.699678  0.473239  0.470435  1
  Sr  Sr8  1  0.788073  0.467371  0.466735  1
  Sr  Sr9  1  0.872658  0.468253  0.528337  1
  Sr  Sr10  1  0.957045  0.470911  0.529628  1
  Ru  Ru11  1  0.090751  0.002724  0.995945  1
  Ru  Ru12  1  0.182801  -0.002434  0.001075  1
  Ru  Ru13  1  0.271340  0.005447  0.996666  1
  Ru  Ru14  1  0.366525  -0.003563  -0.006505  1
  Ru  Ru15  1  0.452049  0.005332  0.004639  1
  Ru  Ru16  1  0.547951  -0.005332  -0.004639  1
  Ru  Ru17  1  0.633475  0.003563  0.006505  1
  Ru  Ru18  1  0.728660  0.994553  0.003334  1
  Ru  Ru19  1  0.817199  0.002434  -0.001075  1
  Ru  Ru20  1  0.909249  -0.002724  0.004055  1
  O  O21  1  0.049542  0.996031  -0.001582  1
  O  O22  1  0.140594  0.995263  0.995276  1
  O  O23  1  0.095668  0.000296  0.475126  1
  O  O24  1  0.000000  0.500000  0.000000  1
  O  O25  1  0.227582  0.003736  0.993389  1
  O  O26  1  0.182586  0.001313  0.498667  1
  O  O27  1  0.087889  0.506752  0.000162  1
  O  O28  1  0.320537  0.996564  0.996508  1
  O  O29  1  0.193323  0.470846  0.996098  1
  O  O30  1  0.279170  0.992484  0.481283  1
  O  O31  1  0.412935  0.991076  0.997552  1
  O  O32  1  0.364665  0.997192  0.500361  1
  O  O33  1  0.272482  0.503578  -0.001512  1
  O  O34  1  0.500000  0.000000  0.000000  1
  O  O35  1  0.458702  0.992773  0.490088  1
  O  O36  1  0.366878  0.498098  0.989872  1
  O  O37  1  0.587065  0.008924  0.002448  1
  O  O38  1  0.541298  0.007227  0.509912  1
  O  O39  1  0.448873  0.515876  0.001239  1
  O  O40  1  0.679463  0.003436  0.003492  1
  O  O41  1  0.635335  0.002808  0.499639  1
  O  O42  1  0.551127  0.484125  0.998761  1
  O  O43  1  0.772418  0.996264  0.006611  1
  O  O44  1  0.720830  0.007516  0.518717  1
  O  O45  1  0.633122  0.501902  0.010128  1
  O  O46  1  0.859406  0.004737  0.004724  1
  O  O47  1  0.817414  0.998687  0.501333  1
  O  O48  1  0.727518  0.496422  0.001512  1
  O  O49  1  0.950458  0.003969  0.001582  1
  O  O50  1  0.904332  0.999704  0.524874  1
  O  O51  1  0.806677  0.529154  0.003902  1
  O  O52  1  0.000000  0.000000  0.500000  1
  O  O53  1  0.912111  0.493248  0.999838  1
