# generated using pymatgen
data_Nb40(NO)17
_symmetry_space_group_name_H-M   'P 1'
_cell_length_a   3.18873076
_cell_length_b   3.18873097
_cell_length_c   124.78800387
_cell_angle_alpha   59.26465023
_cell_angle_beta   59.26464801
_cell_angle_gamma   59.99996683
_symmetry_Int_Tables_number   1
_chemical_formula_structural   Nb40(NO)17
_chemical_formula_sum   'Nb40 N17 O17'
_cell_volume   887.10669412
_cell_formula_units_Z   1
loop_
 _symmetry_equiv_pos_site_id
 _symmetry_equiv_pos_as_xyz
  1  'x, y, z'
loop_
 _atom_site_type_symbol
 _atom_site_label
 _atom_site_symmetry_multiplicity
 _atom_site_fract_x
 _atom_site_fract_y
 _atom_site_fract_z
 _atom_site_occupancy
  Nb  Nb0  1  0.998496  0.998496  0.000113  1
  Nb  Nb1  1  0.014215  0.014215  0.023934  1
  Nb  Nb2  1  0.984988  0.984988  0.051126  1
  Nb  Nb3  1  0.986299  0.986299  0.101027  1
  Nb  Nb4  1  0.014380  0.014380  0.073922  1
  Nb  Nb5  1  0.014227  0.014227  0.123933  1
  Nb  Nb6  1  0.986392  0.986392  0.151021  1
  Nb  Nb7  1  0.013850  0.013850  0.173961  1
  Nb  Nb8  1  0.986722  0.986722  0.200996  1
  Nb  Nb9  1  0.013187  0.013187  0.224011  1
  Nb  Nb10  1  0.016886  0.016886  0.273733  1
  Nb  Nb11  1  0.984929  0.984929  0.251130  1
  Nb  Nb12  1  0.000424  0.000424  0.299968  1
  Nb  Nb13  1  0.001159  0.001159  0.324913  1
  Nb  Nb14  1  0.000665  0.000665  0.349950  1
  Nb  Nb15  1  -0.000050  -0.000050  0.375004  1
  Nb  Nb16  1  0.999797  0.999797  0.400015  1
  Nb  Nb17  1  0.999513  0.999513  0.425037  1
  Nb  Nb18  1  0.999774  0.999774  0.450017  1
  Nb  Nb19  1  0.000241  0.000241  0.474982  1
  Nb  Nb20  1  0.999448  0.999448  0.525041  1
  Nb  Nb21  1  0.000003  0.000003  0.500000  1
  Nb  Nb22  1  0.997531  0.997531  0.550185  1
  Nb  Nb23  1  0.982208  0.982208  0.576334  1
  Nb  Nb24  1  0.000531  0.000531  0.599960  1
  Nb  Nb25  1  0.998027  0.998027  0.625148  1
  Nb  Nb26  1  0.000111  0.000111  0.649992  1
  Nb  Nb27  1  -0.000016  -0.000016  0.675001  1
  Nb  Nb28  1  0.000551  0.000551  0.699959  1
  Nb  Nb29  1  0.999832  0.999832  0.725013  1
  Nb  Nb30  1  0.000146  0.000146  0.749989  1
  Nb  Nb31  1  -0.000040  -0.000040  0.775003  1
  Nb  Nb32  1  0.999841  0.999841  0.800012  1
  Nb  Nb33  1  -0.000022  -0.000022  0.825002  1
  Nb  Nb34  1  0.000593  0.000593  0.849955  1
  Nb  Nb35  1  0.999457  0.999457  0.875041  1
  Nb  Nb36  1  0.000044  0.000044  0.899997  1
  Nb  Nb37  1  0.997257  0.997257  0.950206  1
  Nb  Nb38  1  0.001325  0.001325  0.924901  1
  Nb  Nb39  1  0.998729  0.998729  0.975095  1
  N  N40  1  0.504746  0.504746  0.587144  1
  N  N41  1  0.503277  0.503277  0.612254  1
  N  N42  1  0.500022  0.500022  0.637498  1
  N  N43  1  0.500036  0.500036  0.662497  1
  N  N44  1  0.500083  0.500083  0.687494  1
  N  N45  1  0.499865  0.499865  0.712510  1
  N  N46  1  0.500010  0.500010  0.737500  1
  N  N47  1  0.500038  0.500038  0.762497  1
  N  N48  1  0.499961  0.499961  0.787503  1
  N  N49  1  0.499802  0.499802  0.812515  1
  N  N50  1  0.500198  0.500198  0.837485  1
  N  N51  1  0.499698  0.499698  0.862523  1
  N  N52  1  0.499850  0.499850  0.887511  1
  N  N53  1  0.500166  0.500166  0.912487  1
  N  N54  1  0.499972  0.499972  0.937502  1
  N  N55  1  0.497531  0.497531  0.962685  1
  N  N56  1  0.495143  0.495143  0.987864  1
  O  O57  1  0.499708  0.499708  0.037522  1
  O  O58  1  0.500070  0.500070  0.087495  1
  O  O59  1  0.500180  0.500180  0.137487  1
  O  O60  1  0.499947  0.499947  0.187504  1
  O  O61  1  0.500318  0.500318  0.237476  1
  O  O62  1  0.504240  0.504240  0.287181  1
  O  O63  1  0.496222  0.496222  0.312783  1
  O  O64  1  0.500839  0.500839  0.337438  1
  O  O65  1  0.500282  0.500282  0.362479  1
  O  O66  1  0.500302  0.500302  0.387478  1
  O  O67  1  0.499766  0.499766  0.412517  1
  O  O68  1  0.500066  0.500066  0.437494  1
  O  O69  1  0.499912  0.499912  0.462506  1
  O  O70  1  0.499774  0.499774  0.487517  1
  O  O71  1  0.499814  0.499814  0.512515  1
  O  O72  1  0.501816  0.501816  0.537364  1
  O  O73  1  0.504695  0.504695  0.562147  1
