# generated using pymatgen
data_LiNbAs2
_symmetry_space_group_name_H-M   'P 1'
_cell_length_a   4.93323570
_cell_length_b   4.93333380
_cell_length_c   43.76787627
_cell_angle_alpha   42.87967376
_cell_angle_beta   42.88356034
_cell_angle_gamma   41.62671929
_symmetry_Int_Tables_number   1
_chemical_formula_structural   LiNbAs2
_chemical_formula_sum   'Li6 Nb6 As12'
_cell_volume   439.31178525
_cell_formula_units_Z   6
loop_
 _symmetry_equiv_pos_site_id
 _symmetry_equiv_pos_as_xyz
  1  'x, y, z'
loop_
 _atom_site_type_symbol
 _atom_site_label
 _atom_site_symmetry_multiplicity
 _atom_site_fract_x
 _atom_site_fract_y
 _atom_site_fract_z
 _atom_site_occupancy
  Li  Li0  1  0.660937  0.660737  0.580323  1
  Li  Li1  1  0.654403  0.653953  0.668843  1
  Li  Li2  1  0.601280  0.601379  0.757712  1
  Li  Li3  1  0.668559  0.668280  0.839074  1
  Li  Li4  1  0.674877  0.675034  0.925470  1
  Li  Li5  1  0.726495  0.726868  0.005653  1
  Nb  Nb6  1  0.726380  0.726686  0.082673  1
  Nb  Nb7  1  0.702958  0.703193  0.168338  1
  Nb  Nb8  1  0.693043  0.693194  0.250314  1
  Nb  Nb9  1  0.681269  0.681318  0.332814  1
  Nb  Nb10  1  0.663357  0.663266  0.416447  1
  Nb  Nb11  1  0.661545  0.661353  0.497192  1
  As  As12  1  0.094825  0.095133  0.984516  1
  As  As13  1  0.053618  0.053903  0.073271  1
  As  As14  1  0.047684  0.048008  0.152525  1
  As  As15  1  0.033503  0.033673  0.236051  1
  As  As16  1  0.019903  0.019993  0.318857  1
  As  As17  1  0.007773  0.007740  0.400820  1
  As  As18  1  0.995125  0.994952  0.484095  1
  As  As19  1  0.048545  0.048307  0.560045  1
  As  As20  1  0.220391  0.220100  0.611322  1
  As  As21  1  0.966342  0.966142  0.738445  1
  As  As22  1  0.115966  0.115782  0.802101  1
  As  As23  1  0.281222  0.281005  0.863100  1
