# generated using pymatgen
data_Bi4Cl2O5
_symmetry_space_group_name_H-M   'P 1'
_cell_length_a   3.86079924
_cell_length_b   15.48087328
_cell_length_c   41.30677748
_cell_angle_alpha   90.00000000
_cell_angle_beta   90.00000000
_cell_angle_gamma   90.00000000
_symmetry_Int_Tables_number   1
_chemical_formula_structural   Bi4Cl2O5
_chemical_formula_sum   'Bi48 Cl24 O60'
_cell_volume   2468.84593880
_cell_formula_units_Z   12
loop_
 _symmetry_equiv_pos_site_id
 _symmetry_equiv_pos_as_xyz
  1  'x, y, z'
loop_
 _atom_site_type_symbol
 _atom_site_label
 _atom_site_symmetry_multiplicity
 _atom_site_fract_x
 _atom_site_fract_y
 _atom_site_fract_z
 _atom_site_occupancy
  Bi  Bi0  1  0.750000  0.886077  0.841678  1
  Bi  Bi1  1  0.250000  0.516231  0.268336  1
  Bi  Bi2  1  0.750000  0.257687  0.596955  1
  Bi  Bi3  1  0.750000  0.238303  0.407989  1
  Bi  Bi4  1  0.250000  0.634483  0.175504  1
  Bi  Bi5  1  0.750000  0.787544  0.746934  1
  Bi  Bi6  1  0.250000  0.466506  0.911295  1
  Bi  Bi7  1  0.250000  0.212456  0.253066  1
  Bi  Bi8  1  0.250000  0.386077  0.658322  1
  Bi  Bi9  1  0.250000  0.109792  0.649692  1
  Bi  Bi10  1  0.750000  0.609792  0.850308  1
  Bi  Bi11  1  0.250000  0.341853  0.338212  1
  Bi  Bi12  1  0.250000  0.033494  0.411295  1
  Bi  Bi13  1  0.750000  0.100997  0.992534  1
  Bi  Bi14  1  0.750000  0.365517  0.824496  1
  Bi  Bi15  1  0.750000  0.261697  0.907989  1
  Bi  Bi16  1  0.750000  0.483769  0.731664  1
  Bi  Bi17  1  0.750000  0.134483  0.324496  1
  Bi  Bi18  1  0.750000  0.712456  0.246934  1
  Bi  Bi19  1  0.750000  0.096222  0.490868  1
  Bi  Bi20  1  0.750000  0.966506  0.588705  1
  Bi  Bi21  1  0.750000  0.526375  0.578069  1
  Bi  Bi22  1  0.250000  0.757687  0.903045  1
  Bi  Bi23  1  0.250000  0.903778  0.509132  1
  Bi  Bi24  1  0.750000  0.890208  0.350308  1
  Bi  Bi25  1  0.750000  0.841853  0.161788  1
  Bi  Bi26  1  0.250000  0.899003  0.007466  1
  Bi  Bi27  1  0.250000  0.761697  0.592011  1
  Bi  Bi28  1  0.750000  0.403778  0.990868  1
  Bi  Bi29  1  0.250000  0.158147  0.838212  1
  Bi  Bi30  1  0.250000  0.742313  0.403045  1
  Bi  Bi31  1  0.250000  0.113923  0.158322  1
  Bi  Bi32  1  0.250000  0.473625  0.421931  1
  Bi  Bi33  1  0.750000  0.973625  0.078069  1
  Bi  Bi34  1  0.250000  0.287544  0.753066  1
  Bi  Bi35  1  0.750000  0.016231  0.231664  1
  Bi  Bi36  1  0.250000  0.983769  0.768336  1
  Bi  Bi37  1  0.250000  0.390208  0.149692  1
  Bi  Bi38  1  0.750000  0.399003  0.492534  1
  Bi  Bi39  1  0.250000  0.738303  0.092011  1
  Bi  Bi40  1  0.250000  0.600997  0.507466  1
  Bi  Bi41  1  0.250000  0.596222  0.009132  1
  Bi  Bi42  1  0.750000  0.613923  0.341678  1
  Bi  Bi43  1  0.750000  0.658147  0.661788  1
  Bi  Bi44  1  0.750000  0.533494  0.088705  1
  Bi  Bi45  1  0.750000  0.242313  0.096955  1
  Bi  Bi46  1  0.250000  0.026375  0.921931  1
  Bi  Bi47  1  0.250000  0.865517  0.675504  1
  Cl  Cl48  1  0.250000  0.636356  0.724085  1
  Cl  Cl49  1  0.750000  0.491022  0.197775  1
  Cl  Cl50  1  0.750000  0.008978  0.697775  1
  Cl  Cl51  1  0.750000  0.625366  0.446419  1
  Cl  Cl52  1  0.250000  0.991022  0.302225  1
  Cl  Cl53  1  0.250000  0.361671  0.054906  1
  Cl  Cl54  1  0.250000  0.138329  0.554906  1
  Cl  Cl55  1  0.750000  0.242449  0.194417  1
  Cl  Cl56  1  0.250000  0.255428  0.470183  1
  Cl  Cl57  1  0.750000  0.136356  0.775915  1
  Cl  Cl58  1  0.250000  0.757551  0.805583  1
  Cl  Cl59  1  0.750000  0.874634  0.946419  1
  Cl  Cl60  1  0.750000  0.861671  0.445094  1
  Cl  Cl61  1  0.250000  0.508978  0.802225  1
  Cl  Cl62  1  0.250000  0.742449  0.305583  1
  Cl  Cl63  1  0.250000  0.125366  0.053581  1
  Cl  Cl64  1  0.250000  0.244572  0.970183  1
  Cl  Cl65  1  0.750000  0.755428  0.029817  1
  Cl  Cl66  1  0.750000  0.363644  0.275915  1
  Cl  Cl67  1  0.750000  0.257551  0.694417  1
  Cl  Cl68  1  0.750000  0.744572  0.529817  1
  Cl  Cl69  1  0.250000  0.374634  0.553581  1
  Cl  Cl70  1  0.750000  0.638329  0.945094  1
  Cl  Cl71  1  0.250000  0.863644  0.224085  1
  O  O72  1  0.250000  0.255970  0.626933  1
  O  O73  1  0.750000  0.389960  0.624537  1
  O  O74  1  0.250000  0.982770  0.626300  1
  O  O75  1  0.250000  0.030266  0.979957  1
  O  O76  1  0.250000  0.090751  0.223931  1
  O  O77  1  0.250000  0.511919  0.320657  1
  O  O78  1  0.250000  0.731168  0.648676  1
  O  O79  1  0.750000  0.795258  0.690544  1
  O  O80  1  0.750000  0.268832  0.351324  1
  O  O81  1  0.250000  0.295258  0.809456  1
  O  O82  1  0.750000  0.704742  0.190544  1
  O  O83  1  0.250000  0.469734  0.479957  1
  O  O84  1  0.250000  0.896291  0.564562  1
  O  O85  1  0.250000  0.139741  0.889971  1
  O  O86  1  0.750000  0.667312  0.109994  1
  O  O87  1  0.750000  0.372860  0.122498  1
  O  O88  1  0.750000  0.590751  0.276069  1
  O  O89  1  0.750000  0.755970  0.873067  1
  O  O90  1  0.250000  0.988081  0.820657  1
  O  O91  1  0.750000  0.972055  0.521105  1
  O  O92  1  0.250000  0.204742  0.309456  1
  O  O93  1  0.750000  0.110040  0.124537  1
  O  O94  1  0.250000  0.889960  0.875463  1
  O  O95  1  0.250000  0.360259  0.389971  1
  O  O96  1  0.250000  0.603709  0.064562  1
  O  O97  1  0.750000  0.231168  0.851324  1
  O  O98  1  0.250000  0.627140  0.877502  1
  O  O99  1  0.750000  0.832688  0.609994  1
  O  O100  1  0.250000  0.910020  0.061545  1
  O  O101  1  0.250000  0.854611  0.732326  1
  O  O102  1  0.750000  0.103709  0.435438  1
  O  O103  1  0.750000  0.089980  0.938455  1
  O  O104  1  0.750000  0.639741  0.610029  1
  O  O105  1  0.250000  0.409249  0.723931  1
  O  O106  1  0.750000  0.354611  0.767674  1
  O  O107  1  0.250000  0.244030  0.126933  1
  O  O108  1  0.750000  0.860259  0.110029  1
  O  O109  1  0.750000  0.396291  0.935438  1
  O  O110  1  0.250000  0.167312  0.390006  1
  O  O111  1  0.250000  0.332688  0.890006  1
  O  O112  1  0.750000  0.482770  0.873700  1
  O  O113  1  0.250000  0.589980  0.561545  1
  O  O114  1  0.750000  0.127140  0.622498  1
  O  O115  1  0.750000  0.969734  0.020043  1
  O  O116  1  0.750000  0.744030  0.373067  1
  O  O117  1  0.750000  0.530266  0.520043  1
  O  O118  1  0.250000  0.027945  0.478895  1
  O  O119  1  0.750000  0.488081  0.679343  1
  O  O120  1  0.250000  0.768832  0.148676  1
  O  O121  1  0.250000  0.645389  0.232326  1
  O  O122  1  0.750000  0.527945  0.021105  1
  O  O123  1  0.250000  0.610040  0.375463  1
  O  O124  1  0.750000  0.909249  0.776069  1
  O  O125  1  0.750000  0.017230  0.373700  1
  O  O126  1  0.250000  0.472055  0.978895  1
  O  O127  1  0.750000  0.145389  0.267674  1
  O  O128  1  0.750000  0.410020  0.438455  1
  O  O129  1  0.250000  0.517230  0.126300  1
  O  O130  1  0.250000  0.872860  0.377502  1
  O  O131  1  0.750000  0.011919  0.179343  1
