# generated using pymatgen
data_Cr5S8
_symmetry_space_group_name_H-M   'P 1'
_cell_length_a   13.12331145
_cell_length_b   17.78116434
_cell_length_c   11.68737665
_cell_angle_alpha   25.83782578
_cell_angle_beta   48.87704456
_cell_angle_gamma   36.75091489
_symmetry_Int_Tables_number   1
_chemical_formula_structural   Cr5S8
_chemical_formula_sum   'Cr15 S24'
_cell_volume   689.79426398
_cell_formula_units_Z   3
loop_
 _symmetry_equiv_pos_site_id
 _symmetry_equiv_pos_as_xyz
  1  'x, y, z'
loop_
 _atom_site_type_symbol
 _atom_site_label
 _atom_site_symmetry_multiplicity
 _atom_site_fract_x
 _atom_site_fract_y
 _atom_site_fract_z
 _atom_site_occupancy
  Cr  Cr0  1  0.003676  0.994818  0.003297  1
  Cr  Cr1  1  0.166491  0.999599  0.336530  1
  Cr  Cr2  1  0.496324  0.005182  0.996703  1
  Cr  Cr3  1  0.333509  0.000401  0.663470  1
  Cr  Cr4  1  0.250000  0.500000  0.000000  1
  Cr  Cr5  1  0.997137  0.501349  0.500103  1
  Cr  Cr6  1  0.662974  0.991017  0.335067  1
  Cr  Cr7  1  0.094475  0.491497  0.684083  1
  Cr  Cr8  1  0.405525  0.508503  0.315917  1
  Cr  Cr9  1  0.837026  0.008983  0.664933  1
  Cr  Cr10  1  0.750000  0.500000  0.000000  1
  Cr  Cr11  1  0.502863  0.498651  0.499897  1
  Cr  Cr12  1  0.583242  0.500179  0.682226  1
  Cr  Cr13  1  0.916758  0.499821  0.317774  1
  Cr  Cr14  1  0.750000  0.000000  0.500000  1
  S  S15  1  0.293859  0.156069  0.090198  1
  S  S16  1  0.134247  0.327060  0.256919  1
  S  S17  1  0.115178  0.177893  0.735524  1
  S  S18  1  0.039823  0.660407  0.089630  1
  S  S19  1  0.464174  0.163182  0.408848  1
  S  S20  1  0.285140  0.335467  0.590543  1
  S  S21  1  0.791433  0.156083  0.094540  1
  S  S22  1  0.632166  0.325896  0.258329  1
  S  S23  1  0.214860  0.664533  0.409457  1
  S  S24  1  0.615073  0.177062  0.739291  1
  S  S25  1  0.035826  0.836818  0.591152  1
  S  S26  1  0.538765  0.658181  0.091747  1
  S  S27  1  0.460177  0.339593  0.910370  1
  S  S28  1  0.960134  0.169629  0.403973  1
  S  S29  1  0.384822  0.822107  0.264476  1
  S  S30  1  0.788729  0.332626  0.593384  1
  S  S31  1  0.365753  0.672940  0.743081  1
  S  S32  1  0.206141  0.843931  0.909802  1
  S  S33  1  0.711271  0.667374  0.406616  1
  S  S34  1  0.539866  0.830371  0.596027  1
  S  S35  1  0.961235  0.341819  0.908253  1
  S  S36  1  0.884927  0.822938  0.260709  1
  S  S37  1  0.867834  0.674104  0.741671  1
  S  S38  1  0.708567  0.843917  0.905460  1
