# generated using pymatgen
data_BaNb2O6
_symmetry_space_group_name_H-M   'P 1'
_cell_length_a   3.97929837
_cell_length_b   6.23495059
_cell_length_c   10.72756591
_cell_angle_alpha   89.99977050
_cell_angle_beta   90.00025426
_cell_angle_gamma   89.99997111
_symmetry_Int_Tables_number   1
_chemical_formula_structural   BaNb2O6
_chemical_formula_sum   'Ba2 Nb4 O12'
_cell_volume   266.15872761
_cell_formula_units_Z   2
loop_
 _symmetry_equiv_pos_site_id
 _symmetry_equiv_pos_as_xyz
  1  'x, y, z'
loop_
 _atom_site_type_symbol
 _atom_site_label
 _atom_site_symmetry_multiplicity
 _atom_site_fract_x
 _atom_site_fract_y
 _atom_site_fract_z
 _atom_site_occupancy
  Ba  Ba0  1  0.999991  0.312281  0.750002  1
  Ba  Ba1  1  0.000002  0.687722  0.250000  1
  Nb  Nb2  1  0.500003  0.215135  0.078223  1
  Nb  Nb3  1  0.499996  0.215133  0.421778  1
  Nb  Nb4  1  0.500017  0.784865  0.578221  1
  Nb  Nb5  1  0.499984  0.784869  0.921777  1
  O  O6  1  0.999999  0.221182  0.413071  1
  O  O7  1  0.500002  0.895405  0.392921  1
  O  O8  1  0.500003  0.895405  0.107079  1
  O  O9  1  0.000007  0.221181  0.086929  1
  O  O10  1  0.500000  0.104597  0.607078  1
  O  O11  1  0.999998  0.778815  0.586929  1
  O  O12  1  0.000002  0.778816  0.913070  1
  O  O13  1  0.500002  0.343868  0.250000  1
  O  O14  1  0.500000  0.499999  0.000001  1
  O  O15  1  0.500000  0.104593  0.892921  1
  O  O16  1  0.499999  0.656134  0.750000  1
  O  O17  1  0.499996  0.499999  0.500000  1
