# generated using pymatgen
data_SrIn6Cu7
_symmetry_space_group_name_H-M   'P 1'
_cell_length_a   12.74960390
_cell_length_b   12.77591330
_cell_length_c   12.78380209
_cell_angle_alpha   90.00000000
_cell_angle_beta   90.00000000
_cell_angle_gamma   90.00000000
_symmetry_Int_Tables_number   1
_chemical_formula_structural   SrIn6Cu7
_chemical_formula_sum   'Sr8 In48 Cu56'
_cell_volume   2082.32583318
_cell_formula_units_Z   8
loop_
 _symmetry_equiv_pos_site_id
 _symmetry_equiv_pos_as_xyz
  1  'x, y, z'
loop_
 _atom_site_type_symbol
 _atom_site_label
 _atom_site_symmetry_multiplicity
 _atom_site_fract_x
 _atom_site_fract_y
 _atom_site_fract_z
 _atom_site_occupancy
  Sr  Sr0  1  0.500000  0.000000  0.751762  1
  Sr  Sr1  1  0.500000  0.000000  0.248238  1
  Sr  Sr2  1  0.000000  0.500000  0.748238  1
  Sr  Sr3  1  0.000000  0.500000  0.251762  1
  Sr  Sr4  1  0.000000  0.000000  0.247639  1
  Sr  Sr5  1  0.500000  0.500000  0.252361  1
  Sr  Sr6  1  0.000000  0.000000  0.752361  1
  Sr  Sr7  1  0.500000  0.500000  0.747639  1
  In  In8  1  0.562805  0.251348  0.637698  1
  In  In9  1  0.562805  0.251348  0.362302  1
  In  In10  1  0.937195  0.751348  0.862302  1
  In  In11  1  0.567528  0.387635  0.000000  1
  In  In12  1  0.749668  0.082327  0.864776  1
  In  In13  1  0.062805  0.248652  0.137698  1
  In  In14  1  0.565697  0.750785  0.863218  1
  In  In15  1  0.250011  0.046188  0.639493  1
  In  In16  1  0.568618  0.886292  0.500000  1
  In  In17  1  0.437195  0.748652  0.362302  1
  In  In18  1  0.065697  0.749215  0.636782  1
  In  In19  1  0.750011  0.453812  0.139493  1
  In  In20  1  0.931382  0.386292  0.000000  1
  In  In21  1  0.116597  0.562200  0.500000  1
  In  In22  1  0.616597  0.937800  0.000000  1
  In  In23  1  0.937195  0.751348  0.137698  1
  In  In24  1  0.065697  0.749215  0.363218  1
  In  In25  1  0.250332  0.917673  0.864776  1
  In  In26  1  0.068618  0.613708  0.000000  1
  In  In27  1  0.750332  0.582327  0.635224  1
  In  In28  1  0.250332  0.917673  0.135224  1
  In  In29  1  0.614088  0.438830  0.500000  1
  In  In30  1  0.431382  0.113708  0.500000  1
  In  In31  1  0.250011  0.046188  0.360507  1
  In  In32  1  0.067528  0.112365  0.500000  1
  In  In33  1  0.062805  0.248652  0.862302  1
  In  In34  1  0.385912  0.561170  0.500000  1
  In  In35  1  0.885912  0.938830  0.000000  1
  In  In36  1  0.434303  0.249215  0.136782  1
  In  In37  1  0.437195  0.748652  0.637698  1
  In  In38  1  0.750011  0.453812  0.860507  1
  In  In39  1  0.434303  0.249215  0.863218  1
  In  In40  1  0.749668  0.082327  0.135224  1
  In  In41  1  0.249668  0.417673  0.635224  1
  In  In42  1  0.249989  0.546188  0.139493  1
  In  In43  1  0.249668  0.417673  0.364776  1
  In  In44  1  0.934303  0.250785  0.636782  1
  In  In45  1  0.750332  0.582327  0.364776  1
  In  In46  1  0.883403  0.437800  0.500000  1
  In  In47  1  0.565697  0.750785  0.136782  1
  In  In48  1  0.934303  0.250785  0.363218  1
  In  In49  1  0.932472  0.887635  0.500000  1
  In  In50  1  0.749989  0.953812  0.360507  1
  In  In51  1  0.432472  0.612365  0.000000  1
  In  In52  1  0.383403  0.062200  0.000000  1
  In  In53  1  0.114088  0.061170  0.000000  1
  In  In54  1  0.749989  0.953812  0.639493  1
  In  In55  1  0.249989  0.546188  0.860507  1
  Cu  Cu56  1  0.144083  0.411895  0.000000  1
  Cu  Cu57  1  0.248463  0.132685  0.170905  1
  Cu  Cu58  1  0.647676  0.765106  0.671841  1
  Cu  Cu59  1  0.251821  0.739033  0.500000  1
  Cu  Cu60  1  0.855688  0.765170  0.671021  1
  Cu  Cu61  1  0.751896  0.759573  0.500000  1
  Cu  Cu62  1  0.917673  0.151128  0.000000  1
  Cu  Cu63  1  0.644083  0.088105  0.500000  1
  Cu  Cu64  1  0.146938  0.910884  0.500000  1
  Cu  Cu65  1  0.852324  0.265106  0.171841  1
  Cu  Cu66  1  0.579917  0.146935  0.000000  1
  Cu  Cu67  1  0.751867  0.659242  0.828549  1
  Cu  Cu68  1  0.251867  0.840758  0.671451  1
  Cu  Cu69  1  0.355688  0.734830  0.171021  1
  Cu  Cu70  1  0.644312  0.265170  0.828979  1
  Cu  Cu71  1  0.251537  0.632685  0.329095  1
  Cu  Cu72  1  0.748463  0.367315  0.670905  1
  Cu  Cu73  1  0.855688  0.765170  0.328979  1
  Cu  Cu74  1  0.352324  0.234894  0.328159  1
  Cu  Cu75  1  0.748179  0.260967  0.500000  1
  Cu  Cu76  1  0.251537  0.632685  0.670905  1
  Cu  Cu77  1  0.147676  0.734894  0.171841  1
  Cu  Cu78  1  0.251867  0.840758  0.328549  1
  Cu  Cu79  1  0.248133  0.340758  0.828549  1
  Cu  Cu80  1  0.248179  0.239033  0.000000  1
  Cu  Cu81  1  0.144312  0.234830  0.328979  1
  Cu  Cu82  1  0.751537  0.867315  0.829095  1
  Cu  Cu83  1  0.853062  0.089116  0.500000  1
  Cu  Cu84  1  0.352324  0.234894  0.671841  1
  Cu  Cu85  1  0.748104  0.259573  0.000000  1
  Cu  Cu86  1  0.748133  0.159242  0.671451  1
  Cu  Cu87  1  0.751867  0.659242  0.171451  1
  Cu  Cu88  1  0.748463  0.367315  0.329095  1
  Cu  Cu89  1  0.355688  0.734830  0.828979  1
  Cu  Cu90  1  0.644312  0.265170  0.171021  1
  Cu  Cu91  1  0.248463  0.132685  0.829095  1
  Cu  Cu92  1  0.852324  0.265106  0.828159  1
  Cu  Cu93  1  0.751537  0.867315  0.170905  1
  Cu  Cu94  1  0.248133  0.340758  0.171451  1
  Cu  Cu95  1  0.353062  0.410884  0.000000  1
  Cu  Cu96  1  0.079917  0.353065  0.500000  1
  Cu  Cu97  1  0.082327  0.848872  0.000000  1
  Cu  Cu98  1  0.417673  0.348872  0.500000  1
  Cu  Cu99  1  0.582327  0.651128  0.500000  1
  Cu  Cu100  1  0.751821  0.760967  0.000000  1
  Cu  Cu101  1  0.420083  0.853065  0.000000  1
  Cu  Cu102  1  0.251896  0.740427  0.000000  1
  Cu  Cu103  1  0.748133  0.159242  0.328549  1
  Cu  Cu104  1  0.248104  0.240427  0.500000  1
  Cu  Cu105  1  0.647676  0.765106  0.328159  1
  Cu  Cu106  1  0.144312  0.234830  0.671021  1
  Cu  Cu107  1  0.355917  0.911895  0.500000  1
  Cu  Cu108  1  0.920083  0.646935  0.500000  1
  Cu  Cu109  1  0.147676  0.734894  0.828159  1
  Cu  Cu110  1  0.855917  0.588105  0.000000  1
  Cu  Cu111  1  0.646938  0.589116  0.000000  1
