# generated using pymatgen
data_Bi2O3
_symmetry_space_group_name_H-M   'P 1'
_cell_length_a   3.98330562
_cell_length_b   3.79682309
_cell_length_c   8.26922220
_cell_angle_alpha   62.66765507
_cell_angle_beta   60.95606944
_cell_angle_gamma   61.53694136
_symmetry_Int_Tables_number   1
_chemical_formula_structural   Bi2O3
_chemical_formula_sum   'Bi2 O3'
_cell_volume   91.80185941
_cell_formula_units_Z   1
loop_
 _symmetry_equiv_pos_site_id
 _symmetry_equiv_pos_as_xyz
  1  'x, y, z'
loop_
 _atom_site_type_symbol
 _atom_site_label
 _atom_site_symmetry_multiplicity
 _atom_site_fract_x
 _atom_site_fract_y
 _atom_site_fract_z
 _atom_site_occupancy
  Bi  Bi0  1  0.028753  0.970366  0.015257  1
  Bi  Bi1  1  0.944673  0.015783  0.511880  1
  O  O2  1  0.138417  0.263183  0.167608  1
  O  O3  1  0.611366  0.693380  0.500937  1
  O  O4  1  0.686790  0.807287  0.849318  1
