# generated using pymatgen
data_Al3(PO4)4
_symmetry_space_group_name_H-M   'P 1'
_cell_length_a   13.16754591
_cell_length_b   13.16754611
_cell_length_c   18.37037892
_cell_angle_alpha   90.00000000
_cell_angle_beta   90.00000000
_cell_angle_gamma   119.99999953
_symmetry_Int_Tables_number   1
_chemical_formula_structural   Al3(PO4)4
_chemical_formula_sum   'Al12 P16 O64'
_cell_volume   2758.40757804
_cell_formula_units_Z   4
loop_
 _symmetry_equiv_pos_site_id
 _symmetry_equiv_pos_as_xyz
  1  'x, y, z'
loop_
 _atom_site_type_symbol
 _atom_site_label
 _atom_site_symmetry_multiplicity
 _atom_site_fract_x
 _atom_site_fract_y
 _atom_site_fract_z
 _atom_site_occupancy
  Al  Al0  1  0.145009  0.670167  0.490449  1
  Al  Al1  1  0.525158  0.854991  0.490449  1
  Al  Al2  1  0.474842  0.145009  0.509551  1
  Al  Al3  1  0.525158  0.670167  0.990449  1
  Al  Al4  1  0.670167  0.525158  0.509551  1
  Al  Al5  1  0.329833  0.474842  0.490449  1
  Al  Al6  1  0.145009  0.474842  0.990449  1
  Al  Al7  1  0.670167  0.145009  0.009551  1
  Al  Al8  1  0.329833  0.854991  0.990449  1
  Al  Al9  1  0.854991  0.525158  0.009551  1
  Al  Al10  1  0.854991  0.329833  0.509551  1
  Al  Al11  1  0.474842  0.329833  0.009551  1
  P  P12  1  0.572089  0.906007  0.926009  1
  P  P13  1  0.093993  0.666082  0.926009  1
  P  P14  1  0.666082  0.572089  0.073991  1
  P  P15  1  0.666667  0.333333  0.404108  1
  P  P16  1  0.333333  0.666667  0.595892  1
  P  P17  1  0.572089  0.666082  0.426009  1
  P  P18  1  0.666667  0.333333  0.904108  1
  P  P19  1  0.093993  0.427911  0.426009  1
  P  P20  1  0.333333  0.666667  0.095892  1
  P  P21  1  0.666082  0.093993  0.573991  1
  P  P22  1  0.333918  0.427911  0.926009  1
  P  P23  1  0.427911  0.333918  0.573991  1
  P  P24  1  0.906007  0.333918  0.073991  1
  P  P25  1  0.333918  0.906007  0.426009  1
  P  P26  1  0.427911  0.093993  0.073991  1
  P  P27  1  0.906007  0.572089  0.573991  1
  O  O28  1  0.322798  0.771581  0.066958  1
  O  O29  1  0.805262  0.210038  0.054890  1
  O  O30  1  0.381870  0.334484  0.650571  1
  O  O31  1  0.666667  0.333333  0.821077  1
  O  O32  1  0.577449  0.438538  0.068459  1
  O  O33  1  0.047387  0.381870  0.349429  1
  O  O34  1  0.448782  0.677202  0.066958  1
  O  O35  1  0.995383  0.362427  0.482823  1
  O  O36  1  0.422551  0.561462  0.931541  1
  O  O37  1  0.861089  0.438538  0.568459  1
  O  O38  1  0.334484  0.381870  0.849429  1
  O  O39  1  0.577449  0.138911  0.568459  1
  O  O40  1  0.618130  0.665516  0.349429  1
  O  O41  1  0.789962  0.595223  0.054890  1
  O  O42  1  0.362427  0.367044  0.517177  1
  O  O43  1  0.861089  0.422551  0.068459  1
  O  O44  1  0.138911  0.561462  0.431541  1
  O  O45  1  0.637573  0.004617  0.982823  1
  O  O46  1  0.637573  0.632956  0.482823  1
  O  O47  1  0.561462  0.138911  0.068459  1
  O  O48  1  0.322798  0.551218  0.566958  1
  O  O49  1  0.438538  0.577449  0.431541  1
  O  O50  1  0.210038  0.404777  0.945110  1
  O  O51  1  0.771581  0.322798  0.433042  1
  O  O52  1  0.995383  0.632956  0.982823  1
  O  O53  1  0.422551  0.861089  0.431541  1
  O  O54  1  0.438538  0.861089  0.931541  1
  O  O55  1  0.210038  0.805262  0.445110  1
  O  O56  1  0.789962  0.194738  0.554890  1
  O  O57  1  0.004617  0.637573  0.517177  1
  O  O58  1  0.194738  0.404777  0.445110  1
  O  O59  1  0.367044  0.362427  0.982823  1
  O  O60  1  0.362427  0.995383  0.017177  1
  O  O61  1  0.632956  0.637573  0.017177  1
  O  O62  1  0.194738  0.789962  0.945110  1
  O  O63  1  0.404777  0.194738  0.054890  1
  O  O64  1  0.561462  0.422551  0.568459  1
  O  O65  1  0.677202  0.448782  0.433042  1
  O  O66  1  0.333333  0.666667  0.678923  1
  O  O67  1  0.448782  0.771581  0.566958  1
  O  O68  1  0.595223  0.789962  0.445110  1
  O  O69  1  0.666667  0.333333  0.321077  1
  O  O70  1  0.551218  0.228419  0.433042  1
  O  O71  1  0.677202  0.228419  0.933042  1
  O  O72  1  0.333333  0.666667  0.178923  1
  O  O73  1  0.665516  0.047387  0.650571  1
  O  O74  1  0.381870  0.047387  0.150571  1
  O  O75  1  0.228419  0.677202  0.566958  1
  O  O76  1  0.551218  0.322798  0.933042  1
  O  O77  1  0.404777  0.210038  0.554890  1
  O  O78  1  0.228419  0.551218  0.066958  1
  O  O79  1  0.805262  0.595223  0.554890  1
  O  O80  1  0.632956  0.995383  0.517177  1
  O  O81  1  0.138911  0.577449  0.931541  1
  O  O82  1  0.665516  0.618130  0.150571  1
  O  O83  1  0.595223  0.805262  0.945110  1
  O  O84  1  0.771581  0.448782  0.933042  1
  O  O85  1  0.047387  0.665516  0.849429  1
  O  O86  1  0.618130  0.952613  0.849429  1
  O  O87  1  0.952613  0.618130  0.650571  1
  O  O88  1  0.004617  0.367044  0.017177  1
  O  O89  1  0.334484  0.952613  0.349429  1
  O  O90  1  0.367044  0.004617  0.482823  1
  O  O91  1  0.952613  0.334484  0.150571  1
