# generated using pymatgen
data_K3LiMg4(Si2O5)6
_symmetry_space_group_name_H-M   'P 1'
_cell_length_a   10.43622206
_cell_length_b   10.42400326
_cell_length_c   14.03219564
_cell_angle_alpha   90.00000000
_cell_angle_beta   90.00000000
_cell_angle_gamma   119.96144046
_symmetry_Int_Tables_number   1
_chemical_formula_structural   K3LiMg4(Si2O5)6
_chemical_formula_sum   'K6 Li2 Mg8 Si24 O60'
_cell_volume   1322.52145851
_cell_formula_units_Z   2
loop_
 _symmetry_equiv_pos_site_id
 _symmetry_equiv_pos_as_xyz
  1  'x, y, z'
loop_
 _atom_site_type_symbol
 _atom_site_label
 _atom_site_symmetry_multiplicity
 _atom_site_fract_x
 _atom_site_fract_y
 _atom_site_fract_z
 _atom_site_occupancy
  K  K0  1  0.336010  0.667263  0.500003  1
  K  K1  1  0.000000  0.000000  0.250005  1
  K  K2  1  0.336011  0.668749  0.000004  1
  K  K3  1  0.663989  0.331251  0.000004  1
  K  K4  1  0.663990  0.332737  0.500003  1
  K  K5  1  0.000000  0.000000  0.750006  1
  Li  Li6  1  0.500000  0.500000  0.250063  1
  Li  Li7  1  0.500000  0.000000  0.750063  1
  Mg  Mg8  1  0.339247  0.661148  0.249966  1
  Mg  Mg9  1  0.339246  0.678097  0.749966  1
  Mg  Mg10  1  0.500000  0.500000  0.749990  1
  Mg  Mg11  1  0.660753  0.338852  0.249966  1
  Mg  Mg12  1  0.500000  0.000000  0.249989  1
  Mg  Mg13  1  0.660754  0.321903  0.749966  1
  Mg  Mg14  1  0.000000  0.500000  0.249913  1
  Mg  Mg15  1  0.000000  0.500000  0.749911  1
  Si  Si16  1  0.110840  0.769182  0.615909  1
  Si  Si17  1  0.109613  0.767492  0.383832  1
  Si  Si18  1  0.234708  0.889131  0.883293  1
  Si  Si19  1  0.232565  0.890623  0.115859  1
  Si  Si20  1  0.110841  0.341659  0.115909  1
  Si  Si21  1  0.109614  0.342122  0.883832  1
  Si  Si22  1  0.234708  0.345576  0.383293  1
  Si  Si23  1  0.232565  0.341942  0.615858  1
  Si  Si24  1  0.659009  0.889466  0.384275  1
  Si  Si25  1  0.655109  0.889290  0.616804  1
  Si  Si26  1  0.344891  0.234182  0.116805  1
  Si  Si27  1  0.340991  0.230457  0.884275  1
  Si  Si28  1  0.655109  0.765818  0.116805  1
  Si  Si29  1  0.659009  0.769543  0.884275  1
  Si  Si30  1  0.340991  0.110534  0.384275  1
  Si  Si31  1  0.344891  0.110710  0.616804  1
  Si  Si32  1  0.765292  0.654424  0.383293  1
  Si  Si33  1  0.767435  0.658058  0.615858  1
  Si  Si34  1  0.889159  0.658341  0.115909  1
  Si  Si35  1  0.890386  0.657878  0.883832  1
  Si  Si36  1  0.765292  0.110869  0.883293  1
  Si  Si37  1  0.767435  0.109377  0.115859  1
  Si  Si38  1  0.889160  0.230818  0.615909  1
  Si  Si39  1  0.890387  0.232508  0.383832  1
  O  O40  1  0.058397  0.783667  0.146568  1
  O  O41  1  0.058334  0.783569  0.853499  1
  O  O42  1  0.215576  0.941102  0.352756  1
  O  O43  1  0.214210  0.942427  0.646530  1
  O  O44  1  0.120572  0.760040  0.499840  1
  O  O45  1  0.239640  0.881056  0.000001  1
  O  O46  1  0.155394  0.657956  0.332315  1
  O  O47  1  0.154730  0.657793  0.667001  1
  O  O48  1  0.154730  0.496938  0.167002  1
  O  O49  1  0.155394  0.497440  0.832314  1
  O  O50  1  0.340986  0.839871  0.834993  1
  O  O51  1  0.341707  0.844534  0.167558  1
  O  O52  1  0.058336  0.274765  0.353500  1
  O  O53  1  0.058397  0.274730  0.646568  1
  O  O54  1  0.120573  0.360532  0.999840  1
  O  O55  1  0.239640  0.358584  0.500001  1
  O  O56  1  0.214210  0.271783  0.146530  1
  O  O57  1  0.215576  0.274474  0.852755  1
  O  O58  1  0.498967  0.840053  0.664931  1
  O  O59  1  0.503640  0.845531  0.333234  1
  O  O60  1  0.340988  0.501118  0.334995  1
  O  O61  1  0.341708  0.497174  0.667558  1
  O  O62  1  0.271717  0.214508  0.353317  1
  O  O63  1  0.274480  0.216032  0.647343  1
  O  O64  1  0.498970  0.658915  0.164933  1
  O  O65  1  0.503640  0.658109  0.833235  1
  O  O66  1  0.642664  0.881601  0.500186  1
  O  O67  1  0.274480  0.058447  0.147344  1
  O  O68  1  0.271717  0.057210  0.853316  1
  O  O69  1  0.357335  0.238936  0.000186  1
  O  O70  1  0.642665  0.761064  0.000186  1
  O  O71  1  0.725520  0.941553  0.147344  1
  O  O72  1  0.728283  0.942790  0.853316  1
  O  O73  1  0.357336  0.118400  0.500186  1
  O  O74  1  0.501030  0.341085  0.164933  1
  O  O75  1  0.496360  0.341891  0.833235  1
  O  O76  1  0.725520  0.783968  0.647343  1
  O  O77  1  0.728283  0.785492  0.353317  1
  O  O78  1  0.659012  0.498882  0.334995  1
  O  O79  1  0.658292  0.502826  0.667558  1
  O  O80  1  0.501033  0.159947  0.664931  1
  O  O81  1  0.496360  0.154469  0.333234  1
  O  O82  1  0.785790  0.728217  0.146530  1
  O  O83  1  0.784424  0.725526  0.852755  1
  O  O84  1  0.760360  0.641416  0.500001  1
  O  O85  1  0.879427  0.639468  0.999840  1
  O  O86  1  0.941664  0.725235  0.353500  1
  O  O87  1  0.941603  0.725270  0.646568  1
  O  O88  1  0.659014  0.160129  0.834993  1
  O  O89  1  0.658293  0.155466  0.167558  1
  O  O90  1  0.845270  0.503062  0.167002  1
  O  O91  1  0.844606  0.502560  0.832314  1
  O  O92  1  0.844606  0.342044  0.332315  1
  O  O93  1  0.845270  0.342207  0.667001  1
  O  O94  1  0.760360  0.118944  0.000001  1
  O  O95  1  0.879428  0.239960  0.499840  1
  O  O96  1  0.784424  0.058898  0.352756  1
  O  O97  1  0.785790  0.057573  0.646530  1
  O  O98  1  0.941603  0.216333  0.146568  1
  O  O99  1  0.941666  0.216431  0.853499  1
