# generated using pymatgen
data_CdAs2C4SN4(OF6)2
_symmetry_space_group_name_H-M   'P 1'
_cell_length_a   8.44603030
_cell_length_b   13.17358948
_cell_length_c   15.02722409
_cell_angle_alpha   90.00000000
_cell_angle_beta   90.00000000
_cell_angle_gamma   90.00000000
_symmetry_Int_Tables_number   1
_chemical_formula_structural   CdAs2C4SN4(OF6)2
_chemical_formula_sum   'Cd4 As8 C16 S4 N16 O8 F48'
_cell_volume   1671.99711436
_cell_formula_units_Z   4
loop_
 _symmetry_equiv_pos_site_id
 _symmetry_equiv_pos_as_xyz
  1  'x, y, z'
loop_
 _atom_site_type_symbol
 _atom_site_label
 _atom_site_symmetry_multiplicity
 _atom_site_fract_x
 _atom_site_fract_y
 _atom_site_fract_z
 _atom_site_occupancy
  Cd  Cd0  1  0.750000  0.891126  0.809612  1
  Cd  Cd1  1  0.750000  0.608874  0.309612  1
  Cd  Cd2  1  0.250000  0.391126  0.690388  1
  Cd  Cd3  1  0.250000  0.108874  0.190388  1
  As  As4  1  0.750000  0.588524  0.863689  1
  As  As5  1  0.250000  0.088524  0.636311  1
  As  As6  1  0.750000  0.911476  0.363689  1
  As  As7  1  0.750000  0.359982  0.415123  1
  As  As8  1  0.250000  0.859982  0.084877  1
  As  As9  1  0.250000  0.640018  0.584877  1
  As  As10  1  0.750000  0.140018  0.915123  1
  As  As11  1  0.250000  0.411476  0.136311  1
  C  C12  1  0.668460  0.366498  0.695847  1
  C  C13  1  0.750000  0.764941  0.110983  1
  C  C14  1  0.168460  0.633502  0.304153  1
  C  C15  1  0.331540  0.633502  0.304153  1
  C  C16  1  0.668460  0.133502  0.195847  1
  C  C17  1  0.331540  0.866498  0.804153  1
  C  C18  1  0.750000  0.816749  0.031344  1
  C  C19  1  0.250000  0.316749  0.468656  1
  C  C20  1  0.750000  0.735059  0.610983  1
  C  C21  1  0.250000  0.183251  0.968656  1
  C  C22  1  0.168460  0.866498  0.804153  1
  C  C23  1  0.831540  0.366498  0.695847  1
  C  C24  1  0.831540  0.133502  0.195847  1
  C  C25  1  0.750000  0.683251  0.531344  1
  C  C26  1  0.250000  0.235059  0.889017  1
  C  C27  1  0.250000  0.264941  0.389017  1
  S  S28  1  0.750000  0.436024  0.106772  1
  S  S29  1  0.250000  0.936024  0.393228  1
  S  S30  1  0.250000  0.563976  0.893228  1
  S  S31  1  0.750000  0.063976  0.606772  1
  N  N32  1  0.969060  0.129921  0.196926  1
  N  N33  1  0.250000  0.218409  0.323168  1
  N  N34  1  0.750000  0.856636  0.962305  1
  N  N35  1  0.750000  0.718409  0.176832  1
  N  N36  1  0.030940  0.870079  0.803074  1
  N  N37  1  0.530940  0.370079  0.696926  1
  N  N38  1  0.469060  0.870079  0.803074  1
  N  N39  1  0.469060  0.629921  0.303074  1
  N  N40  1  0.250000  0.281591  0.823168  1
  N  N41  1  0.250000  0.356636  0.537695  1
  N  N42  1  0.250000  0.143364  0.037695  1
  N  N43  1  0.969060  0.370079  0.696926  1
  N  N44  1  0.530940  0.129921  0.196926  1
  N  N45  1  0.750000  0.643364  0.462305  1
  N  N46  1  0.750000  0.781591  0.676832  1
  N  N47  1  0.030940  0.629921  0.303074  1
  O  O48  1  0.250000  0.495956  0.816379  1
  O  O49  1  0.750000  0.995956  0.683621  1
  O  O50  1  0.250000  0.671165  0.875594  1
  O  O51  1  0.750000  0.504044  0.183621  1
  O  O52  1  0.750000  0.328835  0.124406  1
  O  O53  1  0.250000  0.828835  0.375594  1
  O  O54  1  0.250000  0.004044  0.316379  1
  O  O55  1  0.750000  0.171165  0.624406  1
  F  F56  1  0.104209  0.315880  0.152213  1
  F  F57  1  0.750000  0.936601  0.247725  1
  F  F58  1  0.750000  0.613889  0.979938  1
  F  F59  1  0.894768  0.448629  0.373022  1
  F  F60  1  0.604209  0.684120  0.847787  1
  F  F61  1  0.394768  0.551371  0.626978  1
  F  F62  1  0.898633  0.004021  0.379882  1
  F  F63  1  0.902470  0.280197  0.453787  1
  F  F64  1  0.402470  0.780197  0.046213  1
  F  F65  1  0.250000  0.386111  0.020062  1
  F  F66  1  0.750000  0.075110  0.018306  1
  F  F67  1  0.605232  0.448629  0.373022  1
  F  F68  1  0.750000  0.886111  0.479938  1
  F  F69  1  0.395791  0.184120  0.652213  1
  F  F70  1  0.895791  0.815880  0.347787  1
  F  F71  1  0.604209  0.815880  0.347787  1
  F  F72  1  0.097530  0.719803  0.546213  1
  F  F73  1  0.902470  0.219803  0.953787  1
  F  F74  1  0.601367  0.004021  0.379882  1
  F  F75  1  0.398633  0.504021  0.120118  1
  F  F76  1  0.398633  0.995979  0.620118  1
  F  F77  1  0.101367  0.504021  0.120118  1
  F  F78  1  0.605232  0.051371  0.873022  1
  F  F79  1  0.597530  0.280197  0.453787  1
  F  F80  1  0.101367  0.995979  0.620118  1
  F  F81  1  0.750000  0.563399  0.747725  1
  F  F82  1  0.402470  0.719803  0.546213  1
  F  F83  1  0.250000  0.063399  0.752275  1
  F  F84  1  0.097530  0.780197  0.046213  1
  F  F85  1  0.250000  0.575110  0.481694  1
  F  F86  1  0.104209  0.184120  0.652213  1
  F  F87  1  0.250000  0.703445  0.687870  1
  F  F88  1  0.250000  0.113889  0.520062  1
  F  F89  1  0.750000  0.203445  0.812130  1
  F  F90  1  0.895791  0.684120  0.847787  1
  F  F91  1  0.394768  0.948629  0.126978  1
  F  F92  1  0.250000  0.924890  0.981694  1
  F  F93  1  0.105232  0.551371  0.626978  1
  F  F94  1  0.750000  0.296555  0.312130  1
  F  F95  1  0.105232  0.948629  0.126978  1
  F  F96  1  0.894768  0.051371  0.873022  1
  F  F97  1  0.750000  0.424890  0.518306  1
  F  F98  1  0.601367  0.495979  0.879882  1
  F  F99  1  0.395791  0.315880  0.152213  1
  F  F100  1  0.250000  0.436601  0.252275  1
  F  F101  1  0.250000  0.796555  0.187870  1
  F  F102  1  0.898633  0.495979  0.879882  1
  F  F103  1  0.597530  0.219803  0.953787  1
