# generated using pymatgen
data_EuBi2IO4
_symmetry_space_group_name_H-M   'P 1'
_cell_length_a   3.98599458
_cell_length_b   3.97453236
_cell_length_c   9.80572959
_cell_angle_alpha   90.07303215
_cell_angle_beta   89.69911531
_cell_angle_gamma   89.89482347
_symmetry_Int_Tables_number   1
_chemical_formula_structural   EuBi2IO4
_chemical_formula_sum   'Eu1 Bi2 I1 O4'
_cell_volume   155.34439054
_cell_formula_units_Z   1
loop_
 _symmetry_equiv_pos_site_id
 _symmetry_equiv_pos_as_xyz
  1  'x, y, z'
loop_
 _atom_site_type_symbol
 _atom_site_label
 _atom_site_symmetry_multiplicity
 _atom_site_fract_x
 _atom_site_fract_y
 _atom_site_fract_z
 _atom_site_occupancy
  Eu  Eu0  1  0.000061  0.999922  0.000012  1
  Bi  Bi1  1  0.498181  0.501532  0.258150  1
  Bi  Bi2  1  0.501786  0.498514  0.741849  1
  I  I3  1  0.999971  0.000038  0.499970  1
  O  O4  1  0.500506  0.000745  0.853019  1
  O  O5  1  0.999013  0.499703  0.853493  1
  O  O6  1  0.499513  0.999277  0.146972  1
  O  O7  1  0.000969  0.500268  0.146535  1
