# generated using pymatgen
data_AlPO4
_symmetry_space_group_name_H-M   'P 1'
_cell_length_a   14.23234934
_cell_length_b   13.77801100
_cell_length_c   8.64080217
_cell_angle_alpha   90.12162363
_cell_angle_beta   89.72151966
_cell_angle_gamma   119.73192082
_symmetry_Int_Tables_number   1
_chemical_formula_structural   AlPO4
_chemical_formula_sum   'Al12 P12 O48'
_cell_volume   1471.32804868
_cell_formula_units_Z   12
loop_
 _symmetry_equiv_pos_site_id
 _symmetry_equiv_pos_as_xyz
  1  'x, y, z'
loop_
 _atom_site_type_symbol
 _atom_site_label
 _atom_site_symmetry_multiplicity
 _atom_site_fract_x
 _atom_site_fract_y
 _atom_site_fract_z
 _atom_site_occupancy
  Al  Al0  1  0.334617  0.875179  0.178304  1
  Al  Al1  1  0.330621  0.454739  0.307511  1
  Al  Al2  1  0.330155  0.456584  0.697326  1
  Al  Al3  1  0.458611  0.127341  0.675188  1
  Al  Al4  1  0.669066  0.548588  0.315344  1
  Al  Al5  1  0.667121  0.547094  0.687354  1
  Al  Al6  1  0.877443  0.551327  0.822942  1
  Al  Al7  1  0.879219  0.551059  0.186066  1
  Al  Al8  1  0.671447  0.128697  0.818477  1
  Al  Al9  1  0.668765  0.120230  0.187761  1
  Al  Al10  1  0.879403  0.328477  0.685714  1
  Al  Al11  1  0.879111  0.329672  0.319996  1
  P  P12  1  0.128360  0.662351  0.673239  1
  P  P13  1  0.125701  0.663842  0.322911  1
  P  P14  1  0.335187  0.870695  0.801541  1
  P  P15  1  0.123088  0.459555  0.175027  1
  P  P16  1  0.122877  0.459795  0.830966  1
  P  P17  1  0.535006  0.867531  0.323344  1
  P  P18  1  0.536784  0.869076  0.673708  1
  P  P19  1  0.539066  0.669848  0.177770  1
  P  P20  1  0.536900  0.669703  0.827329  1
  P  P21  1  0.456276  0.331109  0.178915  1
  P  P22  1  0.450420  0.329681  0.818089  1
  P  P23  1  0.453284  0.122659  0.307446  1
  O  O24  1  0.021951  0.650085  0.704149  1
  O  O25  1  0.163755  0.666486  0.499996  1
  O  O26  1  0.210371  0.777755  0.259367  1
  O  O27  1  0.222966  0.783170  0.730747  1
  O  O28  1  0.010627  0.373558  0.805874  1
  O  O29  1  0.362560  0.983491  0.743628  1
  O  O30  1  0.162229  0.579940  0.744504  1
  O  O31  1  0.159983  0.577198  0.260130  1
  O  O32  1  0.329017  0.856217  0.974741  1
  O  O33  1  0.147933  0.508395  0.002300  1
  O  O34  1  0.424870  0.832553  0.253262  1
  O  O35  1  0.417566  0.830636  0.738490  1
  O  O36  1  0.209386  0.430871  0.790264  1
  O  O37  1  0.210660  0.430931  0.213218  1
  O  O38  1  0.329599  0.461814  0.502337  1
  O  O39  1  0.509987  0.825529  0.501141  1
  O  O40  1  0.422219  0.589143  0.218742  1
  O  O41  1  0.419675  0.590495  0.788641  1
  O  O42  1  0.619890  0.985070  0.696700  1
  O  O43  1  0.369750  0.359021  0.230623  1
  O  O44  1  0.366646  0.366237  0.788243  1
  O  O45  1  0.576994  0.787482  0.261158  1
  O  O46  1  0.570212  0.787230  0.747005  1
  O  O47  1  0.542374  0.708685  0.002746  1
  O  O48  1  0.443424  0.306553  0.001217  1
  O  O49  1  0.419757  0.210120  0.242095  1
  O  O50  1  0.410443  0.214272  0.748475  1
  O  O51  1  0.620877  0.635924  0.206672  1
  O  O52  1  0.619799  0.638846  0.791317  1
  O  O53  1  0.372812  0.012072  0.225663  1
  O  O54  1  0.569964  0.412727  0.223051  1
  O  O55  1  0.565055  0.415944  0.781286  1
  O  O56  1  0.422727  0.113143  0.477748  1
  O  O57  1  0.623461  0.540560  0.500995  1
  O  O58  1  0.792747  0.597626  0.755752  1
  O  O59  1  0.795569  0.599990  0.250602  1
  O  O60  1  0.569231  0.158734  0.272720  1
  O  O61  1  0.582403  0.158475  0.723414  1
  O  O62  1  0.934129  0.589632  0.003371  1
  O  O63  1  0.625858  0.073359  0.003343  1
  O  O64  1  0.847972  0.425604  0.750795  1
  O  O65  1  0.842121  0.420750  0.249383  1
  O  O66  1  0.619407  0.985782  0.311199  1
  O  O67  1  0.012544  0.636099  0.311105  1
  O  O68  1  0.793423  0.195240  0.258598  1
  O  O69  1  0.801776  0.196270  0.760859  1
  O  O70  1  0.934333  0.353225  0.502156  1
  O  O71  1  0.010419  0.372228  0.197916  1
