# generated using pymatgen
data_BaLi2P2O7
_symmetry_space_group_name_H-M   'P 1'
_cell_length_a   7.15397912
_cell_length_b   7.15397913
_cell_length_c   13.99632207
_cell_angle_alpha   90.33502423
_cell_angle_beta   90.33502425
_cell_angle_gamma   119.34855317
_symmetry_Int_Tables_number   1
_chemical_formula_structural   BaLi2P2O7
_chemical_formula_sum   'Ba4 Li8 P8 O28'
_cell_volume   624.34464844
_cell_formula_units_Z   4
loop_
 _symmetry_equiv_pos_site_id
 _symmetry_equiv_pos_as_xyz
  1  'x, y, z'
loop_
 _atom_site_type_symbol
 _atom_site_label
 _atom_site_symmetry_multiplicity
 _atom_site_fract_x
 _atom_site_fract_y
 _atom_site_fract_z
 _atom_site_occupancy
  Li  Li0  1  0.234111  0.765889  0.250000  1
  Li  Li1  1  0.765889  0.234111  0.750000  1
  Li  Li2  1  0.767434  0.232566  0.250000  1
  Li  Li3  1  0.232566  0.767434  0.750000  1
  Li  Li4  1  0.199442  0.730738  0.491213  1
  Li  Li5  1  0.269262  0.800558  0.008787  1
  Li  Li6  1  0.800558  0.269262  0.508787  1
  Li  Li7  1  0.730738  0.199442  0.991213  1
  O  O8  1  0.236678  0.009106  0.437247  1
  O  O9  1  0.990894  0.763322  0.062753  1
  O  O10  1  0.763322  0.990894  0.562753  1
  O  O11  1  0.009106  0.236678  0.937247  1
  O  O12  1  0.283150  0.060601  0.801147  1
  O  O13  1  0.939399  0.716850  0.698853  1
  O  O14  1  0.716850  0.939399  0.198853  1
  O  O15  1  0.060601  0.283150  0.301147  1
  O  O16  1  0.364293  0.112884  0.979588  1
  O  O17  1  0.887116  0.635706  0.520412  1
  O  O18  1  0.635706  0.887116  0.020412  1
  O  O19  1  0.112884  0.364293  0.479588  1
  O  O20  1  0.666858  0.319347  0.865473  1
  O  O21  1  0.680653  0.333142  0.634527  1
  O  O22  1  0.333142  0.680653  0.134527  1
  O  O23  1  0.319347  0.666858  0.365473  1
  O  O24  1  0.388531  0.425800  0.878011  1
  O  O25  1  0.574200  0.611469  0.621989  1
  O  O26  1  0.611469  0.574200  0.121989  1
  O  O27  1  0.425800  0.388531  0.378011  1
  O  O28  1  0.189759  0.635949  0.886970  1
  O  O29  1  0.364051  0.810241  0.613030  1
  O  O30  1  0.810241  0.364051  0.113030  1
  O  O31  1  0.635949  0.189759  0.386970  1
  O  O32  1  0.080513  0.347099  0.760942  1
  O  O33  1  0.652901  0.919487  0.739058  1
  O  O34  1  0.919487  0.652901  0.239058  1
  O  O35  1  0.347099  0.080513  0.260942  1
  P  P36  1  0.409453  0.149664  0.365285  1
  P  P37  1  0.850336  0.590547  0.134715  1
  P  P38  1  0.590547  0.850336  0.634715  1
  P  P39  1  0.149664  0.409453  0.865285  1
  P  P40  1  0.213911  0.424259  0.380535  1
  P  P41  1  0.575741  0.786089  0.119465  1
  P  P42  1  0.786089  0.575741  0.619465  1
  P  P43  1  0.424259  0.213911  0.880535  1
  Ba  Ba44  1  0.788283  0.839392  0.378594  1
  Ba  Ba45  1  0.160608  0.211717  0.121406  1
  Ba  Ba46  1  0.211717  0.160608  0.621406  1
  Ba  Ba47  1  0.839392  0.788283  0.878594  1
