# generated using pymatgen
data_Ni6Mo2P3
_symmetry_space_group_name_H-M   'P 1'
_cell_length_a   3.52751422
_cell_length_b   5.67483242
_cell_length_c   12.84885962
_cell_angle_alpha   90.00259150
_cell_angle_beta   90.00003535
_cell_angle_gamma   90.00004048
_symmetry_Int_Tables_number   1
_chemical_formula_structural   Ni6Mo2P3
_chemical_formula_sum   'Ni12 Mo4 P6'
_cell_volume   257.20914062
_cell_formula_units_Z   2
loop_
 _symmetry_equiv_pos_site_id
 _symmetry_equiv_pos_as_xyz
  1  'x, y, z'
loop_
 _atom_site_type_symbol
 _atom_site_label
 _atom_site_symmetry_multiplicity
 _atom_site_fract_x
 _atom_site_fract_y
 _atom_site_fract_z
 _atom_site_occupancy
  Ni  Ni0  1  0.750000  0.048135  0.348586  1
  Ni  Ni1  1  0.750000  0.437155  0.250008  1
  Ni  Ni2  1  0.750000  0.137737  0.960005  1
  Ni  Ni3  1  0.250000  0.562781  0.749993  1
  Ni  Ni4  1  0.250000  0.862274  0.040021  1
  Ni  Ni5  1  0.250000  0.862305  0.459986  1
  Ni  Ni6  1  0.750000  0.231376  0.749995  1
  Ni  Ni7  1  0.250000  0.768611  0.250006  1
  Ni  Ni8  1  0.750000  0.048140  0.151411  1
  Ni  Ni9  1  0.750000  0.137740  0.540002  1
  Ni  Ni10  1  0.250000  0.951845  0.848590  1
  Ni  Ni11  1  0.250000  0.951864  0.651412  1
  Mo  Mo12  1  0.750000  0.616174  0.917634  1
  Mo  Mo13  1  0.250000  0.383831  0.082364  1
  Mo  Mo14  1  0.250000  0.383885  0.417644  1
  Mo  Mo15  1  0.750000  0.616144  0.582352  1
  P  P16  1  0.250000  0.324506  0.612008  1
  P  P17  1  0.750000  0.675493  0.112030  1
  P  P18  1  0.250000  0.172074  0.250005  1
  P  P19  1  0.750000  0.827929  0.749990  1
  P  P20  1  0.750000  0.675513  0.387987  1
  P  P21  1  0.250000  0.324490  0.887971  1
