# generated using pymatgen
data_Cs4TlSbCl12
_symmetry_space_group_name_H-M   'P 1'
_cell_length_a   10.74358385
_cell_length_b   10.74358463
_cell_length_c   13.19810518
_cell_angle_alpha   114.01729194
_cell_angle_beta   114.01729377
_cell_angle_gamma   90.00000362
_symmetry_Int_Tables_number   1
_chemical_formula_structural   Cs4TlSbCl12
_chemical_formula_sum   'Cs8 Tl2 Sb2 Cl24'
_cell_volume   1245.71802314
_cell_formula_units_Z   2
loop_
 _symmetry_equiv_pos_site_id
 _symmetry_equiv_pos_as_xyz
  1  'x, y, z'
loop_
 _atom_site_type_symbol
 _atom_site_label
 _atom_site_symmetry_multiplicity
 _atom_site_fract_x
 _atom_site_fract_y
 _atom_site_fract_z
 _atom_site_occupancy
  Cs  Cs0  1  0.778565  0.000000  0.000000  1
  Cs  Cs1  1  0.000000  0.778565  0.500000  1
  Cs  Cs2  1  0.778565  0.500000  0.000000  1
  Cs  Cs3  1  0.221435  1.000000  1.000000  1
  Cs  Cs4  1  0.500000  0.778565  0.500000  1
  Cs  Cs5  1  1.000000  0.221435  0.500000  1
  Cs  Cs6  1  0.221435  0.500000  1.000000  1
  Cs  Cs7  1  0.500000  0.221435  0.500000  1
  Tl  Tl8  1  0.875000  0.125000  0.750000  1
  Tl  Tl9  1  0.125000  0.875000  0.250000  1
  Sb  Sb10  1  0.625000  0.375000  0.250000  1
  Sb  Sb11  1  0.375000  0.625000  0.750000  1
  Cl  Cl12  1  0.128808  0.125082  0.257617  1
  Cl  Cl13  1  0.375931  0.851699  0.751862  1
  Cl  Cl14  1  0.624069  0.148301  0.248138  1
  Cl  Cl15  1  0.599837  0.624069  0.748138  1
  Cl  Cl16  1  0.148301  0.624069  0.748138  1
  Cl  Cl17  1  0.002710  0.752710  0.005420  1
  Cl  Cl18  1  0.871192  0.874918  0.742383  1
  Cl  Cl19  1  0.874918  0.871192  0.242383  1
  Cl  Cl20  1  0.512668  0.262668  0.025337  1
  Cl  Cl21  1  0.752710  0.002710  0.505420  1
  Cl  Cl22  1  0.851699  0.375931  0.251862  1
  Cl  Cl23  1  0.247290  0.997290  0.494580  1
  Cl  Cl24  1  0.128808  0.632535  0.257617  1
  Cl  Cl25  1  0.400163  0.375931  0.251862  1
  Cl  Cl26  1  0.375931  0.400163  0.751862  1
  Cl  Cl27  1  0.125082  0.128808  0.757617  1
  Cl  Cl28  1  0.871192  0.367465  0.742383  1
  Cl  Cl29  1  0.487332  0.737332  0.974663  1
  Cl  Cl30  1  0.997290  0.247290  0.994580  1
  Cl  Cl31  1  0.737332  0.487332  0.474663  1
  Cl  Cl32  1  0.632535  0.128808  0.757617  1
  Cl  Cl33  1  0.624069  0.599837  0.248138  1
  Cl  Cl34  1  0.262668  0.512668  0.525337  1
  Cl  Cl35  1  0.367465  0.871192  0.242383  1
