# generated using pymatgen
data_SiO2
_symmetry_space_group_name_H-M   'P 1'
_cell_length_a   5.28549354
_cell_length_b   22.71336462
_cell_length_c   14.08334374
_cell_angle_alpha   90.00000000
_cell_angle_beta   90.00000000
_cell_angle_gamma   90.00000000
_symmetry_Int_Tables_number   1
_chemical_formula_structural   SiO2
_chemical_formula_sum   'Si28 O56'
_cell_volume   1690.72431542
_cell_formula_units_Z   28
loop_
 _symmetry_equiv_pos_site_id
 _symmetry_equiv_pos_as_xyz
  1  'x, y, z'
loop_
 _atom_site_type_symbol
 _atom_site_label
 _atom_site_symmetry_multiplicity
 _atom_site_fract_x
 _atom_site_fract_y
 _atom_site_fract_z
 _atom_site_occupancy
  Si  Si0  1  0.750000  0.750000  0.143612  1
  Si  Si1  1  0.250000  0.250000  0.856388  1
  Si  Si2  1  0.250000  0.750000  0.010974  1
  Si  Si3  1  0.750000  0.250000  0.989026  1
  Si  Si4  1  0.750000  0.621630  0.227137  1
  Si  Si5  1  0.250000  0.378370  0.772863  1
  Si  Si6  1  0.250000  0.121630  0.772863  1
  Si  Si7  1  0.750000  0.878370  0.227137  1
  Si  Si8  1  0.750000  0.549798  0.405442  1
  Si  Si9  1  0.250000  0.450202  0.594558  1
  Si  Si10  1  0.250000  0.049798  0.594558  1
  Si  Si11  1  0.750000  0.950202  0.405442  1
  Si  Si12  1  0.750000  0.378027  0.078768  1
  Si  Si13  1  0.250000  0.621973  0.921232  1
  Si  Si14  1  0.250000  0.878027  0.921232  1
  Si  Si15  1  0.750000  0.121973  0.078768  1
  Si  Si16  1  0.250000  0.470531  0.383766  1
  Si  Si17  1  0.750000  0.529469  0.616234  1
  Si  Si18  1  0.750000  0.970531  0.616234  1
  Si  Si19  1  0.250000  0.029469  0.383766  1
  Si  Si20  1  0.250000  0.427547  0.177549  1
  Si  Si21  1  0.750000  0.572453  0.822451  1
  Si  Si22  1  0.750000  0.927547  0.822451  1
  Si  Si23  1  0.250000  0.072453  0.177549  1
  Si  Si24  1  0.250000  0.565938  0.129739  1
  Si  Si25  1  0.750000  0.434062  0.870261  1
  Si  Si26  1  0.750000  0.065938  0.870261  1
  Si  Si27  1  0.250000  0.934062  0.129739  1
  O  O28  1  0.750000  0.807881  0.211075  1
  O  O29  1  0.250000  0.192119  0.788925  1
  O  O30  1  0.250000  0.307881  0.788925  1
  O  O31  1  0.750000  0.692119  0.211075  1
  O  O32  1  -0.000041  0.750000  0.077454  1
  O  O33  1  0.499959  0.250000  0.922546  1
  O  O34  1  0.000041  0.250000  0.922546  1
  O  O35  1  0.500041  0.750000  0.077454  1
  O  O36  1  0.250000  0.691930  0.944246  1
  O  O37  1  0.750000  0.308070  0.055754  1
  O  O38  1  0.750000  0.191930  0.055754  1
  O  O39  1  0.250000  0.808070  0.944246  1
  O  O40  1  0.750000  0.609136  0.341257  1
  O  O41  1  0.250000  0.390864  0.658743  1
  O  O42  1  0.250000  0.109136  0.658743  1
  O  O43  1  0.750000  0.890864  0.341257  1
  O  O44  1  -0.000321  0.592507  0.180121  1
  O  O45  1  0.499679  0.407493  0.819879  1
  O  O46  1  0.000321  0.092507  0.819879  1
  O  O47  1  0.500321  0.907493  0.180121  1
  O  O48  1  0.000321  0.407493  0.819879  1
  O  O49  1  0.500321  0.592507  0.180121  1
  O  O50  1  -0.000321  0.907493  0.180121  1
  O  O51  1  0.499679  0.092507  0.819879  1
  O  O52  1  0.750000  0.567278  0.517699  1
  O  O53  1  0.250000  0.432722  0.482301  1
  O  O54  1  0.250000  0.067278  0.482301  1
  O  O55  1  0.750000  0.932722  0.517699  1
  O  O56  1  0.999841  0.511683  0.379700  1
  O  O57  1  0.499841  0.488317  0.620300  1
  O  O58  1  0.000159  0.011683  0.620300  1
  O  O59  1  0.500159  0.988317  0.379700  1
  O  O60  1  0.000159  0.488317  0.620300  1
  O  O61  1  0.500159  0.511683  0.379700  1
  O  O62  1  0.999841  0.988317  0.379700  1
  O  O63  1  0.499841  0.011683  0.620300  1
  O  O64  1  0.750000  0.416496  0.981576  1
  O  O65  1  0.250000  0.583504  0.018424  1
  O  O66  1  0.250000  0.916496  0.018424  1
  O  O67  1  0.750000  0.083504  0.981576  1
  O  O68  1  0.499891  0.393586  0.140305  1
  O  O69  1  -0.000109  0.606414  0.859695  1
  O  O70  1  0.500109  0.893586  0.859695  1
  O  O71  1  0.000109  0.106414  0.140305  1
  O  O72  1  0.500109  0.606414  0.859695  1
  O  O73  1  0.000109  0.393586  0.140305  1
  O  O74  1  0.499891  0.106414  0.140305  1
  O  O75  1  -0.000109  0.893586  0.859695  1
  O  O76  1  0.250000  0.426475  0.293490  1
  O  O77  1  0.750000  0.573525  0.706510  1
  O  O78  1  0.750000  0.926475  0.706510  1
  O  O79  1  0.250000  0.073525  0.293490  1
  O  O80  1  0.250000  0.494930  0.138753  1
  O  O81  1  0.750000  0.505070  0.861247  1
  O  O82  1  0.750000  0.994930  0.861247  1
  O  O83  1  0.250000  0.005070  0.138753  1
