# generated using pymatgen
data_Yb2(SeO4)3
_symmetry_space_group_name_H-M   'P 1'
_cell_length_a   9.56402547
_cell_length_b   9.87727639
_cell_length_c   13.39415567
_cell_angle_alpha   90.00000000
_cell_angle_beta   91.37531682
_cell_angle_gamma   90.00000000
_symmetry_Int_Tables_number   1
_chemical_formula_structural   Yb2(SeO4)3
_chemical_formula_sum   'Yb8 Se12 O48'
_cell_volume   1264.93481012
_cell_formula_units_Z   4
loop_
 _symmetry_equiv_pos_site_id
 _symmetry_equiv_pos_as_xyz
  1  'x, y, z'
loop_
 _atom_site_type_symbol
 _atom_site_label
 _atom_site_symmetry_multiplicity
 _atom_site_fract_x
 _atom_site_fract_y
 _atom_site_fract_z
 _atom_site_occupancy
  Yb  Yb0  1  0.249086  0.465302  0.116708  1
  Yb  Yb1  1  0.250914  0.965302  0.383292  1
  Yb  Yb2  1  0.749086  0.034698  0.616708  1
  Yb  Yb3  1  0.750914  0.534698  0.883292  1
  Yb  Yb4  1  0.248178  0.533890  0.617599  1
  Yb  Yb5  1  0.748178  0.966110  0.117599  1
  Yb  Yb6  1  0.751822  0.466110  0.382401  1
  Yb  Yb7  1  0.251822  0.033890  0.882401  1
  Se  Se8  1  0.891980  0.883290  0.856765  1
  Se  Se9  1  0.608020  0.383290  0.643235  1
  Se  Se10  1  0.108020  0.116710  0.143235  1
  Se  Se11  1  0.396285  0.879883  0.651458  1
  Se  Se12  1  0.963129  0.752956  0.505129  1
  Se  Se13  1  0.463129  0.747044  0.005129  1
  Se  Se14  1  0.536871  0.252956  0.994871  1
  Se  Se15  1  0.036871  0.247044  0.494871  1
  Se  Se16  1  0.603715  0.120117  0.348542  1
  Se  Se17  1  0.896285  0.620117  0.151458  1
  Se  Se18  1  0.103715  0.379883  0.848542  1
  Se  Se19  1  0.391980  0.616710  0.356765  1
  O  O20  1  0.373669  0.716127  0.677850  1
  O  O21  1  0.407359  0.870607  0.929813  1
  O  O22  1  0.873669  0.783873  0.177850  1
  O  O23  1  0.363305  0.504762  0.265931  1
  O  O24  1  0.059686  0.891603  0.893569  1
  O  O25  1  0.440314  0.391603  0.606431  1
  O  O26  1  0.863305  0.995238  0.765931  1
  O  O27  1  0.562785  0.917998  0.679681  1
  O  O28  1  0.291733  0.975990  0.719978  1
  O  O29  1  0.673584  0.331529  0.946805  1
  O  O30  1  0.708267  0.024010  0.280022  1
  O  O31  1  0.565461  0.810248  0.096726  1
  O  O32  1  0.592641  0.129393  0.070187  1
  O  O33  1  0.145293  0.272891  0.183471  1
  O  O34  1  0.092641  0.370607  0.570187  1
  O  O35  1  0.947412  0.138025  0.563513  1
  O  O36  1  0.937215  0.417998  0.820319  1
  O  O37  1  0.940314  0.108397  0.106431  1
  O  O38  1  0.065461  0.689752  0.596726  1
  O  O39  1  0.934539  0.310248  0.403274  1
  O  O40  1  0.052588  0.861975  0.436487  1
  O  O41  1  0.289512  0.579052  0.452219  1
  O  O42  1  0.907359  0.629393  0.429813  1
  O  O43  1  0.854707  0.727109  0.816529  1
  O  O44  1  0.645293  0.227109  0.683471  1
  O  O45  1  0.173584  0.168471  0.446805  1
  O  O46  1  0.552588  0.638025  0.936487  1
  O  O47  1  0.626331  0.283873  0.322150  1
  O  O48  1  0.639613  0.091040  0.469056  1
  O  O49  1  0.559686  0.608397  0.393569  1
  O  O50  1  0.126331  0.216127  0.822150  1
  O  O51  1  0.710488  0.420948  0.547781  1
  O  O52  1  0.826416  0.831529  0.553195  1
  O  O53  1  0.360387  0.908960  0.530944  1
  O  O54  1  0.789512  0.920948  0.952219  1
  O  O55  1  0.636695  0.495238  0.734069  1
  O  O56  1  0.791733  0.524010  0.219978  1
  O  O57  1  0.447412  0.361975  0.063513  1
  O  O58  1  0.062785  0.582002  0.179681  1
  O  O59  1  0.136695  0.004762  0.234069  1
  O  O60  1  0.354707  0.772891  0.316529  1
  O  O61  1  0.434539  0.189752  0.903274  1
  O  O62  1  0.860387  0.591040  0.030944  1
  O  O63  1  0.437215  0.082002  0.320319  1
  O  O64  1  0.139613  0.408960  0.969056  1
  O  O65  1  0.326416  0.668471  0.053195  1
  O  O66  1  0.210488  0.079052  0.047781  1
  O  O67  1  0.208267  0.475990  0.780022  1
