# generated using pymatgen
data_Ca5Nd5Mn9CrO30
_symmetry_space_group_name_H-M   'P 1'
_cell_length_a   5.43436635
_cell_length_b   5.48357221
_cell_length_c   38.59869705
_cell_angle_alpha   90.03756074
_cell_angle_beta   90.03917506
_cell_angle_gamma   90.06520733
_symmetry_Int_Tables_number   1
_chemical_formula_structural   Ca5Nd5Mn9CrO30
_chemical_formula_sum   'Ca10 Nd10 Mn18 Cr2 O60'
_cell_volume   1150.22988530
_cell_formula_units_Z   2
loop_
 _symmetry_equiv_pos_site_id
 _symmetry_equiv_pos_as_xyz
  1  'x, y, z'
loop_
 _atom_site_type_symbol
 _atom_site_label
 _atom_site_symmetry_multiplicity
 _atom_site_fract_x
 _atom_site_fract_y
 _atom_site_fract_z
 _atom_site_occupancy
  Ca  Ca0  1  0.489538  0.460518  0.248560  1
  Ca  Ca1  1  0.488754  0.459803  0.449152  1
  Ca  Ca2  1  0.512707  0.538263  0.151344  1
  Ca  Ca3  1  0.514316  0.539189  0.750764  1
  Ca  Ca4  1  0.511566  0.539161  0.950259  1
  Ca  Ca5  1  0.988428  0.038971  0.150718  1
  Ca  Ca6  1  0.990070  0.039856  0.349407  1
  Ca  Ca7  1  0.988876  0.038697  0.548852  1
  Ca  Ca8  1  0.987588  0.039569  0.750492  1
  Ca  Ca9  1  0.986301  0.039777  0.950212  1
  Nd  Nd10  1  0.008108  0.962114  0.050244  1
  Nd  Nd11  1  0.010189  0.962099  0.249228  1
  Nd  Nd12  1  0.010799  0.962026  0.449399  1
  Nd  Nd13  1  0.008826  0.962016  0.650801  1
  Nd  Nd14  1  0.008158  0.961008  0.850248  1
  Nd  Nd15  1  0.492090  0.462873  0.050378  1
  Nd  Nd16  1  0.490876  0.461384  0.651169  1
  Nd  Nd17  1  0.491691  0.460549  0.850357  1
  Nd  Nd18  1  0.511351  0.537561  0.349279  1
  Nd  Nd19  1  0.511979  0.538638  0.548645  1
  Mn  Mn20  1  0.999289  0.499242  0.998824  1
  Mn  Mn21  1  0.999304  0.498918  0.101699  1
  Mn  Mn22  1  0.999858  0.498528  0.199250  1
  Mn  Mn23  1  0.999565  0.498688  0.399612  1
  Mn  Mn24  1  0.001484  0.498158  0.499299  1
  Mn  Mn25  1  0.999913  0.498658  0.599334  1
  Mn  Mn26  1  0.000840  0.498326  0.799053  1
  Mn  Mn27  1  0.998624  0.499144  0.901643  1
  Mn  Mn28  1  0.500860  0.999663  0.998783  1
  Mn  Mn29  1  0.500775  0.998838  0.101715  1
  Mn  Mn30  1  0.500986  0.000150  0.199202  1
  Mn  Mn31  1  0.499578  0.001060  0.399486  1
  Mn  Mn32  1  0.500608  0.001555  0.299549  1
  Mn  Mn33  1  0.500037  0.998747  0.901505  1
  Mn  Mn34  1  0.500590  0.001573  0.499603  1
  Mn  Mn35  1  0.500479  0.998925  0.701998  1
  Mn  Mn36  1  0.001028  0.498386  0.299440  1
  Mn  Mn37  1  0.998804  0.499398  0.701959  1
  Cr  Cr38  1  0.499979  0.999696  0.599213  1
  Cr  Cr39  1  0.502015  0.997907  0.798842  1
  O  O40  1  0.081246  0.479587  0.150062  1
  O  O41  1  0.078086  0.480701  0.549836  1
  O  O42  1  0.076849  0.483168  0.349721  1
  O  O43  1  0.084375  0.476388  0.750918  1
  O  O44  1  0.081418  0.477611  0.950242  1
  O  O45  1  0.217680  0.217625  0.208163  1
  O  O46  1  0.220877  0.221241  0.009065  1
  O  O47  1  0.222230  0.221412  0.091042  1
  O  O48  1  0.217092  0.224053  0.609870  1
  O  O49  1  0.218573  0.217910  0.291555  1
  O  O50  1  0.217840  0.217497  0.408124  1
  O  O51  1  0.217292  0.222940  0.809739  1
  O  O52  1  0.217956  0.216677  0.491323  1
  O  O53  1  0.220917  0.220172  0.691298  1
  O  O54  1  0.220945  0.220761  0.891258  1
  O  O55  1  0.278127  0.720683  0.009166  1
  O  O56  1  0.277257  0.722014  0.090854  1
  O  O57  1  0.279364  0.720678  0.209017  1
  O  O58  1  0.283617  0.716914  0.291183  1
  O  O59  1  0.282528  0.718276  0.408423  1
  O  O60  1  0.278840  0.714252  0.609339  1
  O  O61  1  0.283925  0.717035  0.490968  1
  O  O62  1  0.277634  0.721719  0.690998  1
  O  O63  1  0.277625  0.716256  0.809863  1
  O  O64  1  0.278258  0.720482  0.891169  1
  O  O65  1  0.419853  0.977086  0.150169  1
  O  O66  1  0.415980  0.980551  0.549411  1
  O  O67  1  0.413581  0.973699  0.749573  1
  O  O68  1  0.422164  0.983381  0.349614  1
  O  O69  1  0.418027  0.977046  0.949784  1
  O  O70  1  0.571491  0.011370  0.049974  1
  O  O71  1  0.574828  0.016835  0.249689  1
  O  O72  1  0.576726  0.013064  0.650650  1
  O  O73  1  0.576873  0.017104  0.450104  1
  O  O74  1  0.575111  0.012345  0.850594  1
  O  O75  1  0.713006  0.285799  0.107684  1
  O  O76  1  0.719975  0.280804  0.308282  1
  O  O77  1  0.718163  0.280798  0.508169  1
  O  O78  1  0.717442  0.282036  0.191527  1
  O  O79  1  0.716400  0.282729  0.391412  1
  O  O80  1  0.711179  0.285848  0.708177  1
  O  O81  1  0.714799  0.291541  0.591673  1
  O  O82  1  0.712691  0.286273  0.907992  1
  O  O83  1  0.714576  0.292737  0.792206  1
  O  O84  1  0.713538  0.286035  0.992312  1
  O  O85  1  0.787607  0.786094  0.192159  1
  O  O86  1  0.785959  0.785340  0.107452  1
  O  O87  1  0.782086  0.782199  0.508402  1
  O  O88  1  0.788707  0.780634  0.590727  1
  O  O89  1  0.785563  0.786492  0.707963  1
  O  O90  1  0.795955  0.785658  0.792154  1
  O  O91  1  0.782774  0.781359  0.308409  1
  O  O92  1  0.782448  0.783110  0.391153  1
  O  O93  1  0.786395  0.785879  0.907847  1
  O  O94  1  0.786386  0.785445  0.992484  1
  O  O95  1  0.922052  0.514640  0.249870  1
  O  O96  1  0.927563  0.510456  0.050150  1
  O  O97  1  0.925503  0.512144  0.650073  1
  O  O98  1  0.921145  0.516734  0.449327  1
  O  O99  1  0.926081  0.511054  0.850124  1
