# generated using pymatgen
data_Co7Te4(BrO2)6
_symmetry_space_group_name_H-M   'P 1'
_cell_length_a   8.64194972
_cell_length_b   11.30532366
_cell_length_c   13.10274503
_cell_angle_alpha   74.47413998
_cell_angle_beta   70.76297404
_cell_angle_gamma   67.50871228
_symmetry_Int_Tables_number   1
_chemical_formula_structural   Co7Te4(BrO2)6
_chemical_formula_sum   'Co14 Te8 Br12 O24'
_cell_volume   1101.90980985
_cell_formula_units_Z   2
loop_
 _symmetry_equiv_pos_site_id
 _symmetry_equiv_pos_as_xyz
  1  'x, y, z'
loop_
 _atom_site_type_symbol
 _atom_site_label
 _atom_site_symmetry_multiplicity
 _atom_site_fract_x
 _atom_site_fract_y
 _atom_site_fract_z
 _atom_site_occupancy
  Co  Co0  1  0.106474  0.040064  0.380080  1
  Co  Co1  1  0.897693  0.456900  0.123060  1
  Co  Co2  1  0.894586  0.959989  0.620000  1
  Co  Co3  1  0.479082  0.042068  0.376433  1
  Co  Co4  1  0.102843  0.542744  0.877359  1
  Co  Co5  1  0.937989  0.168622  0.160629  1
  Co  Co6  1  0.001173  0.499780  0.501240  1
  Co  Co7  1  0.526632  0.458878  0.118881  1
  Co  Co8  1  0.062774  0.829827  0.838319  1
  Co  Co9  1  0.268338  0.330377  0.338766  1
  Co  Co10  1  0.003657  0.999480  0.999284  1
  Co  Co11  1  0.475013  0.540255  0.879082  1
  Co  Co12  1  0.522860  0.957753  0.622812  1
  Co  Co13  1  0.731445  0.670325  0.661372  1
  Te  Te14  1  0.674106  0.287714  0.361498  1
  Te  Te15  1  0.889954  0.834897  0.399854  1
  Te  Te16  1  0.676164  0.788770  0.862361  1
  Te  Te17  1  0.323961  0.211401  0.137639  1
  Te  Te18  1  0.124413  0.664806  0.099935  1
  Te  Te19  1  0.112063  0.164181  0.600198  1
  Te  Te20  1  0.877042  0.335430  0.899091  1
  Te  Te21  1  0.327541  0.711700  0.637208  1
  Br  Br22  1  0.725671  0.002167  0.174503  1
  Br  Br23  1  0.903289  0.496918  0.323841  1
  Br  Br24  1  0.099795  0.502893  0.675554  1
  Br  Br25  1  0.371881  0.342508  0.888530  1
  Br  Br26  1  0.189933  0.952077  0.149563  1
  Br  Br27  1  0.709570  0.453006  0.650428  1
  Br  Br28  1  0.625979  0.656418  0.112294  1
  Br  Br29  1  0.290015  0.546667  0.351977  1
  Br  Br30  1  0.279187  0.997806  0.825594  1
  Br  Br31  1  0.398604  0.842287  0.386667  1
  Br  Br32  1  0.813383  0.046171  0.848299  1
  Br  Br33  1  0.603514  0.157951  0.611524  1
  O  O34  1  0.662581  0.938935  0.456837  1
  O  O35  1  0.064808  0.815751  0.992009  1
  O  O36  1  0.915366  0.719673  0.857500  1
  O  O37  1  0.637887  0.397005  0.969033  1
  O  O38  1  0.362864  0.602129  0.028990  1
  O  O39  1  0.127740  0.315642  0.492864  1
  O  O40  1  0.872887  0.684102  0.507876  1
  O  O41  1  0.718697  0.352794  0.200415  1
  O  O42  1  0.085274  0.279519  0.140995  1
  O  O43  1  0.507622  0.219357  0.357462  1
  O  O44  1  0.653647  0.643021  0.826483  1
  O  O45  1  0.936415  0.184066  0.006655  1
  O  O46  1  0.493297  0.780573  0.641564  1
  O  O47  1  0.346070  0.357589  0.173172  1
  O  O48  1  0.878114  0.141674  0.326062  1
  O  O49  1  0.056193  0.561700  0.043158  1
  O  O50  1  0.005141  0.102751  0.529603  1
  O  O51  1  0.941454  0.439572  0.957132  1
  O  O52  1  0.123829  0.857775  0.672970  1
  O  O53  1  0.339294  0.060647  0.542456  1
  O  O54  1  0.726714  0.854157  0.701361  1
  O  O55  1  0.282603  0.646217  0.798059  1
  O  O56  1  0.273243  0.146390  0.298709  1
  O  O57  1  0.996364  0.896897  0.470372  1
