# generated using pymatgen
data_C2SN2
_symmetry_space_group_name_H-M   'P 1'
_cell_length_a   6.87893208
_cell_length_b   8.56379210
_cell_length_c   12.86157692
_cell_angle_alpha   90.00000000
_cell_angle_beta   90.00000000
_cell_angle_gamma   90.00000000
_symmetry_Int_Tables_number   1
_chemical_formula_structural   C2SN2
_chemical_formula_sum   'C16 S8 N16'
_cell_volume   757.67220641
_cell_formula_units_Z   8
loop_
 _symmetry_equiv_pos_site_id
 _symmetry_equiv_pos_as_xyz
  1  'x, y, z'
loop_
 _atom_site_type_symbol
 _atom_site_label
 _atom_site_symmetry_multiplicity
 _atom_site_fract_x
 _atom_site_fract_y
 _atom_site_fract_z
 _atom_site_occupancy
  C  C0  1  0.617093  0.598533  0.609432  1
  C  C1  1  0.882907  0.598533  0.109432  1
  C  C2  1  0.617093  0.098533  0.890568  1
  C  C3  1  0.741712  0.825225  0.863553  1
  C  C4  1  0.258288  0.174775  0.136447  1
  C  C5  1  0.258288  0.674775  0.363553  1
  C  C6  1  0.382907  0.401467  0.390568  1
  C  C7  1  0.241712  0.174775  0.636447  1
  C  C8  1  0.758288  0.325225  0.136447  1
  C  C9  1  0.241712  0.674775  0.863553  1
  C  C10  1  0.382907  0.901467  0.109432  1
  C  C11  1  0.882907  0.098533  0.390568  1
  C  C12  1  0.741712  0.325225  0.636447  1
  C  C13  1  0.117093  0.401467  0.890568  1
  C  C14  1  0.117093  0.901467  0.609432  1
  C  C15  1  0.758288  0.825225  0.363553  1
  S  S16  1  0.164866  0.992468  0.122169  1
  S  S17  1  0.664866  0.507532  0.122169  1
  S  S18  1  0.164866  0.492468  0.377831  1
  S  S19  1  0.335134  0.992468  0.622169  1
  S  S20  1  0.835134  0.007532  0.877831  1
  S  S21  1  0.835134  0.507532  0.622169  1
  S  S22  1  0.335134  0.492468  0.877831  1
  S  S23  1  0.664866  0.007532  0.377831  1
  N  N24  1  0.320788  0.801812  0.357104  1
  N  N25  1  0.471770  0.668454  0.602184  1
  N  N26  1  0.179212  0.801812  0.857104  1
  N  N27  1  0.679212  0.698188  0.857104  1
  N  N28  1  0.471770  0.168454  0.897816  1
  N  N29  1  0.528230  0.831546  0.102184  1
  N  N30  1  0.820788  0.198188  0.142896  1
  N  N31  1  0.820788  0.698188  0.357104  1
  N  N32  1  0.028230  0.168454  0.397816  1
  N  N33  1  0.971770  0.831546  0.602184  1
  N  N34  1  0.971770  0.331546  0.897816  1
  N  N35  1  0.528230  0.331546  0.397816  1
  N  N36  1  0.028230  0.668454  0.102184  1
  N  N37  1  0.679212  0.198188  0.642896  1
  N  N38  1  0.320788  0.301812  0.142896  1
  N  N39  1  0.179212  0.301812  0.642896  1
