# generated using pymatgen
data_Na3CaFe4(SiO3)8
_symmetry_space_group_name_H-M   'P 1'
_cell_length_a   11.05422550
_cell_length_b   10.14002678
_cell_length_c   10.14002601
_cell_angle_alpha   53.87430602
_cell_angle_beta   42.52277561
_cell_angle_gamma   42.52277699
_symmetry_Int_Tables_number   1
_chemical_formula_structural   Na3CaFe4(SiO3)8
_chemical_formula_sum   'Na3 Ca1 Fe4 Si8 O24'
_cell_volume   516.53551020
_cell_formula_units_Z   1
loop_
 _symmetry_equiv_pos_site_id
 _symmetry_equiv_pos_as_xyz
  1  'x, y, z'
loop_
 _atom_site_type_symbol
 _atom_site_label
 _atom_site_symmetry_multiplicity
 _atom_site_fract_x
 _atom_site_fract_y
 _atom_site_fract_z
 _atom_site_occupancy
  Na  Na0  1  0.103178  0.724753  0.291465  1
  Na  Na1  1  0.646822  0.708535  0.275247  1
  Na  Na2  1  0.875000  0.296468  0.703532  1
  Ca  Ca3  1  0.375000  0.268414  0.731586  1
  Fe  Fe4  1  0.126195  0.094222  0.897236  1
  Fe  Fe5  1  0.375000  0.887292  0.112708  1
  Fe  Fe6  1  0.623805  0.102764  0.905778  1
  Fe  Fe7  1  0.875000  0.914839  0.085161  1
  Si  Si8  1  0.158609  0.196893  0.266673  1
  Si  Si9  1  0.402289  0.259415  0.212308  1
  Si  Si10  1  0.659740  0.218606  0.242887  1
  Si  Si11  1  0.090260  0.757113  0.781394  1
  Si  Si12  1  0.917825  0.251328  0.203708  1
  Si  Si13  1  0.347711  0.787692  0.740585  1
  Si  Si14  1  0.591391  0.733327  0.803107  1
  Si  Si15  1  0.832175  0.796292  0.748672  1
  O  O16  1  0.077731  0.012369  0.201581  1
  O  O17  1  0.322624  0.187908  0.026083  1
  O  O18  1  0.157746  0.305983  0.342257  1
  O  O19  1  0.269212  0.015665  0.652175  1
  O  O20  1  0.577605  0.020940  0.192861  1
  O  O21  1  0.019791  0.328208  0.968525  1
  O  O22  1  0.407347  0.336671  0.315474  1
  O  O23  1  0.084156  0.678366  0.680408  1
  O  O24  1  0.499151  0.655265  0.035503  1
  O  O25  1  0.822555  0.209479  0.004110  1
  O  O26  1  0.250849  0.964497  0.344735  1
  O  O27  1  0.665844  0.319592  0.321634  1
  O  O28  1  0.342653  0.684526  0.663329  1
  O  O29  1  0.730209  0.031475  0.671792  1
  O  O30  1  0.172395  0.807139  0.979060  1
  O  O31  1  0.480788  0.347825  0.984335  1
  O  O32  1  0.911984  0.326006  0.319042  1
  O  O33  1  0.592254  0.657743  0.694017  1
  O  O34  1  0.996736  0.677549  0.014344  1
  O  O35  1  0.427376  0.973917  0.812092  1
  O  O36  1  0.753264  0.985656  0.322451  1
  O  O37  1  0.838016  0.680958  0.673994  1
  O  O38  1  0.672269  0.798419  0.987631  1
  O  O39  1  0.927445  0.995890  0.790521  1
