# generated using pymatgen
data_LiMg4H13Os2
_symmetry_space_group_name_H-M   'P 1'
_cell_length_a   4.72749532
_cell_length_b   4.72747892
_cell_length_c   18.48529121
_cell_angle_alpha   90.00000000
_cell_angle_beta   90.00000000
_cell_angle_gamma   120.00011473
_symmetry_Int_Tables_number   1
_chemical_formula_structural   LiMg4H13Os2
_chemical_formula_sum   'Li2 Mg8 H26 Os4'
_cell_volume   357.78088593
_cell_formula_units_Z   2
loop_
 _symmetry_equiv_pos_site_id
 _symmetry_equiv_pos_as_xyz
  1  'x, y, z'
loop_
 _atom_site_type_symbol
 _atom_site_label
 _atom_site_symmetry_multiplicity
 _atom_site_fract_x
 _atom_site_fract_y
 _atom_site_fract_z
 _atom_site_occupancy
  Li  Li0  1  0.333302  0.666604  0.250000  1
  Li  Li1  1  0.666698  0.333396  0.750000  1
  Mg  Mg2  1  -0.000000  -0.000000  0.351319  1
  Mg  Mg3  1  0.000000  0.000000  0.648681  1
  Mg  Mg4  1  0.000000  0.000000  0.851319  1
  Mg  Mg5  1  -0.000000  -0.000000  0.148681  1
  Mg  Mg6  1  0.333305  0.666609  0.947974  1
  Mg  Mg7  1  0.666695  0.333391  0.052026  1
  Mg  Mg8  1  0.666695  0.333391  0.447974  1
  Mg  Mg9  1  0.333305  0.666609  0.552026  1
  H  H10  1  0.163632  0.836368  0.448775  1
  H  H11  1  0.163623  0.327246  0.448777  1
  H  H12  1  0.672737  0.836368  0.448775  1
  H  H13  1  0.836368  0.163632  0.551225  1
  H  H14  1  0.836377  0.672754  0.551223  1
  H  H15  1  0.327263  0.163632  0.551225  1
  H  H16  1  0.836368  0.163632  0.948775  1
  H  H17  1  0.836377  0.672754  0.948777  1
  H  H18  1  0.327263  0.163632  0.948775  1
  H  H19  1  0.163632  0.836368  0.051225  1
  H  H20  1  0.163623  0.327246  0.051223  1
  H  H21  1  0.672737  0.836368  0.051225  1
  H  H22  1  0.502117  0.497888  0.839523  1
  H  H23  1  0.502123  0.004247  0.839524  1
  H  H24  1  0.995771  0.497888  0.839523  1
  H  H25  1  0.497883  0.502112  0.160477  1
  H  H26  1  0.497877  0.995753  0.160476  1
  H  H27  1  0.004229  0.502112  0.160477  1
  H  H28  1  0.497883  0.502112  0.339523  1
  H  H29  1  0.497877  0.995753  0.339524  1
  H  H30  1  0.004229  0.502112  0.339523  1
  H  H31  1  0.502117  0.497888  0.660477  1
  H  H32  1  0.502123  0.004247  0.660476  1
  H  H33  1  0.995771  0.497888  0.660477  1
  H  H34  1  0.000000  0.000000  0.250000  1
  H  H35  1  -0.000000  -0.000000  0.750000  1
  Os  Os36  1  0.333322  0.666644  0.395670  1
  Os  Os37  1  0.666678  0.333356  0.604330  1
  Os  Os38  1  0.666678  0.333356  0.895670  1
  Os  Os39  1  0.333322  0.666644  0.104330  1
