# generated using pymatgen
data_Sr10Al6O19
_symmetry_space_group_name_H-M   'P 1'
_cell_length_a   7.91840146
_cell_length_b   15.90686782
_cell_length_c   17.89542768
_cell_angle_alpha   103.27974659
_cell_angle_beta   102.73081719
_cell_angle_gamma   90.03111909
_symmetry_Int_Tables_number   1
_chemical_formula_structural   Sr10Al6O19
_chemical_formula_sum   'Sr40 Al24 O76'
_cell_volume   2136.73915567
_cell_formula_units_Z   4
loop_
 _symmetry_equiv_pos_site_id
 _symmetry_equiv_pos_as_xyz
  1  'x, y, z'
loop_
 _atom_site_type_symbol
 _atom_site_label
 _atom_site_symmetry_multiplicity
 _atom_site_fract_x
 _atom_site_fract_y
 _atom_site_fract_z
 _atom_site_occupancy
  Sr  Sr0  1  0.375240  0.323489  0.250580  1
  Sr  Sr1  1  0.999788  0.882042  0.498207  1
  Sr  Sr2  1  0.624600  0.172728  0.748951  1
  Sr  Sr3  1  0.391570  0.832340  0.871133  1
  Sr  Sr4  1  0.374564  0.828623  0.251751  1
  Sr  Sr5  1  0.522002  0.667972  0.128295  1
  Sr  Sr6  1  0.366725  0.562506  0.259258  1
  Sr  Sr7  1  0.581203  0.925023  0.760895  1
  Sr  Sr8  1  0.244676  0.025996  0.000021  1
  Sr  Sr9  1  0.820585  0.575045  0.240174  1
  Sr  Sr10  1  0.157165  0.750124  0.000148  1
  Sr  Sr11  1  0.163949  0.477212  0.373326  1
  Sr  Sr12  1  0.177241  0.424199  0.760015  1
  Sr  Sr13  1  0.629605  0.437590  0.739306  1
  Sr  Sr14  1  0.477809  0.333000  0.871946  1
  Sr  Sr15  1  0.497576  0.382943  0.499134  1
  Sr  Sr16  1  0.755890  0.974409  0.999354  1
  Sr  Sr17  1  0.836937  0.522565  0.626103  1
  Sr  Sr18  1  0.023547  0.347539  0.499508  1
  Sr  Sr19  1  0.207623  0.977328  0.373524  1
  Sr  Sr20  1  0.716176  0.750809  0.998215  1
  Sr  Sr21  1  0.123667  0.671497  0.748460  1
  Sr  Sr22  1  0.872664  0.822538  0.250587  1
  Sr  Sr23  1  0.874609  0.328410  0.252693  1
  Sr  Sr24  1  0.106825  0.936962  0.738182  1
  Sr  Sr25  1  0.788684  0.022291  0.626907  1
  Sr  Sr26  1  0.758475  0.528331  0.002321  1
  Sr  Sr27  1  0.522906  0.150541  0.500468  1
  Sr  Sr28  1  0.501543  0.618320  0.501577  1
  Sr  Sr29  1  0.996330  0.118162  0.502455  1
  Sr  Sr30  1  0.243068  0.472880  0.998244  1
  Sr  Sr31  1  0.606069  0.168265  0.129229  1
  Sr  Sr32  1  0.840896  0.249926  0.000146  1
  Sr  Sr33  1  0.975068  0.650398  0.499605  1
  Sr  Sr34  1  0.473686  0.849224  0.500635  1
  Sr  Sr35  1  0.624510  0.676908  0.748885  1
  Sr  Sr36  1  0.891264  0.062511  0.260314  1
  Sr  Sr37  1  0.282492  0.249660  0.000505  1
  Sr  Sr38  1  0.417011  0.074637  0.239525  1
  Sr  Sr39  1  0.125313  0.176249  0.749176  1
  Al  Al40  1  0.520820  0.911066  0.113062  1
  Al  Al41  1  0.914617  0.848747  0.852632  1
  Al  Al42  1  0.699923  0.462164  0.387844  1
  Al  Al43  1  0.785779  0.784900  0.642733  1
  Al  Al44  1  0.141948  0.715016  0.357382  1
  Al  Al45  1  0.935482  0.348819  0.852017  1
  Al  Al46  1  0.302344  0.262388  0.630213  1
  Al  Al47  1  0.685633  0.962136  0.387922  1
  Al  Al48  1  0.043637  0.433620  0.128193  1
  Al  Al49  1  0.855406  0.284625  0.642235  1
  Al  Al50  1  0.062594  0.651786  0.147639  1
  Al  Al51  1  0.212084  0.215367  0.357368  1
  Al  Al52  1  0.406813  0.589709  0.886607  1
  Al  Al53  1  0.312288  0.037909  0.611671  1
  Al  Al54  1  0.670900  0.237626  0.370828  1
  Al  Al55  1  0.953946  0.567157  0.871137  1
  Al  Al56  1  0.299288  0.538301  0.611780  1
  Al  Al57  1  0.696038  0.737662  0.370416  1
  Al  Al58  1  0.083312  0.151503  0.147941  1
  Al  Al59  1  0.478356  0.089819  0.886705  1
  Al  Al60  1  0.915042  0.066304  0.870729  1
  Al  Al61  1  0.326620  0.762772  0.629614  1
  Al  Al62  1  0.591975  0.410991  0.113121  1
  Al  Al63  1  0.083916  0.932532  0.128811  1
  O  O64  1  0.504667  0.878052  0.009963  1
  O  O65  1  0.552631  0.771346  0.626987  1
  O  O66  1  0.243702  0.485431  0.510609  1
  O  O67  1  0.269663  0.985085  0.510717  1
  O  O68  1  0.907248  0.462261  0.888199  1
  O  O69  1  0.224798  0.713847  0.129123  1
  O  O70  1  0.775030  0.286023  0.871544  1
  O  O71  1  0.412059  0.316853  0.725935  1
  O  O72  1  0.473130  0.472014  0.355295  1
  O  O73  1  0.238745  0.819287  0.371000  1
  O  O74  1  0.566795  0.329980  0.164004  1
  O  O75  1  0.094045  0.785877  0.871146  1
  O  O76  1  0.920751  0.073768  0.774139  1
  O  O77  1  0.839682  0.866489  0.599447  1
  O  O78  1  0.508839  0.007191  0.664163  1
  O  O79  1  0.686655  0.181778  0.275284  1
  O  O80  1  0.091548  0.360386  0.047018  1
  O  O81  1  0.818270  0.433750  0.123352  1
  O  O82  1  0.345048  0.151547  0.621463  1
  O  O83  1  0.631002  0.015216  0.146673  1
  O  O84  1  0.161357  0.134391  0.402271  1
  O  O85  1  0.313098  0.817930  0.725671  1
  O  O86  1  0.501824  0.375673  0.010646  1
  O  O87  1  0.144014  0.166195  0.253345  1
  O  O88  1  0.020538  0.037612  0.112757  1
  O  O89  1  0.090597  0.538369  0.110439  1
  O  O90  1  0.837582  0.669078  0.124787  1
  O  O91  1  0.179027  0.568357  0.874475  1
  O  O92  1  0.720956  0.348525  0.377605  1
  O  O93  1  0.115231  0.029205  0.642937  1
  O  O94  1  0.276036  0.651722  0.621279  1
  O  O95  1  0.444048  0.230224  0.371983  1
  O  O96  1  0.907109  0.639523  0.952906  1
  O  O97  1  0.155761  0.508880  0.665309  1
  O  O98  1  0.846836  0.490607  0.335354  1
  O  O99  1  0.711823  0.832524  0.875819  1
  O  O100  1  0.663137  0.710860  0.455257  1
  O  O101  1  0.077742  0.923894  0.225004  1
  O  O102  1  0.729437  0.014630  0.489175  1
  O  O103  1  0.306475  0.931587  0.126147  1
  O  O104  1  0.043038  0.139001  0.952397  1
  O  O105  1  0.515444  0.514925  0.146794  1
  O  O106  1  0.903988  0.213588  0.129076  1
  O  O107  1  0.487379  0.990948  0.335024  1
  O  O108  1  0.365732  0.986219  0.854136  1
  O  O109  1  0.107128  0.665748  0.253151  1
  O  O110  1  0.853926  0.833716  0.747220  1
  O  O111  1  0.956010  0.860700  0.046125  1
  O  O112  1  0.128644  0.319328  0.370755  1
  O  O113  1  0.336497  0.291956  0.546614  1
  O  O114  1  0.434115  0.670943  0.836449  1
  O  O115  1  0.852274  0.574600  0.774528  1
  O  O116  1  0.073743  0.270373  0.627637  1
  O  O117  1  0.653881  0.848305  0.377504  1
  O  O118  1  0.924616  0.729352  0.372987  1
  O  O119  1  0.888297  0.332992  0.746364  1
  O  O120  1  0.979193  0.962002  0.889213  1
  O  O121  1  0.497418  0.124326  0.989851  1
  O  O122  1  0.692187  0.067295  0.872931  1
  O  O123  1  0.208407  0.791157  0.545890  1
  O  O124  1  0.763141  0.366302  0.597665  1
  O  O125  1  0.526988  0.529002  0.643319  1
  O  O126  1  0.867431  0.680378  0.629686  1
  O  O127  1  0.756233  0.515836  0.488719  1
  O  O128  1  0.587674  0.681365  0.274667  1
  O  O129  1  0.759305  0.180099  0.628484  1
  O  O130  1  0.495490  0.624647  0.989242  1
  O  O131  1  0.161104  0.332497  0.874376  1
  O  O132  1  0.286400  0.168233  0.124496  1
  O  O133  1  0.144665  0.426154  0.224764  1
  O  O134  1  0.234737  0.633718  0.402311  1
  O  O135  1  0.787574  0.210604  0.455248  1
  O  O136  1  0.882266  0.971972  0.356636  1
  O  O137  1  0.401744  0.170983  0.836457  1
  O  O138  1  0.480863  0.485340  0.852204  1
  O  O139  1  0.597368  0.829369  0.162751  1
