# generated using pymatgen
data_Tl9BiSe6
_symmetry_space_group_name_H-M   'P 1'
_cell_length_a   8.59033911
_cell_length_b   8.58828042
_cell_length_c   8.99192483
_cell_angle_alpha   118.50907056
_cell_angle_beta   118.49901458
_cell_angle_gamma   89.99680330
_symmetry_Int_Tables_number   1
_chemical_formula_structural   Tl9BiSe6
_chemical_formula_sum   'Tl9 Bi1 Se6'
_cell_volume   489.53811624
_cell_formula_units_Z   1
loop_
 _symmetry_equiv_pos_site_id
 _symmetry_equiv_pos_as_xyz
  1  'x, y, z'
loop_
 _atom_site_type_symbol
 _atom_site_label
 _atom_site_symmetry_multiplicity
 _atom_site_fract_x
 _atom_site_fract_y
 _atom_site_fract_z
 _atom_site_occupancy
  Tl  Tl0  1  -0.000090  0.506727  0.306219  1
  Tl  Tl1  1  0.200583  0.000220  0.693633  1
  Tl  Tl2  1  0.000000  0.000000  0.000000  1
  Tl  Tl3  1  0.306236  0.799467  0.306114  1
  Tl  Tl4  1  0.493358  0.693690  0.693733  1
  Tl  Tl5  1  0.506642  0.306310  0.306267  1
  Tl  Tl6  1  0.693764  0.200533  0.693886  1
  Tl  Tl7  1  0.799417  -0.000220  0.306367  1
  Tl  Tl8  1  0.000090  0.493273  0.693781  1
  Bi  Bi9  1  0.500000  0.500000  0.000000  1
  Se  Se10  1  0.272727  0.272660  0.545509  1
  Se  Se11  1  0.180116  0.351496  0.000162  1
  Se  Se12  1  0.351444  0.820019  0.000019  1
  Se  Se13  1  0.727273  0.727340  0.454491  1
  Se  Se14  1  0.648556  0.179981  -0.000019  1
  Se  Se15  1  0.819884  0.648504  0.999838  1
