# generated using pymatgen
data_Li10Ge(PO6)2
_symmetry_space_group_name_H-M   'P 1'
_cell_length_a   6.83682402
_cell_length_b   7.14601822
_cell_length_c   10.52699067
_cell_angle_alpha   90.10690947
_cell_angle_beta   90.15009849
_cell_angle_gamma   89.75412134
_symmetry_Int_Tables_number   1
_chemical_formula_structural   Li10Ge(PO6)2
_chemical_formula_sum   'Li20 Ge2 P4 O24'
_cell_volume   514.29999767
_cell_formula_units_Z   2
loop_
 _symmetry_equiv_pos_site_id
 _symmetry_equiv_pos_as_xyz
  1  'x, y, z'
loop_
 _atom_site_type_symbol
 _atom_site_label
 _atom_site_symmetry_multiplicity
 _atom_site_fract_x
 _atom_site_fract_y
 _atom_site_fract_z
 _atom_site_occupancy
  Li  Li0  1  0.983871  0.545638  0.936237  1
  Li  Li1  1  0.789868  0.642539  0.430173  1
  Li  Li2  1  0.491057  0.924618  0.561422  1
  Li  Li3  1  0.478268  0.033468  0.063634  1
  Li  Li4  1  0.278021  0.258868  0.178917  1
  Li  Li5  1  0.517327  0.562896  0.247638  1
  Li  Li6  1  0.137853  0.892253  0.763727  1
  Li  Li7  1  0.047330  0.919293  0.242008  1
  Li  Li8  1  0.778318  0.235961  0.332320  1
  Li  Li9  1  0.446470  0.521154  0.740222  1
  Li  Li10  1  0.250007  0.291325  0.426117  1
  Li  Li11  1  0.769893  0.250503  0.826466  1
  Li  Li12  1  0.256245  0.765132  0.013130  1
  Li  Li13  1  0.779521  0.197904  0.074761  1
  Li  Li14  1  0.775871  0.736756  0.686726  1
  Li  Li15  1  0.180050  0.246841  0.928634  1
  Li  Li16  1  0.763061  0.816584  0.064701  1
  Li  Li17  1  0.256835  0.649620  0.435178  1
  Li  Li18  1  0.703756  0.222120  0.575180  1
  Li  Li19  1  0.269739  0.211576  0.667884  1
  Ge  Ge20  1  0.015720  0.506209  0.197546  1
  Ge  Ge21  1  0.520640  0.985465  0.820897  1
  P  P22  1  0.013856  0.972789  0.501522  1
  P  P23  1  0.516398  0.492372  0.994473  1
  P  P24  1  0.025517  0.476480  0.672165  1
  P  P25  1  0.518182  0.979629  0.313025  1
  O  O26  1  0.008265  0.149431  0.416907  1
  O  O27  1  0.024563  0.797709  0.413439  1
  O  O28  1  0.326164  0.496310  0.912776  1
  O  O29  1  0.701022  0.483847  0.911158  1
  O  O30  1  0.516322  0.676058  0.076027  1
  O  O31  1  0.511760  0.317628  0.083708  1
  O  O32  1  0.199912  0.979441  0.588079  1
  O  O33  1  0.828126  0.962183  0.585438  1
  O  O34  1  0.031849  0.311478  0.086916  1
  O  O35  1  0.017627  0.714331  0.102426  1
  O  O36  1  0.218091  0.464988  0.590528  1
  O  O37  1  0.834357  0.482606  0.591146  1
  O  O38  1  0.517753  0.789565  0.386861  1
  O  O39  1  0.523757  0.143934  0.413221  1
  O  O40  1  0.295869  0.992926  0.910077  1
  O  O41  1  0.715461  0.013631  0.932844  1
  O  O42  1  0.022709  0.653529  0.758325  1
  O  O43  1  0.028910  0.298776  0.758954  1
  O  O44  1  0.795102  0.486734  0.282321  1
  O  O45  1  0.236610  0.476073  0.289748  1
  O  O46  1  0.531655  0.191836  0.722685  1
  O  O47  1  0.514335  0.785712  0.722913  1
  O  O48  1  0.700815  0.000552  0.224075  1
  O  O49  1  0.332690  -0.000173  0.227930  1
