# generated using pymatgen
data_Gd2CdS4
_symmetry_space_group_name_H-M   'P 1'
_cell_length_a   7.33415600
_cell_length_b   7.33415525
_cell_length_c   7.33415523
_cell_angle_alpha   110.40187481
_cell_angle_beta   110.40187305
_cell_angle_gamma   107.62552889
_symmetry_Int_Tables_number   1
_chemical_formula_structural   Gd2CdS4
_chemical_formula_sum   'Gd4 Cd2 S8'
_cell_volume   303.45316502
_cell_formula_units_Z   2
loop_
 _symmetry_equiv_pos_site_id
 _symmetry_equiv_pos_as_xyz
  1  'x, y, z'
loop_
 _atom_site_type_symbol
 _atom_site_label
 _atom_site_symmetry_multiplicity
 _atom_site_fract_x
 _atom_site_fract_y
 _atom_site_fract_z
 _atom_site_occupancy
  Gd  Gd0  1  0.110719  0.750000  0.860719  1
  Gd  Gd1  1  0.250000  0.610719  0.360719  1
  Gd  Gd2  1  0.389281  0.250000  0.639281  1
  Gd  Gd3  1  0.750000  0.889281  0.139281  1
  Cd  Cd4  1  0.625000  0.375000  0.250000  1
  Cd  Cd5  1  0.875000  0.125000  0.750000  1
  S  S6  1  0.009797  0.885492  0.511362  1
  S  S7  1  0.998435  0.374130  0.488638  1
  S  S8  1  0.501565  0.990203  0.375695  1
  S  S9  1  0.114508  0.125870  0.124305  1
  S  S10  1  0.385492  0.509797  0.011362  1
  S  S11  1  0.490203  0.001565  0.875695  1
  S  S12  1  0.625870  0.614508  0.624305  1
  S  S13  1  0.874130  0.498435  0.988638  1
