# generated using pymatgen
data_Ge(WO3)6
_symmetry_space_group_name_H-M   'P 1'
_cell_length_a   7.57696645
_cell_length_b   7.56709404
_cell_length_c   23.17167697
_cell_angle_alpha   90.00000000
_cell_angle_beta   90.00000000
_cell_angle_gamma   120.04316681
_symmetry_Int_Tables_number   1
_chemical_formula_structural   Ge(WO3)6
_chemical_formula_sum   'Ge3 W18 O54'
_cell_volume   1150.06800152
_cell_formula_units_Z   3
loop_
 _symmetry_equiv_pos_site_id
 _symmetry_equiv_pos_as_xyz
  1  'x, y, z'
loop_
 _atom_site_type_symbol
 _atom_site_label
 _atom_site_symmetry_multiplicity
 _atom_site_fract_x
 _atom_site_fract_y
 _atom_site_fract_z
 _atom_site_occupancy
  Ge  Ge0  1  0.101521  0.000000  0.750000  1
  Ge  Ge1  1  0.898747  0.000000  0.583680  1
  Ge  Ge2  1  0.898747  0.000000  0.916320  1
  W  W3  1  0.999206  0.499362  0.250000  1
  W  W4  1  0.994000  0.484702  0.750000  1
  W  W5  1  0.494897  0.000000  0.582654  1
  W  W6  1  0.494897  0.000000  0.917346  1
  W  W7  1  0.501366  0.500061  0.083668  1
  W  W8  1  0.499844  0.500638  0.250000  1
  W  W9  1  0.501366  0.500061  0.416332  1
  W  W10  1  0.490161  0.485905  0.583152  1
  W  W11  1  0.509299  0.515298  0.750000  1
  W  W12  1  0.490161  0.485905  0.916848  1
  W  W13  1  0.500738  0.000000  0.084292  1
  W  W14  1  0.500738  0.000000  0.415708  1
  W  W15  1  0.499047  0.000000  0.250000  1
  W  W16  1  0.504433  0.000000  0.750000  1
  W  W17  1  0.001305  0.499939  0.083668  1
  W  W18  1  0.001305  0.499939  0.416332  1
  W  W19  1  0.004256  0.514095  0.583152  1
  W  W20  1  0.004256  0.514095  0.916848  1
  O  O21  1  0.214915  0.785112  0.081560  1
  O  O22  1  0.215098  0.784987  0.250000  1
  O  O23  1  0.214915  0.785112  0.418440  1
  O  O24  1  0.202084  0.788800  0.584770  1
  O  O25  1  0.187740  0.804520  0.750000  1
  O  O26  1  0.202084  0.788800  0.915230  1
  O  O27  1  0.214734  0.429398  0.082057  1
  O  O28  1  0.214817  0.429886  0.250000  1
  O  O29  1  0.214734  0.429398  0.417943  1
  O  O30  1  0.217075  0.435003  0.584439  1
  O  O31  1  0.218211  0.435793  0.750000  1
  O  O32  1  0.217075  0.435003  0.915561  1
  O  O33  1  0.571020  0.786131  0.082006  1
  O  O34  1  0.570088  0.785229  0.250000  1
  O  O35  1  0.571020  0.786131  0.417994  1
  O  O36  1  0.616756  0.805009  0.585071  1
  O  O37  1  0.588094  0.790429  0.750000  1
  O  O38  1  0.616756  0.805009  0.914929  1
  O  O39  1  0.500004  0.504330  0.998325  1
  O  O40  1  0.499602  0.499407  0.166024  1
  O  O41  1  0.499602  0.499407  0.333976  1
  O  O42  1  0.500028  0.500049  0.666992  1
  O  O43  1  0.500004  0.504330  0.501675  1
  O  O44  1  0.500028  0.500049  0.833008  1
  O  O45  1  0.429803  0.214888  0.081560  1
  O  O46  1  0.430111  0.215013  0.250000  1
  O  O47  1  0.429803  0.214888  0.418440  1
  O  O48  1  0.413284  0.211200  0.584770  1
  O  O49  1  0.383220  0.195480  0.750000  1
  O  O50  1  0.413284  0.211200  0.915230  1
  O  O51  1  0.500158  0.000000  0.998119  1
  O  O52  1  0.499371  0.000000  0.166101  1
  O  O53  1  0.499371  0.000000  0.333899  1
  O  O54  1  0.500158  0.000000  0.501881  1
  O  O55  1  0.499256  0.000000  0.667076  1
  O  O56  1  0.499256  0.000000  0.832924  1
  O  O57  1  0.785336  0.570602  0.082057  1
  O  O58  1  0.784931  0.570114  0.250000  1
  O  O59  1  0.785336  0.570602  0.417943  1
  O  O60  1  0.782072  0.564997  0.584439  1
  O  O61  1  0.782418  0.564207  0.750000  1
  O  O62  1  0.782072  0.564997  0.915561  1
  O  O63  1  0.784889  0.213869  0.082006  1
  O  O64  1  0.784858  0.214771  0.250000  1
  O  O65  1  0.784889  0.213869  0.417994  1
  O  O66  1  0.811747  0.194991  0.585071  1
  O  O67  1  0.797665  0.209571  0.750000  1
  O  O68  1  0.811747  0.194991  0.914929  1
  O  O69  1  0.995674  0.495670  0.998325  1
  O  O70  1  0.000195  0.500593  0.166024  1
  O  O71  1  0.000195  0.500593  0.333976  1
  O  O72  1  0.995674  0.495670  0.501675  1
  O  O73  1  0.999979  0.499951  0.666992  1
  O  O74  1  0.999979  0.499951  0.833008  1
