# generated using pymatgen
data_BaTi(SiO3)3
_symmetry_space_group_name_H-M   'P 1'
_cell_length_a   6.72417524
_cell_length_b   6.72417523
_cell_length_c   9.89997627
_cell_angle_alpha   90.00000000
_cell_angle_beta   90.00000000
_cell_angle_gamma   120.00000003
_symmetry_Int_Tables_number   1
_chemical_formula_structural   BaTi(SiO3)3
_chemical_formula_sum   'Ba2 Ti2 Si6 O18'
_cell_volume   387.65271595
_cell_formula_units_Z   2
loop_
 _symmetry_equiv_pos_site_id
 _symmetry_equiv_pos_as_xyz
  1  'x, y, z'
loop_
 _atom_site_type_symbol
 _atom_site_label
 _atom_site_symmetry_multiplicity
 _atom_site_fract_x
 _atom_site_fract_y
 _atom_site_fract_z
 _atom_site_occupancy
  O  O0  1  0.088235  0.658442  0.613088  1
  O  O1  1  0.341558  0.911765  0.386912  1
  O  O2  1  0.570207  0.911765  0.613088  1
  O  O3  1  0.341558  0.429793  0.886912  1
  O  O4  1  0.570207  0.911765  0.886912  1
  O  O5  1  0.088235  0.658442  0.886912  1
  O  O6  1  0.570207  0.658442  0.113088  1
  O  O7  1  0.088235  0.429793  0.113088  1
  O  O8  1  0.254431  0.192781  0.250000  1
  O  O9  1  0.938350  0.745569  0.250000  1
  O  O10  1  0.807219  0.061650  0.250000  1
  O  O11  1  0.807219  0.745569  0.750000  1
  O  O12  1  0.570207  0.658442  0.386912  1
  O  O13  1  0.254431  0.061650  0.750000  1
  O  O14  1  0.938350  0.192781  0.750000  1
  O  O15  1  0.088235  0.429793  0.386912  1
  O  O16  1  0.341558  0.911765  0.113088  1
  O  O17  1  0.341558  0.429793  0.613088  1
  Si  Si18  1  0.217844  0.929115  0.250000  1
  Si  Si19  1  0.217844  0.288729  0.750000  1
  Si  Si20  1  0.711271  0.929115  0.750000  1
  Si  Si21  1  0.711271  0.782156  0.250000  1
  Si  Si22  1  0.070885  0.288729  0.250000  1
  Si  Si23  1  0.070885  0.782156  0.750000  1
  Ti  Ti24  1  0.333333  0.666667  0.500000  1
  Ti  Ti25  1  0.333333  0.666667  0.000000  1
  Ba  Ba26  1  0.666667  0.333333  0.500000  1
  Ba  Ba27  1  0.666667  0.333333  0.000000  1
