# generated using pymatgen
data_K2Si2Pb2O
_symmetry_space_group_name_H-M   'P 1'
_cell_length_a   5.54517588
_cell_length_b   5.55331066
_cell_length_c   6.73318428
_cell_angle_alpha   90.00000000
_cell_angle_beta   90.00000000
_cell_angle_gamma   120.04854005
_symmetry_Int_Tables_number   1
_chemical_formula_structural   K2Si2Pb2O
_chemical_formula_sum   'K2 Si2 Pb2 O1'
_cell_volume   179.47575808
_cell_formula_units_Z   1
loop_
 _symmetry_equiv_pos_site_id
 _symmetry_equiv_pos_as_xyz
  1  'x, y, z'
loop_
 _atom_site_type_symbol
 _atom_site_label
 _atom_site_symmetry_multiplicity
 _atom_site_fract_x
 _atom_site_fract_y
 _atom_site_fract_z
 _atom_site_occupancy
  K  K0  1  0.666612  0.333306  0.500000  1
  K  K1  1  0.333388  0.666694  0.500000  1
  Si  Si2  1  0.000000  0.000000  0.764906  1
  Si  Si3  1  0.000000  0.000000  0.235094  1
  Pb  Pb4  1  0.666563  0.333282  0.000000  1
  Pb  Pb5  1  0.333437  0.666718  0.000000  1
  O  O6  1  0.000000  0.000000  0.500000  1
