# generated using pymatgen
data_C2SeN2
_symmetry_space_group_name_H-M   'P 1'
_cell_length_a   6.91503615
_cell_length_b   8.33960438
_cell_length_c   13.77060537
_cell_angle_alpha   90.00000000
_cell_angle_beta   90.00000000
_cell_angle_gamma   90.00000000
_symmetry_Int_Tables_number   1
_chemical_formula_structural   C2SeN2
_chemical_formula_sum   'C16 Se8 N16'
_cell_volume   794.13243846
_cell_formula_units_Z   8
loop_
 _symmetry_equiv_pos_site_id
 _symmetry_equiv_pos_as_xyz
  1  'x, y, z'
loop_
 _atom_site_type_symbol
 _atom_site_label
 _atom_site_symmetry_multiplicity
 _atom_site_fract_x
 _atom_site_fract_y
 _atom_site_fract_z
 _atom_site_occupancy
  C  C0  1  0.727217  0.692979  0.637101  1
  C  C1  1  0.408699  0.107433  0.111793  1
  C  C2  1  0.227217  0.307021  0.862899  1
  C  C3  1  0.272783  0.307021  0.362899  1
  C  C4  1  0.727217  0.192979  0.862899  1
  C  C5  1  0.591301  0.392567  0.611793  1
  C  C6  1  0.908699  0.392567  0.111793  1
  C  C7  1  0.091301  0.607433  0.888207  1
  C  C8  1  0.408699  0.607433  0.388207  1
  C  C9  1  0.091301  0.107433  0.611793  1
  C  C10  1  0.908699  0.892567  0.388207  1
  C  C11  1  0.772783  0.192979  0.362899  1
  C  C12  1  0.227217  0.807021  0.637101  1
  C  C13  1  0.591301  0.892567  0.888207  1
  C  C14  1  0.772783  0.692979  0.137101  1
  C  C15  1  0.272783  0.807021  0.137101  1
  Se  Se16  1  0.334669  0.512850  0.872353  1
  Se  Se17  1  0.665331  0.487150  0.127647  1
  Se  Se18  1  0.165331  0.012850  0.127647  1
  Se  Se19  1  0.334669  0.012850  0.627647  1
  Se  Se20  1  0.665331  0.987150  0.372353  1
  Se  Se21  1  0.834669  0.987150  0.872353  1
  Se  Se22  1  0.165331  0.512850  0.372353  1
  Se  Se23  1  0.834669  0.487150  0.627647  1
  N  N24  1  0.164323  0.177188  0.860084  1
  N  N25  1  0.335677  0.177188  0.360084  1
  N  N26  1  0.164323  0.677188  0.639916  1
  N  N27  1  0.835677  0.822812  0.139916  1
  N  N28  1  0.947342  0.178431  0.599682  1
  N  N29  1  0.052658  0.821569  0.400318  1
  N  N30  1  0.552658  0.178431  0.099682  1
  N  N31  1  0.835677  0.322812  0.360084  1
  N  N32  1  0.552658  0.678431  0.400318  1
  N  N33  1  0.664323  0.822812  0.639916  1
  N  N34  1  0.052658  0.321569  0.099682  1
  N  N35  1  0.447342  0.821569  0.900318  1
  N  N36  1  0.664323  0.322812  0.860084  1
  N  N37  1  0.335677  0.677188  0.139916  1
  N  N38  1  0.447342  0.321569  0.599682  1
  N  N39  1  0.947342  0.678431  0.900318  1
