# generated using pymatgen
data_Ba(GaO2)2
_symmetry_space_group_name_H-M   'P 1'
_cell_length_a   18.87482337
_cell_length_b   18.87482306
_cell_length_c   8.79855156
_cell_angle_alpha   90.00000000
_cell_angle_beta   90.00000000
_cell_angle_gamma   120.00000052
_symmetry_Int_Tables_number   1
_chemical_formula_structural   Ba(GaO2)2
_chemical_formula_sum   'Ba24 Ga48 O96'
_cell_volume   2714.61095989
_cell_formula_units_Z   24
loop_
 _symmetry_equiv_pos_site_id
 _symmetry_equiv_pos_as_xyz
  1  'x, y, z'
loop_
 _atom_site_type_symbol
 _atom_site_label
 _atom_site_symmetry_multiplicity
 _atom_site_fract_x
 _atom_site_fract_y
 _atom_site_fract_z
 _atom_site_occupancy
  Ba  Ba0  1  0.000000  0.000000  0.198515  1
  Ba  Ba1  1  0.333333  0.666667  0.646346  1
  Ba  Ba2  1  0.000000  0.000000  0.698515  1
  Ba  Ba3  1  0.999706  0.485218  0.677651  1
  Ba  Ba4  1  0.837927  0.169637  0.668819  1
  Ba  Ba5  1  0.191651  0.857957  0.666984  1
  Ba  Ba6  1  0.808349  0.142043  0.166984  1
  Ba  Ba7  1  0.331710  0.162073  0.668819  1
  Ba  Ba8  1  0.162073  0.830363  0.168819  1
  Ba  Ba9  1  0.830363  0.668290  0.668819  1
  Ba  Ba10  1  0.333333  0.666667  0.146917  1
  Ba  Ba11  1  0.857957  0.666306  0.166984  1
  Ba  Ba12  1  0.169637  0.331710  0.168819  1
  Ba  Ba13  1  0.333694  0.191651  0.166984  1
  Ba  Ba14  1  0.485512  0.000294  0.677651  1
  Ba  Ba15  1  0.142043  0.333694  0.666984  1
  Ba  Ba16  1  0.668290  0.837927  0.168819  1
  Ba  Ba17  1  0.666667  0.333333  0.646917  1
  Ba  Ba18  1  0.514782  0.514488  0.677651  1
  Ba  Ba19  1  0.666306  0.808349  0.666984  1
  Ba  Ba20  1  0.000294  0.514782  0.177651  1
  Ba  Ba21  1  0.666667  0.333333  0.146346  1
  Ba  Ba22  1  0.485218  0.485512  0.177651  1
  Ba  Ba23  1  0.514488  0.999706  0.177651  1
  Ga  Ga24  1  0.845517  0.834678  0.976204  1
  Ga  Ga25  1  0.827644  0.327947  0.367365  1
  Ga  Ga26  1  0.173361  0.011700  0.370551  1
  Ga  Ga27  1  0.672053  0.499697  0.367365  1
  Ga  Ga28  1  0.000191  0.671749  0.457316  1
  Ga  Ga29  1  0.338304  0.834795  0.970222  1
  Ga  Ga30  1  0.321880  0.493619  0.473387  1
  Ga  Ga31  1  0.000019  0.662227  0.867674  1
  Ga  Ga32  1  0.165322  0.010839  0.976204  1
  Ga  Ga33  1  0.834473  0.489263  0.866821  1
  Ga  Ga34  1  0.328251  0.328441  0.457316  1
  Ga  Ga35  1  0.826639  0.988300  0.870551  1
  Ga  Ga36  1  0.171739  0.678120  0.473387  1
  Ga  Ga37  1  0.345210  0.834473  0.366821  1
  Ga  Ga38  1  0.161662  0.173361  0.870551  1
  Ga  Ga39  1  0.499697  0.827644  0.867365  1
  Ga  Ga40  1  0.662208  0.999981  0.867674  1
  Ga  Ga41  1  0.493619  0.171739  0.973387  1
  Ga  Ga42  1  0.828261  0.321880  0.973387  1
  Ga  Ga43  1  0.165205  0.503509  0.970222  1
  Ga  Ga44  1  0.165527  0.510737  0.366821  1
  Ga  Ga45  1  0.661696  0.165205  0.470222  1
  Ga  Ga46  1  0.654790  0.165527  0.866821  1
  Ga  Ga47  1  0.506381  0.828261  0.473387  1
  Ga  Ga48  1  0.503509  0.338304  0.470222  1
  Ga  Ga49  1  0.999981  0.337773  0.367674  1
  Ga  Ga50  1  0.328441  0.000191  0.957316  1
  Ga  Ga51  1  0.011700  0.838338  0.870551  1
  Ga  Ga52  1  0.154483  0.165322  0.476204  1
  Ga  Ga53  1  0.010839  0.845517  0.476204  1
  Ga  Ga54  1  0.500303  0.172356  0.367365  1
  Ga  Ga55  1  0.496491  0.661696  0.970222  1
  Ga  Ga56  1  0.327947  0.500303  0.867365  1
  Ga  Ga57  1  0.989161  0.154483  0.976204  1
  Ga  Ga58  1  0.678120  0.506381  0.973387  1
  Ga  Ga59  1  0.838338  0.826639  0.370551  1
  Ga  Ga60  1  0.671749  0.671559  0.957316  1
  Ga  Ga61  1  0.999809  0.328251  0.957316  1
  Ga  Ga62  1  0.834795  0.496491  0.470222  1
  Ga  Ga63  1  0.510737  0.345210  0.866821  1
  Ga  Ga64  1  0.988300  0.161662  0.370551  1
  Ga  Ga65  1  0.489263  0.654790  0.366821  1
  Ga  Ga66  1  0.337792  0.000019  0.367674  1
  Ga  Ga67  1  0.172356  0.672053  0.867365  1
  Ga  Ga68  1  0.834678  0.989161  0.476204  1
  Ga  Ga69  1  0.671559  0.999809  0.457316  1
  Ga  Ga70  1  0.337773  0.337792  0.867674  1
  Ga  Ga71  1  0.662227  0.662208  0.367674  1
  O  O72  1  0.209498  0.108044  0.866849  1
  O  O73  1  0.894672  0.286782  0.880261  1
  O  O74  1  0.218332  0.604695  0.872993  1
  O  O75  1  0.444218  0.880068  0.475143  1
  O  O76  1  0.333743  0.990050  0.161556  1
  O  O77  1  0.392110  0.105328  0.880261  1
  O  O78  1  0.105328  0.713218  0.380261  1
  O  O79  1  0.386363  0.781668  0.872993  1
  O  O80  1  0.395305  0.613637  0.872993  1
  O  O81  1  0.448890  0.060603  0.420516  1
  O  O82  1  0.708365  0.109634  0.930449  1
  O  O83  1  0.553330  0.275182  0.884567  1
  O  O84  1  0.101454  0.209498  0.366849  1
  O  O85  1  0.523914  0.806028  0.672353  1
  O  O86  1  0.570918  0.641286  0.864494  1
  O  O87  1  0.717886  0.523914  0.172353  1
  O  O88  1  0.721852  0.446670  0.884567  1
  O  O89  1  0.468118  0.616983  0.165936  1
  O  O90  1  0.060603  0.611713  0.920516  1
  O  O91  1  0.383017  0.851134  0.165936  1
  O  O92  1  0.891956  0.101454  0.866849  1
  O  O93  1  0.358714  0.929632  0.864494  1
  O  O94  1  0.929632  0.570918  0.364494  1
  O  O95  1  0.806028  0.282114  0.172353  1
  O  O96  1  0.052917  0.939801  0.964977  1
  O  O97  1  0.429082  0.358714  0.364494  1
  O  O98  1  0.551110  0.939397  0.920516  1
  O  O99  1  0.113116  0.052917  0.464977  1
  O  O100  1  0.234520  0.275119  0.957751  1
  O  O101  1  0.217233  0.954184  0.909580  1
  O  O102  1  0.070368  0.429082  0.864494  1
  O  O103  1  0.611713  0.551110  0.420516  1
  O  O104  1  0.388287  0.448890  0.920516  1
  O  O105  1  0.781668  0.395305  0.372993  1
  O  O106  1  0.263048  0.217233  0.409580  1
  O  O107  1  0.851134  0.468118  0.665936  1
  O  O108  1  0.954184  0.736952  0.409580  1
  O  O109  1  0.119932  0.564150  0.475143  1
  O  O110  1  0.446670  0.724818  0.384567  1
  O  O111  1  0.060199  0.113116  0.964977  1
  O  O112  1  0.886884  0.947083  0.964977  1
  O  O113  1  0.343693  0.333743  0.661556  1
  O  O114  1  0.109634  0.401269  0.430449  1
  O  O115  1  0.790502  0.891956  0.366849  1
  O  O116  1  0.134202  0.186717  0.673552  1
  O  O117  1  0.736952  0.782767  0.909580  1
  O  O118  1  0.531882  0.383017  0.665936  1
  O  O119  1  0.476086  0.193972  0.172353  1
  O  O120  1  0.009950  0.343693  0.161556  1
  O  O121  1  0.275119  0.040599  0.457751  1
  O  O122  1  0.616983  0.148866  0.665936  1
  O  O123  1  0.282114  0.476086  0.672353  1
  O  O124  1  0.724818  0.278148  0.884567  1
  O  O125  1  0.538447  0.774158  0.990768  1
  O  O126  1  0.275182  0.721852  0.384567  1
  O  O127  1  0.052515  0.865798  0.673552  1
  O  O128  1  0.813283  0.947485  0.673552  1
  O  O129  1  0.724881  0.959401  0.957751  1
  O  O130  1  0.898546  0.790502  0.866849  1
  O  O131  1  0.598731  0.708365  0.430449  1
  O  O132  1  0.604695  0.386363  0.372993  1
  O  O133  1  0.764288  0.538447  0.490768  1
  O  O134  1  0.774158  0.235712  0.490768  1
  O  O135  1  0.656307  0.666257  0.161556  1
  O  O136  1  0.235712  0.461553  0.990768  1
  O  O137  1  0.461553  0.225842  0.490768  1
  O  O138  1  0.641286  0.070368  0.364494  1
  O  O139  1  0.947485  0.134202  0.173552  1
  O  O140  1  0.401269  0.291635  0.930449  1
  O  O141  1  0.880068  0.435850  0.975143  1
  O  O142  1  0.959401  0.234520  0.457751  1
  O  O143  1  0.040599  0.765480  0.957751  1
  O  O144  1  0.990050  0.656307  0.661556  1
  O  O145  1  0.193972  0.717886  0.672353  1
  O  O146  1  0.607890  0.894672  0.380261  1
  O  O147  1  0.045816  0.263048  0.909580  1
  O  O148  1  0.148866  0.531882  0.165936  1
  O  O149  1  0.765480  0.724881  0.457751  1
  O  O150  1  0.291635  0.890366  0.430449  1
  O  O151  1  0.555782  0.119932  0.975143  1
  O  O152  1  0.108044  0.898546  0.366849  1
  O  O153  1  0.564150  0.444218  0.975143  1
  O  O154  1  0.613637  0.218332  0.372993  1
  O  O155  1  0.939801  0.886884  0.464977  1
  O  O156  1  0.890366  0.598731  0.930449  1
  O  O157  1  0.286782  0.392110  0.380261  1
  O  O158  1  0.186717  0.052515  0.173552  1
  O  O159  1  0.666257  0.009950  0.661556  1
  O  O160  1  0.435850  0.555782  0.475143  1
  O  O161  1  0.939397  0.388287  0.420516  1
  O  O162  1  0.947083  0.060199  0.464977  1
  O  O163  1  0.865798  0.813283  0.173552  1
  O  O164  1  0.782767  0.045816  0.409580  1
  O  O165  1  0.225842  0.764288  0.990768  1
  O  O166  1  0.278148  0.553330  0.384567  1
  O  O167  1  0.713218  0.607890  0.880261  1
