# generated using pymatgen
data_MgIn2O4
_symmetry_space_group_name_H-M   'P 1'
_cell_length_a   6.36086798
_cell_length_b   6.36086832
_cell_length_c   6.43755316
_cell_angle_alpha   59.60039787
_cell_angle_beta   59.60039607
_cell_angle_gamma   59.65963795
_symmetry_Int_Tables_number   1
_chemical_formula_structural   MgIn2O4
_chemical_formula_sum   'Mg2 In4 O8'
_cell_volume   182.58829272
_cell_formula_units_Z   2
loop_
 _symmetry_equiv_pos_site_id
 _symmetry_equiv_pos_as_xyz
  1  'x, y, z'
loop_
 _atom_site_type_symbol
 _atom_site_label
 _atom_site_symmetry_multiplicity
 _atom_site_fract_x
 _atom_site_fract_y
 _atom_site_fract_z
 _atom_site_occupancy
  Mg  Mg0  1  0.125000  0.625000  0.625000  1
  Mg  Mg1  1  0.625000  0.125000  0.625000  1
  In  In2  1  0.994347  0.994347  0.005653  1
  In  In3  1  0.255653  0.255653  0.244347  1
  In  In4  1  0.625000  0.625000  0.125000  1
  In  In5  1  0.625000  0.625000  0.625000  1
  O  O6  1  0.382110  0.382110  0.392214  1
  O  O7  1  0.382110  0.382110  0.843566  1
  O  O8  1  0.376107  0.848446  0.387723  1
  O  O9  1  0.401554  0.873893  0.862277  1
  O  O10  1  0.848446  0.376107  0.387723  1
  O  O11  1  0.873893  0.401554  0.862277  1
  O  O12  1  0.867890  0.867890  0.406434  1
  O  O13  1  0.867890  0.867890  0.857786  1
