# generated using pymatgen
data_Mo5PbO8
_symmetry_space_group_name_H-M   'P 1'
_cell_length_a   8.47897828
_cell_length_b   9.91999489
_cell_length_c   10.74420467
_cell_angle_alpha   90.00000000
_cell_angle_beta   109.31996613
_cell_angle_gamma   90.00000000
_symmetry_Int_Tables_number   1
_chemical_formula_structural   Mo5PbO8
_chemical_formula_sum   'Mo20 Pb4 O32'
_cell_volume   852.81852707
_cell_formula_units_Z   4
loop_
 _symmetry_equiv_pos_site_id
 _symmetry_equiv_pos_as_xyz
  1  'x, y, z'
loop_
 _atom_site_type_symbol
 _atom_site_label
 _atom_site_symmetry_multiplicity
 _atom_site_fract_x
 _atom_site_fract_y
 _atom_site_fract_z
 _atom_site_occupancy
  O  O0  1  0.383420  0.763723  0.171929  1
  O  O1  1  0.616580  0.263723  0.328071  1
  O  O2  1  0.616580  0.236277  0.828071  1
  O  O3  1  0.383420  0.736277  0.671929  1
  O  O4  1  0.595254  0.491308  0.647942  1
  O  O5  1  0.404746  0.991308  0.852058  1
  O  O6  1  0.404746  0.508692  0.352058  1
  O  O7  1  0.595254  0.008692  0.147942  1
  O  O8  1  0.992960  0.720097  0.072598  1
  O  O9  1  0.007040  0.220097  0.427402  1
  O  O10  1  0.007040  0.279903  0.927402  1
  O  O11  1  0.992960  0.779903  0.572598  1
  O  O12  1  0.789723  0.754269  0.780337  1
  O  O13  1  0.210277  0.254269  0.719663  1
  O  O14  1  0.210277  0.245731  0.219663  1
  O  O15  1  0.789723  0.745731  0.280337  1
  O  O16  1  0.191144  0.757880  0.884843  1
  O  O17  1  0.808856  0.257880  0.615157  1
  O  O18  1  0.808856  0.242120  0.115157  1
  O  O19  1  0.191144  0.742120  0.384843  1
  O  O20  1  0.989265  0.500357  0.777729  1
  O  O21  1  0.010735  1.000357  0.722271  1
  O  O22  1  0.010735  0.499643  0.222271  1
  O  O23  1  0.989265  -0.000357  0.277729  1
  O  O24  1  0.601804  0.764369  0.479989  1
  O  O25  1  0.398196  0.264369  0.020011  1
  O  O26  1  0.398196  0.235631  0.520011  1
  O  O27  1  0.601804  0.735631  0.979989  1
  O  O28  1  0.584179  -0.001873  0.635480  1
  O  O29  1  0.415821  0.498127  0.864520  1
  O  O30  1  0.415821  1.001873  0.364520  1
  O  O31  1  0.584179  0.501873  0.135480  1
  Mo  Mo32  1  0.395146  0.641215  0.014890  1
  Mo  Mo33  1  0.604854  0.141215  0.485110  1
  Mo  Mo34  1  0.604854  0.358785  0.985110  1
  Mo  Mo35  1  0.395146  0.858785  0.514890  1
  Mo  Mo36  1  0.586272  0.630342  0.798660  1
  Mo  Mo37  1  0.413728  0.130342  0.701340  1
  Mo  Mo38  1  0.413728  0.369658  0.201340  1
  Mo  Mo39  1  0.586272  0.869658  0.298660  1
  Mo  Mo40  1  0.209738  0.635968  0.219932  1
  Mo  Mo41  1  0.790262  0.135968  0.280068  1
  Mo  Mo42  1  0.790262  0.364032  0.780068  1
  Mo  Mo43  1  0.209738  0.864032  0.719932  1
  Mo  Mo44  1  0.798008  0.620826  0.121420  1
  Mo  Mo45  1  0.201992  0.120826  0.378580  1
  Mo  Mo46  1  0.201992  0.379174  0.878580  1
  Mo  Mo47  1  0.798008  0.879174  0.621420  1
  Mo  Mo48  1  -0.006756  0.654801  0.896599  1
  Mo  Mo49  1  1.006756  0.154801  0.603401  1
  Mo  Mo50  1  1.006756  0.345199  0.103401  1
  Mo  Mo51  1  -0.006756  0.845199  0.396599  1
  Pb  Pb52  1  0.307544  0.038376  0.031326  1
  Pb  Pb53  1  0.692456  0.538376  0.468674  1
  Pb  Pb54  1  0.692456  0.961624  0.968674  1
  Pb  Pb55  1  0.307544  0.461624  0.531326  1
