# generated using pymatgen
data_CuS2
_symmetry_space_group_name_H-M   'P 1'
_cell_length_a   3.71175240
_cell_length_b   7.11926590
_cell_length_c   4.97738342
_cell_angle_alpha   71.97261801
_cell_angle_beta   75.62088035
_cell_angle_gamma   93.13103944
_symmetry_Int_Tables_number   1
_chemical_formula_structural   CuS2
_chemical_formula_sum   'Cu2 S4'
_cell_volume   119.91187423
_cell_formula_units_Z   2
loop_
 _symmetry_equiv_pos_site_id
 _symmetry_equiv_pos_as_xyz
  1  'x, y, z'
loop_
 _atom_site_type_symbol
 _atom_site_label
 _atom_site_symmetry_multiplicity
 _atom_site_fract_x
 _atom_site_fract_y
 _atom_site_fract_z
 _atom_site_occupancy
  Cu  Cu0  1  0.579084  0.861474  0.388283  1
  Cu  Cu1  1  0.079076  0.361472  0.888279  1
  S  S2  1  0.546021  0.474036  0.056071  1
  S  S3  1  0.046024  0.974036  0.556067  1
  S  S4  1  0.482879  0.538817  0.431568  1
  S  S5  1  0.982876  0.038813  0.931572  1
