# generated using pymatgen
data_NaC2N3
_symmetry_space_group_name_H-M   'P 1'
_cell_length_a   3.60717132
_cell_length_b   6.52947741
_cell_length_c   15.12810423
_cell_angle_alpha   90.00000000
_cell_angle_beta   90.00000000
_cell_angle_gamma   93.11150388
_symmetry_Int_Tables_number   1
_chemical_formula_structural   NaC2N3
_chemical_formula_sum   'Na4 C8 N12'
_cell_volume   355.78610906
_cell_formula_units_Z   4
loop_
 _symmetry_equiv_pos_site_id
 _symmetry_equiv_pos_as_xyz
  1  'x, y, z'
loop_
 _atom_site_type_symbol
 _atom_site_label
 _atom_site_symmetry_multiplicity
 _atom_site_fract_x
 _atom_site_fract_y
 _atom_site_fract_z
 _atom_site_occupancy
  Na  Na0  1  0.261112  0.641736  0.087517  1
  Na  Na1  1  0.738888  0.358264  0.912483  1
  Na  Na2  1  0.238888  0.858264  0.587517  1
  Na  Na3  1  0.761112  0.141736  0.412483  1
  C  C4  1  0.745382  0.845833  0.916840  1
  C  C5  1  0.733252  0.957223  0.773517  1
  C  C6  1  0.245382  0.345833  0.583160  1
  C  C7  1  0.254618  0.154167  0.083160  1
  C  C8  1  0.266748  0.042777  0.226483  1
  C  C9  1  0.233252  0.457223  0.726483  1
  C  C10  1  0.754618  0.654167  0.416840  1
  C  C11  1  0.766748  0.542777  0.273517  1
  N  N12  1  0.770988  0.724693  0.974577  1
  N  N13  1  0.745264  0.941911  0.695744  1
  N  N14  1  0.783764  0.510984  0.358351  1
  N  N15  1  0.754736  0.558089  0.195744  1
  N  N16  1  0.229012  0.275307  0.025423  1
  N  N17  1  0.245264  0.441911  0.804256  1
  N  N18  1  0.254736  0.058089  0.304256  1
  N  N19  1  0.216236  0.489016  0.641649  1
  N  N20  1  0.716236  0.989016  0.858351  1
  N  N21  1  0.270988  0.224693  0.525423  1
  N  N22  1  0.283764  0.010984  0.141649  1
  N  N23  1  0.729012  0.775307  0.474577  1
