# generated using pymatgen
data_Sn5(Mo3S4)12
_symmetry_space_group_name_H-M   'P 1'
_cell_length_a   13.11875743
_cell_length_b   19.68429611
_cell_length_c   11.45719721
_cell_angle_alpha   54.40721292
_cell_angle_beta   54.41010708
_cell_angle_gamma   89.54074085
_symmetry_Int_Tables_number   1
_chemical_formula_structural   Sn5(Mo3S4)12
_chemical_formula_sum   'Sn5 Mo36 S48'
_cell_volume   1694.23401450
_cell_formula_units_Z   1
loop_
 _symmetry_equiv_pos_site_id
 _symmetry_equiv_pos_as_xyz
  1  'x, y, z'
loop_
 _atom_site_type_symbol
 _atom_site_label
 _atom_site_symmetry_multiplicity
 _atom_site_fract_x
 _atom_site_fract_y
 _atom_site_fract_z
 _atom_site_occupancy
  Sn  Sn0  1  0.000206  0.333322  0.999725  1
  Sn  Sn1  1  0.999794  0.666678  0.000275  1
  Sn  Sn2  1  0.500000  0.000000  0.000000  1
  Sn  Sn3  1  0.499566  0.333155  0.000659  1
  Sn  Sn4  1  0.500434  0.666845  0.999341  1
  Mo  Mo5  1  0.095379  0.110955  0.224248  1
  Mo  Mo6  1  0.095728  0.445127  0.225195  1
  Mo  Mo7  1  0.097242  0.780759  0.219994  1
  Mo  Mo8  1  0.072645  0.269362  0.415965  1
  Mo  Mo9  1  0.071940  0.602796  0.416423  1
  Mo  Mo10  1  0.070997  0.936394  0.415081  1
  Mo  Mo11  1  0.166554  0.047288  0.443003  1
  Mo  Mo12  1  0.169088  0.381506  0.439255  1
  Mo  Mo13  1  0.167956  0.715001  0.439029  1
  Mo  Mo14  1  0.329023  0.284098  0.562213  1
  Mo  Mo15  1  0.332596  0.618781  0.560476  1
  Mo  Mo16  1  0.331920  0.951791  0.560523  1
  Mo  Mo17  1  0.596567  0.112694  0.222526  1
  Mo  Mo18  1  0.595627  0.445091  0.225202  1
  Mo  Mo19  1  0.596075  0.779145  0.223742  1
  Mo  Mo20  1  0.426351  0.064754  0.585249  1
  Mo  Mo21  1  0.427557  0.397029  0.584015  1
  Mo  Mo22  1  0.427709  0.731286  0.583878  1
  Mo  Mo23  1  0.572291  0.268714  0.416122  1
  Mo  Mo24  1  0.572443  0.602971  0.415985  1
  Mo  Mo25  1  0.573649  0.935246  0.414751  1
  Mo  Mo26  1  0.403925  0.220855  0.776258  1
  Mo  Mo27  1  0.404373  0.554910  0.774798  1
  Mo  Mo28  1  0.403433  0.887306  0.777474  1
  Mo  Mo29  1  0.668080  0.048209  0.439477  1
  Mo  Mo30  1  0.667404  0.381219  0.439524  1
  Mo  Mo31  1  0.670977  0.715902  0.437787  1
  Mo  Mo32  1  0.832044  0.284999  0.560971  1
  Mo  Mo33  1  0.830912  0.618494  0.560745  1
  Mo  Mo34  1  0.833446  0.952712  0.556997  1
  Mo  Mo35  1  0.929003  0.063606  0.584919  1
  Mo  Mo36  1  0.928060  0.397204  0.583577  1
  Mo  Mo37  1  0.927355  0.730638  0.584035  1
  Mo  Mo38  1  0.902758  0.219241  0.780006  1
  Mo  Mo39  1  0.904272  0.554873  0.774805  1
  Mo  Mo40  1  0.904621  0.889045  0.775752  1
  S  S41  1  0.180709  0.204643  0.258564  1
  S  S42  1  0.180962  0.538366  0.258269  1
  S  S43  1  0.180899  0.871835  0.257717  1
  S  S44  1  0.306998  0.084328  0.127453  1
  S  S45  1  0.307863  0.417592  0.126294  1
  S  S46  1  0.306597  0.750792  0.127284  1
  S  S47  1  0.000166  0.333187  0.758646  1
  S  S48  1  0.000234  0.666742  0.758059  1
  S  S49  1  0.999930  0.999956  0.762713  1
  S  S50  1  0.127333  0.215285  0.617042  1
  S  S51  1  0.125878  0.545651  0.621237  1
  S  S52  1  0.126562  0.879712  0.619574  1
  S  S53  1  0.372800  0.120463  0.381227  1
  S  S54  1  0.373862  0.453707  0.379553  1
  S  S55  1  0.373648  0.787605  0.379235  1
  S  S56  1  0.500589  0.000197  0.240599  1
  S  S57  1  0.499878  0.333181  0.241633  1
  S  S58  1  0.499975  0.666529  0.241744  1
  S  S59  1  0.192255  0.248880  0.872977  1
  S  S60  1  0.192417  0.582299  0.873474  1
  S  S61  1  0.195776  0.915113  0.871532  1
  S  S62  1  0.323095  0.130419  0.736905  1
  S  S63  1  0.318501  0.461694  0.741820  1
  S  S64  1  0.319676  0.795518  0.740588  1
  S  S65  1  0.680324  0.204482  0.259412  1
  S  S66  1  0.681499  0.538306  0.258180  1
  S  S67  1  0.676905  0.869581  0.263095  1
  S  S68  1  0.804224  0.084887  0.128468  1
  S  S69  1  0.807583  0.417701  0.126526  1
  S  S70  1  0.807745  0.751120  0.127023  1
  S  S71  1  0.500025  0.333471  0.758256  1
  S  S72  1  0.500122  0.666819  0.758367  1
  S  S73  1  0.499411  0.999803  0.759401  1
  S  S74  1  0.626352  0.212395  0.620765  1
  S  S75  1  0.626138  0.546293  0.620447  1
  S  S76  1  0.627200  0.879537  0.618773  1
  S  S77  1  0.873438  0.120288  0.380426  1
  S  S78  1  0.874122  0.454349  0.378763  1
  S  S79  1  0.872667  0.784715  0.382958  1
  S  S80  1  0.000070  0.000044  0.237287  1
  S  S81  1  0.999766  0.333258  0.241941  1
  S  S82  1  0.999834  0.666813  0.241354  1
  S  S83  1  0.693403  0.249208  0.872716  1
  S  S84  1  0.692137  0.582408  0.873706  1
  S  S85  1  0.693002  0.915672  0.872547  1
  S  S86  1  0.819101  0.128165  0.742283  1
  S  S87  1  0.819038  0.461634  0.741731  1
  S  S88  1  0.819291  0.795357  0.741436  1
