# generated using pymatgen
data_Tl4Fe(CN)6
_symmetry_space_group_name_H-M   'P 1'
_cell_length_a   7.36155664
_cell_length_b   7.80870547
_cell_length_c   13.48306146
_cell_angle_alpha   105.20192129
_cell_angle_beta   90.52830177
_cell_angle_gamma   97.93636943
_symmetry_Int_Tables_number   1
_chemical_formula_structural   Tl4Fe(CN)6
_chemical_formula_sum   'Tl8 Fe2 C12 N12'
_cell_volume   739.94117563
_cell_formula_units_Z   2
loop_
 _symmetry_equiv_pos_site_id
 _symmetry_equiv_pos_as_xyz
  1  'x, y, z'
loop_
 _atom_site_type_symbol
 _atom_site_label
 _atom_site_symmetry_multiplicity
 _atom_site_fract_x
 _atom_site_fract_y
 _atom_site_fract_z
 _atom_site_occupancy
  Tl  Tl0  1  0.119560  0.967281  0.634184  1
  Tl  Tl1  1  0.717715  0.462564  0.581680  1
  Tl  Tl2  1  0.880440  0.032719  0.365816  1
  Tl  Tl3  1  0.243373  0.432647  0.068346  1
  Tl  Tl4  1  0.756627  0.567353  0.931654  1
  Tl  Tl5  1  0.649521  0.024622  0.852148  1
  Tl  Tl6  1  0.282285  0.537436  0.418320  1
  Tl  Tl7  1  0.350479  0.975378  0.147852  1
  Fe  Fe8  1  0.773173  0.499989  0.252276  1
  Fe  Fe9  1  0.226827  0.500011  0.747724  1
  C  C10  1  0.582303  0.642313  0.254219  1
  C  C11  1  0.956901  0.352225  0.243634  1
  C  C12  1  0.139360  0.372272  0.613603  1
  C  C13  1  0.417697  0.357687  0.745781  1
  C  C14  1  0.073029  0.348833  0.810842  1
  C  C15  1  0.926971  0.651167  0.189158  1
  C  C16  1  0.043099  0.647775  0.756366  1
  C  C17  1  0.623875  0.348098  0.317545  1
  C  C18  1  0.376125  0.651902  0.682455  1
  C  C19  1  0.320795  0.631644  0.879988  1
  C  C20  1  0.860640  0.627728  0.386397  1
  C  C21  1  0.679205  0.368356  0.120012  1
  N  N22  1  0.979536  0.259293  0.855012  1
  N  N23  1  0.463812  0.740937  0.635771  1
  N  N24  1  0.536188  0.259063  0.364229  1
  N  N25  1  0.087467  0.297546  0.527328  1
  N  N26  1  0.912533  0.702454  0.472672  1
  N  N27  1  0.929394  0.743788  0.759768  1
  N  N28  1  0.020464  0.740707  0.144988  1
  N  N29  1  0.070606  0.256212  0.240232  1
  N  N30  1  0.384728  0.704045  0.964169  1
  N  N31  1  0.541454  0.275592  0.748635  1
  N  N32  1  0.458546  0.724408  0.251365  1
  N  N33  1  0.615272  0.295955  0.035831  1
