# generated using pymatgen
data_SrCeN2
_symmetry_space_group_name_H-M   'P 1'
_cell_length_a   7.37683298
_cell_length_b   9.73787141
_cell_length_c   6.34652156
_cell_angle_alpha   29.23277876
_cell_angle_beta   54.51009182
_cell_angle_gamma   40.74648931
_symmetry_Int_Tables_number   1
_chemical_formula_structural   SrCeN2
_chemical_formula_sum   'Sr2 Ce2 N4'
_cell_volume   140.60449835
_cell_formula_units_Z   2
loop_
 _symmetry_equiv_pos_site_id
 _symmetry_equiv_pos_as_xyz
  1  'x, y, z'
loop_
 _atom_site_type_symbol
 _atom_site_label
 _atom_site_symmetry_multiplicity
 _atom_site_fract_x
 _atom_site_fract_y
 _atom_site_fract_z
 _atom_site_occupancy
  Sr  Sr0  1  0.002001  0.996832  0.002320  1
  Sr  Sr1  1  0.750359  0.498855  0.000789  1
  Ce  Ce2  1  0.254624  0.494217  0.004443  1
  Ce  Ce3  1  0.497272  0.998654  0.000289  1
  N  N4  1  0.281018  0.004626  0.433712  1
  N  N5  1  0.042821  0.489095  0.448464  1
  N  N6  1  0.714697  0.005442  0.553746  1
  N  N7  1  0.472575  0.509778  0.549095  1
