# generated using pymatgen
data_Nb4Co2PdSe12
_symmetry_space_group_name_H-M   'P 1'
_cell_length_a   3.43618052
_cell_length_b   6.92235065
_cell_length_c   18.50429643
_cell_angle_alpha   86.64829088
_cell_angle_beta   84.56551303
_cell_angle_gamma   75.43411045
_symmetry_Int_Tables_number   1
_chemical_formula_structural   Nb4Co2PdSe12
_chemical_formula_sum   'Nb4 Co2 Pd1 Se12'
_cell_volume   423.81547428
_cell_formula_units_Z   1
loop_
 _symmetry_equiv_pos_site_id
 _symmetry_equiv_pos_as_xyz
  1  'x, y, z'
loop_
 _atom_site_type_symbol
 _atom_site_label
 _atom_site_symmetry_multiplicity
 _atom_site_fract_x
 _atom_site_fract_y
 _atom_site_fract_z
 _atom_site_occupancy
  Nb  Nb0  1  0.741530  0.916463  0.595220  1
  Nb  Nb1  1  0.255573  0.077096  0.405443  1
  Nb  Nb2  1  0.617561  0.906634  0.851011  1
  Nb  Nb3  1  0.378848  0.089483  0.149587  1
  Co  Co4  1  0.771932  0.170771  0.283011  1
  Co  Co5  1  0.225404  0.824619  0.718099  1
  Pd  Pd6  1  0.001494  0.998569  -0.000063  1
  Se  Se7  1  0.868771  0.805068  0.454107  1
  Se  Se8  1  0.035659  0.810640  0.118292  1
  Se  Se9  1  0.808038  0.612815  0.766734  1
  Se  Se10  1  0.400000  0.917176  0.281008  1
  Se  Se11  1  0.192794  0.690590  0.927432  1
  Se  Se12  1  0.593851  0.079140  0.719341  1
  Se  Se13  1  0.128898  0.188375  0.546914  1
  Se  Se14  1  0.805827  0.306235  0.072566  1
  Se  Se15  1  0.378888  0.632416  0.612495  1
  Se  Se16  1  0.963421  0.186458  0.882277  1
  Se  Se17  1  0.186889  0.383548  0.234095  1
  Se  Se18  1  0.618584  0.361310  0.388805  1
