# generated using pymatgen
data_Na(CoO2)3
_symmetry_space_group_name_H-M   'P 1'
_cell_length_a   8.61405635
_cell_length_b   4.99349157
_cell_length_c   5.46641042
_cell_angle_alpha   62.30525192
_cell_angle_beta   57.40121894
_cell_angle_gamma   30.30759591
_symmetry_Int_Tables_number   1
_chemical_formula_structural   Na(CoO2)3
_chemical_formula_sum   'Na1 Co3 O6'
_cell_volume   99.96520311
_cell_formula_units_Z   1
loop_
 _symmetry_equiv_pos_site_id
 _symmetry_equiv_pos_as_xyz
  1  'x, y, z'
loop_
 _atom_site_type_symbol
 _atom_site_label
 _atom_site_symmetry_multiplicity
 _atom_site_fract_x
 _atom_site_fract_y
 _atom_site_fract_z
 _atom_site_occupancy
  Na  Na0  1  0.209800  0.963208  0.422990  1
  Co  Co1  1  0.999671  0.960661  0.069714  1
  Co  Co2  1  0.479571  0.948575  0.630004  1
  Co  Co3  1  0.667430  0.970569  0.027923  1
  O  O4  1  0.084121  0.272368  0.827051  1
  O  O5  1  0.266387  0.537572  0.281262  1
  O  O6  1  0.403969  0.309327  0.830164  1
  O  O7  1  0.659364  0.583351  0.287170  1
  O  O8  1  0.754997  0.283979  0.833528  1
  O  O9  1  0.832023  0.792390  0.285195  1
