# generated using pymatgen
data_Al2Hg5Se8
_symmetry_space_group_name_H-M   'P 1'
_cell_length_a   8.62081149
_cell_length_b   8.40451700
_cell_length_c   34.13754332
_cell_angle_alpha   60.25969830
_cell_angle_beta   58.42902351
_cell_angle_gamma   59.44583823
_symmetry_Int_Tables_number   1
_chemical_formula_structural   Al2Hg5Se8
_chemical_formula_sum   'Al8 Hg20 Se32'
_cell_volume   1723.30287898
_cell_formula_units_Z   4
loop_
 _symmetry_equiv_pos_site_id
 _symmetry_equiv_pos_as_xyz
  1  'x, y, z'
loop_
 _atom_site_type_symbol
 _atom_site_label
 _atom_site_symmetry_multiplicity
 _atom_site_fract_x
 _atom_site_fract_y
 _atom_site_fract_z
 _atom_site_occupancy
  Al  Al0  1  0.117769  0.631223  0.159526  1
  Al  Al1  1  0.635673  0.128561  0.026196  1
  Al  Al2  1  0.124661  0.631479  0.405761  1
  Al  Al3  1  0.629202  0.120729  0.280330  1
  Al  Al4  1  0.110620  0.126286  0.655532  1
  Al  Al5  1  0.609786  0.121851  0.533286  1
  Al  Al6  1  0.121723  0.132116  0.901393  1
  Al  Al7  1  0.615719  0.130504  0.778926  1
  Hg  Hg8  1  0.107030  0.109799  0.159774  1
  Hg  Hg9  1  0.102657  0.641097  0.027454  1
  Hg  Hg10  1  0.647116  0.105506  0.160669  1
  Hg  Hg11  1  0.097381  0.103840  0.414471  1
  Hg  Hg12  1  0.103357  0.644232  0.276388  1
  Hg  Hg13  1  0.650700  0.643579  0.028929  1
  Hg  Hg14  1  0.626083  0.624854  0.156107  1
  Hg  Hg15  1  0.647475  0.104509  0.410921  1
  Hg  Hg16  1  0.102436  0.632133  0.526084  1
  Hg  Hg17  1  0.647301  0.644324  0.276135  1
  Hg  Hg18  1  0.106656  0.647113  0.664911  1
  Hg  Hg19  1  0.625540  0.622840  0.406710  1
  Hg  Hg20  1  0.649881  0.124906  0.662132  1
  Hg  Hg21  1  0.104491  0.628449  0.776222  1
  Hg  Hg22  1  0.664739  0.645073  0.523093  1
  Hg  Hg23  1  0.099139  0.643874  0.919499  1
  Hg  Hg24  1  0.626868  0.601763  0.656652  1
  Hg  Hg25  1  0.651075  0.124956  0.912346  1
  Hg  Hg26  1  0.666875  0.644769  0.775988  1
  Hg  Hg27  1  0.627261  0.601673  0.906788  1
  Se  Se28  1  0.992910  0.034790  0.991158  1
  Se  Se29  1  0.015077  0.430339  0.009912  1
  Se  Se30  1  0.030195  0.977649  0.117779  1
  Se  Se31  1  0.975557  0.028757  0.255469  1
  Se  Se32  1  0.017259  0.510881  0.126467  1
  Se  Se33  1  0.472900  0.023979  0.007573  1
  Se  Se34  1  0.517656  0.018198  0.115644  1
  Se  Se35  1  0.504494  0.484861  0.004175  1
  Se  Se36  1  0.029872  0.980692  0.367986  1
  Se  Se37  1  0.025782  0.467430  0.245568  1
  Se  Se38  1  0.471582  0.504739  0.128421  1
  Se  Se39  1  0.957306  0.016246  0.510998  1
  Se  Se40  1  0.017318  0.504357  0.375826  1
  Se  Se41  1  0.474784  0.027024  0.256612  1
  Se  Se42  1  0.501802  0.016556  0.370044  1
  Se  Se43  1  0.503259  0.480411  0.253851  1
  Se  Se44  1  0.037349  0.459864  0.491097  1
  Se  Se45  1  0.030435  0.019544  0.616229  1
  Se  Se46  1  0.480400  0.505065  0.375446  1
  Se  Se47  1  0.975695  0.025091  0.745928  1
  Se  Se48  1  0.014935  0.479445  0.625883  1
  Se  Se49  1  0.469536  0.023255  0.506818  1
  Se  Se50  1  0.500019  0.480338  0.504486  1
  Se  Se51  1  0.473395  0.015626  0.624931  1
  Se  Se52  1  0.026494  0.423744  0.754145  1
  Se  Se53  1  0.032055  0.014502  0.866473  1
  Se  Se54  1  0.498898  0.501205  0.620207  1
  Se  Se55  1  0.015831  0.486924  0.875698  1
  Se  Se56  1  0.468840  0.020223  0.757161  1
  Se  Se57  1  0.487287  0.018548  0.870523  1
  Se  Se58  1  0.501843  0.485414  0.754198  1
  Se  Se59  1  0.488700  0.500945  0.873249  1
