# generated using pymatgen
data_Sr(YbS2)2
_symmetry_space_group_name_H-M   'P 1'
_cell_length_a   7.43405464
_cell_length_b   7.43405473
_cell_length_c   7.43405431
_cell_angle_alpha   110.93997312
_cell_angle_beta   110.93997338
_cell_angle_gamma   106.57203712
_symmetry_Int_Tables_number   1
_chemical_formula_structural   Sr(YbS2)2
_chemical_formula_sum   'Sr2 Yb4 S8'
_cell_volume   315.66463921
_cell_formula_units_Z   2
loop_
 _symmetry_equiv_pos_site_id
 _symmetry_equiv_pos_as_xyz
  1  'x, y, z'
loop_
 _atom_site_type_symbol
 _atom_site_label
 _atom_site_symmetry_multiplicity
 _atom_site_fract_x
 _atom_site_fract_y
 _atom_site_fract_z
 _atom_site_occupancy
  Yb  Yb0  1  0.124348  0.750000  0.874348  1
  Yb  Yb1  1  0.250000  0.624348  0.374348  1
  Yb  Yb2  1  0.375652  0.250000  0.625652  1
  Yb  Yb3  1  0.750000  0.875652  0.125652  1
  Sr  Sr4  1  0.625000  0.375000  0.250000  1
  Sr  Sr5  1  0.875000  0.125000  0.750000  1
  S  S6  1  0.031559  0.850635  0.507051  1
  S  S7  1  0.024507  0.343583  0.492949  1
  S  S8  1  0.149365  0.156417  0.180924  1
  S  S9  1  0.350635  0.531559  0.007051  1
  S  S10  1  0.656417  0.649365  0.680924  1
  S  S11  1  0.468441  0.975493  0.819076  1
  S  S12  1  0.475493  0.968441  0.319076  1
  S  S13  1  0.843583  0.524507  -0.007051  1
