# generated using pymatgen
data_MgU2O6
_symmetry_space_group_name_H-M   'P 1'
_cell_length_a   7.47166724
_cell_length_b   11.09156894
_cell_length_c   6.39543879
_cell_angle_alpha   30.12808681
_cell_angle_beta   55.78655434
_cell_angle_gamma   60.90121526
_symmetry_Int_Tables_number   1
_chemical_formula_structural   MgU2O6
_chemical_formula_sum   'Mg2 U4 O12'
_cell_volume   219.99189576
_cell_formula_units_Z   2
loop_
 _symmetry_equiv_pos_site_id
 _symmetry_equiv_pos_as_xyz
  1  'x, y, z'
loop_
 _atom_site_type_symbol
 _atom_site_label
 _atom_site_symmetry_multiplicity
 _atom_site_fract_x
 _atom_site_fract_y
 _atom_site_fract_z
 _atom_site_occupancy
  Mg  Mg0  1  1.000000  0.344628  0.983057  1
  Mg  Mg1  1  0.500000  0.655372  0.016943  1
  U  U2  1  0.000000  0.991222  0.013167  1
  U  U3  1  0.500000  0.008778  0.986833  1
  U  U4  1  0.000000  0.667902  -0.001853  1
  U  U5  1  0.500000  0.332098  0.001853  1
  O  O6  1  0.126727  0.004746  0.240983  1
  O  O7  1  0.129130  0.328321  0.263140  1
  O  O8  1  0.626727  0.995254  0.255220  1
  O  O9  1  0.116943  0.667234  0.246784  1
  O  O10  1  0.383057  0.332766  0.753216  1
  O  O11  1  0.616943  0.332766  0.248485  1
  O  O12  1  0.370870  0.671679  0.736860  1
  O  O13  1  0.629130  0.671679  0.248103  1
  O  O14  1  0.870870  0.328321  0.751897  1
  O  O15  1  0.373273  0.995254  0.759017  1
  O  O16  1  0.883057  0.667234  0.751515  1
  O  O17  1  0.873273  0.004746  0.744780  1
