# generated using pymatgen
data_CaH2CClO3
_symmetry_space_group_name_H-M   'P 1'
_cell_length_a   6.55427264
_cell_length_b   6.18781789
_cell_length_c   6.55427264
_cell_angle_alpha   112.32797729
_cell_angle_beta   110.20884981
_cell_angle_gamma   108.26504072
_symmetry_Int_Tables_number   1
_chemical_formula_structural   CaH2CClO3
_chemical_formula_sum   'Ca2 H4 C2 Cl2 O6'
_cell_volume   198.18228737
_cell_formula_units_Z   2
loop_
 _symmetry_equiv_pos_site_id
 _symmetry_equiv_pos_as_xyz
  1  'x, y, z'
loop_
 _atom_site_type_symbol
 _atom_site_label
 _atom_site_symmetry_multiplicity
 _atom_site_fract_x
 _atom_site_fract_y
 _atom_site_fract_z
 _atom_site_occupancy
  Ca  Ca0  1  0.863355  0.117812  0.254458  1
  Ca  Ca1  1  0.136645  0.882188  0.745542  1
  H  H2  1  0.823447  0.152747  0.793723  1
  H  H3  1  0.640976  0.847253  0.670700  1
  H  H4  1  0.176553  0.847253  0.206277  1
  H  H5  1  0.359024  0.152747  0.329300  1
  C  C6  1  0.396069  0.500000  0.896069  1
  C  C7  1  0.603931  0.500000  0.103931  1
  Cl  Cl8  1  0.238026  0.606354  0.368328  1
  Cl  Cl9  1  0.761974  0.393646  0.631672  1
  O  O10  1  0.431843  0.730284  0.939105  1
  O  O11  1  0.208820  0.269716  0.701558  1
  O  O12  1  0.568157  0.269716  0.060895  1
  O  O13  1  0.791180  0.730284  0.298442  1
  O  O14  1  0.813964  0.000000  0.813964  1
  O  O15  1  0.186036  0.000000  0.186036  1
