# generated using pymatgen
data_Y5Pb4
_symmetry_space_group_name_H-M   'P 1'
_cell_length_a   9.06231361
_cell_length_b   9.18245363
_cell_length_c   17.51300949
_cell_angle_alpha   89.98387104
_cell_angle_beta   89.98586890
_cell_angle_gamma   90.05304852
_symmetry_Int_Tables_number   1
_chemical_formula_structural   Y5Pb4
_chemical_formula_sum   'Y20 Pb16'
_cell_volume   1457.33165164
_cell_formula_units_Z   4
loop_
 _symmetry_equiv_pos_site_id
 _symmetry_equiv_pos_as_xyz
  1  'x, y, z'
loop_
 _atom_site_type_symbol
 _atom_site_label
 _atom_site_symmetry_multiplicity
 _atom_site_fract_x
 _atom_site_fract_y
 _atom_site_fract_z
 _atom_site_occupancy
  Y  Y0  1  0.290087  0.002123  0.250022  1
  Y  Y1  1  0.973132  0.819288  0.100132  1
  Y  Y2  1  0.527140  0.319761  0.600097  1
  Y  Y3  1  0.527115  0.319819  0.899905  1
  Y  Y4  1  0.379420  0.839035  0.617247  1
  Y  Y5  1  0.973040  0.819722  0.399756  1
  Y  Y6  1  0.209373  0.502089  0.750084  1
  Y  Y7  1  0.879666  0.661030  0.617393  1
  Y  Y8  1  0.120083  0.338961  0.382558  1
  Y  Y9  1  0.790096  0.497668  0.249772  1
  Y  Y10  1  0.120517  0.339163  0.117450  1
  Y  Y11  1  0.709711  0.998165  0.750032  1
  Y  Y12  1  0.027298  0.180238  0.899861  1
  Y  Y13  1  0.879578  0.661369  0.882420  1
  Y  Y14  1  0.026568  0.180682  0.600178  1
  Y  Y15  1  0.473571  0.680423  0.100196  1
  Y  Y16  1  0.473197  0.680454  0.399976  1
  Y  Y17  1  0.620801  0.161146  0.382651  1
  Y  Y18  1  0.379534  0.838717  0.882577  1
  Y  Y19  1  0.620614  0.161449  0.117155  1
  Pb  Pb20  1  0.331320  0.140416  0.750256  1
  Pb  Pb21  1  0.217698  0.530463  0.956599  1
  Pb  Pb22  1  0.423224  0.381258  0.250084  1
  Pb  Pb23  1  0.717290  0.969249  0.543239  1
  Pb  Pb24  1  0.782650  0.469268  0.456637  1
  Pb  Pb25  1  0.076708  0.881513  0.750123  1
  Pb  Pb26  1  0.831336  0.359769  0.750034  1
  Pb  Pb27  1  0.576800  0.618241  0.750172  1
  Pb  Pb28  1  0.282655  0.030273  0.043236  1
  Pb  Pb29  1  0.782542  0.469249  0.043586  1
  Pb  Pb30  1  0.667737  0.859363  0.250179  1
  Pb  Pb31  1  0.717682  0.969553  0.956721  1
  Pb  Pb32  1  0.282717  0.030743  0.456599  1
  Pb  Pb33  1  0.168408  0.640716  0.250076  1
  Pb  Pb34  1  0.217412  0.530040  0.543216  1
  Pb  Pb35  1  0.923283  0.118584  0.249782  1
