# generated using pymatgen
data_Eu6Mg7H26
_symmetry_space_group_name_H-M   'P 1'
_cell_length_a   9.54253738
_cell_length_b   9.31412419
_cell_length_c   9.54253738
_cell_angle_alpha   84.11108506
_cell_angle_beta   146.28598441
_cell_angle_gamma   105.95641767
_symmetry_Int_Tables_number   1
_chemical_formula_structural   Eu6Mg7H26
_chemical_formula_sum   'Eu6 Mg7 H26'
_cell_volume   439.81135985
_cell_formula_units_Z   1
loop_
 _symmetry_equiv_pos_site_id
 _symmetry_equiv_pos_as_xyz
  1  'x, y, z'
loop_
 _atom_site_type_symbol
 _atom_site_label
 _atom_site_symmetry_multiplicity
 _atom_site_fract_x
 _atom_site_fract_y
 _atom_site_fract_z
 _atom_site_occupancy
  Eu  Eu0  1  0.264309  0.617811  0.353502  1
  Eu  Eu1  1  0.735691  0.382189  0.646498  1
  Eu  Eu2  1  0.257167  0.916975  0.659808  1
  Eu  Eu3  1  0.742833  0.083025  0.340192  1
  Eu  Eu4  1  0.505299  0.357138  0.851839  1
  Eu  Eu5  1  0.494701  0.642862  0.148161  1
  Mg  Mg6  1  0.010841  0.233435  0.222594  1
  Mg  Mg7  1  0.989159  0.766565  0.777406  1
  Mg  Mg8  1  0.263741  0.247778  0.984037  1
  Mg  Mg9  1  0.736259  0.752222  0.015963  1
  Mg  Mg10  1  0.744440  0.000000  0.744440  1
  Mg  Mg11  1  0.255560  0.000000  0.255560  1
  Mg  Mg12  1  0.000000  0.500000  0.500000  1
  H  H13  1  0.881553  0.375516  0.002042  1
  H  H14  1  0.626526  0.624484  0.506037  1
  H  H15  1  0.118447  0.624484  0.997958  1
  H  H16  1  0.373474  0.375516  0.493963  1
  H  H17  1  0.867839  0.854238  0.508031  1
  H  H18  1  0.653793  0.145762  0.013600  1
  H  H19  1  0.132161  0.145762  0.491969  1
  H  H20  1  0.346207  0.854238  0.986400  1
  H  H21  1  0.146873  0.355311  0.720411  1
  H  H22  1  0.365100  0.644689  0.791562  1
  H  H23  1  0.853127  0.644689  0.279589  1
  H  H24  1  0.634900  0.355311  0.208438  1
  H  H25  1  0.886023  0.157267  0.705926  1
  H  H26  1  0.548659  0.842733  0.728756  1
  H  H27  1  0.113977  0.842733  0.294074  1
  H  H28  1  0.451341  0.157267  0.271244  1
  H  H29  1  0.288247  0.405920  0.117673  1
  H  H30  1  0.711753  0.594080  0.882327  1
  H  H31  1  0.264495  0.110449  0.845954  1
  H  H32  1  0.735505  0.889551  0.154046  1
  H  H33  1  0.514781  0.112122  0.597341  1
  H  H34  1  0.485219  0.887878  0.402659  1
  H  H35  1  0.017384  0.105903  0.088519  1
  H  H36  1  0.982616  0.894097  0.911481  1
  H  H37  1  0.050775  0.422834  0.372059  1
  H  H38  1  0.949225  0.577166  0.627941  1
