# generated using pymatgen
data_Ce4(SiS4)3
_symmetry_space_group_name_H-M   'P 1'
_cell_length_a   11.45229965
_cell_length_b   11.45331192
_cell_length_c   11.45580976
_cell_angle_alpha   114.76566109
_cell_angle_beta   114.75851050
_cell_angle_gamma   114.74579457
_symmetry_Int_Tables_number   1
_chemical_formula_structural   Ce4(SiS4)3
_chemical_formula_sum   'Ce8 Si6 S24'
_cell_volume   859.30255509
_cell_formula_units_Z   2
loop_
 _symmetry_equiv_pos_site_id
 _symmetry_equiv_pos_as_xyz
  1  'x, y, z'
loop_
 _atom_site_type_symbol
 _atom_site_label
 _atom_site_symmetry_multiplicity
 _atom_site_fract_x
 _atom_site_fract_y
 _atom_site_fract_z
 _atom_site_occupancy
  Ce  Ce0  1  0.431368  0.972202  0.206151  1
  Ce  Ce1  1  0.206122  0.431378  0.972220  1
  Ce  Ce2  1  0.706073  0.472162  0.931373  1
  Ce  Ce3  1  0.998047  0.998076  0.998088  1
  Ce  Ce4  1  0.472210  0.931349  0.706112  1
  Ce  Ce5  1  0.498100  0.498103  0.498129  1
  Ce  Ce6  1  0.931396  0.706159  0.472239  1
  Ce  Ce7  1  0.972185  0.206083  0.431368  1
  Si  Si8  1  0.966807  0.353033  0.139400  1
  Si  Si9  1  0.639476  0.853123  0.466922  1
  Si  Si10  1  0.139449  0.966891  0.353098  1
  Si  Si11  1  0.853092  0.466891  0.639433  1
  Si  Si12  1  0.466835  0.639408  0.853050  1
  Si  Si13  1  0.353074  0.139408  0.966864  1
  S  S14  1  0.620371  0.300510  0.586179  1
  S  S15  1  0.077430  0.614853  0.347136  1
  S  S16  1  0.800527  0.120393  0.086199  1
  S  S17  1  0.284669  0.891552  0.818346  1
  S  S18  1  0.373621  0.188692  0.182764  1
  S  S19  1  0.891533  0.818370  0.284651  1
  S  S20  1  0.784651  0.318380  0.391574  1
  S  S21  1  0.818422  0.284666  0.891597  1
  S  S22  1  0.847158  0.114846  0.577420  1
  S  S23  1  0.682931  0.688836  0.873761  1
  S  S24  1  0.347125  0.077375  0.614797  1
  S  S25  1  0.120383  0.086240  0.800543  1
  S  S26  1  0.688824  0.873766  0.682866  1
  S  S27  1  0.873791  0.682928  0.688843  1
  S  S28  1  0.577409  0.847145  0.114825  1
  S  S29  1  0.614870  0.347169  0.077450  1
  S  S30  1  0.086229  0.800539  0.120405  1
  S  S31  1  0.188680  0.182782  0.373611  1
  S  S32  1  0.182825  0.373630  0.188678  1
  S  S33  1  0.114880  0.577438  0.847177  1
  S  S34  1  0.300523  0.586213  0.620418  1
  S  S35  1  0.318387  0.391586  0.784648  1
  S  S36  1  0.391506  0.784633  0.318338  1
  S  S37  1  0.586224  0.620391  0.300527  1
