# generated using pymatgen
data_Al(HO)3
_symmetry_space_group_name_H-M   'P 1'
_cell_length_a   8.78914456
_cell_length_b   5.31955749
_cell_length_c   9.56212554
_cell_angle_alpha   90.00000000
_cell_angle_beta   90.00000000
_cell_angle_gamma   92.03430298
_symmetry_Int_Tables_number   1
_chemical_formula_structural   Al(HO)3
_chemical_formula_sum   'Al8 H24 O24'
_cell_volume   446.78929262
_cell_formula_units_Z   8
loop_
 _symmetry_equiv_pos_site_id
 _symmetry_equiv_pos_as_xyz
  1  'x, y, z'
loop_
 _atom_site_type_symbol
 _atom_site_label
 _atom_site_symmetry_multiplicity
 _atom_site_fract_x
 _atom_site_fract_y
 _atom_site_fract_z
 _atom_site_occupancy
  Al  Al0  1  0.784058  0.005453  0.475064  1
  Al  Al1  1  0.302875  0.525684  0.497618  1
  Al  Al2  1  0.197125  0.474316  0.997618  1
  Al  Al3  1  0.715942  0.994547  0.975064  1
  Al  Al4  1  0.148518  0.015604  0.489786  1
  Al  Al5  1  0.667836  0.488715  0.505842  1
  Al  Al6  1  0.832164  0.511285  0.005842  1
  Al  Al7  1  0.351482  0.984396  0.989786  1
  H  H8  1  0.374436  0.646834  0.795972  1
  H  H9  1  0.453219  0.828982  0.638123  1
  H  H10  1  0.966325  0.720344  0.399507  1
  H  H11  1  0.533675  0.279656  0.899507  1
  H  H12  1  0.125564  0.353166  0.295972  1
  H  H13  1  0.046781  0.171018  0.138123  1
  H  H14  1  0.500007  0.318906  0.332373  1
  H  H15  1  0.947583  0.136517  0.705324  1
  H  H16  1  0.019994  0.373872  0.614006  1
  H  H17  1  0.480006  0.626128  0.114006  1
  H  H18  1  0.552417  0.863483  0.205324  1
  H  H19  1  -0.000007  0.681094  0.832373  1
  H  H20  1  0.262073  0.810696  0.287033  1
  H  H21  1  0.237927  0.189304  0.787033  1
  H  H22  1  0.703839  0.184782  0.701625  1
  H  H23  1  0.796161  0.815218  0.201625  1
  H  H24  1  0.404031  0.164791  0.606232  1
  H  H25  1  0.781464  0.310227  0.280055  1
  H  H26  1  0.718536  0.689773  0.780055  1
  H  H27  1  0.095969  0.835210  0.106232  1
  H  H28  1  0.537408  0.849540  0.389779  1
  H  H29  1  0.173851  0.708305  0.695416  1
  H  H30  1  0.326149  0.291695  0.195416  1
  H  H31  1  0.962592  0.150460  0.889779  1
  O  O32  1  0.439583  0.648213  0.632709  1
  O  O33  1  0.969476  0.903926  0.392786  1
  O  O34  1  0.530524  0.096074  0.892786  1
  O  O35  1  0.060417  0.351787  0.132709  1
  O  O36  1  0.490175  0.435727  0.408904  1
  O  O37  1  0.997740  0.189273  0.611122  1
  O  O38  1  0.502260  0.810727  0.111122  1
  O  O39  1  0.009825  0.564273  0.908904  1
  O  O40  1  0.765767  0.733956  0.586346  1
  O  O41  1  0.286229  0.823087  0.388500  1
  O  O42  1  0.213771  0.176913  0.888500  1
  O  O43  1  0.734233  0.266044  0.086346  1
  O  O44  1  0.179568  0.315082  0.385617  1
  O  O45  1  0.669076  0.199602  0.604803  1
  O  O46  1  0.830924  0.800398  0.104803  1
  O  O47  1  0.320432  0.684918  0.885617  1
  O  O48  1  0.295209  0.200091  0.606018  1
  O  O49  1  0.796963  0.327673  0.383091  1
  O  O50  1  0.703037  0.672327  0.883091  1
  O  O51  1  0.204791  0.799909  0.106018  1
  O  O52  1  0.634219  0.900385  0.345753  1
  O  O53  1  0.138241  0.693028  0.598720  1
  O  O54  1  0.361759  0.306972  0.098720  1
  O  O55  1  0.865781  0.099615  0.845754  1
