# generated using pymatgen
data_Ba3Gd2(PS4)4
_symmetry_space_group_name_H-M   'P 1'
_cell_length_a   10.42432259
_cell_length_b   12.82180540
_cell_length_c   19.38684507
_cell_angle_alpha   89.97932013
_cell_angle_beta   90.06328337
_cell_angle_gamma   89.96651940
_symmetry_Int_Tables_number   1
_chemical_formula_structural   Ba3Gd2(PS4)4
_chemical_formula_sum   'Ba12 Gd8 P16 S64'
_cell_volume   2591.21706927
_cell_formula_units_Z   4
loop_
 _symmetry_equiv_pos_site_id
 _symmetry_equiv_pos_as_xyz
  1  'x, y, z'
loop_
 _atom_site_type_symbol
 _atom_site_label
 _atom_site_symmetry_multiplicity
 _atom_site_fract_x
 _atom_site_fract_y
 _atom_site_fract_z
 _atom_site_occupancy
  Ba  Ba0  1  0.210882  0.610396  0.227886  1
  Ba  Ba1  1  0.710879  0.610410  0.272129  1
  Ba  Ba2  1  0.289008  0.110403  0.272103  1
  Ba  Ba3  1  0.710946  0.889576  0.727901  1
  Ba  Ba4  1  0.880963  0.749959  -0.000030  1
  Ba  Ba5  1  0.619083  0.249986  0.500017  1
  Ba  Ba6  1  0.380910  0.750032  0.499977  1
  Ba  Ba7  1  0.119106  0.249997  -0.000002  1
  Ba  Ba8  1  0.789083  0.110365  0.227908  1
  Ba  Ba9  1  0.289120  0.389650  0.727892  1
  Ba  Ba10  1  0.210917  0.889567  0.772108  1
  Ba  Ba11  1  0.789107  0.389656  0.772122  1
  Gd  Gd12  1  0.370962  0.887352  0.073934  1
  Gd  Gd13  1  0.870979  0.887332  0.426113  1
  Gd  Gd14  1  0.371121  0.612715  0.926144  1
  Gd  Gd15  1  0.628987  0.112667  0.926055  1
  Gd  Gd16  1  0.871064  0.612717  0.573895  1
  Gd  Gd17  1  0.129073  0.112689  0.573880  1
  Gd  Gd18  1  0.629019  0.387292  0.073879  1
  Gd  Gd19  1  0.128901  0.387267  0.426154  1
  P  P20  1  0.995613  0.360770  0.602979  1
  P  P21  1  0.495521  0.139203  0.103031  1
  P  P22  1  0.004400  0.639243  0.397045  1
  P  P23  1  0.504248  0.639232  0.103083  1
  P  P24  1  0.995722  0.139325  0.396928  1
  P  P25  1  0.939436  0.451602  0.130928  1
  P  P26  1  0.060416  0.548429  0.868959  1
  P  P27  1  0.439367  0.451639  0.368995  1
  P  P28  1  0.439450  0.048350  0.630994  1
  P  P29  1  0.495776  0.360794  0.896910  1
  P  P30  1  0.560537  0.548379  0.631041  1
  P  P31  1  0.060675  0.951572  0.131022  1
  P  P32  1  0.504423  0.860778  0.896970  1
  P  P33  1  0.560597  0.951624  0.369033  1
  P  P34  1  0.004329  0.860640  0.603079  1
  P  P35  1  0.939338  0.048396  0.868890  1
  S  S36  1  0.566973  0.769114  0.152678  1
  S  S37  1  0.294889  0.386760  0.307376  1
  S  S38  1  0.388112  0.100136  0.017143  1
  S  S39  1  0.819183  0.668110  0.430552  1
  S  S40  1  0.933008  0.269183  0.347286  1
  S  S41  1  0.704899  0.886752  0.307301  1
  S  S42  1  0.388083  0.399860  0.982826  1
  S  S43  1  0.319154  0.831929  0.930590  1
  S  S44  1  0.931623  0.612043  0.146487  1
  S  S45  1  0.795152  0.386764  0.192715  1
  S  S46  1  0.205021  0.886725  0.192692  1
  S  S47  1  0.680728  0.331870  0.930588  1
  S  S48  1  0.881740  0.605345  0.849610  1
  S  S49  1  0.881646  0.894657  0.150354  1
  S  S50  1  0.180848  0.331917  0.569438  1
  S  S51  1  0.506007  0.485509  0.831270  1
  S  S52  1  0.066786  0.769101  0.347325  1
  S  S53  1  0.611874  0.600134  0.017176  1
  S  S54  1  0.111911  0.600044  0.482878  1
  S  S55  1  0.993867  0.985502  0.668675  1
  S  S56  1  0.431654  0.612001  0.353561  1
  S  S57  1  0.117155  0.585934  0.967805  1
  S  S58  1  0.118454  0.394624  0.150446  1
  S  S59  1  0.506138  0.014530  0.168781  1
  S  S60  1  0.431686  0.887974  0.646468  1
  S  S61  1  0.118343  0.105311  0.849667  1
  S  S62  1  0.883121  0.085987  0.967851  1
  S  S63  1  0.617008  0.914049  0.467772  1
  S  S64  1  0.931809  0.887987  0.853568  1
  S  S65  1  0.618290  0.394609  0.349695  1
  S  S66  1  0.611875  0.899850  0.982881  1
  S  S67  1  0.433154  0.269140  0.152662  1
  S  S68  1  0.993862  0.514550  0.331230  1
  S  S69  1  0.204941  0.613234  0.807292  1
  S  S70  1  0.819240  0.831937  0.569383  1
  S  S71  1  0.888081  0.399945  0.517098  1
  S  S72  1  0.568334  0.387972  0.646440  1
  S  S73  1  0.933213  0.230864  0.652649  1
  S  S74  1  0.794986  0.113261  0.807310  1
  S  S75  1  0.566802  0.730830  0.847354  1
  S  S76  1  0.111878  0.899863  0.517163  1
  S  S77  1  0.381619  0.894664  0.349579  1
  S  S78  1  0.295094  0.113263  0.692681  1
  S  S79  1  0.616930  0.585965  0.532116  1
  S  S80  1  0.006152  0.485388  0.668764  1
  S  S81  1  0.432985  0.230914  0.847297  1
  S  S82  1  0.383058  0.414009  0.467860  1
  S  S83  1  0.883002  0.414133  0.032270  1
  S  S84  1  0.319215  0.668159  0.069403  1
  S  S85  1  0.680810  0.168025  0.069439  1
  S  S86  1  0.066976  0.730867  0.652696  1
  S  S87  1  0.180762  0.168072  0.430593  1
  S  S88  1  0.568289  0.112048  0.353518  1
  S  S89  1  0.381708  0.605370  0.650292  1
  S  S90  1  0.068435  0.387962  0.853521  1
  S  S91  1  0.705032  0.613214  0.692641  1
  S  S92  1  0.888148  0.100162  0.482827  1
  S  S93  1  0.006149  0.014531  0.331315  1
  S  S94  1  0.493805  0.985428  0.831249  1
  S  S95  1  0.068176  0.112036  0.146450  1
  S  S96  1  0.618355  0.105335  0.650396  1
  S  S97  1  0.493962  0.514513  0.168739  1
  S  S98  1  0.116850  0.914070  0.032191  1
  S  S99  1  0.383006  0.085961  0.532175  1
