# generated using pymatgen
data_Ti3Zn3N
_symmetry_space_group_name_H-M   'P 1'
_cell_length_a   8.13424012
_cell_length_b   8.13462141
_cell_length_c   8.13440247
_cell_angle_alpha   59.99852711
_cell_angle_beta   60.00677115
_cell_angle_gamma   60.00517250
_symmetry_Int_Tables_number   1
_chemical_formula_structural   Ti3Zn3N
_chemical_formula_sum   'Ti12 Zn12 N4'
_cell_volume   380.62678993
_cell_formula_units_Z   4
loop_
 _symmetry_equiv_pos_site_id
 _symmetry_equiv_pos_as_xyz
  1  'x, y, z'
loop_
 _atom_site_type_symbol
 _atom_site_label
 _atom_site_symmetry_multiplicity
 _atom_site_fract_x
 _atom_site_fract_y
 _atom_site_fract_z
 _atom_site_occupancy
  Ti  Ti0  1  0.570808  0.929260  0.929262  1
  Ti  Ti1  1  0.570931  0.570795  0.929094  1
  Ti  Ti2  1  0.570862  0.929118  0.570813  1
  Ti  Ti3  1  0.929161  0.570708  0.570798  1
  Ti  Ti4  1  0.929070  0.929148  0.570936  1
  Ti  Ti5  1  0.929143  0.570818  0.929223  1
  Ti  Ti6  1  0.679168  0.320944  0.320886  1
  Ti  Ti7  1  0.679128  0.678994  0.320950  1
  Ti  Ti8  1  0.678976  0.321090  0.678926  1
  Ti  Ti9  1  0.320954  0.679043  0.679129  1
  Ti  Ti10  1  0.320966  0.320970  0.679090  1
  Ti  Ti11  1  0.321095  0.678949  0.321039  1
  Zn  Zn12  1  0.994743  0.335125  0.335048  1
  Zn  Zn13  1  0.335063  0.335102  0.994786  1
  Zn  Zn14  1  0.335122  0.994788  0.335082  1
  Zn  Zn15  1  0.335097  0.335027  0.335046  1
  Zn  Zn16  1  0.255144  0.914950  0.914942  1
  Zn  Zn17  1  0.914921  0.914928  0.255121  1
  Zn  Zn18  1  0.914934  0.255150  0.914936  1
  Zn  Zn19  1  0.914918  0.914947  0.915007  1
  Zn  Zn20  1  0.624985  0.125005  0.124974  1
  Zn  Zn21  1  0.124956  0.125034  0.624985  1
  Zn  Zn22  1  0.124940  0.624987  0.124986  1
  Zn  Zn23  1  0.124960  0.125079  0.124970  1
  N  N24  1  0.124984  0.624962  0.625052  1
  N  N25  1  0.625050  0.625004  0.124997  1
  N  N26  1  0.624940  0.125062  0.624988  1
  N  N27  1  0.624982  0.625012  0.624933  1
