# generated using pymatgen
data_Ag3(Bi2Br3)7
_symmetry_space_group_name_H-M   'P 1'
_cell_length_a   13.02264928
_cell_length_b   14.18459367
_cell_length_c   15.00285764
_cell_angle_alpha   90.00000000
_cell_angle_beta   90.00000000
_cell_angle_gamma   107.88253867
_symmetry_Int_Tables_number   1
_chemical_formula_structural   Ag3(Bi2Br3)7
_chemical_formula_sum   'Ag6 Bi28 Br42'
_cell_volume   2637.45366703
_cell_formula_units_Z   2
loop_
 _symmetry_equiv_pos_site_id
 _symmetry_equiv_pos_as_xyz
  1  'x, y, z'
loop_
 _atom_site_type_symbol
 _atom_site_label
 _atom_site_symmetry_multiplicity
 _atom_site_fract_x
 _atom_site_fract_y
 _atom_site_fract_z
 _atom_site_occupancy
  Ag  Ag0  1  0.459080  0.617724  0.591068  1
  Ag  Ag1  1  0.459080  0.617724  0.908932  1
  Ag  Ag2  1  0.550078  0.390307  0.097631  1
  Ag  Ag3  1  0.550078  0.390307  0.402369  1
  Ag  Ag4  1  0.865973  0.378023  0.086894  1
  Ag  Ag5  1  0.865973  0.378023  0.413106  1
  Bi  Bi6  1  0.100381  0.930715  0.750000  1
  Bi  Bi7  1  0.119319  0.612870  0.564737  1
  Bi  Bi8  1  0.119319  0.612870  0.935263  1
  Bi  Bi9  1  0.245478  0.970495  0.574805  1
  Bi  Bi10  1  0.245478  0.970495  0.925195  1
  Bi  Bi11  1  0.360347  0.919744  0.750000  1
  Bi  Bi12  1  0.220502  0.393155  0.074146  1
  Bi  Bi13  1  0.220502  0.393155  0.425854  1
  Bi  Bi14  1  0.156332  0.140327  0.642908  1
  Bi  Bi15  1  0.156332  0.140327  0.857092  1
  Bi  Bi16  1  0.259370  0.024848  0.250000  1
  Bi  Bi17  1  0.348363  0.282902  0.750000  1
  Bi  Bi18  1  0.542341  0.859492  0.147954  1
  Bi  Bi19  1  0.542341  0.859492  0.352046  1
  Bi  Bi20  1  0.444765  0.136620  0.855256  1
  Bi  Bi21  1  0.444765  0.136620  0.644744  1
  Bi  Bi22  1  0.654215  0.720431  0.250000  1
  Bi  Bi23  1  0.735460  0.979148  0.750000  1
  Bi  Bi24  1  0.854788  0.856612  0.146834  1
  Bi  Bi25  1  0.854788  0.856612  0.353166  1
  Bi  Bi26  1  0.773707  0.599446  0.924544  1
  Bi  Bi27  1  0.773707  0.599446  0.575456  1
  Bi  Bi28  1  0.638189  0.086714  0.250000  1
  Bi  Bi29  1  0.754909  0.027417  0.089287  1
  Bi  Bi30  1  0.754909  0.027417  0.410713  1
  Bi  Bi31  1  0.810625  0.176112  0.621325  1
  Bi  Bi32  1  0.810625  0.176112  0.878675  1
  Bi  Bi33  1  0.911656  0.071756  0.250000  1
  Br  Br34  1  0.002025  0.748496  0.527610  1
  Br  Br35  1  0.002025  0.748496  0.972390  1
  Br  Br36  1  0.984922  0.748359  0.250000  1
  Br  Br37  1  0.091587  0.535532  0.110562  1
  Br  Br38  1  0.091587  0.535532  0.389438  1
  Br  Br39  1  0.148524  0.694433  0.750000  1
  Br  Br40  1  0.341649  0.749370  0.250000  1
  Br  Br41  1  0.180010  0.302169  0.250000  1
  Br  Br42  1  0.235752  0.465054  0.608911  1
  Br  Br43  1  0.235752  0.465054  0.891089  1
  Br  Br44  1  0.104366  0.019916  0.111603  1
  Br  Br45  1  0.104366  0.019916  0.388397  1
  Br  Br46  1  0.317313  0.752337  0.527658  1
  Br  Br47  1  0.317313  0.752337  0.972342  1
  Br  Br48  1  0.334574  0.261730  0.027555  1
  Br  Br49  1  0.334574  0.261730  0.472445  1
  Br  Br50  1  0.469135  0.705745  0.750000  1
  Br  Br51  1  0.425279  0.535882  0.096630  1
  Br  Br52  1  0.425279  0.535882  0.403370  1
  Br  Br53  1  0.570306  0.968520  0.612686  1
  Br  Br54  1  0.570306  0.968520  0.887314  1
  Br  Br55  1  0.411750  0.025298  0.107882  1
  Br  Br56  1  0.411750  0.025298  0.392118  1
  Br  Br57  1  0.575778  0.461932  0.608293  1
  Br  Br58  1  0.575778  0.461932  0.891707  1
  Br  Br59  1  0.527871  0.288101  0.250000  1
  Br  Br60  1  0.672762  0.742116  0.531194  1
  Br  Br61  1  0.672762  0.742116  0.968806  1
  Br  Br62  1  0.673942  0.243385  0.498865  1
  Br  Br63  1  0.673942  0.243385  0.001135  1
  Br  Br64  1  0.906381  0.990129  0.613413  1
  Br  Br65  1  0.906381  0.990129  0.886587  1
  Br  Br66  1  0.758452  0.528158  0.103463  1
  Br  Br67  1  0.758452  0.528158  0.396537  1
  Br  Br68  1  0.822000  0.697779  0.750000  1
  Br  Br69  1  0.704649  0.266871  0.750000  1
  Br  Br70  1  0.843209  0.286902  0.250000  1
  Br  Br71  1  0.909008  0.464507  0.605367  1
  Br  Br72  1  0.909008  0.464507  0.894633  1
  Br  Br73  1  0.985657  0.255202  0.750000  1
  Br  Br74  1  0.009136  0.254964  0.020065  1
  Br  Br75  1  0.009136  0.254964  0.479935  1
