# generated using pymatgen
data_Al2S3
_symmetry_space_group_name_H-M   'P 1'
_cell_length_a   7.72032301
_cell_length_b   7.37133117
_cell_length_c   20.98453176
_cell_angle_alpha   81.18958802
_cell_angle_beta   99.99748443
_cell_angle_gamma   128.92920626
_symmetry_Int_Tables_number   1
_chemical_formula_structural   Al2S3
_chemical_formula_sum   'Al12 S18'
_cell_volume   913.38114031
_cell_formula_units_Z   6
loop_
 _symmetry_equiv_pos_site_id
 _symmetry_equiv_pos_as_xyz
  1  'x, y, z'
loop_
 _atom_site_type_symbol
 _atom_site_label
 _atom_site_symmetry_multiplicity
 _atom_site_fract_x
 _atom_site_fract_y
 _atom_site_fract_z
 _atom_site_occupancy
  Al  Al0  1  0.434329  0.329976  0.807541  1
  Al  Al1  1  0.362421  0.029598  0.255461  1
  Al  Al2  1  0.684540  0.654633  0.641446  1
  Al  Al3  1  0.028640  0.721216  0.892050  1
  Al  Al4  1  0.516177  0.840330  0.570081  1
  Al  Al5  1  0.476590  0.793864  0.811820  1
  Al  Al6  1  0.396109  0.518571  0.483033  1
  Al  Al7  1  0.675537  0.010973  0.373481  1
  Al  Al8  1  0.237339  0.388718  0.879335  1
  Al  Al9  1  0.086169  0.441387  0.982103  1
  Al  Al10  1  0.315289  0.000040  0.675104  1
  Al  Al11  1  0.525213  0.632635  0.321146  1
  S  S12  1  0.996138  0.367695  0.347537  1
  S  S13  1  0.373828  0.998073  0.362039  1
  S  S14  1  0.748759  0.708816  0.835126  1
  S  S15  1  0.064866  0.706039  0.002244  1
  S  S16  1  0.584084  0.967875  0.715842  1
  S  S17  1  0.237073  0.318818  0.386753  1
  S  S18  1  0.316788  0.365434  0.988743  1
  S  S19  1  0.172862  0.520580  0.533456  1
  S  S20  1  0.977130  0.685322  0.694642  1
  S  S21  1  0.376586  0.991416  0.855968  1
  S  S22  1  0.717842  0.901355  0.479527  1
  S  S23  1  0.609330  0.420957  0.545877  1
  S  S24  1  0.074385  0.784209  0.184126  1
  S  S25  1  0.583087  0.451993  0.256266  1
  S  S26  1  0.375041  0.332244  0.696956  1
  S  S27  1  0.915704  0.347121  0.879703  1
  S  S28  1  0.373173  0.055087  0.563471  1
  S  S29  1  0.764973  0.715026  0.183243  1
