# generated using pymatgen
data_Na3Ca(BO2)5
_symmetry_space_group_name_H-M   'P 1'
_cell_length_a   7.50599735
_cell_length_b   7.54152812
_cell_length_c   9.83868534
_cell_angle_alpha   79.14255090
_cell_angle_beta   70.07928160
_cell_angle_gamma   60.03810762
_symmetry_Int_Tables_number   1
_chemical_formula_structural   Na3Ca(BO2)5
_chemical_formula_sum   'Na6 Ca2 B10 O20'
_cell_volume   453.52131282
_cell_formula_units_Z   2
loop_
 _symmetry_equiv_pos_site_id
 _symmetry_equiv_pos_as_xyz
  1  'x, y, z'
loop_
 _atom_site_type_symbol
 _atom_site_label
 _atom_site_symmetry_multiplicity
 _atom_site_fract_x
 _atom_site_fract_y
 _atom_site_fract_z
 _atom_site_occupancy
  Na  Na0  1  0.010790  0.221566  0.452811  1
  Na  Na1  1  0.726024  0.538202  0.750408  1
  Na  Na2  1  0.989210  0.778434  0.547189  1
  Na  Na3  1  0.827067  0.978011  0.174841  1
  Na  Na4  1  0.172933  0.021989  0.825159  1
  Na  Na5  1  0.273976  0.461798  0.249592  1
  Ca  Ca6  1  0.778122  0.474074  0.119958  1
  Ca  Ca7  1  0.221878  0.525926  0.880042  1
  B  B8  1  0.588191  0.144319  0.712381  1
  B  B9  1  0.700494  0.184911  0.919295  1
  B  B10  1  0.726796  0.714558  0.393812  1
  B  B11  1  0.299506  0.815089  0.080705  1
  B  B12  1  0.227664  0.158837  0.131810  1
  B  B13  1  0.772336  0.841163  0.868190  1
  B  B14  1  0.273204  0.285442  0.606188  1
  B  B15  1  0.630153  0.242144  0.445604  1
  B  B16  1  0.411809  0.855681  0.287619  1
  B  B17  1  0.369847  0.757856  0.554396  1
  O  O18  1  0.724621  0.291949  0.998036  1
  O  O19  1  0.275379  0.708051  0.001964  1
  O  O20  1  0.674483  0.925018  0.758186  1
  O  O21  1  0.325517  0.074982  0.241814  1
  O  O22  1  0.758324  0.256866  0.315306  1
  O  O23  1  0.400297  0.730753  0.190725  1
  O  O24  1  0.211460  0.029446  0.055875  1
  O  O25  1  0.076817  0.314128  0.626618  1
  O  O26  1  0.358056  0.231843  0.725313  1
  O  O27  1  0.142493  0.360251  0.099545  1
  O  O28  1  0.599703  0.269247  0.809275  1
  O  O29  1  0.409850  0.304655  0.468633  1
  O  O30  1  0.714744  0.158235  0.563468  1
  O  O31  1  0.923183  0.685872  0.373382  1
  O  O32  1  0.788540  0.970554  0.944125  1
  O  O33  1  0.241676  0.743134  0.684694  1
  O  O34  1  0.641944  0.768157  0.274687  1
  O  O35  1  0.285256  0.841765  0.436532  1
  O  O36  1  0.857507  0.639749  0.900455  1
  O  O37  1  0.590150  0.695345  0.531367  1
