# generated using pymatgen
data_Na2Sn(HO)6
_symmetry_space_group_name_H-M   'P 1'
_cell_length_a   5.96135303
_cell_length_b   5.96135303
_cell_length_c   5.96135262
_cell_angle_alpha   67.86078571
_cell_angle_beta   67.86078567
_cell_angle_gamma   67.86078543
_symmetry_Int_Tables_number   1
_chemical_formula_structural   Na2Sn(HO)6
_chemical_formula_sum   'Na2 Sn1 H6 O6'
_cell_volume   174.82398296
_cell_formula_units_Z   1
loop_
 _symmetry_equiv_pos_site_id
 _symmetry_equiv_pos_as_xyz
  1  'x, y, z'
loop_
 _atom_site_type_symbol
 _atom_site_label
 _atom_site_symmetry_multiplicity
 _atom_site_fract_x
 _atom_site_fract_y
 _atom_site_fract_z
 _atom_site_occupancy
  Na  Na0  1  0.612932  0.612932  0.612932  1
  Na  Na1  1  0.387068  0.387068  0.387068  1
  Sn  Sn2  1  0.000000  0.000000  0.000000  1
  H  H3  1  0.829668  0.076394  0.456790  1
  H  H4  1  0.076394  0.456790  0.829668  1
  H  H5  1  0.456790  0.829668  0.076394  1
  H  H6  1  0.170332  0.923606  0.543210  1
  H  H7  1  0.923606  0.543210  0.170332  1
  H  H8  1  0.543210  0.170332  0.923606  1
  O  O9  1  0.168455  0.295127  0.794010  1
  O  O10  1  0.295127  0.794010  0.168455  1
  O  O11  1  0.794010  0.168455  0.295127  1
  O  O12  1  0.831545  0.704873  0.205990  1
  O  O13  1  0.704873  0.205990  0.831545  1
  O  O14  1  0.205990  0.831545  0.704873  1
