# generated using pymatgen
data_H4N2O3
_symmetry_space_group_name_H-M   'P 1'
_cell_length_a   6.78824499
_cell_length_b   5.36718000
_cell_length_c   6.24626243
_cell_angle_alpha   90.00500864
_cell_angle_beta   90.11573209
_cell_angle_gamma   89.96930389
_symmetry_Int_Tables_number   1
_chemical_formula_structural   H4N2O3
_chemical_formula_sum   'H8 N4 O6'
_cell_volume   227.57415804
_cell_formula_units_Z   2
loop_
 _symmetry_equiv_pos_site_id
 _symmetry_equiv_pos_as_xyz
  1  'x, y, z'
loop_
 _atom_site_type_symbol
 _atom_site_label
 _atom_site_symmetry_multiplicity
 _atom_site_fract_x
 _atom_site_fract_y
 _atom_site_fract_z
 _atom_site_occupancy
  H  H0  1  0.846611  0.675197  0.031229  1
  H  H1  1  0.653287  0.824917  0.031121  1
  H  H2  1  0.153517  0.174813  0.967768  1
  H  H3  1  0.346524  0.325332  0.967856  1
  H  H4  1  0.133584  0.741463  0.901085  1
  H  H5  1  0.366249  0.758573  0.901178  1
  H  H6  1  0.866753  0.241556  0.099802  1
  H  H7  1  0.633349  0.258456  0.099689  1
  N  N8  1  0.250080  0.749910  0.008332  1
  N  N9  1  0.749887  0.249963  0.992873  1
  N  N10  1  0.749769  0.750169  0.561248  1
  N  N11  1  0.250692  0.250289  0.437651  1
  O  O12  1  0.750026  0.749896  0.127124  1
  O  O13  1  0.249938  0.249802  0.871798  1
  O  O14  1  0.913647  0.749784  0.637660  1
  O  O15  1  0.585244  0.750084  0.637741  1
  O  O16  1  0.085671  0.249217  0.362817  1
  O  O17  1  0.415173  0.250580  0.363028  1
