# generated using pymatgen
data_RbAg4I5
_symmetry_space_group_name_H-M   'P 1'
_cell_length_a   11.80274337
_cell_length_b   11.81203736
_cell_length_c   11.75912996
_cell_angle_alpha   90.79169415
_cell_angle_beta   90.77584839
_cell_angle_gamma   88.11854815
_symmetry_Int_Tables_number   1
_chemical_formula_structural   RbAg4I5
_chemical_formula_sum   'Rb4 Ag16 I20'
_cell_volume   1638.21187985
_cell_formula_units_Z   4
loop_
 _symmetry_equiv_pos_site_id
 _symmetry_equiv_pos_as_xyz
  1  'x, y, z'
loop_
 _atom_site_type_symbol
 _atom_site_label
 _atom_site_symmetry_multiplicity
 _atom_site_fract_x
 _atom_site_fract_y
 _atom_site_fract_z
 _atom_site_occupancy
  Rb  Rb0  1  0.189830  0.624117  0.867621  1
  Rb  Rb1  1  0.380882  0.322745  0.404368  1
  Rb  Rb2  1  0.594856  0.882107  0.134192  1
  Rb  Rb3  1  0.889455  0.116265  0.635401  1
  Ag  Ag4  1  0.272396  0.029283  0.612813  1
  Ag  Ag5  1  0.307209  0.795537  0.529320  1
  Ag  Ag6  1  0.365445  0.069858  0.946661  1
  Ag  Ag7  1  0.578122  0.552628  0.556820  1
  Ag  Ag8  1  0.559507  0.242901  0.949960  1
  Ag  Ag9  1  0.674423  0.761520  0.462675  1
  Ag  Ag10  1  0.784255  0.467687  0.999047  1
  Ag  Ag11  1  0.722630  0.466610  0.743863  1
  Ag  Ag12  1  0.790523  0.554389  0.261878  1
  Ag  Ag13  1  0.832725  0.208174  0.980022  1
  Ag  Ag14  1  0.923942  0.753275  0.548260  1
  Ag  Ag15  1  0.005260  0.421947  0.238721  1
  Ag  Ag16  1  0.018621  0.172180  0.226626  1
  Ag  Ag17  1  0.999892  0.684023  0.296589  1
  Ag  Ag18  1  0.125760  0.257139  0.999175  1
  Ag  Ag19  1  0.036812  0.926506  0.246322  1
  I  I20  1  0.041314  0.036849  0.029071  1
  I  I21  1  0.096843  0.862947  0.669554  1
  I  I22  1  0.119541  0.170918  0.438285  1
  I  I23  1  0.206426  0.436099  0.128394  1
  I  I24  1  0.215245  0.775018  0.292350  1
  I  I25  1  0.264716  0.208388  0.780720  1
  I  I26  1  0.342423  0.569663  0.599607  1
  I  I27  1  0.389372  0.837854  0.917630  1
  I  I28  1  0.457295  0.160402  0.150350  1
  I  I29  1  0.476263  0.956481  0.500106  1
  I  I30  1  0.555969  0.476007  0.925831  1
  I  I31  1  0.565998  0.614422  0.307467  1
  I  I32  1  0.652669  0.317258  0.567333  1
  I  I33  1  0.692257  0.058241  0.867590  1
  I  I34  1  0.729243  0.709198  0.692804  1
  I  I35  1  0.798444  0.298921  0.206988  1
  I  I36  1  0.829989  0.923213  0.372766  1
  I  I37  1  0.881884  0.677989  0.074964  1
  I  I38  1  0.945174  0.371044  0.835229  1
  I  I39  1  0.951293  0.521098  0.462128  1
