# generated using pymatgen
data_H2W2O7
_symmetry_space_group_name_H-M   'P 1'
_cell_length_a   8.44210383
_cell_length_b   8.04928699
_cell_length_c   7.23755614
_cell_angle_alpha   54.65982690
_cell_angle_beta   56.98734387
_cell_angle_gamma   49.73013412
_symmetry_Int_Tables_number   1
_chemical_formula_structural   H2W2O7
_chemical_formula_sum   'H4 W4 O14'
_cell_volume   294.33951705
_cell_formula_units_Z   2
loop_
 _symmetry_equiv_pos_site_id
 _symmetry_equiv_pos_as_xyz
  1  'x, y, z'
loop_
 _atom_site_type_symbol
 _atom_site_label
 _atom_site_symmetry_multiplicity
 _atom_site_fract_x
 _atom_site_fract_y
 _atom_site_fract_z
 _atom_site_occupancy
  H  H0  1  0.610721  0.020442  0.369543  1
  H  H1  1  0.285768  0.536266  0.565705  1
  H  H2  1  0.376012  0.762256  0.922159  1
  H  H3  1  0.870510  0.430379  0.470990  1
  W  W4  1  0.962847  0.591241  0.970576  1
  W  W5  1  0.058171  0.014502  0.483435  1
  W  W6  1  0.472048  0.048921  0.902719  1
  W  W7  1  0.959842  0.997279  0.051521  1
  O  O8  1  0.726418  0.924794  0.268062  1
  O  O9  1  0.151886  0.661677  0.622563  1
  O  O10  1  0.125797  0.988233  0.705865  1
  O  O11  1  0.674474  0.687279  0.038117  1
  O  O12  1  0.067292  0.664247  0.065914  1
  O  O13  1  0.483069  0.124870  0.612795  1
  O  O14  1  0.279904  0.861268  0.016512  1
  O  O15  1  0.910554  0.365377  0.361910  1
  O  O16  1  0.931368  0.050935  0.296124  1
  O  O17  1  0.469760  0.275052  0.890457  1
  O  O18  1  0.814295  0.289005  0.892014  1
  O  O19  1  0.321678  0.959460  0.275785  1
  O  O20  1  0.821110  0.942295  0.769236  1
  O  O21  1  0.126474  0.304223  0.947998  1
