# generated using pymatgen
data_Si2H2O3
_symmetry_space_group_name_H-M   'P 1'
_cell_length_a   12.92293867
_cell_length_b   10.05944292
_cell_length_c   12.93374137
_cell_angle_alpha   101.52000450
_cell_angle_beta   142.06598631
_cell_angle_gamma   94.06869110
_symmetry_Int_Tables_number   1
_chemical_formula_structural   Si2H2O3
_chemical_formula_sum   'Si20 H20 O30'
_cell_volume   937.12180855
_cell_formula_units_Z   10
loop_
 _symmetry_equiv_pos_site_id
 _symmetry_equiv_pos_as_xyz
  1  'x, y, z'
loop_
 _atom_site_type_symbol
 _atom_site_label
 _atom_site_symmetry_multiplicity
 _atom_site_fract_x
 _atom_site_fract_y
 _atom_site_fract_z
 _atom_site_occupancy
  Si  Si0  1  0.656494  0.863850  0.528281  1
  Si  Si1  1  0.723936  0.660946  0.342333  1
  Si  Si2  1  0.321623  0.155950  0.438342  1
  Si  Si3  1  0.334515  0.366187  0.702588  1
  Si  Si4  1  0.028436  0.123886  0.806418  1
  Si  Si5  1  0.689612  0.393215  0.462042  1
  Si  Si6  1  0.934011  0.891342  0.208615  1
  Si  Si7  1  0.304364  0.619305  0.583928  1
  Si  Si8  1  0.538122  0.002336  0.316706  1
  Si  Si9  1  0.187206  0.496799  0.869631  1
  Si  Si10  1  0.623363  -0.005297  0.814633  1
  Si  Si11  1  0.686087  0.500383  -0.038219  1
  Si  Si12  1  0.410328  0.760531  0.950087  1
  Si  Si13  1  0.180965  0.783036  0.108307  1
  Si  Si14  1  0.676408  0.280595  0.102568  1
  Si  Si15  1  0.808551  0.251485  0.850886  1
  Si  Si16  1  0.113894  0.883316  0.663397  1
  Si  Si17  1  0.772999  0.636871  0.744920  1
  Si  Si18  1  0.897350  0.139735  0.368160  1
  Si  Si19  1  0.220901  0.381891  0.268282  1
  H  H20  1  0.959307  0.877011  0.799520  1
  H  H21  1  0.654609  0.408894  0.256666  1
  H  H22  1  0.151877  0.907614  0.255294  1
  H  H23  1  0.065781  0.371138  0.411878  1
  H  H24  1  0.325921  0.204589  0.118981  1
  H  H25  1  0.921378  0.302339  0.660058  1
  H  H26  1  0.639269  0.799551  0.886480  1
  H  H27  1  0.074459  0.703247  0.371600  1
  H  H28  1  0.619224  0.825786  0.670445  1
  H  H29  1  0.163935  0.331069  0.712943  1
  H  H30  1  0.479414  0.663226  0.260790  1
  H  H31  1  0.402432  0.163943  0.684913  1
  H  H32  1  0.151490  0.127720  0.726285  1
  H  H33  1  0.365786  0.400588  0.308258  1
  H  H34  1  0.087959  0.896283  0.533260  1
  H  H35  1  0.388768  0.628356  0.465523  1
  H  H36  1  0.657995  0.985725  0.250464  1
  H  H37  1  0.188378  0.497746  0.052719  1
  H  H38  1  0.451705  0.001467  0.828054  1
  H  H39  1  0.730750  0.477299  0.821134  1
  O  O40  1  0.896616  0.935288  0.720198  1
  O  O41  1  0.713313  0.487355  0.367818  1
  O  O42  1  0.118657  0.986572  0.272640  1
  O  O43  1  0.207381  0.432461  0.531669  1
  O  O44  1  0.199978  0.138718  0.022366  1
  O  O45  1  0.930563  0.402606  0.661434  1
  O  O46  1  0.738056  0.899285  0.976025  1
  O  O47  1  0.101194  0.630450  0.422914  1
  O  O48  1  0.320654  0.898524  0.153690  1
  O  O49  1  0.236152  0.655821  0.874747  1
  O  O50  1  0.780083  0.152828  0.924433  1
  O  O51  1  0.738767  0.394979  0.070984  1
  O  O52  1  0.310696  0.873033  0.835500  1
  O  O53  1  0.981887  0.763546  0.891246  1
  O  O54  1  0.878475  0.263414  0.282220  1
  O  O55  1  0.035120  0.365851  0.061305  1
  O  O56  1  0.643516  0.761594  0.622099  1
  O  O57  1  0.941877  0.760452  0.565173  1
  O  O58  1  0.204963  0.258913  0.323976  1
  O  O59  1  0.143792  0.263994  0.620666  1
  O  O60  1  0.614906  0.714196  0.383183  1
  O  O61  1  0.332194  0.213070  0.598401  1
  O  O62  1  0.123127  0.050075  0.745092  1
  O  O63  1  0.717061  0.538616  0.577844  1
  O  O64  1  0.965476  0.035874  0.328120  1
  O  O65  1  0.298868  0.547435  0.421786  1
  O  O66  1  0.545229  0.915103  0.187910  1
  O  O67  1  0.232736  0.572262  0.044058  1
  O  O68  1  0.532077  0.074180  0.854448  1
  O  O69  1  0.723248  0.407717  0.863772  1
