# generated using pymatgen
data_Cr9In7S24
_symmetry_space_group_name_H-M   'P 1'
_cell_length_a   7.30458790
_cell_length_b   22.01739719
_cell_length_c   12.67956672
_cell_angle_alpha   30.18206536
_cell_angle_beta   55.31046537
_cell_angle_gamma   60.51322643
_symmetry_Int_Tables_number   1
_chemical_formula_structural   Cr9In7S24
_chemical_formula_sum   'Cr9 In7 S24'
_cell_volume   842.98609791
_cell_formula_units_Z   1
loop_
 _symmetry_equiv_pos_site_id
 _symmetry_equiv_pos_as_xyz
  1  'x, y, z'
loop_
 _atom_site_type_symbol
 _atom_site_label
 _atom_site_symmetry_multiplicity
 _atom_site_fract_x
 _atom_site_fract_y
 _atom_site_fract_z
 _atom_site_occupancy
  Cr  Cr0  1  0.140334  0.333280  0.618209  1
  Cr  Cr1  1  0.615913  0.492514  0.141014  1
  Cr  Cr2  1  0.626326  0.334202  0.615926  1
  Cr  Cr3  1  0.626017  0.830801  0.129438  1
  Cr  Cr4  1  0.628742  0.502130  0.622645  1
  Cr  Cr5  1  0.613364  0.667226  0.622675  1
  Cr  Cr6  1  0.137172  0.998779  0.619003  1
  Cr  Cr7  1  0.614705  0.840185  0.620048  1
  Cr  Cr8  1  0.621167  0.998756  0.620204  1
  In  In9  1  0.997184  0.000154  0.000268  1
  In  In10  1  0.000114  0.333330  0.000591  1
  In  In11  1  0.613311  0.153665  0.154124  1
  In  In12  1  0.001668  0.666451  0.001559  1
  In  In13  1  0.615743  0.178614  0.616383  1
  In  In14  1  0.252763  0.665964  0.245740  1
  In  In15  1  0.137002  0.667061  0.630218  1
  S  S16  1  0.365564  0.984243  0.414813  1
  S  S17  1  0.365601  0.142301  0.417930  1
  S  S18  1  0.845235  0.983078  0.417386  1
  S  S19  1  0.366981  0.348130  0.369747  1
  S  S20  1  0.871537  0.140459  0.415286  1
  S  S21  1  0.371297  0.190090  0.846265  1
  S  S22  1  0.389550  0.479807  0.389166  1
  S  S23  1  0.847704  0.350031  0.365897  1
  S  S24  1  0.410274  0.666076  0.375133  1
  S  S25  1  0.417720  0.346362  0.836072  1
  S  S26  1  0.862521  0.480642  0.419796  1
  S  S27  1  0.414705  0.507719  0.843184  1
  S  S28  1  0.874179  0.192214  0.837965  1
  S  S29  1  0.413924  0.826548  0.364682  1
  S  S30  1  0.874683  0.343626  0.838602  1
  S  S31  1  0.833371  0.667050  0.389199  1
  S  S32  1  0.418269  0.666763  0.859542  1
  S  S33  1  0.837887  0.819699  0.416684  1
  S  S34  1  0.386494  0.852674  0.830323  1
  S  S35  1  0.839181  0.514125  0.874626  1
  S  S36  1  0.829123  0.666243  0.879935  1
  S  S37  1  0.414894  0.987151  0.875183  1
  S  S38  1  0.858850  0.851979  0.862876  1
  S  S39  1  0.873023  0.988083  0.871370  1
