# generated using pymatgen
data_Sr5U5O18
_symmetry_space_group_name_H-M   'P 1'
_cell_length_a   33.47775167
_cell_length_b   19.27114359
_cell_length_c   12.78174555
_cell_angle_alpha   15.85128183
_cell_angle_beta   17.53816243
_cell_angle_gamma   11.46086894
_symmetry_Int_Tables_number   1
_chemical_formula_structural   Sr5U5O18
_chemical_formula_sum   'Sr5 U5 O18'
_cell_volume   438.72123200
_cell_formula_units_Z   1
loop_
 _symmetry_equiv_pos_site_id
 _symmetry_equiv_pos_as_xyz
  1  'x, y, z'
loop_
 _atom_site_type_symbol
 _atom_site_label
 _atom_site_symmetry_multiplicity
 _atom_site_fract_x
 _atom_site_fract_y
 _atom_site_fract_z
 _atom_site_occupancy
  Sr  Sr0  1  0.198739  0.489051  0.528564  1
  Sr  Sr1  1  0.403288  0.484566  0.515419  1
  Sr  Sr2  1  0.596712  0.515434  0.484581  1
  Sr  Sr3  1  0.801261  0.510949  0.471436  1
  Sr  Sr4  1  0.000000  0.500000  0.500000  1
  U  U5  1  0.000000  0.000000  0.000000  1
  U  U6  1  0.206602  0.961872  0.036969  1
  U  U7  1  0.378226  0.015182  0.032206  1
  U  U8  1  0.621774  0.984818  0.967794  1
  U  U9  1  0.793398  0.038128  0.963031  1
  O  O10  1  0.173325  0.076756  0.108238  1
  O  O11  1  0.990125  0.420796  0.416366  1
  O  O12  1  0.334588  0.133864  0.124599  1
  O  O13  1  0.549760  0.133869  0.082906  1
  O  O14  1  0.141772  0.626384  0.674479  1
  O  O15  1  0.510033  0.221421  0.411418  1
  O  O16  1  0.756447  0.129553  0.077364  1
  O  O17  1  0.026101  0.942626  0.860223  1
  O  O18  1  0.334700  0.599630  0.742512  1
  O  O19  1  0.665300  0.400370  0.257488  1
  O  O20  1  0.973899  0.057374  0.139777  1
  O  O21  1  0.243553  0.870447  0.922636  1
  O  O22  1  0.489967  0.778579  0.588582  1
  O  O23  1  0.858228  0.373616  0.325521  1
  O  O24  1  0.450240  0.866131  0.917094  1
  O  O25  1  0.665412  0.866136  0.875401  1
  O  O26  1  0.009875  0.579204  0.583634  1
  O  O27  1  0.826675  0.923244  0.891762  1
