# generated using pymatgen
data_Pb4SeBr6
_symmetry_space_group_name_H-M   'P 1'
_cell_length_a   4.41130602
_cell_length_b   9.65788544
_cell_length_c   9.81934068
_cell_angle_alpha   62.96093073
_cell_angle_beta   77.01683897
_cell_angle_gamma   76.90440754
_symmetry_Int_Tables_number   1
_chemical_formula_structural   Pb4SeBr6
_chemical_formula_sum   'Pb4 Se1 Br6'
_cell_volume   359.33882762
_cell_formula_units_Z   1
loop_
 _symmetry_equiv_pos_site_id
 _symmetry_equiv_pos_as_xyz
  1  'x, y, z'
loop_
 _atom_site_type_symbol
 _atom_site_label
 _atom_site_symmetry_multiplicity
 _atom_site_fract_x
 _atom_site_fract_y
 _atom_site_fract_z
 _atom_site_occupancy
  Pb  Pb0  1  0.002623  0.996320  0.001495  1
  Pb  Pb1  1  0.242498  0.531331  0.982069  1
  Pb  Pb2  1  0.496538  0.533034  0.464954  1
  Pb  Pb3  1  0.760593  0.013366  0.459045  1
  Se  Se4  1  0.989869  0.720716  0.292590  1
  Br  Br5  1  0.363640  0.106261  0.163597  1
  Br  Br6  1  0.632943  0.830655  0.899599  1
  Br  Br7  1  0.122585  0.168268  0.581471  1
  Br  Br8  1  0.872953  0.413984  0.831451  1
  Br  Br9  1  0.305134  0.764594  0.616987  1
  Br  Br10  1  0.688060  0.387755  0.232101  1
