# generated using pymatgen
data_Li3InCl6
_symmetry_space_group_name_H-M   'P 1'
_cell_length_a   38.39183185
_cell_length_b   6.55511540
_cell_length_c   6.55511491
_cell_angle_alpha   119.68782990
_cell_angle_beta   100.27495884
_cell_angle_gamma   100.27496100
_symmetry_Int_Tables_number   1
_chemical_formula_structural   Li3InCl6
_chemical_formula_sum   'Li18 In6 Cl36'
_cell_volume   1339.75307820
_cell_formula_units_Z   6
loop_
 _symmetry_equiv_pos_site_id
 _symmetry_equiv_pos_as_xyz
  1  'x, y, z'
loop_
 _atom_site_type_symbol
 _atom_site_label
 _atom_site_symmetry_multiplicity
 _atom_site_fract_x
 _atom_site_fract_y
 _atom_site_fract_z
 _atom_site_occupancy
  Li  Li0  1  0.083515  0.832528  0.166460  1
  Li  Li1  1  0.083632  0.148835  0.824830  1
  Li  Li2  1  0.083112  0.522769  0.512039  1
  Li  Li3  1  0.249991  0.156767  0.844050  1
  Li  Li4  1  0.249969  0.841712  0.156137  1
  Li  Li5  1  0.249950  0.501867  0.501354  1
  Li  Li6  1  0.416663  0.157428  0.842570  1
  Li  Li7  1  0.416661  0.842543  0.157459  1
  Li  Li8  1  0.416664  0.499973  0.499965  1
  Li  Li9  1  0.583337  0.157430  0.842572  1
  Li  Li10  1  0.583339  0.842541  0.157457  1
  Li  Li11  1  0.583336  0.500035  0.500027  1
  Li  Li12  1  0.750009  0.155950  0.843233  1
  Li  Li13  1  0.750050  0.498646  0.498133  1
  Li  Li14  1  0.750031  0.843863  0.158288  1
  Li  Li15  1  0.916888  0.487961  0.477231  1
  Li  Li16  1  0.916368  0.175170  0.851165  1
  Li  Li17  1  0.916485  0.833540  0.167472  1
  In  In18  1  0.000000  0.668806  0.331194  1
  In  In19  1  0.166693  0.001460  0.002969  1
  In  In20  1  0.333327  0.999833  0.999893  1
  In  In21  1  0.500000  0.999934  0.000066  1
  In  In22  1  0.666673  0.000107  0.000167  1
  In  In23  1  0.833307  0.997031  0.998540  1
  Cl  Cl24  1  0.041134  0.751034  0.728088  1
  Cl  Cl25  1  0.044535  0.451319  0.116635  1
  Cl  Cl26  1  0.044370  0.063331  0.422022  1
  Cl  Cl27  1  0.121781  0.603305  0.911643  1
  Cl  Cl28  1  0.125627  0.921565  0.607498  1
  Cl  Cl29  1  0.122772  0.217570  0.217924  1
  Cl  Cl30  1  0.207515  0.770212  0.772915  1
  Cl  Cl31  1  0.211131  0.087746  0.395928  1
  Cl  Cl32  1  0.211715  0.397938  0.091041  1
  Cl  Cl33  1  0.288384  0.913932  0.604383  1
  Cl  Cl34  1  0.288416  0.603552  0.912840  1
  Cl  Cl35  1  0.292986  0.229449  0.229859  1
  Cl  Cl36  1  0.373646  0.770850  0.770815  1
  Cl  Cl37  1  0.378284  0.086788  0.395471  1
  Cl  Cl38  1  0.378287  0.395451  0.086858  1
  Cl  Cl39  1  0.455016  0.604316  0.913138  1
  Cl  Cl40  1  0.455026  0.913130  0.604435  1
  Cl  Cl41  1  0.459650  0.229235  0.229260  1
  Cl  Cl42  1  0.540350  0.770740  0.770765  1
  Cl  Cl43  1  0.544984  0.086862  0.395684  1
  Cl  Cl44  1  0.544974  0.395565  0.086870  1
  Cl  Cl45  1  0.621716  0.604529  0.913212  1
  Cl  Cl46  1  0.621713  0.913142  0.604549  1
  Cl  Cl47  1  0.626354  0.229185  0.229150  1
  Cl  Cl48  1  0.707014  0.770141  0.770551  1
  Cl  Cl49  1  0.711584  0.087160  0.396448  1
  Cl  Cl50  1  0.711616  0.395617  0.086068  1
  Cl  Cl51  1  0.788869  0.604072  0.912254  1
  Cl  Cl52  1  0.788285  0.908959  0.602062  1
  Cl  Cl53  1  0.792485  0.227085  0.229788  1
  Cl  Cl54  1  0.877228  0.782076  0.782430  1
  Cl  Cl55  1  0.878219  0.088357  0.396695  1
  Cl  Cl56  1  0.874373  0.392502  0.078435  1
  Cl  Cl57  1  0.955465  0.883365  0.548681  1
  Cl  Cl58  1  0.955630  0.577978  0.936669  1
  Cl  Cl59  1  0.958866  0.271912  0.248966  1
