# generated using pymatgen
data_Re2Te5
_symmetry_space_group_name_H-M   'P 1'
_cell_length_a   13.53727767
_cell_length_b   13.83890445
_cell_length_c   14.70462205
_cell_angle_alpha   90.00000000
_cell_angle_beta   90.00000000
_cell_angle_gamma   90.00000000
_symmetry_Int_Tables_number   1
_chemical_formula_structural   Re2Te5
_chemical_formula_sum   'Re24 Te60'
_cell_volume   2754.77995506
_cell_formula_units_Z   12
loop_
 _symmetry_equiv_pos_site_id
 _symmetry_equiv_pos_as_xyz
  1  'x, y, z'
loop_
 _atom_site_type_symbol
 _atom_site_label
 _atom_site_symmetry_multiplicity
 _atom_site_fract_x
 _atom_site_fract_y
 _atom_site_fract_z
 _atom_site_occupancy
  Re  Re0  1  0.870069  0.499072  0.948645  1
  Re  Re1  1  0.521667  0.626202  0.547108  1
  Re  Re2  1  0.978333  0.126202  0.452892  1
  Re  Re3  1  0.449487  0.555229  0.389954  1
  Re  Re4  1  0.870069  0.999072  0.551355  1
  Re  Re5  1  0.478333  0.373798  0.452892  1
  Re  Re6  1  0.021667  0.873798  0.547108  1
  Re  Re7  1  0.949487  0.944771  0.389954  1
  Re  Re8  1  0.521667  0.126202  0.952892  1
  Re  Re9  1  0.370069  0.500928  0.551355  1
  Re  Re10  1  0.949487  0.444771  0.110046  1
  Re  Re11  1  0.021667  0.373798  0.952892  1
  Re  Re12  1  0.370069  0.000928  0.948645  1
  Re  Re13  1  0.629931  0.499072  0.448645  1
  Re  Re14  1  0.550513  0.444771  0.610046  1
  Re  Re15  1  0.050513  0.555229  0.889954  1
  Re  Re16  1  0.629931  0.999072  0.051355  1
  Re  Re17  1  0.449487  0.055229  0.110046  1
  Re  Re18  1  0.129931  0.000928  0.448645  1
  Re  Re19  1  0.050513  0.055229  0.610046  1
  Re  Re20  1  0.478333  0.873798  0.047108  1
  Re  Re21  1  0.129931  0.500928  0.051355  1
  Re  Re22  1  0.550513  0.944771  0.889954  1
  Re  Re23  1  0.978333  0.626202  0.047108  1
  Te  Te24  1  0.443937  0.071215  0.788923  1
  Te  Te25  1  0.815178  0.024528  0.127836  1
  Te  Te26  1  0.102847  0.317233  0.113409  1
  Te  Te27  1  0.056063  0.571215  0.211077  1
  Te  Te28  1  0.488645  0.810063  0.615333  1
  Te  Te29  1  0.142600  0.138690  0.758302  1
  Te  Te30  1  0.337598  0.183351  0.013182  1
  Te  Te31  1  0.011355  0.810063  0.115333  1
  Te  Te32  1  0.357400  0.638690  0.241698  1
  Te  Te33  1  0.857400  0.361310  0.258302  1
  Te  Te34  1  0.315178  0.475472  0.127836  1
  Te  Te35  1  0.795766  0.072748  0.393501  1
  Te  Te36  1  0.704234  0.072748  0.893501  1
  Te  Te37  1  0.556063  0.928785  0.211077  1
  Te  Te38  1  0.295766  0.427252  0.393501  1
  Te  Te39  1  0.204234  0.427252  0.893501  1
  Te  Te40  1  0.357400  0.138690  0.258302  1
  Te  Te41  1  0.337598  0.683351  0.486818  1
  Te  Te42  1  0.295766  0.927252  0.106499  1
  Te  Te43  1  0.184822  0.975472  0.872164  1
  Te  Te44  1  0.684822  0.024528  0.627836  1
  Te  Te45  1  0.684822  0.524528  0.872164  1
  Te  Te46  1  0.943937  0.428785  0.788923  1
  Te  Te47  1  0.602847  0.682767  0.386591  1
  Te  Te48  1  0.488645  0.310063  0.884667  1
  Te  Te49  1  0.642600  0.861310  0.741698  1
  Te  Te50  1  0.837598  0.316649  0.013182  1
  Te  Te51  1  0.397153  0.317233  0.613409  1
  Te  Te52  1  0.184822  0.475472  0.627836  1
  Te  Te53  1  0.662402  0.316649  0.513182  1
  Te  Te54  1  0.897153  0.182767  0.613409  1
  Te  Te55  1  0.795766  0.572748  0.106499  1
  Te  Te56  1  0.662402  0.816649  0.986818  1
  Te  Te57  1  0.056063  0.071215  0.288923  1
  Te  Te58  1  0.602847  0.182767  0.113409  1
  Te  Te59  1  0.837598  0.816649  0.486818  1
  Te  Te60  1  0.000000  0.000000  0.000000  1
  Te  Te61  1  0.511355  0.689937  0.115333  1
  Te  Te62  1  0.642600  0.361310  0.758302  1
  Te  Te63  1  0.857400  0.861310  0.241698  1
  Te  Te64  1  0.315178  0.975472  0.372164  1
  Te  Te65  1  0.897153  0.682767  0.886591  1
  Te  Te66  1  0.204234  0.927252  0.606499  1
  Te  Te67  1  0.988645  0.189937  0.884667  1
  Te  Te68  1  0.815178  0.524528  0.372164  1
  Te  Te69  1  0.704234  0.572748  0.606499  1
  Te  Te70  1  0.511355  0.189937  0.384667  1
  Te  Te71  1  0.556063  0.428785  0.288923  1
  Te  Te72  1  0.142600  0.638690  0.741698  1
  Te  Te73  1  0.443937  0.571215  0.711077  1
  Te  Te74  1  0.011355  0.310063  0.384667  1
  Te  Te75  1  0.397153  0.817233  0.886591  1
  Te  Te76  1  0.988645  0.689937  0.615333  1
  Te  Te77  1  0.162402  0.683351  0.986818  1
  Te  Te78  1  0.500000  0.000000  0.500000  1
  Te  Te79  1  0.162402  0.183351  0.513182  1
  Te  Te80  1  0.943937  0.928785  0.711077  1
  Te  Te81  1  0.000000  0.500000  0.500000  1
  Te  Te82  1  0.102847  0.817233  0.386591  1
  Te  Te83  1  0.500000  0.500000  0.000000  1
