# generated using pymatgen
data_H3NO4
_symmetry_space_group_name_H-M   'P 1'
_cell_length_a   5.65666708
_cell_length_b   9.49699270
_cell_length_c   6.05126915
_cell_angle_alpha   90.00000000
_cell_angle_beta   90.00000000
_cell_angle_gamma   90.00000000
_symmetry_Int_Tables_number   1
_chemical_formula_structural   H3NO4
_chemical_formula_sum   'H12 N4 O16'
_cell_volume   325.08220251
_cell_formula_units_Z   4
loop_
 _symmetry_equiv_pos_site_id
 _symmetry_equiv_pos_as_xyz
  1  'x, y, z'
loop_
 _atom_site_type_symbol
 _atom_site_label
 _atom_site_symmetry_multiplicity
 _atom_site_fract_x
 _atom_site_fract_y
 _atom_site_fract_z
 _atom_site_occupancy
  H  H0  1  0.702892  0.393784  0.671046  1
  H  H1  1  0.202892  0.606216  0.328954  1
  H  H2  1  0.202892  0.893784  0.828954  1
  H  H3  1  0.702892  0.106216  0.171046  1
  H  H4  1  0.627899  0.202699  0.881761  1
  H  H5  1  0.390220  0.208732  0.007168  1
  H  H6  1  0.127899  0.797301  0.118239  1
  H  H7  1  0.890220  0.791268  0.992832  1
  H  H8  1  0.127899  0.702699  0.618239  1
  H  H9  1  0.890220  0.708732  0.492832  1
  H  H10  1  0.627899  0.297301  0.381761  1
  H  H11  1  0.390220  0.291268  0.507168  1
  N  N12  1  0.025952  0.406771  0.784342  1
  N  N13  1  0.525952  0.593229  0.215658  1
  N  N14  1  0.525952  0.906771  0.715658  1
  N  N15  1  0.025952  0.093229  0.284342  1
  O  O16  1  0.819383  0.471847  0.722018  1
  O  O17  1  0.319383  0.528153  0.277982  1
  O  O18  1  0.319383  0.971847  0.777982  1
  O  O19  1  0.819383  0.028153  0.222018  1
  O  O20  1  0.200785  0.482374  0.784466  1
  O  O21  1  0.700785  0.517626  0.215534  1
  O  O22  1  0.700785  0.982374  0.715534  1
  O  O23  1  0.200785  0.017626  0.284466  1
  O  O24  1  0.017859  0.280423  0.833769  1
  O  O25  1  0.517859  0.719577  0.166231  1
  O  O26  1  0.517859  0.780423  0.666231  1
  O  O27  1  0.017859  0.219577  0.333769  1
  O  O28  1  0.560666  0.216476  0.029725  1
  O  O29  1  0.060666  0.783524  0.970275  1
  O  O30  1  0.060666  0.716476  0.470275  1
  O  O31  1  0.560666  0.283524  0.529725  1
