# generated using pymatgen
data_CuAsPbS3
_symmetry_space_group_name_H-M   'P 1'
_cell_length_a   7.70415663
_cell_length_b   8.16913363
_cell_length_c   8.90744022
_cell_angle_alpha   89.99975021
_cell_angle_beta   89.99926078
_cell_angle_gamma   90.00024771
_symmetry_Int_Tables_number   1
_chemical_formula_structural   CuAsPbS3
_chemical_formula_sum   'Cu4 As4 Pb4 S12'
_cell_volume   560.60119643
_cell_formula_units_Z   4
loop_
 _symmetry_equiv_pos_site_id
 _symmetry_equiv_pos_as_xyz
  1  'x, y, z'
loop_
 _atom_site_type_symbol
 _atom_site_label
 _atom_site_symmetry_multiplicity
 _atom_site_fract_x
 _atom_site_fract_y
 _atom_site_fract_z
 _atom_site_occupancy
  Cu  Cu0  1  0.238463  0.277184  0.430267  1
  Cu  Cu1  1  0.738582  0.722815  0.930266  1
  Cu  Cu2  1  0.261390  0.722812  0.930252  1
  Cu  Cu3  1  0.761540  0.277194  0.430247  1
  As  As4  1  0.000003  0.933578  0.580076  1
  As  As5  1  0.500007  0.502464  0.658559  1
  As  As6  1  -0.000001  0.497530  0.158566  1
  As  As7  1  0.499999  0.066420  0.080069  1
  Pb  Pb8  1  0.999997  0.077599  0.003216  1
  Pb  Pb9  1  0.500006  0.922417  0.503207  1
  Pb  Pb10  1  0.500003  0.556507  0.193080  1
  Pb  Pb11  1  0.999996  0.443457  0.693056  1
  S  S12  1  -0.000001  0.251347  0.281766  1
  S  S13  1  0.724496  0.554043  0.494991  1
  S  S14  1  0.224494  0.445942  0.994996  1
  S  S15  1  0.275510  0.554052  0.494996  1
  S  S16  1  0.272858  0.893356  0.138992  1
  S  S17  1  0.727140  0.893355  0.138993  1
  S  S18  1  0.772867  0.106665  0.638962  1
  S  S19  1  0.775515  0.445954  0.994996  1
  S  S20  1  0.500019  0.748647  0.781772  1
  S  S21  1  0.999990  0.779861  0.799959  1
  S  S22  1  0.499993  0.220136  0.299955  1
  S  S23  1  0.227135  0.106666  0.638960  1
