# generated using pymatgen
data_Fe3C8(Br2N)8
_symmetry_space_group_name_H-M   'P 1'
_cell_length_a   8.08829297
_cell_length_b   9.45713685
_cell_length_c   12.20414068
_cell_angle_alpha   76.91485880
_cell_angle_beta   87.63049615
_cell_angle_gamma   89.01505051
_symmetry_Int_Tables_number   1
_chemical_formula_structural   Fe3C8(Br2N)8
_chemical_formula_sum   'Fe3 C8 Br16 N8'
_cell_volume   908.47429063
_cell_formula_units_Z   1
loop_
 _symmetry_equiv_pos_site_id
 _symmetry_equiv_pos_as_xyz
  1  'x, y, z'
loop_
 _atom_site_type_symbol
 _atom_site_label
 _atom_site_symmetry_multiplicity
 _atom_site_fract_x
 _atom_site_fract_y
 _atom_site_fract_z
 _atom_site_occupancy
  Fe  Fe0  1  0.129575  0.750454  0.787229  1
  Fe  Fe1  1  0.870425  0.249546  0.212771  1
  Fe  Fe2  1  0.500000  0.500000  0.500000  1
  C  C3  1  0.653223  0.188560  0.545591  1
  C  C4  1  0.550507  0.165374  0.856649  1
  C  C5  1  0.821198  0.635159  0.373379  1
  C  C6  1  0.449493  0.834626  0.143351  1
  C  C7  1  0.616417  0.528600  0.732900  1
  C  C8  1  0.178802  0.364841  0.626621  1
  C  C9  1  0.383583  0.471400  0.267100  1
  C  C10  1  0.346777  0.811440  0.454409  1
  Br  Br11  1  0.806318  0.488217  0.118721  1
  Br  Br12  1  0.685543  0.527893  0.870568  1
  Br  Br13  1  0.752697  0.014307  0.578126  1
  Br  Br14  1  0.360144  0.151580  0.938499  1
  Br  Br15  1  0.971877  0.870466  0.903399  1
  Br  Br16  1  0.977913  0.727034  0.630077  1
  Br  Br17  1  0.626685  0.120162  0.266522  1
  Br  Br18  1  0.022087  0.272966  0.369923  1
  Br  Br19  1  0.314457  0.472107  0.129432  1
  Br  Br20  1  0.639856  0.848420  0.061501  1
  Br  Br21  1  0.193682  0.511783  0.881279  1
  Br  Br22  1  0.247303  0.985693  0.421874  1
  Br  Br23  1  0.002472  0.718271  0.297744  1
  Br  Br24  1  0.997528  0.281729  0.702256  1
  Br  Br25  1  0.373315  0.879838  0.733478  1
  Br  Br26  1  0.028123  0.129534  0.096601  1
  N  N27  1  0.323067  0.822739  0.195230  1
  N  N28  1  0.676933  0.177261  0.804770  1
  N  N29  1  0.703401  0.582297  0.423932  1
  N  N30  1  0.574939  0.521566  0.643704  1
  N  N31  1  0.296599  0.417703  0.576068  1
  N  N32  1  0.425061  0.478434  0.356296  1
  N  N33  1  0.404933  0.694995  0.472843  1
  N  N34  1  0.595067  0.305005  0.527157  1
