# generated using pymatgen
data_MgC2S2(OF3)2
_symmetry_space_group_name_H-M   'P 1'
_cell_length_a   20.37027131
_cell_length_b   20.34447469
_cell_length_c   20.44457903
_cell_angle_alpha   13.98967044
_cell_angle_beta   13.19547348
_cell_angle_gamma   12.99942782
_symmetry_Int_Tables_number   1
_chemical_formula_structural   MgC2S2(OF3)2
_chemical_formula_sum   'Mg2 C4 S4 O4 F12'
_cell_volume   394.32513933
_cell_formula_units_Z   2
loop_
 _symmetry_equiv_pos_site_id
 _symmetry_equiv_pos_as_xyz
  1  'x, y, z'
loop_
 _atom_site_type_symbol
 _atom_site_label
 _atom_site_symmetry_multiplicity
 _atom_site_fract_x
 _atom_site_fract_y
 _atom_site_fract_z
 _atom_site_occupancy
  Mg  Mg0  1  0.999981  0.999976  0.000038  1
  Mg  Mg1  1  0.499984  0.000024  0.999988  1
  C  C2  1  0.396353  0.246921  0.199742  1
  C  C3  1  0.899718  0.197346  0.246603  1
  C  C4  1  0.100259  0.802667  0.753409  1
  C  C5  1  0.603590  0.753119  0.800277  1
  S  S6  1  0.372309  0.307323  0.254905  1
  S  S7  1  0.877894  0.228191  0.328866  1
  S  S8  1  0.122067  0.771826  0.671156  1
  S  S9  1  0.627614  0.692705  0.745144  1
  O  O10  1  0.218251  0.107277  0.619830  1
  O  O11  1  0.633083  0.600341  0.216761  1
  O  O12  1  0.366870  0.399678  0.783266  1
  O  O13  1  0.781633  0.892774  0.380234  1
  F  F14  1  0.060785  0.571269  0.040882  1
  F  F15  1  0.107209  0.277226  0.429182  1
  F  F16  1  0.339092  0.049286  0.788812  1
  F  F17  1  0.563234  0.527920  0.085194  1
  F  F18  1  0.166707  0.903801  0.253956  1
  F  F19  1  0.612417  0.235019  0.463311  1
  F  F20  1  0.387561  0.764989  0.536701  1
  F  F21  1  0.833275  0.096221  0.746041  1
  F  F22  1  0.436725  0.472107  0.914825  1
  F  F23  1  0.660864  0.950738  0.211212  1
  F  F24  1  0.892740  0.722804  0.570833  1
  F  F25  1  0.939186  0.428753  0.959130  1
