# generated using pymatgen
data_Re(SeCl6)2
_symmetry_space_group_name_H-M   'P 1'
_cell_length_a   8.86251964
_cell_length_b   8.86251947
_cell_length_c   12.50261226
_cell_angle_alpha   109.21904027
_cell_angle_beta   109.21903992
_cell_angle_gamma   94.08470589
_symmetry_Int_Tables_number   1
_chemical_formula_structural   Re(SeCl6)2
_chemical_formula_sum   'Re2 Se4 Cl24'
_cell_volume   857.65337521
_cell_formula_units_Z   2
loop_
 _symmetry_equiv_pos_site_id
 _symmetry_equiv_pos_as_xyz
  1  'x, y, z'
loop_
 _atom_site_type_symbol
 _atom_site_label
 _atom_site_symmetry_multiplicity
 _atom_site_fract_x
 _atom_site_fract_y
 _atom_site_fract_z
 _atom_site_occupancy
  Re  Re0  1  0.420102  0.920102  0.840204  1
  Re  Re1  1  0.670102  0.670102  0.340204  1
  Se  Se2  1  0.217534  0.271209  0.005065  1
  Se  Se3  1  0.787530  0.733856  0.005065  1
  Se  Se4  1  0.021209  0.467534  0.505065  1
  Se  Se5  1  0.483856  0.037530  0.505065  1
  Cl  Cl6  1  0.894960  0.233191  0.353651  1
  Cl  Cl7  1  0.713224  0.560276  0.495343  1
  Cl  Cl8  1  0.637185  0.787910  0.191248  1
  Cl  Cl9  1  0.410175  0.711621  0.342888  1
  Cl  Cl10  1  0.028863  0.855153  0.153688  1
  Cl  Cl11  1  0.310276  0.963224  0.995343  1
  Cl  Cl12  1  0.554064  0.403339  0.191248  1
  Cl  Cl13  1  0.381267  0.182712  0.842888  1
  Cl  Cl14  1  0.779545  0.480507  0.994715  1
  Cl  Cl15  1  0.782119  0.935067  0.495343  1
  Cl  Cl16  1  0.048534  0.374825  0.653688  1
  Cl  Cl17  1  0.124825  0.298534  0.153688  1
  Cl  Cl18  1  0.983191  0.144960  0.853651  1
  Cl  Cl19  1  0.685067  0.032119  0.995343  1
  Cl  Cl20  1  0.230507  0.029545  0.494715  1
  Cl  Cl21  1  0.458691  0.120460  0.353651  1
  Cl  Cl22  1  0.537910  0.887185  0.691248  1
  Cl  Cl23  1  0.870460  0.708691  0.853651  1
  Cl  Cl24  1  0.605153  0.278863  0.653688  1
  Cl  Cl25  1  0.153339  0.804064  0.691248  1
  Cl  Cl26  1  0.932712  0.631267  0.342888  1
  Cl  Cl27  1  0.264208  0.465171  0.494715  1
  Cl  Cl28  1  0.215171  0.514208  0.994715  1
  Cl  Cl29  1  0.461621  0.660175  0.842888  1
