# generated using pymatgen
data_Re2H4O9
_symmetry_space_group_name_H-M   'P 1'
_cell_length_a   9.00337223
_cell_length_b   8.90231069
_cell_length_c   4.99617259
_cell_angle_alpha   90.00000000
_cell_angle_beta   114.41384506
_cell_angle_gamma   90.00000000
_symmetry_Int_Tables_number   1
_chemical_formula_structural   Re2H4O9
_chemical_formula_sum   'Re4 H8 O18'
_cell_volume   364.64084166
_cell_formula_units_Z   2
loop_
 _symmetry_equiv_pos_site_id
 _symmetry_equiv_pos_as_xyz
  1  'x, y, z'
loop_
 _atom_site_type_symbol
 _atom_site_label
 _atom_site_symmetry_multiplicity
 _atom_site_fract_x
 _atom_site_fract_y
 _atom_site_fract_z
 _atom_site_occupancy
  Re  Re0  1  0.119646  0.254986  0.008350  1
  Re  Re1  1  0.880354  0.754986  0.991650  1
  Re  Re2  1  0.549993  0.249171  -0.000023  1
  Re  Re3  1  0.450007  0.749171  0.000023  1
  H  H4  1  0.943459  0.247497  0.287041  1
  H  H5  1  0.056541  0.747497  0.712959  1
  H  H6  1  0.973558  0.528947  0.434419  1
  H  H7  1  0.026442  0.028947  0.565581  1
  H  H8  1  0.287269  0.482266  0.268732  1
  H  H9  1  0.712731  0.982266  0.731268  1
  H  H10  1  0.708104  0.520786  0.723343  1
  H  H11  1  0.291896  0.020786  0.276657  1
  O  O12  1  0.347190  0.248850  0.980920  1
  O  O13  1  0.652810  0.748850  0.019080  1
  O  O14  1  0.692606  0.250196  0.362185  1
  O  O15  1  0.307394  0.750196  0.637815  1
  O  O16  1  0.932766  0.257438  0.083781  1
  O  O17  1  0.067234  0.757438  0.916219  1
  O  O18  1  0.060358  0.389342  0.726227  1
  O  O19  1  0.939642  0.889342  0.273773  1
  O  O20  1  0.952844  0.600726  0.271390  1
  O  O21  1  0.047156  0.100726  0.728610  1
  O  O22  1  0.581622  0.408835  0.829468  1
  O  O23  1  0.418378  0.908835  0.170532  1
  O  O24  1  0.415957  0.590225  0.170749  1
  O  O25  1  0.584043  0.090225  0.829251  1
  O  O26  1  0.225739  0.396416  0.303178  1
  O  O27  1  0.774261  0.896416  0.696822  1
  O  O28  1  0.778838  0.601938  0.705048  1
  O  O29  1  0.221162  0.101938  0.294952  1
