# generated using pymatgen
data_Mg(Mo3Se4)2
_symmetry_space_group_name_H-M   'P 1'
_cell_length_a   6.85717077
_cell_length_b   6.83197879
_cell_length_c   13.69604421
_cell_angle_alpha   93.17031134
_cell_angle_beta   93.23755985
_cell_angle_gamma   93.37630904
_symmetry_Int_Tables_number   1
_chemical_formula_structural   Mg(Mo3Se4)2
_chemical_formula_sum   'Mg2 Mo12 Se16'
_cell_volume   638.38944750
_cell_formula_units_Z   2
loop_
 _symmetry_equiv_pos_site_id
 _symmetry_equiv_pos_as_xyz
  1  'x, y, z'
loop_
 _atom_site_type_symbol
 _atom_site_label
 _atom_site_symmetry_multiplicity
 _atom_site_fract_x
 _atom_site_fract_y
 _atom_site_fract_z
 _atom_site_occupancy
  Mg  Mg0  1  0.111735  0.953151  0.472801  1
  Mg  Mg1  1  0.945266  0.111638  0.977136  1
  Mo  Mo2  1  0.236376  0.417517  0.774267  1
  Mo  Mo3  1  0.233580  0.416144  0.272729  1
  Mo  Mo4  1  0.417592  0.547812  0.616706  1
  Mo  Mo5  1  0.453917  0.765121  0.791848  1
  Mo  Mo6  1  0.415229  0.547839  0.118929  1
  Mo  Mo7  1  0.454508  0.765392  0.291468  1
  Mo  Mo8  1  0.544975  0.237315  0.708246  1
  Mo  Mo9  1  0.582495  0.453649  0.883202  1
  Mo  Mo10  1  0.549214  0.235167  0.207544  1
  Mo  Mo11  1  0.587193  0.454047  0.381920  1
  Mo  Mo12  1  0.764716  0.588294  0.726170  1
  Mo  Mo13  1  0.768829  0.586312  0.227143  1
  Se  Se14  1  0.129553  0.733879  0.686319  1
  Se  Se15  1  0.130641  0.732153  0.188463  1
  Se  Se16  1  0.270213  0.624228  0.936496  1
  Se  Se17  1  0.212385  0.221274  0.609722  1
  Se  Se18  1  0.266291  0.616867  0.436409  1
  Se  Se19  1  0.218461  0.210993  0.111381  1
  Se  Se20  1  0.374287  0.129159  0.867944  1
  Se  Se21  1  0.375851  0.129749  0.365849  1
  Se  Se22  1  0.623134  0.872922  0.633539  1
  Se  Se23  1  0.629082  0.871417  0.134701  1
  Se  Se24  1  0.785544  0.779896  0.893135  1
  Se  Se25  1  0.730512  0.377564  0.564778  1
  Se  Se26  1  0.782096  0.787552  0.391503  1
  Se  Se27  1  0.734213  0.378253  0.065203  1
  Se  Se28  1  0.873007  0.267910  0.809452  1
  Se  Se29  1  0.871405  0.268788  0.312846  1
