# generated using pymatgen
data_Sc2Se3
_symmetry_space_group_name_H-M   'P 1'
_cell_length_a   7.71239102
_cell_length_b   11.68392646
_cell_length_c   6.77179648
_cell_angle_alpha   29.60697464
_cell_angle_beta   54.26838428
_cell_angle_gamma   59.46636310
_symmetry_Int_Tables_number   1
_chemical_formula_structural   Sc2Se3
_chemical_formula_sum   'Sc4 Se6'
_cell_volume   244.72532608
_cell_formula_units_Z   2
loop_
 _symmetry_equiv_pos_site_id
 _symmetry_equiv_pos_as_xyz
  1  'x, y, z'
loop_
 _atom_site_type_symbol
 _atom_site_label
 _atom_site_symmetry_multiplicity
 _atom_site_fract_x
 _atom_site_fract_y
 _atom_site_fract_z
 _atom_site_occupancy
  Sc  Sc0  1  0.999619  0.992968  0.012550  1
  Sc  Sc1  1  0.500042  0.341777  0.987064  1
  Sc  Sc2  1  0.499142  0.663261  0.005448  1
  Sc  Sc3  1  0.999604  0.670941  0.994555  1
  Se  Se4  1  0.247384  0.994601  0.522469  1
  Se  Se5  1  0.251398  0.338897  0.479145  1
  Se  Se6  1  0.248319  0.664780  0.503353  1
  Se  Se7  1  0.750029  0.995014  0.496538  1
  Se  Se8  1  0.748142  0.339619  0.503621  1
  Se  Se9  1  0.749130  0.668042  0.498799  1
