# generated using pymatgen
data_NaB(H4O3)2
_symmetry_space_group_name_H-M   'P 1'
_cell_length_a   6.59646843
_cell_length_b   9.05207062
_cell_length_c   6.12655101
_cell_angle_alpha   70.62509940
_cell_angle_beta   113.86170301
_cell_angle_gamma   107.02154507
_symmetry_Int_Tables_number   1
_chemical_formula_structural   NaB(H4O3)2
_chemical_formula_sum   'Na2 B2 H16 O12'
_cell_volume   310.23688328
_cell_formula_units_Z   2
loop_
 _symmetry_equiv_pos_site_id
 _symmetry_equiv_pos_as_xyz
  1  'x, y, z'
loop_
 _atom_site_type_symbol
 _atom_site_label
 _atom_site_symmetry_multiplicity
 _atom_site_fract_x
 _atom_site_fract_y
 _atom_site_fract_z
 _atom_site_occupancy
  Na  Na0  1  0.789156  0.854808  0.640591  1
  Na  Na1  1  0.210844  0.145192  0.359409  1
  B  B2  1  0.782005  0.631939  0.257359  1
  B  B3  1  0.217995  0.368061  0.742641  1
  H  H4  1  0.292234  0.911232  0.886501  1
  H  H5  1  0.707766  0.088768  0.113499  1
  H  H6  1  0.307706  0.705814  0.566600  1
  H  H7  1  0.692294  0.294186  0.433400  1
  H  H8  1  0.288025  0.539493  0.918228  1
  H  H9  1  0.711975  0.460507  0.081772  1
  H  H10  1  0.931632  0.162896  0.780357  1
  H  H11  1  0.068368  0.837104  0.219643  1
  H  H12  1  0.222970  0.071762  0.861136  1
  H  H13  1  0.777030  0.928238  0.138864  1
  H  H14  1  0.382408  0.718084  0.070497  1
  H  H15  1  0.617592  0.281916  0.929503  1
  H  H16  1  0.905432  0.566771  0.621408  1
  H  H17  1  0.094568  0.433229  0.378592  1
  H  H18  1  0.637229  0.269346  0.823718  1
  H  H19  1  0.362771  0.730654  0.176282  1
  O  O20  1  0.779723  0.754836  0.064404  1
  O  O21  1  0.220277  0.245164  0.935596  1
  O  O22  1  0.237585  0.529590  0.750826  1
  O  O23  1  0.762415  0.470410  0.249174  1
  O  O24  1  0.199437  0.897661  0.330835  1
  O  O25  1  0.800563  0.102339  0.669165  1
  O  O26  1  0.814907  0.643995  0.493666  1
  O  O27  1  0.185093  0.356005  0.506334  1
  O  O28  1  0.191994  0.986307  0.774517  1
  O  O29  1  0.808006  0.013693  0.225483  1
  O  O30  1  0.371014  0.797406  0.452098  1
  O  O31  1  0.628986  0.202594  0.547902  1
