# generated using pymatgen
data_Mo2H26C8N2O5F6
_symmetry_space_group_name_H-M   'P 1'
_cell_length_a   11.00594595
_cell_length_b   12.14027968
_cell_length_c   14.09209805
_cell_angle_alpha   90.00000000
_cell_angle_beta   90.00000000
_cell_angle_gamma   90.00000000
_symmetry_Int_Tables_number   1
_chemical_formula_structural   Mo2H26C8N2O5F6
_chemical_formula_sum   'Mo8 H104 C32 N8 O20 F24'
_cell_volume   1882.91937274
_cell_formula_units_Z   4
loop_
 _symmetry_equiv_pos_site_id
 _symmetry_equiv_pos_as_xyz
  1  'x, y, z'
loop_
 _atom_site_type_symbol
 _atom_site_label
 _atom_site_symmetry_multiplicity
 _atom_site_fract_x
 _atom_site_fract_y
 _atom_site_fract_z
 _atom_site_occupancy
  Mo  Mo0  1  0.453995  0.253764  0.782867  1
  Mo  Mo1  1  0.046005  0.753764  0.782867  1
  Mo  Mo2  1  0.073799  0.245463  0.718241  1
  Mo  Mo3  1  0.573799  0.245463  0.281759  1
  Mo  Mo4  1  0.926201  0.745463  0.281759  1
  Mo  Mo5  1  0.953995  0.253764  0.217133  1
  Mo  Mo6  1  0.426201  0.745463  0.718241  1
  Mo  Mo7  1  0.546005  0.753764  0.217133  1
  H  H8  1  0.911486  0.116968  0.526636  1
  H  H9  1  0.144253  0.049566  0.340076  1
  H  H10  1  0.626136  0.485359  0.261474  1
  H  H11  1  0.278894  0.370799  0.146716  1
  H  H12  1  0.379643  0.120364  0.069243  1
  H  H13  1  0.386399  0.515597  0.936349  1
  H  H14  1  0.785406  0.388283  0.444746  1
  H  H15  1  0.627900  0.476276  0.064164  1
  H  H16  1  0.891983  0.621142  0.973865  1
  H  H17  1  0.237728  0.615589  0.157634  1
  H  H18  1  0.625111  0.368944  0.555867  1
  H  H19  1  0.395568  0.475691  0.149614  1
  H  H20  1  0.897293  0.009822  0.438368  1
  H  H21  1  0.113601  0.015597  0.936349  1
  H  H22  1  0.614230  0.382621  0.964702  1
  H  H23  1  0.221106  0.870799  0.146716  1
  H  H24  1  0.372100  0.976276  0.935836  1
  H  H25  1  0.097710  0.472520  0.355430  1
  H  H26  1  0.608249  0.875503  0.944882  1
  H  H27  1  0.730868  0.386043  0.651759  1
  H  H28  1  0.266170  0.865049  0.950542  1
  H  H29  1  0.895568  0.475691  0.850386  1
  H  H30  1  0.898178  0.414606  0.534238  1
  H  H31  1  0.877148  0.010338  0.845713  1
  H  H32  1  0.391751  0.375503  0.055118  1
  H  H33  1  0.351734  0.648461  0.434856  1
  H  H34  1  0.727448  0.120357  0.061260  1
  H  H35  1  0.127176  0.012436  0.560711  1
  H  H36  1  0.203190  0.626425  0.563560  1
  H  H37  1  0.122852  0.510338  0.154287  1
  H  H38  1  0.851734  0.648461  0.565145  1
  H  H39  1  0.269132  0.886043  0.348241  1
  H  H40  1  0.766170  0.865049  0.049458  1
  H  H41  1  0.622852  0.510338  0.845713  1
  H  H42  1  0.233830  0.365049  0.950542  1
  H  H43  1  0.402290  0.972520  0.355430  1
  H  H44  1  0.126136  0.485359  0.738526  1
  H  H45  1  0.613601  0.015597  0.063651  1
  H  H46  1  0.714594  0.888283  0.444746  1
  H  H47  1  0.108249  0.875503  0.055118  1
  H  H48  1  0.588514  0.616968  0.526636  1
  H  H49  1  0.648266  0.148461  0.565145  1
  H  H50  1  0.873864  0.985359  0.261474  1
  H  H51  1  0.373864  0.985359  0.738526  1
  H  H52  1  0.620357  0.620364  0.930757  1
  H  H53  1  0.597710  0.472520  0.644570  1
  H  H54  1  0.737728  0.615589  0.842366  1
  H  H55  1  0.885770  0.882621  0.964702  1
  H  H56  1  0.902290  0.972520  0.644570  1
  H  H57  1  0.377148  0.010338  0.154287  1
  H  H58  1  0.355747  0.549566  0.340076  1
  H  H59  1  0.252950  0.418118  0.754545  1
  H  H60  1  0.285406  0.388283  0.555254  1
  H  H61  1  0.385770  0.882621  0.035298  1
  H  H62  1  0.120357  0.620364  0.069243  1
  H  H63  1  0.102707  0.509822  0.561632  1
  H  H64  1  0.747050  0.918118  0.245455  1
  H  H65  1  0.127900  0.476276  0.935836  1
  H  H66  1  0.230868  0.386043  0.348241  1
  H  H67  1  0.104432  0.975691  0.149614  1
  H  H68  1  0.148266  0.148461  0.434856  1
  H  H69  1  0.627176  0.012436  0.439289  1
  H  H70  1  0.273550  0.139756  0.353795  1
  H  H71  1  0.601822  0.914606  0.534238  1
  H  H72  1  0.773550  0.139756  0.646205  1
  H  H73  1  0.101821  0.914606  0.465762  1
  H  H74  1  0.125111  0.368944  0.444133  1
  H  H75  1  0.272552  0.620357  0.938740  1
  H  H76  1  0.398178  0.414606  0.465762  1
  H  H77  1  0.088514  0.616968  0.473364  1
  H  H78  1  0.604432  0.975691  0.850386  1
  H  H79  1  0.226450  0.639756  0.353795  1
  H  H80  1  0.726450  0.639756  0.646205  1
  H  H81  1  0.874889  0.868944  0.555867  1
  H  H82  1  0.397293  0.009822  0.561632  1
  H  H83  1  0.855747  0.549566  0.659924  1
  H  H84  1  0.602707  0.509822  0.438368  1
  H  H85  1  0.108017  0.121142  0.026135  1
  H  H86  1  0.703190  0.626425  0.436440  1
  H  H87  1  0.374889  0.868944  0.444133  1
  H  H88  1  0.752950  0.418118  0.245455  1
  H  H89  1  0.733830  0.365049  0.049458  1
  H  H90  1  0.772552  0.620357  0.061260  1
  H  H91  1  0.872100  0.976276  0.064164  1
  H  H92  1  0.762272  0.115589  0.842366  1
  H  H93  1  0.247050  0.918118  0.754545  1
  H  H94  1  0.796810  0.126425  0.436440  1
  H  H95  1  0.296810  0.126425  0.563560  1
  H  H96  1  0.886399  0.515597  0.063651  1
  H  H97  1  0.644253  0.049566  0.659924  1
  H  H98  1  0.372824  0.512436  0.560711  1
  H  H99  1  0.608017  0.121142  0.973865  1
  H  H100  1  0.227448  0.120357  0.938740  1
  H  H101  1  0.411486  0.116968  0.473364  1
  H  H102  1  0.214594  0.888283  0.555254  1
  H  H103  1  0.891751  0.375503  0.944882  1
  H  H104  1  0.721106  0.870799  0.853284  1
  H  H105  1  0.262272  0.115589  0.157634  1
  H  H106  1  0.872824  0.512436  0.439289  1
  H  H107  1  0.114230  0.382621  0.035298  1
  H  H108  1  0.879643  0.120364  0.930757  1
  H  H109  1  0.769132  0.886043  0.651759  1
  H  H110  1  0.391983  0.621142  0.026135  1
  H  H111  1  0.778894  0.370799  0.853284  1
  C  C112  1  0.167460  0.428272  0.395860  1
  C  C113  1  0.832531  0.569471  0.017510  1
  C  C114  1  0.151147  0.570380  0.518394  1
  C  C115  1  0.667469  0.069471  0.017510  1
  C  C116  1  0.830891  0.451881  0.486737  1
  C  C117  1  0.162713  0.924830  0.104327  1
  C  C118  1  0.297397  0.592982  0.390695  1
  C  C119  1  0.178740  0.566288  0.111557  1
  C  C120  1  0.167469  0.069471  0.982490  1
  C  C121  1  0.169109  0.951881  0.513263  1
  C  C122  1  0.332540  0.928272  0.395860  1
  C  C123  1  0.323350  0.925227  0.987219  1
  C  C124  1  0.702603  0.092982  0.609305  1
  C  C125  1  0.832540  0.928272  0.604140  1
  C  C126  1  0.678740  0.566288  0.888443  1
  C  C127  1  0.651147  0.570380  0.481606  1
  C  C128  1  0.848853  0.070380  0.481606  1
  C  C129  1  0.321260  0.066288  0.111557  1
  C  C130  1  0.332531  0.569471  0.982490  1
  C  C131  1  0.823350  0.925227  0.012781  1
  C  C132  1  0.662713  0.924830  0.895673  1
  C  C133  1  0.669109  0.951881  0.486737  1
  C  C134  1  0.330891  0.451881  0.513263  1
  C  C135  1  0.202603  0.092982  0.390695  1
  C  C136  1  0.348853  0.070380  0.518394  1
  C  C137  1  0.337287  0.424830  0.104327  1
  C  C138  1  0.676650  0.425227  0.012781  1
  C  C139  1  0.176650  0.425227  0.987219  1
  C  C140  1  0.797397  0.592982  0.609305  1
  C  C141  1  0.837287  0.424830  0.895673  1
  C  C142  1  0.667460  0.428272  0.604140  1
  C  C143  1  0.821260  0.066288  0.888443  1
  N  N144  1  0.743483  0.998017  0.953621  1
  N  N145  1  0.256517  0.498017  0.046379  1
  N  N146  1  0.737174  0.510264  0.545763  1
  N  N147  1  0.243483  0.998017  0.046379  1
  N  N148  1  0.262826  0.010264  0.454237  1
  N  N149  1  0.762826  0.010264  0.545763  1
  N  N150  1  0.237174  0.510264  0.454237  1
  N  N151  1  0.756517  0.498017  0.953621  1
  O  O152  1  0.971145  0.609493  0.291788  1
  O  O153  1  0.391759  0.769226  0.197495  1
  O  O154  1  0.442392  0.318592  0.307132  1
  O  O155  1  0.557608  0.818592  0.692868  1
  O  O156  1  0.102481  0.887623  0.797335  1
  O  O157  1  0.830005  0.914682  0.273139  1
  O  O158  1  0.528855  0.109493  0.291788  1
  O  O159  1  0.108241  0.269226  0.197495  1
  O  O160  1  0.471145  0.609493  0.708212  1
  O  O161  1  0.608241  0.269226  0.802505  1
  O  O162  1  0.057608  0.818592  0.307132  1
  O  O163  1  0.330005  0.914682  0.726861  1
  O  O164  1  0.897519  0.387623  0.202665  1
  O  O165  1  0.602481  0.887623  0.202665  1
  O  O166  1  0.942392  0.318592  0.692868  1
  O  O167  1  0.891759  0.769226  0.802505  1
  O  O168  1  0.669995  0.414682  0.273139  1
  O  O169  1  0.397519  0.387623  0.797335  1
  O  O170  1  0.169995  0.414682  0.726861  1
  O  O171  1  0.028855  0.109493  0.708212  1
  F  F172  1  0.142948  0.254171  0.590341  1
  F  F173  1  0.242177  0.708417  0.753908  1
  F  F174  1  0.062028  0.257199  0.855581  1
  F  F175  1  0.038335  0.586062  0.762376  1
  F  F176  1  0.089860  0.707858  0.911660  1
  F  F177  1  0.757823  0.208417  0.246092  1
  F  F178  1  0.857052  0.754171  0.409659  1
  F  F179  1  0.461665  0.086062  0.762376  1
  F  F180  1  0.742177  0.708417  0.246092  1
  F  F181  1  0.457148  0.255744  0.645530  1
  F  F182  1  0.589860  0.707858  0.088340  1
  F  F183  1  0.910140  0.207858  0.088340  1
  F  F184  1  0.437972  0.757199  0.855581  1
  F  F185  1  0.257823  0.208417  0.753908  1
  F  F186  1  0.357052  0.754171  0.590341  1
  F  F187  1  0.642948  0.254171  0.409659  1
  F  F188  1  0.961665  0.086062  0.237624  1
  F  F189  1  0.957148  0.255744  0.354470  1
  F  F190  1  0.410140  0.207858  0.911660  1
  F  F191  1  0.542852  0.755744  0.354470  1
  F  F192  1  0.562028  0.257199  0.144419  1
  F  F193  1  0.937972  0.757199  0.144419  1
  F  F194  1  0.538335  0.586062  0.237624  1
  F  F195  1  0.042852  0.755744  0.645530  1
