# generated using pymatgen
data_HPbCSNO
_symmetry_space_group_name_H-M   'P 1'
_cell_length_a   11.28014118
_cell_length_b   8.74748639
_cell_length_c   4.29224578
_cell_angle_alpha   90.00000000
_cell_angle_beta   90.00000000
_cell_angle_gamma   90.00000000
_symmetry_Int_Tables_number   1
_chemical_formula_structural   HPbCSNO
_chemical_formula_sum   'H4 Pb4 C4 S4 N4 O4'
_cell_volume   423.52825900
_cell_formula_units_Z   4
loop_
 _symmetry_equiv_pos_site_id
 _symmetry_equiv_pos_as_xyz
  1  'x, y, z'
loop_
 _atom_site_type_symbol
 _atom_site_label
 _atom_site_symmetry_multiplicity
 _atom_site_fract_x
 _atom_site_fract_y
 _atom_site_fract_z
 _atom_site_occupancy
  H  H0  1  0.439679  0.308365  0.250000  1
  H  H1  1  0.060321  0.808365  0.250000  1
  H  H2  1  0.560321  0.691635  0.750000  1
  H  H3  1  0.939679  0.191635  0.750000  1
  Pb  Pb4  1  0.395819  0.637257  0.250000  1
  Pb  Pb5  1  0.104181  0.137257  0.250000  1
  Pb  Pb6  1  0.604181  0.362743  0.750000  1
  Pb  Pb7  1  0.895819  0.862743  0.750000  1
  C  C8  1  0.624890  0.946517  0.250000  1
  C  C9  1  0.875110  0.446517  0.250000  1
  C  C10  1  0.375110  0.053483  0.750000  1
  C  C11  1  0.124890  0.553483  0.750000  1
  S  S12  1  0.727239  0.078775  0.250000  1
  S  S13  1  0.772761  0.578775  0.250000  1
  S  S14  1  0.272761  0.921225  0.750000  1
  S  S15  1  0.227239  0.421225  0.750000  1
  N  N16  1  0.553770  0.846658  0.250000  1
  N  N17  1  0.946230  0.346658  0.250000  1
  N  N18  1  0.446230  0.153342  0.750000  1
  N  N19  1  0.053770  0.653342  0.750000  1
  O  O20  1  0.496044  0.392878  0.250000  1
  O  O21  1  0.003956  0.892878  0.250000  1
  O  O22  1  0.503956  0.607122  0.750000  1
  O  O23  1  0.996044  0.107122  0.750000  1
