# generated using pymatgen
data_HCl
_symmetry_space_group_name_H-M   'P 1'
_cell_length_a   4.09788338
_cell_length_b   5.35004150
_cell_length_c   4.07517149
_cell_angle_alpha   49.29518029
_cell_angle_beta   81.77739672
_cell_angle_gamma   48.92742299
_symmetry_Int_Tables_number   1
_chemical_formula_structural   HCl
_chemical_formula_sum   'H1 Cl1'
_cell_volume   44.23391435
_cell_formula_units_Z   1
loop_
 _symmetry_equiv_pos_site_id
 _symmetry_equiv_pos_as_xyz
  1  'x, y, z'
loop_
 _atom_site_type_symbol
 _atom_site_label
 _atom_site_symmetry_multiplicity
 _atom_site_fract_x
 _atom_site_fract_y
 _atom_site_fract_z
 _atom_site_occupancy
  H  H0  1  0.000000  0.000000  0.000000  1
  Cl  Cl1  1  0.500000  0.500000  0.500000  1
