# generated using pymatgen
data_KPH3NO3
_symmetry_space_group_name_H-M   'P 1'
_cell_length_a   6.16385346
_cell_length_b   6.92382625
_cell_length_c   10.33148311
_cell_angle_alpha   90.00000000
_cell_angle_beta   89.47255630
_cell_angle_gamma   90.00000000
_symmetry_Int_Tables_number   1
_chemical_formula_structural   KPH3NO3
_chemical_formula_sum   'K4 P4 H12 N4 O12'
_cell_volume   440.90267520
_cell_formula_units_Z   4
loop_
 _symmetry_equiv_pos_site_id
 _symmetry_equiv_pos_as_xyz
  1  'x, y, z'
loop_
 _atom_site_type_symbol
 _atom_site_label
 _atom_site_symmetry_multiplicity
 _atom_site_fract_x
 _atom_site_fract_y
 _atom_site_fract_z
 _atom_site_occupancy
  K  K0  1  0.248639  0.488099  0.708820  1
  K  K1  1  0.748639  0.011901  0.208819  1
  K  K2  1  0.751361  0.511901  0.291181  1
  K  K3  1  0.251361  0.988099  0.791180  1
  P  P4  1  0.250311  0.840179  0.411446  1
  P  P5  1  0.750311  0.659821  0.911446  1
  P  P6  1  0.749689  0.159821  0.588554  1
  P  P7  1  0.249689  0.340179  0.088554  1
  H  H8  1  0.186398  0.164178  0.323507  1
  H  H9  1  0.686398  0.335822  0.823507  1
  H  H10  1  0.813602  0.835822  0.676493  1
  H  H11  1  0.313602  0.664178  0.176493  1
  H  H12  1  0.150812  0.152472  0.487494  1
  H  H13  1  0.650812  0.347528  0.987494  1
  H  H14  1  0.849188  0.847528  0.512506  1
  H  H15  1  0.349188  0.652472  0.012506  1
  H  H16  1  0.407721  0.150380  0.421801  1
  H  H17  1  0.907721  0.349620  0.921801  1
  H  H18  1  0.592279  0.849620  0.578199  1
  H  H19  1  0.092279  0.650380  0.078199  1
  N  N20  1  0.247331  0.102725  0.409330  1
  N  N21  1  0.747331  0.397275  0.909330  1
  N  N22  1  0.752669  0.897275  0.590670  1
  N  N23  1  0.252669  0.602725  0.090670  1
  O  O24  1  0.419632  0.784714  0.309518  1
  O  O25  1  0.919632  0.715286  0.809518  1
  O  O26  1  0.580368  0.215286  0.690482  1
  O  O27  1  0.080368  0.284714  0.190482  1
  O  O28  1  0.016194  0.788439  0.377423  1
  O  O29  1  0.516194  0.711561  0.877423  1
  O  O30  1  0.983806  0.211561  0.622577  1
  O  O31  1  0.483806  0.288439  0.122577  1
  O  O32  1  0.315828  0.796876  0.550373  1
  O  O33  1  0.815828  0.703124  0.050373  1
  O  O34  1  0.684172  0.203124  0.449627  1
  O  O35  1  0.184172  0.296876  0.949627  1
