# generated using pymatgen
data_Hf2N2O
_symmetry_space_group_name_H-M   'P 1'
_cell_length_a   8.71159174
_cell_length_b   8.74483129
_cell_length_c   8.73444168
_cell_angle_alpha   109.41747602
_cell_angle_beta   109.43012704
_cell_angle_gamma   109.54286930
_symmetry_Int_Tables_number   1
_chemical_formula_structural   Hf2N2O
_chemical_formula_sum   'Hf16 N16 O8'
_cell_volume   512.37267870
_cell_formula_units_Z   8
loop_
 _symmetry_equiv_pos_site_id
 _symmetry_equiv_pos_as_xyz
  1  'x, y, z'
loop_
 _atom_site_type_symbol
 _atom_site_label
 _atom_site_symmetry_multiplicity
 _atom_site_fract_x
 _atom_site_fract_y
 _atom_site_fract_z
 _atom_site_occupancy
  Hf  Hf0  1  0.217706  0.759368  0.970176  1
  Hf  Hf1  1  0.988459  0.490058  0.481501  1
  Hf  Hf2  1  0.031056  0.778662  0.251837  1
  Hf  Hf3  1  0.464925  0.714990  0.756541  1
  Hf  Hf4  1  0.252060  0.533153  0.292521  1
  Hf  Hf5  1  0.243835  0.040391  0.781059  1
  Hf  Hf6  1  0.997396  0.987202  0.990003  1
  Hf  Hf7  1  0.283079  0.248774  0.535152  1
  Hf  Hf8  1  0.717275  0.748669  0.459383  1
  Hf  Hf9  1  0.507977  0.018468  0.510184  1
  Hf  Hf10  1  0.496325  0.505920  0.010295  1
  Hf  Hf11  1  0.742728  0.961556  0.210792  1
  Hf  Hf12  1  0.755624  0.468114  0.716109  1
  Hf  Hf13  1  0.536186  0.286950  0.258453  1
  Hf  Hf14  1  0.958983  0.203805  0.739886  1
  Hf  Hf15  1  0.785346  0.246326  0.033308  1
  N  N16  1  0.257946  0.981149  0.532148  1
  N  N17  1  0.229985  0.275955  0.763243  1
  N  N18  1  0.231738  0.456485  0.490875  1
  N  N19  1  0.727005  0.963173  0.948986  1
  N  N20  1  0.461882  0.734321  0.006948  1
  N  N21  1  0.451519  0.487910  0.225319  1
  N  N22  1  0.275137  0.032044  0.043186  1
  N  N23  1  0.487156  0.228946  0.457315  1
  N  N24  1  0.955287  0.727256  0.968592  1
  N  N25  1  0.730501  0.241377  0.775340  1
  N  N26  1  0.966019  0.957660  0.730343  1
  N  N27  1  0.779102  0.549849  0.516587  1
  N  N28  1  0.773405  0.727804  0.237217  1
  N  N29  1  0.737185  0.011482  0.465854  1
  N  N30  1  0.760658  0.227702  0.272042  1
  N  N31  1  0.991404  0.531899  0.258371  1
  O  O32  1  0.014256  0.468308  0.739677  1
  O  O33  1  0.240260  0.771378  0.729798  1
  O  O34  1  0.035693  0.050019  0.274015  1
  O  O35  1  0.277291  0.760568  0.225917  1
  O  O36  1  0.047238  0.273350  0.038609  1
  O  O37  1  0.505491  0.771871  0.541973  1
  O  O38  1  0.548174  0.513576  0.772812  1
  O  O39  1  0.536713  0.263509  0.987633  1
