# generated using pymatgen
data_KICl4
_symmetry_space_group_name_H-M   'P 1'
_cell_length_a   5.18947276
_cell_length_b   13.08867277
_cell_length_c   14.20246116
_cell_angle_alpha   90.00000000
_cell_angle_beta   90.00000000
_cell_angle_gamma   94.45344052
_symmetry_Int_Tables_number   1
_chemical_formula_structural   KICl4
_chemical_formula_sum   'K4 I4 Cl16'
_cell_volume   961.76558961
_cell_formula_units_Z   4
loop_
 _symmetry_equiv_pos_site_id
 _symmetry_equiv_pos_as_xyz
  1  'x, y, z'
loop_
 _atom_site_type_symbol
 _atom_site_label
 _atom_site_symmetry_multiplicity
 _atom_site_fract_x
 _atom_site_fract_y
 _atom_site_fract_z
 _atom_site_occupancy
  K  K0  1  0.777299  0.588874  0.348845  1
  K  K1  1  0.722701  0.911126  0.848845  1
  K  K2  1  0.277299  0.088874  0.151155  1
  K  K3  1  0.222701  0.411126  0.651155  1
  I  I4  1  0.536103  0.210439  0.431518  1
  I  I5  1  0.036103  0.710439  0.068482  1
  I  I6  1  0.963897  0.289561  0.931518  1
  I  I7  1  0.463897  0.789561  0.568482  1
  Cl  Cl8  1  0.213234  0.451240  0.886048  1
  Cl  Cl9  1  0.644385  0.807727  0.404359  1
  Cl  Cl10  1  0.355615  0.192273  0.595641  1
  Cl  Cl11  1  0.286766  0.048760  0.386048  1
  Cl  Cl12  1  0.718703  0.112485  0.979329  1
  Cl  Cl13  1  0.855615  0.692273  0.904359  1
  Cl  Cl14  1  0.786766  0.548760  0.113952  1
  Cl  Cl15  1  0.144385  0.307727  0.095641  1
  Cl  Cl16  1  0.218703  0.612485  0.520671  1
  Cl  Cl17  1  0.713234  0.951240  0.613952  1
  Cl  Cl18  1  0.716115  0.225449  0.265356  1
  Cl  Cl19  1  0.781297  0.387515  0.479329  1
  Cl  Cl20  1  0.281297  0.887515  0.020671  1
  Cl  Cl21  1  0.283885  0.774551  0.734645  1
  Cl  Cl22  1  0.216115  0.725449  0.234645  1
  Cl  Cl23  1  0.783885  0.274551  0.765355  1
