# generated using pymatgen
data_Ho14(PbS8)3
_symmetry_space_group_name_H-M   'P 1'
_cell_length_a   7.27092182
_cell_length_b   7.27187815
_cell_length_c   21.82828360
_cell_angle_alpha   109.21903213
_cell_angle_beta   109.23548370
_cell_angle_gamma   109.90716735
_symmetry_Int_Tables_number   1
_chemical_formula_structural   Ho14(PbS8)3
_chemical_formula_sum   'Ho14 Pb3 S24'
_cell_volume   888.98967897
_cell_formula_units_Z   1
loop_
 _symmetry_equiv_pos_site_id
 _symmetry_equiv_pos_as_xyz
  1  'x, y, z'
loop_
 _atom_site_type_symbol
 _atom_site_label
 _atom_site_symmetry_multiplicity
 _atom_site_fract_x
 _atom_site_fract_y
 _atom_site_fract_z
 _atom_site_occupancy
  Ho  Ho0  1  0.103920  0.736305  0.947314  1
  Ho  Ho1  1  0.251279  0.607168  0.788690  1
  Ho  Ho2  1  0.139188  0.757893  0.628150  1
  Ho  Ho3  1  0.375510  0.252847  0.871510  1
  Ho  Ho4  1  0.257341  0.624506  0.462177  1
  Ho  Ho5  1  0.114043  0.744442  0.287233  1
  Ho  Ho6  1  0.744952  0.884574  0.712566  1
  Ho  Ho7  1  0.400368  0.262024  0.554713  1
  Ho  Ho8  1  0.869667  0.115679  0.913283  1
  Ho  Ho9  1  0.249072  0.617793  0.121818  1
  Ho  Ho10  1  0.756825  0.886859  0.379957  1
  Ho  Ho11  1  0.381587  0.250594  0.211345  1
  Ho  Ho12  1  0.881064  0.131973  0.588217  1
  Ho  Ho13  1  0.739377  0.870114  0.038660  1
  Pb  Pb14  1  0.625933  0.380018  0.418876  1
  Pb  Pb15  1  0.617154  0.366263  0.079644  1
  Pb  Pb16  1  0.878148  0.126788  0.250619  1
  S  S17  1  0.009122  0.874739  0.835079  1
  S  S18  1  0.490773  0.983755  0.946916  1
  S  S19  1  0.127206  0.127721  0.712955  1
  S  S20  1  0.352773  0.507308  0.667888  1
  S  S21  1  0.646824  0.650700  0.885304  1
  S  S22  1  0.495147  0.988028  0.787870  1
  S  S23  1  0.145793  0.131810  0.385495  1
  S  S24  1  0.361005  0.520066  0.332625  1
  S  S25  1  0.498704  0.992669  0.616762  1
  S  S26  1  0.643252  0.649298  0.553549  1
  S  S27  1  0.871335  0.505341  0.665917  1
  S  S28  1  0.507673  0.995988  0.459622  1
  S  S29  1  0.478558  0.987031  0.115137  1
  S  S30  1  0.007357  0.351628  0.832860  1
  S  S31  1  0.121044  0.127474  0.041794  1
  S  S32  1  0.350154  0.501609  0.995679  1
  S  S33  1  0.486243  0.983992  0.283679  1
  S  S34  1  0.635283  0.636333  0.216835  1
  S  S35  1  0.013931  0.881886  0.506232  1
  S  S36  1  0.871093  0.524921  0.338732  1
  S  S37  1  0.015228  0.361051  0.503947  1
  S  S38  1  0.010406  0.854108  0.161792  1
  S  S39  1  0.867406  0.494574  0.995277  1
  S  S40  1  0.018390  0.358400  0.166479  1
