# generated using pymatgen
data_TlFe(MoO4)2
_symmetry_space_group_name_H-M   'P 1'
_cell_length_a   5.78875427
_cell_length_b   8.95242321
_cell_length_c   15.12194830
_cell_angle_alpha   89.95138619
_cell_angle_beta   90.00020017
_cell_angle_gamma   90.00017221
_symmetry_Int_Tables_number   1
_chemical_formula_structural   TlFe(MoO4)2
_chemical_formula_sum   'Tl4 Fe4 Mo8 O32'
_cell_volume   783.67016240
_cell_formula_units_Z   4
loop_
 _symmetry_equiv_pos_site_id
 _symmetry_equiv_pos_as_xyz
  1  'x, y, z'
loop_
 _atom_site_type_symbol
 _atom_site_label
 _atom_site_symmetry_multiplicity
 _atom_site_fract_x
 _atom_site_fract_y
 _atom_site_fract_z
 _atom_site_occupancy
  Tl  Tl0  1  0.750000  0.937052  0.620895  1
  Tl  Tl1  1  0.250000  0.062399  0.378629  1
  Tl  Tl2  1  0.749999  0.561349  0.120363  1
  Tl  Tl3  1  0.250001  0.438555  0.879323  1
  Fe  Fe4  1  0.249999  0.189094  0.118510  1
  Fe  Fe5  1  0.249996  0.311631  0.617456  1
  Fe  Fe6  1  0.749999  0.811702  0.883086  1
  Fe  Fe7  1  0.750008  0.687766  0.382693  1
  Mo  Mo8  1  0.250002  0.496775  0.282534  1
  Mo  Mo9  1  0.249998  0.795293  0.031837  1
  Mo  Mo10  1  0.250000  0.004820  0.781594  1
  Mo  Mo11  1  0.749999  0.295974  0.468475  1
  Mo  Mo12  1  0.250001  0.703413  0.528803  1
  Mo  Mo13  1  0.749998  0.204840  0.968805  1
  Mo  Mo14  1  0.749999  0.505245  0.718446  1
  Mo  Mo15  1  0.750001  0.993735  0.219219  1
  O  O16  1  0.750000  0.007283  0.947390  1
  O  O17  1  0.998982  0.762345  0.465528  1
  O  O18  1  0.498380  0.238581  0.532387  1
  O  O19  1  0.750000  0.885925  0.320886  1
  O  O20  1  0.510016  0.893363  0.796482  1
  O  O21  1  0.250000  0.506582  0.551631  1
  O  O22  1  0.509051  0.607928  0.297227  1
  O  O23  1  0.749999  0.614261  0.820610  1
  O  O24  1  0.989983  0.893363  0.796482  1
  O  O25  1  0.009949  0.393999  0.703829  1
  O  O26  1  0.249999  0.387835  0.180365  1
  O  O27  1  0.750000  0.635208  0.632711  1
  O  O28  1  0.501570  0.736047  0.967808  1
  O  O29  1  0.750000  0.862612  0.133607  1
  O  O30  1  0.249999  0.111831  0.679178  1
  O  O31  1  0.990948  0.607927  0.297227  1
  O  O32  1  0.750000  0.492206  0.447098  1
  O  O33  1  0.001260  0.263602  0.032642  1
  O  O34  1  0.498740  0.263601  0.032643  1
  O  O35  1  0.250001  0.992277  0.052617  1
  O  O36  1  0.001621  0.238581  0.532387  1
  O  O37  1  0.250000  0.366291  0.368387  1
  O  O38  1  0.011089  0.104454  0.204631  1
  O  O39  1  0.250001  0.696115  0.131838  1
  O  O40  1  0.998431  0.736047  0.967808  1
  O  O41  1  0.501019  0.762344  0.465528  1
  O  O42  1  0.749999  0.303985  0.868691  1
  O  O43  1  0.250002  0.805938  0.627779  1
  O  O44  1  0.488910  0.104454  0.204631  1
  O  O45  1  0.750000  0.195228  0.368482  1
  O  O46  1  0.250001  0.136145  0.866993  1
  O  O47  1  0.490052  0.393999  0.703829  1
