# generated using pymatgen
data_Ba3InAs3
_symmetry_space_group_name_H-M   'P 1'
_cell_length_a   4.67979905
_cell_length_b   14.20530958
_cell_length_c   14.70589085
_cell_angle_alpha   89.99986368
_cell_angle_beta   90.00001244
_cell_angle_gamma   90.00003928
_symmetry_Int_Tables_number   1
_chemical_formula_structural   Ba3InAs3
_chemical_formula_sum   'Ba12 In4 As12'
_cell_volume   977.61812777
_cell_formula_units_Z   4
loop_
 _symmetry_equiv_pos_site_id
 _symmetry_equiv_pos_as_xyz
  1  'x, y, z'
loop_
 _atom_site_type_symbol
 _atom_site_label
 _atom_site_symmetry_multiplicity
 _atom_site_fract_x
 _atom_site_fract_y
 _atom_site_fract_z
 _atom_site_occupancy
  Ba  Ba0  1  0.750004  0.922610  0.892477  1
  Ba  Ba1  1  0.750002  0.635557  0.996850  1
  Ba  Ba2  1  0.750003  0.722338  0.702343  1
  Ba  Ba3  1  0.250003  0.777663  0.202345  1
  Ba  Ba4  1  0.250003  0.864441  0.496850  1
  Ba  Ba5  1  0.750002  0.422611  0.607524  1
  Ba  Ba6  1  0.249993  0.277661  0.297656  1
  Ba  Ba7  1  0.250002  0.364445  0.003151  1
  Ba  Ba8  1  0.749997  0.222337  0.797656  1
  Ba  Ba9  1  0.250001  0.577389  0.392475  1
  Ba  Ba10  1  0.249996  0.077390  0.107523  1
  Ba  Ba11  1  0.749995  0.135556  0.503152  1
  In  In12  1  0.249999  0.055225  0.703009  1
  In  In13  1  0.250000  0.555226  0.796991  1
  In  In14  1  0.750001  0.944775  0.296991  1
  In  In15  1  0.749999  0.444774  0.203009  1
  As  As16  1  0.250001  0.734184  0.872658  1
  As  As17  1  0.249999  0.234185  0.627342  1
  As  As18  1  0.250000  0.088502  0.884900  1
  As  As19  1  0.750000  0.765816  0.372657  1
  As  As20  1  0.749998  0.265816  0.127342  1
  As  As21  1  0.250000  0.588503  0.615099  1
  As  As22  1  0.750000  0.411498  0.384900  1
  As  As23  1  0.750000  0.911498  0.115099  1
  As  As24  1  0.250001  0.542312  0.149292  1
  As  As25  1  0.749999  0.957689  0.649292  1
  As  As26  1  0.749998  0.457689  0.850708  1
  As  As27  1  0.250001  0.042311  0.350709  1
