# generated using pymatgen
data_KC2S2N(O2F3)2
_symmetry_space_group_name_H-M   'P 1'
_cell_length_a   13.01701934
_cell_length_b   13.73327920
_cell_length_c   22.72611418
_cell_angle_alpha   90.00000000
_cell_angle_beta   90.00000000
_cell_angle_gamma   90.00000000
_symmetry_Int_Tables_number   1
_chemical_formula_structural   KC2S2N(O2F3)2
_chemical_formula_sum   'K16 C32 S32 N16 O64 F96'
_cell_volume   4062.66473045
_cell_formula_units_Z   16
loop_
 _symmetry_equiv_pos_site_id
 _symmetry_equiv_pos_as_xyz
  1  'x, y, z'
loop_
 _atom_site_type_symbol
 _atom_site_label
 _atom_site_symmetry_multiplicity
 _atom_site_fract_x
 _atom_site_fract_y
 _atom_site_fract_z
 _atom_site_occupancy
  C  C0  1  0.855337  0.714586  0.577472  1
  C  C1  1  0.355337  0.785414  0.922528  1
  C  C2  1  0.644663  0.714586  0.422528  1
  C  C3  1  0.144663  0.785414  0.077472  1
  C  C4  1  0.144663  0.285414  0.422528  1
  C  C5  1  0.644663  0.214586  0.077472  1
  C  C6  1  0.355337  0.285414  0.577472  1
  C  C7  1  0.855337  0.214586  0.922528  1
  C  C8  1  0.122366  0.567944  0.582499  1
  C  C9  1  0.622366  0.932056  0.917501  1
  C  C10  1  0.377634  0.567944  0.417500  1
  C  C11  1  0.877634  0.932056  0.082500  1
  C  C12  1  0.877634  0.432056  0.417500  1
  C  C13  1  0.377634  0.067944  0.082500  1
  C  C14  1  0.622366  0.432056  0.582499  1
  C  C15  1  0.122366  0.067944  0.917501  1
  C  C16  1  0.143652  0.499674  0.918177  1
  C  C17  1  0.643652  1.000326  0.581823  1
  C  C18  1  0.356348  0.499674  0.081823  1
  C  C19  1  0.856348  1.000326  0.418177  1
  C  C20  1  0.856348  0.500326  0.081823  1
  C  C21  1  0.356348  -0.000326  0.418177  1
  C  C22  1  0.643652  0.500326  0.918177  1
  C  C23  1  0.143652  -0.000326  0.581823  1
  C  C24  1  0.927252  0.719338  0.910835  1
  C  C25  1  0.427252  0.780662  0.589165  1
  C  C26  1  0.572748  0.719338  0.089165  1
  C  C27  1  0.072748  0.780662  0.410835  1
  C  C28  1  0.072748  0.280662  0.089165  1
  C  C29  1  0.572748  0.219338  0.410835  1
  C  C30  1  0.427252  0.280662  0.910835  1
  C  C31  1  0.927252  0.219338  0.589165  1
  N  N32  1  0.011256  0.689401  0.657349  1
  N  N33  1  0.511256  0.810599  0.842651  1
  N  N34  1  0.488744  0.689401  0.342651  1
  N  N35  1  0.988744  0.810599  0.157349  1
  N  N36  1  0.988744  0.310599  0.342651  1
  N  N37  1  0.488744  0.189401  0.157349  1
  N  N38  1  0.511256  0.310599  0.657349  1
  N  N39  1  0.011256  0.189401  0.842651  1
  N  N40  1  0.078132  0.638237  0.839585  1
  N  N41  1  0.578132  0.861763  0.660415  1
  N  N42  1  0.421868  0.638237  0.160415  1
  N  N43  1  0.921868  0.861763  0.339585  1
  N  N44  1  0.921868  0.361763  0.160415  1
  N  N45  1  0.421868  0.138237  0.339585  1
  N  N46  1  0.578132  0.361763  0.839585  1
  N  N47  1  0.078132  0.138237  0.660415  1
  O  O48  1  0.841150  0.592699  0.668239  1
  O  O49  1  0.341150  0.907301  0.831761  1
  O  O50  1  0.658850  0.592699  0.331761  1
  O  O51  1  0.158850  0.907301  0.168239  1
  O  O52  1  0.158850  0.407301  0.331761  1
  O  O53  1  0.658850  0.092699  0.168239  1
  O  O54  1  0.341150  0.407301  0.668239  1
  O  O55  1  0.841150  0.092699  0.831761  1
  O  O56  1  0.849344  0.768962  0.688303  1
  O  O57  1  0.349344  0.731038  0.811697  1
  O  O58  1  0.650656  0.768962  0.311698  1
  O  O59  1  0.150656  0.731038  0.188303  1
  O  O60  1  0.150656  0.231038  0.311698  1
  O  O61  1  0.650656  0.268962  0.188303  1
  O  O62  1  0.349344  0.231038  0.688303  1
  O  O63  1  0.849344  0.268962  0.811697  1
  O  O64  1  0.185425  0.641484  0.684180  1
  O  O65  1  0.685425  0.858516  0.815820  1
  O  O66  1  0.314575  0.641484  0.315820  1
  O  O67  1  0.814575  0.858516  0.184180  1
  O  O68  1  0.814575  0.358516  0.315820  1
  O  O69  1  0.314575  0.141484  0.184180  1
  O  O70  1  0.685425  0.358516  0.684180  1
  O  O71  1  0.185425  0.141484  0.815820  1
  O  O72  1  0.052172  0.511755  0.686898  1
  O  O73  1  0.552172  0.988245  0.813102  1
  O  O74  1  0.447828  0.511755  0.313102  1
  O  O75  1  0.947828  0.988245  0.186898  1
  O  O76  1  0.947828  0.488245  0.313102  1
  O  O77  1  0.447828  0.011755  0.186898  1
  O  O78  1  0.552172  0.488245  0.686898  1
  O  O79  1  0.052172  0.011755  0.813102  1
  O  O80  1  0.198566  0.509633  0.807362  1
  O  O81  1  0.698566  0.990367  0.692638  1
  O  O82  1  0.301434  0.509633  0.192638  1
  O  O83  1  0.801434  0.990367  0.307362  1
  O  O84  1  0.801434  0.490367  0.192638  1
  O  O85  1  0.301434  0.009633  0.307362  1
  O  O86  1  0.698566  0.490367  0.807362  1
  O  O87  1  0.198566  0.009633  0.692638  1
  O  O88  1  0.020612  0.458295  0.828369  1
  O  O89  1  0.520612  0.041705  0.671631  1
  O  O90  1  0.479388  0.458295  0.171631  1
  O  O91  1  0.979388  0.041705  0.328369  1
  O  O92  1  0.979388  0.541705  0.171631  1
  O  O93  1  0.479388  0.958295  0.328369  1
  O  O94  1  0.520612  0.541705  0.828369  1
  O  O95  1  0.020612  0.958295  0.671631  1
  O  O96  1  0.886670  0.630586  0.809410  1
  O  O97  1  0.386670  0.869414  0.690590  1
  O  O98  1  0.613330  0.630586  0.190590  1
  O  O99  1  0.113330  0.869414  0.309410  1
  O  O100  1  0.113330  0.369414  0.190590  1
  O  O101  1  0.613330  0.130586  0.309410  1
  O  O102  1  0.386670  0.369414  0.809410  1
  O  O103  1  0.886670  0.130586  0.690590  1
  O  O104  1  0.987417  0.784472  0.807841  1
  O  O105  1  0.487417  0.715528  0.692159  1
  O  O106  1  0.512583  0.784472  0.192159  1
  O  O107  1  0.012583  0.715528  0.307841  1
  O  O108  1  0.012583  0.215528  0.192159  1
  O  O109  1  0.512583  0.284472  0.307841  1
  O  O110  1  0.487417  0.215528  0.807841  1
  O  O111  1  0.987417  0.284472  0.692159  1
  F  F112  1  0.884635  0.641623  0.541462  1
  F  F113  1  0.384635  0.858377  0.958538  1
  F  F114  1  0.615365  0.641623  0.458538  1
  F  F115  1  0.115365  0.858377  0.041462  1
  F  F116  1  0.115365  0.358377  0.458538  1
  F  F117  1  0.615365  0.141623  0.041462  1
  F  F118  1  0.384635  0.358377  0.541462  1
  F  F119  1  0.884635  0.141623  0.958538  1
  F  F120  1  0.752161  0.724705  0.574146  1
  F  F121  1  0.252161  0.775295  0.925854  1
  F  F122  1  0.747839  0.724705  0.425854  1
  F  F123  1  0.247839  0.775295  0.074146  1
  F  F124  1  0.247839  0.275295  0.425854  1
  F  F125  1  0.747839  0.224705  0.074146  1
  F  F126  1  0.252161  0.275295  0.574146  1
  F  F127  1  0.752161  0.224705  0.925854  1
  F  F128  1  0.900631  0.797973  0.560170  1
  F  F129  1  0.400631  0.702027  0.939830  1
  F  F130  1  0.599369  0.797973  0.439830  1
  F  F131  1  0.099369  0.702027  0.060170  1
  F  F132  1  0.099369  0.202027  0.439830  1
  F  F133  1  0.599369  0.297973  0.060170  1
  F  F134  1  0.400631  0.202027  0.560170  1
  F  F135  1  0.900631  0.297973  0.939830  1
  F  F136  1  0.209675  0.514956  0.582040  1
  F  F137  1  0.709675  0.985044  0.917960  1
  F  F138  1  0.290325  0.514956  0.417960  1
  F  F139  1  0.790325  0.985044  0.082040  1
  F  F140  1  0.790325  0.485044  0.417960  1
  F  F141  1  0.290325  0.014956  0.082040  1
  F  F142  1  0.709675  0.485044  0.582040  1
  F  F143  1  0.209675  0.014956  0.917960  1
  F  F144  1  0.045921  0.514177  0.559159  1
  F  F145  1  0.545921  0.985823  0.940841  1
  F  F146  1  0.454079  0.514177  0.440841  1
  F  F147  1  0.954079  0.985823  0.059159  1
  F  F148  1  0.954079  0.485823  0.440841  1
  F  F149  1  0.454079  0.014177  0.059159  1
  F  F150  1  0.545921  0.485823  0.559159  1
  F  F151  1  0.045921  0.014177  0.940841  1
  F  F152  1  0.136218  0.648800  0.549694  1
  F  F153  1  0.636218  0.851200  0.950306  1
  F  F154  1  0.363782  0.648800  0.450306  1
  F  F155  1  0.863782  0.851200  0.049694  1
  F  F156  1  0.863782  0.351200  0.450306  1
  F  F157  1  0.363782  0.148800  0.049694  1
  F  F158  1  0.636218  0.351200  0.549694  1
  F  F159  1  0.136218  0.148800  0.950306  1
  F  F160  1  0.168912  0.404206  0.921720  1
  F  F161  1  0.668912  0.095794  0.578280  1
  F  F162  1  0.331088  0.404206  0.078280  1
  F  F163  1  0.831088  0.095794  0.421720  1
  F  F164  1  0.831088  0.595794  0.078280  1
  F  F165  1  0.331088  0.904206  0.421720  1
  F  F166  1  0.668912  0.595794  0.921720  1
  F  F167  1  0.168912  0.904206  0.578280  1
  F  F168  1  0.225672  0.553955  0.933371  1
  F  F169  1  0.725672  0.946045  0.566629  1
  F  F170  1  0.274328  0.553955  0.066629  1
  F  F171  1  0.774328  0.946045  0.433371  1
  F  F172  1  0.774328  0.446045  0.066629  1
  F  F173  1  0.274328  0.053955  0.433371  1
  F  F174  1  0.725672  0.446045  0.933371  1
  F  F175  1  0.225672  0.053955  0.566629  1
  F  F176  1  0.066045  0.517992  0.955649  1
  F  F177  1  0.566045  0.982008  0.544351  1
  F  F178  1  0.433955  0.517992  0.044351  1
  F  F179  1  0.933955  0.982008  0.455649  1
  F  F180  1  0.933955  0.482008  0.044351  1
  F  F181  1  0.433955  0.017992  0.455649  1
  F  F182  1  0.566045  0.482008  0.955649  1
  F  F183  1  0.066045  0.017992  0.544351  1
  F  F184  1  0.902389  0.637969  0.940715  1
  F  F185  1  0.402389  0.862031  0.559285  1
  F  F186  1  0.597611  0.637969  0.059285  1
  F  F187  1  0.097611  0.862031  0.440715  1
  F  F188  1  0.097611  0.362031  0.059285  1
  F  F189  1  0.597611  0.137969  0.440715  1
  F  F190  1  0.402389  0.362031  0.940715  1
  F  F191  1  0.902389  0.137969  0.559285  1
  F  F192  1  0.843485  0.777382  0.907665  1
  F  F193  1  0.343485  0.722618  0.592335  1
  F  F194  1  0.656515  0.777382  0.092335  1
  F  F195  1  0.156515  0.722618  0.407665  1
  F  F196  1  0.156515  0.222618  0.092335  1
  F  F197  1  0.656515  0.277382  0.407665  1
  F  F198  1  0.343485  0.222618  0.907665  1
  F  F199  1  0.843485  0.277382  0.592335  1
  F  F200  1  0.002711  0.766950  0.939499  1
  F  F201  1  0.502711  0.733050  0.560501  1
  F  F202  1  0.497289  0.766950  0.060501  1
  F  F203  1  0.997289  0.733050  0.439499  1
  F  F204  1  0.997289  0.233050  0.060501  1
  F  F205  1  0.497289  0.266950  0.439499  1
  F  F206  1  0.502711  0.233050  0.939499  1
  F  F207  1  0.002711  0.266950  0.560501  1
  S  S208  1  0.889409  0.686001  0.656121  1
  S  S209  1  0.389409  0.813999  0.843879  1
  S  S210  1  0.610591  0.686001  0.343879  1
  S  S211  1  0.110591  0.813999  0.156121  1
  S  S212  1  0.110591  0.313999  0.343879  1
  S  S213  1  0.610591  0.186001  0.156121  1
  S  S214  1  0.389409  0.313999  0.656121  1
  S  S215  1  0.889409  0.186001  0.843879  1
  S  S216  1  0.090245  0.601292  0.661107  1
  S  S217  1  0.590245  0.898708  0.838893  1
  S  S218  1  0.409755  0.601292  0.338893  1
  S  S219  1  0.909755  0.898708  0.161107  1
  S  S220  1  0.909755  0.398708  0.338893  1
  S  S221  1  0.409755  0.101292  0.161107  1
  S  S222  1  0.590245  0.398708  0.661107  1
  S  S223  1  0.090245  0.101292  0.838893  1
  S  S224  1  0.104258  0.525328  0.840093  1
  S  S225  1  0.604258  0.974672  0.659907  1
  S  S226  1  0.395742  0.525328  0.159907  1
  S  S227  1  0.895742  0.974672  0.340093  1
  S  S228  1  0.895742  0.474672  0.159907  1
  S  S229  1  0.395742  0.025328  0.340093  1
  S  S230  1  0.604258  0.474672  0.840093  1
  S  S231  1  0.104258  0.025328  0.659907  1
  S  S232  1  0.969135  0.689123  0.833623  1
  S  S233  1  0.469135  0.810877  0.666377  1
  S  S234  1  0.530865  0.689123  0.166377  1
  S  S235  1  0.030865  0.810877  0.333623  1
  S  S236  1  0.030865  0.310877  0.166377  1
  S  S237  1  0.530865  0.189123  0.333623  1
  S  S238  1  0.469135  0.310877  0.833623  1
  S  S239  1  0.969135  0.189123  0.666377  1
  K  K240  1  0.869870  0.436321  0.743755  1
  K  K241  1  0.369870  0.063679  0.756245  1
  K  K242  1  0.630130  0.436321  0.256245  1
  K  K243  1  0.130130  0.063679  0.243755  1
  K  K244  1  0.130130  0.563679  0.256245  1
  K  K245  1  0.630130  0.936321  0.243755  1
  K  K246  1  0.369870  0.563679  0.743755  1
  K  K247  1  0.869870  0.936321  0.756245  1
  K  K248  1  0.173741  0.821271  0.747882  1
  K  K249  1  0.673741  0.678729  0.752118  1
  K  K250  1  0.326259  0.821271  0.252118  1
  K  K251  1  0.826259  0.678729  0.247882  1
  K  K252  1  0.826259  0.178729  0.252118  1
  K  K253  1  0.326259  0.321271  0.247882  1
  K  K254  1  0.673741  0.178729  0.747882  1
  K  K255  1  0.173741  0.321271  0.752118  1
