# generated using pymatgen
data_Zn(C2N3)2
_symmetry_space_group_name_H-M   'P 1'
_cell_length_a   7.69231181
_cell_length_b   7.70788196
_cell_length_c   12.13681111
_cell_angle_alpha   90.00000000
_cell_angle_beta   90.00000000
_cell_angle_gamma   90.00000000
_symmetry_Int_Tables_number   1
_chemical_formula_structural   Zn(C2N3)2
_chemical_formula_sum   'Zn4 C16 N24'
_cell_volume   719.60890372
_cell_formula_units_Z   4
loop_
 _symmetry_equiv_pos_site_id
 _symmetry_equiv_pos_as_xyz
  1  'x, y, z'
loop_
 _atom_site_type_symbol
 _atom_site_label
 _atom_site_symmetry_multiplicity
 _atom_site_fract_x
 _atom_site_fract_y
 _atom_site_fract_z
 _atom_site_occupancy
  Zn  Zn0  1  0.750000  0.230903  0.651611  1
  Zn  Zn1  1  0.250000  0.769097  0.348389  1
  Zn  Zn2  1  0.250000  0.269097  0.151611  1
  Zn  Zn3  1  0.750000  0.730903  0.848389  1
  C  C4  1  0.250000  0.918266  0.022468  1
  C  C5  1  0.250000  0.122017  0.474726  1
  C  C6  1  0.750000  0.377983  0.974726  1
  C  C7  1  0.250000  0.418266  0.477532  1
  C  C8  1  0.898899  0.222947  0.272222  1
  C  C9  1  0.101101  0.277053  0.772222  1
  C  C10  1  0.898899  0.722947  0.227778  1
  C  C11  1  0.750000  0.877983  0.525274  1
  C  C12  1  0.398899  0.777053  0.727778  1
  C  C13  1  0.601101  0.722947  0.227778  1
  C  C14  1  0.398899  0.277053  0.772222  1
  C  C15  1  0.101101  0.777053  0.727778  1
  C  C16  1  0.750000  0.081734  0.977532  1
  C  C17  1  0.601101  0.222947  0.272222  1
  C  C18  1  0.750000  0.581734  0.522468  1
  C  C19  1  0.250000  0.622017  0.025274  1
  N  N20  1  0.458511  0.262325  0.246817  1
  N  N21  1  0.250000  0.769089  0.974676  1
  N  N22  1  0.750000  0.671909  0.192439  1
  N  N23  1  0.750000  0.939597  0.942438  1
  N  N24  1  0.750000  0.730911  0.474676  1
  N  N25  1  0.541489  0.737675  0.753183  1
  N  N26  1  0.458511  0.762325  0.253183  1
  N  N27  1  0.250000  0.828091  0.692439  1
  N  N28  1  0.750000  0.517775  0.936193  1
  N  N29  1  0.250000  0.328091  0.807561  1
  N  N30  1  0.041489  0.262325  0.246817  1
  N  N31  1  0.250000  0.060403  0.057562  1
  N  N32  1  0.958511  0.737675  0.753183  1
  N  N33  1  0.541489  0.237675  0.746817  1
  N  N34  1  0.250000  0.269089  0.525324  1
  N  N35  1  0.250000  0.560403  0.442438  1
  N  N36  1  0.041489  0.762325  0.253183  1
  N  N37  1  0.250000  0.482225  0.063807  1
  N  N38  1  0.750000  0.171909  0.307561  1
  N  N39  1  0.750000  0.017775  0.563807  1
  N  N40  1  0.250000  0.982225  0.436193  1
  N  N41  1  0.750000  0.439597  0.557562  1
  N  N42  1  0.750000  0.230911  0.025324  1
  N  N43  1  0.958511  0.237675  0.746817  1
