# generated using pymatgen
data_MnV2P2(H4O7)2
_symmetry_space_group_name_H-M   'P 1'
_cell_length_a   8.40474208
_cell_length_b   6.68415982
_cell_length_c   6.55543903
_cell_angle_alpha   90.66018309
_cell_angle_beta   95.00574174
_cell_angle_gamma   104.32271335
_symmetry_Int_Tables_number   1
_chemical_formula_structural   MnV2P2(H4O7)2
_chemical_formula_sum   'Mn1 V2 P2 H8 O14'
_cell_volume   355.25867512
_cell_formula_units_Z   1
loop_
 _symmetry_equiv_pos_site_id
 _symmetry_equiv_pos_as_xyz
  1  'x, y, z'
loop_
 _atom_site_type_symbol
 _atom_site_label
 _atom_site_symmetry_multiplicity
 _atom_site_fract_x
 _atom_site_fract_y
 _atom_site_fract_z
 _atom_site_occupancy
  Mn  Mn0  1  0.000000  0.000000  0.000000  1
  V  V1  1  0.108232  0.388852  0.244934  1
  V  V2  1  0.891768  0.611148  0.755066  1
  P  P3  1  0.905120  0.159378  0.629971  1
  P  P4  1  0.094880  0.840622  0.370029  1
  H  H5  1  0.215135  0.122495  0.547889  1
  H  H6  1  0.205390  0.740166  0.851462  1
  H  H7  1  0.635729  0.336300  0.457753  1
  H  H8  1  0.469615  0.901334  0.794205  1
  H  H9  1  0.530385  0.098666  0.205795  1
  H  H10  1  0.364271  0.663700  0.542247  1
  H  H11  1  0.784865  0.877505  0.452111  1
  H  H12  1  0.794610  0.259834  0.148538  1
  O  O13  1  0.057355  0.268953  0.504284  1
  O  O14  1  0.554571  0.359497  0.346570  1
  O  O15  1  0.234256  -0.017394  0.536497  1
  O  O16  1  0.589001  0.239738  0.175015  1
  O  O17  1  0.903689  0.295676  0.090881  1
  O  O18  1  0.791992  0.761005  0.877253  1
  O  O19  1  0.192686  0.666876  0.337816  1
  O  O20  1  0.208008  0.238995  0.122747  1
  O  O21  1  0.410999  0.760262  0.824985  1
  O  O22  1  0.765744  0.017394  0.463503  1
  O  O23  1  0.445429  0.640503  0.653430  1
  O  O24  1  0.807314  0.333124  0.662184  1
  O  O25  1  0.096311  0.704324  0.909119  1
  O  O26  1  0.942645  0.731047  0.495716  1
