# generated using pymatgen
data_Ca22H51Rh11
_symmetry_space_group_name_H-M   'P 1'
_cell_length_a   5.07750502
_cell_length_b   5.14127307
_cell_length_c   56.04889563
_cell_angle_alpha   60.62259171
_cell_angle_beta   60.75848981
_cell_angle_gamma   59.77125982
_symmetry_Int_Tables_number   1
_chemical_formula_structural   Ca22H51Rh11
_chemical_formula_sum   'Ca22 H51 Rh11'
_cell_volume   1043.41063599
_cell_formula_units_Z   1
loop_
 _symmetry_equiv_pos_site_id
 _symmetry_equiv_pos_as_xyz
  1  'x, y, z'
loop_
 _atom_site_type_symbol
 _atom_site_label
 _atom_site_symmetry_multiplicity
 _atom_site_fract_x
 _atom_site_fract_y
 _atom_site_fract_z
 _atom_site_occupancy
  Ca  Ca0  1  0.248138  0.247189  0.022905  1
  Ca  Ca1  1  0.249182  0.249434  0.113755  1
  Ca  Ca2  1  0.248957  0.249515  0.204703  1
  Ca  Ca3  1  0.749744  0.748366  0.068227  1
  Ca  Ca4  1  0.749480  0.749114  0.159183  1
  Ca  Ca5  1  0.249048  0.249866  0.295645  1
  Ca  Ca6  1  0.749257  0.748920  0.250140  1
  Ca  Ca7  1  0.254272  0.255028  0.385661  1
  Ca  Ca8  1  0.251759  0.253220  0.476778  1
  Ca  Ca9  1  0.749861  0.750622  0.340871  1
  Ca  Ca10  1  0.251768  0.252957  0.567611  1
  Ca  Ca11  1  0.753098  0.754429  0.431353  1
  Ca  Ca12  1  0.752447  0.751680  0.522202  1
  Ca  Ca13  1  0.252496  0.253651  0.657603  1
  Ca  Ca14  1  0.752515  0.751796  0.612876  1
  Ca  Ca15  1  0.245572  0.247070  0.751620  1
  Ca  Ca16  1  0.753211  0.751388  0.703204  1
  Ca  Ca17  1  0.247687  0.248372  0.841718  1
  Ca  Ca18  1  0.245713  0.247052  0.932483  1
  Ca  Ca19  1  0.746969  0.745920  0.797095  1
  Ca  Ca20  1  0.747975  0.746997  0.887052  1
  Ca  Ca21  1  0.749296  0.744107  0.977576  1
  H  H22  1  0.242730  0.767184  0.069688  1
  H  H23  1  0.775777  0.233192  0.021131  1
  H  H24  1  0.763744  0.250495  0.068171  1
  H  H25  1  0.764208  0.747482  0.023002  1
  H  H26  1  0.243487  0.767029  0.160567  1
  H  H27  1  0.776005  0.234698  0.112135  1
  H  H28  1  0.763860  0.250531  0.159064  1
  H  H29  1  0.763367  0.750661  0.113585  1
  H  H30  1  0.776371  0.234490  0.203012  1
  H  H31  1  0.243962  0.766554  0.251413  1
  H  H32  1  0.764035  0.250941  0.249918  1
  H  H33  1  0.763517  0.750920  0.204482  1
  H  H34  1  0.242446  0.769138  0.342370  1
  H  H35  1  0.777009  0.234066  0.293876  1
  H  H36  1  0.765220  0.252477  0.340735  1
  H  H37  1  0.763846  0.750534  0.295385  1
  H  H38  1  0.238168  0.775460  0.432861  1
  H  H39  1  0.776989  0.233882  0.385141  1
  H  H40  1  0.242792  0.771348  0.475419  1
  H  H41  1  0.770754  0.240631  0.433001  1
  H  H42  1  0.762359  0.747721  0.386736  1
  H  H43  1  0.239101  0.775211  0.523710  1
  H  H44  1  0.772860  0.240283  0.475328  1
  H  H45  1  0.243113  0.771412  0.566242  1
  H  H46  1  0.773141  0.240071  0.523632  1
  H  H47  1  0.745821  0.746044  0.477745  1
  H  H48  1  0.238900  0.774811  0.614625  1
  H  H49  1  0.773177  0.240641  0.566075  1
  H  H50  1  0.234778  0.233458  0.706255  1
  H  H51  1  0.242134  0.770472  0.657307  1
  H  H52  1  0.772837  0.239803  0.614543  1
  H  H53  1  0.745169  0.745864  0.568640  1
  H  H54  1  0.772130  0.239572  0.657142  1
  H  H55  1  0.235041  0.760921  0.706140  1
  H  H56  1  0.241144  0.762805  0.748609  1
  H  H57  1  0.758392  0.236305  0.706012  1
  H  H58  1  0.744986  0.745738  0.659849  1
  H  H59  1  0.764145  0.238553  0.748485  1
  H  H60  1  0.243649  0.773484  0.795946  1
  H  H61  1  0.242093  0.773829  0.838728  1
  H  H62  1  0.771402  0.244527  0.795884  1
  H  H63  1  0.766328  0.767477  0.748043  1
  H  H64  1  0.775698  0.239522  0.838549  1
  H  H65  1  0.242075  0.772424  0.886983  1
  H  H66  1  0.241182  0.773555  0.929573  1
  H  H67  1  0.771751  0.242934  0.886879  1
  H  H68  1  0.749502  0.750067  0.840668  1
  H  H69  1  0.775946  0.238303  0.929307  1
  H  H70  1  0.244335  0.767421  0.978568  1
  H  H71  1  0.767748  0.252369  0.976788  1
  H  H72  1  0.749454  0.750455  0.931543  1
  Rh  Rh73  1  0.986036  0.997858  0.999995  1
  Rh  Rh74  1  0.986636  0.998059  0.091010  1
  Rh  Rh75  1  0.986146  0.999034  0.181937  1
  Rh  Rh76  1  0.985570  0.998512  0.363978  1
  Rh  Rh77  1  0.990769  0.990042  0.455795  1
  Rh  Rh78  1  0.985871  0.999635  0.272864  1
  Rh  Rh79  1  0.989861  0.989897  0.637417  1
  Rh  Rh80  1  -0.000247  -0.000295  0.727360  1
  Rh  Rh81  1  0.993849  0.994091  0.818269  1
  Rh  Rh82  1  0.990696  0.990265  0.546433  1
  Rh  Rh83  1  0.992690  0.993446  0.909281  1
