# generated using pymatgen
data_H7NO6
_symmetry_space_group_name_H-M   'P 1'
_cell_length_a   9.77605647
_cell_length_b   15.19710927
_cell_length_c   3.73658717
_cell_angle_alpha   90.00000000
_cell_angle_beta   89.74347762
_cell_angle_gamma   90.00000000
_symmetry_Int_Tables_number   1
_chemical_formula_structural   H7NO6
_chemical_formula_sum   'H28 N4 O24'
_cell_volume   555.13096510
_cell_formula_units_Z   4
loop_
 _symmetry_equiv_pos_site_id
 _symmetry_equiv_pos_as_xyz
  1  'x, y, z'
loop_
 _atom_site_type_symbol
 _atom_site_label
 _atom_site_symmetry_multiplicity
 _atom_site_fract_x
 _atom_site_fract_y
 _atom_site_fract_z
 _atom_site_occupancy
  H  H0  1  0.817933  0.715799  0.231138  1
  H  H1  1  0.681292  0.281454  0.735896  1
  H  H2  1  0.318708  0.781454  0.764104  1
  H  H3  1  0.182067  0.215799  0.268862  1
  H  H4  1  0.886561  0.649171  0.895321  1
  H  H5  1  0.709565  0.681385  0.935365  1
  H  H6  1  0.602585  0.358783  0.398334  1
  H  H7  1  0.789944  0.319067  0.454587  1
  H  H8  1  0.397415  0.858783  0.101666  1
  H  H9  1  0.210056  0.819067  0.045413  1
  H  H10  1  0.113439  0.149171  0.604679  1
  H  H11  1  0.290435  0.181385  0.564635  1
  H  H12  1  0.761708  0.885185  0.818607  1
  H  H13  1  0.736822  0.089312  0.274250  1
  H  H14  1  0.707925  0.979290  0.738501  1
  H  H15  1  0.838701  0.009751  0.291673  1
  H  H16  1  0.292075  0.479290  0.761499  1
  H  H17  1  0.161299  0.509751  0.208327  1
  H  H18  1  0.238292  0.385185  0.681393  1
  H  H19  1  0.263178  0.589312  0.225750  1
  H  H20  1  0.520974  0.833126  0.425724  1
  H  H21  1  0.567438  0.906500  0.124118  1
  H  H22  1  0.973097  0.181485  0.937162  1
  H  H23  1  0.926272  0.105656  0.659889  1
  H  H24  1  0.073728  0.605656  0.840111  1
  H  H25  1  0.026903  0.681485  0.562838  1
  H  H26  1  0.432562  0.406500  0.375882  1
  H  H27  1  0.479026  0.333126  0.074276  1
  N  N28  1  0.979410  0.837501  0.336282  1
  N  N29  1  0.513707  0.162636  0.858199  1
  N  N30  1  0.486293  0.662636  0.641801  1
  N  N31  1  0.020590  0.337501  0.163718  1
  O  O32  1  0.863602  0.810346  0.462327  1
  O  O33  1  0.631231  0.185993  0.981192  1
  O  O34  1  0.368769  0.685993  0.518808  1
  O  O35  1  0.136398  0.310346  0.037673  1
  O  O36  1  0.071127  0.779061  0.275626  1
  O  O37  1  0.428225  0.224855  0.773913  1
  O  O38  1  0.571775  0.724855  0.726087  1
  O  O39  1  0.928873  0.279061  0.224374  1
  O  O40  1  0.000727  0.916176  0.275692  1
  O  O41  1  0.481817  0.084251  0.822165  1
  O  O42  1  0.518183  0.584251  0.677835  1
  O  O43  1  0.999273  0.416176  0.224308  1
  O  O44  1  0.794895  0.665291  0.072383  1
  O  O45  1  0.705164  0.334345  0.592995  1
  O  O46  1  0.294836  0.834345  0.907005  1
  O  O47  1  0.205105  0.165291  0.427617  1
  O  O48  1  0.703329  0.931622  0.918892  1
  O  O49  1  0.797586  0.056864  0.437332  1
  O  O50  1  0.202414  0.556864  0.062668  1
  O  O51  1  0.296671  0.431622  0.581108  1
  O  O52  1  0.487638  0.881316  0.269579  1
  O  O53  1  0.005968  0.130818  0.795353  1
  O  O54  1  0.994032  0.630818  0.704647  1
  O  O55  1  0.512362  0.381316  0.230421  1
