# generated using pymatgen
data_Si2H2O3
_symmetry_space_group_name_H-M   'P 1'
_cell_length_a   12.67020117
_cell_length_b   11.01876218
_cell_length_c   12.39661068
_cell_angle_alpha   99.68171760
_cell_angle_beta   141.41949558
_cell_angle_gamma   96.18894353
_symmetry_Int_Tables_number   1
_chemical_formula_structural   Si2H2O3
_chemical_formula_sum   'Si20 H20 O30'
_cell_volume   980.00816347
_cell_formula_units_Z   10
loop_
 _symmetry_equiv_pos_site_id
 _symmetry_equiv_pos_as_xyz
  1  'x, y, z'
loop_
 _atom_site_type_symbol
 _atom_site_label
 _atom_site_symmetry_multiplicity
 _atom_site_fract_x
 _atom_site_fract_y
 _atom_site_fract_z
 _atom_site_occupancy
  Si  Si0  1  0.720813  0.863502  0.599502  1
  Si  Si1  1  0.713308  0.631080  0.323368  1
  Si  Si2  1  0.329224  0.117663  0.397485  1
  Si  Si3  1  0.281577  0.405397  0.759013  1
  Si  Si4  1  0.075936  0.076862  0.829660  1
  Si  Si5  1  0.701130  0.415448  0.449823  1
  Si  Si6  1  0.891460  0.921800  0.141823  1
  Si  Si7  1  0.249882  0.585157  0.518893  1
  Si  Si8  1  0.451491  0.014135  0.251331  1
  Si  Si9  1  0.190035  0.503229  0.870355  1
  Si  Si10  1  0.575818  0.999503  0.773177  1
  Si  Si11  1  0.805289  0.500490  0.105628  1
  Si  Si12  1  0.419379  0.792505  0.963205  1
  Si  Si13  1  0.204050  0.733023  0.144944  1
  Si  Si14  1  0.579359  0.216102  0.035224  1
  Si  Si15  1  0.815254  0.293576  0.856408  1
  Si  Si16  1  0.134816  0.916941  0.643457  1
  Si  Si17  1  0.751172  0.587390  0.737691  1
  Si  Si18  1  0.911577  0.141424  0.381688  1
  Si  Si19  1  0.236407  0.358614  0.270256  1
  H  H20  1  0.010675  0.034487  0.086048  1
  H  H21  1  0.047793  0.464213  0.482639  1
  H  H22  1  0.409893  0.176083  0.144140  1
  H  H23  1  0.932803  0.337946  0.715056  1
  H  H24  1  0.125531  0.876638  0.971545  1
  H  H25  1  0.082695  0.672416  0.779236  1
  H  H26  1  0.880321  0.183188  0.046239  1
  H  H27  1  0.874380  0.308360  0.196113  1
  H  H28  1  0.851461  0.817122  0.842626  1
  H  H29  1  0.020593  0.688446  0.555660  1
  H  H30  1  0.565884  0.745817  0.314148  1
  H  H31  1  0.421186  0.218152  0.659944  1
  H  H32  1  0.873290  0.030106  0.413072  1
  H  H33  1  0.386814  0.457556  0.343715  1
  H  H34  1  0.129975  0.147615  0.423564  1
  H  H35  1  0.294145  0.349468  0.491728  1
  H  H36  1  0.641109  0.945753  0.276054  1
  H  H37  1  0.305310  0.512702  0.142095  1
  H  H38  1  0.369634  0.039422  0.740431  1
  H  H39  1  0.722856  0.467498  0.848390  1
  O  O40  1  0.956309  0.946794  0.803167  1
  O  O41  1  0.799179  0.537029  0.450762  1
  O  O42  1  0.064526  0.000005  0.182090  1
  O  O43  1  0.182603  0.501422  0.588508  1
  O  O44  1  0.321595  0.083126  0.074800  1
  O  O45  1  0.956485  0.415216  0.697584  1
  O  O46  1  0.723832  0.954449  0.954964  1
  O  O47  1  0.036669  0.550963  0.301853  1
  O  O48  1  0.239726  0.868941  0.090961  1
  O  O49  1  0.190478  0.652191  0.844785  1
  O  O50  1  0.775662  0.163404  0.910571  1
  O  O51  1  0.774184  0.338825  0.132780  1
  O  O52  1  0.284613  0.860239  0.815443  1
  O  O53  1  0.987814  0.656981  0.930120  1
  O  O54  1  0.719161  0.153258  0.200753  1
  O  O55  1  0.047520  0.355858  0.066730  1
  O  O56  1  0.740189  0.752628  0.709783  1
  O  O57  1  0.945952  0.738051  0.480346  1
  O  O58  1  0.258446  0.216104  0.272545  1
  O  O59  1  0.068158  0.277807  0.571770  1
  O  O60  1  0.686880  0.749889  0.435336  1
  O  O61  1  0.321645  0.208473  0.527696  1
  O  O62  1  0.057793  0.985206  0.690366  1
  O  O63  1  0.693983  0.510667  0.561571  1
  O  O64  1  0.993504  0.104430  0.324486  1
  O  O65  1  0.240493  0.403970  0.413097  1
  O  O66  1  0.506300  0.906586  0.169749  1
  O  O67  1  0.279065  0.567038  0.074755  1
  O  O68  1  0.505628  0.095345  0.841096  1
  O  O69  1  0.763464  0.410474  0.924592  1
