# generated using pymatgen
data_TeS7Br2
_symmetry_space_group_name_H-M   'P 1'
_cell_length_a   11.94457859
_cell_length_b   9.66958655
_cell_length_c   13.62476739
_cell_angle_alpha   90.00000000
_cell_angle_beta   90.00000000
_cell_angle_gamma   90.00000000
_symmetry_Int_Tables_number   1
_chemical_formula_structural   TeS7Br2
_chemical_formula_sum   'Te4 S28 Br8'
_cell_volume   1573.64886828
_cell_formula_units_Z   4
loop_
 _symmetry_equiv_pos_site_id
 _symmetry_equiv_pos_as_xyz
  1  'x, y, z'
loop_
 _atom_site_type_symbol
 _atom_site_label
 _atom_site_symmetry_multiplicity
 _atom_site_fract_x
 _atom_site_fract_y
 _atom_site_fract_z
 _atom_site_occupancy
  Te  Te0  1  0.250000  0.702098  0.597547  1
  Te  Te1  1  0.750000  0.797902  0.097547  1
  Te  Te2  1  0.250000  0.202098  0.902453  1
  Te  Te3  1  0.750000  0.297902  0.402453  1
  S  S4  1  0.750000  0.252193  0.774818  1
  S  S5  1  0.610052  0.152726  0.722988  1
  S  S6  1  0.110052  0.847274  0.277012  1
  S  S7  1  0.889948  0.652726  0.777012  1
  S  S8  1  0.389948  0.847274  0.277012  1
  S  S9  1  0.958797  0.762153  0.894367  1
  S  S10  1  0.958797  0.262153  0.605633  1
  S  S11  1  0.087859  0.329242  0.979928  1
  S  S12  1  0.587859  0.170758  0.479928  1
  S  S13  1  0.458797  0.237847  0.105633  1
  S  S14  1  0.389948  0.347274  0.222988  1
  S  S15  1  0.458797  0.737847  0.394367  1
  S  S16  1  0.587859  0.670758  0.020072  1
  S  S17  1  0.087859  0.829242  0.520072  1
  S  S18  1  0.250000  0.747807  0.225182  1
  S  S19  1  0.912141  0.670758  0.020072  1
  S  S20  1  0.750000  0.752193  0.725182  1
  S  S21  1  0.541203  0.262153  0.605633  1
  S  S22  1  0.250000  0.247807  0.274818  1
  S  S23  1  0.412141  0.329242  0.979928  1
  S  S24  1  0.041203  0.737847  0.394367  1
  S  S25  1  0.889948  0.152726  0.722988  1
  S  S26  1  0.541203  0.762153  0.894367  1
  S  S27  1  0.041203  0.237847  0.105633  1
  S  S28  1  0.912141  0.170758  0.479928  1
  S  S29  1  0.412141  0.829242  0.520072  1
  S  S30  1  0.610052  0.652726  0.777012  1
  S  S31  1  0.110052  0.347274  0.222988  1
  Br  Br32  1  0.750000  0.063929  0.292327  1
  Br  Br33  1  0.250000  0.436071  0.792327  1
  Br  Br34  1  0.250000  0.501184  0.470682  1
  Br  Br35  1  0.750000  0.998816  0.970682  1
  Br  Br36  1  0.750000  0.563929  0.207673  1
  Br  Br37  1  0.250000  0.001184  0.029318  1
  Br  Br38  1  0.750000  0.498816  0.529318  1
  Br  Br39  1  0.250000  0.936071  0.707673  1
