# generated using pymatgen
data_Y2Be2SiO7
_symmetry_space_group_name_H-M   'P 1'
_cell_length_a   4.80136399
_cell_length_b   7.34937811
_cell_length_c   7.34937811
_cell_angle_alpha   90.00000000
_cell_angle_beta   90.00000000
_cell_angle_gamma   90.00000000
_symmetry_Int_Tables_number   1
_chemical_formula_structural   Y2Be2SiO7
_chemical_formula_sum   'Y4 Be4 Si2 O14'
_cell_volume   259.33779498
_cell_formula_units_Z   2
loop_
 _symmetry_equiv_pos_site_id
 _symmetry_equiv_pos_as_xyz
  1  'x, y, z'
loop_
 _atom_site_type_symbol
 _atom_site_label
 _atom_site_symmetry_multiplicity
 _atom_site_fract_x
 _atom_site_fract_y
 _atom_site_fract_z
 _atom_site_occupancy
  Be  Be0  1  0.040155  0.136667  0.363333  1
  Be  Be1  1  0.959845  0.636667  0.136667  1
  Be  Be2  1  0.959845  0.363333  0.863333  1
  Be  Be3  1  0.040155  0.863333  0.636667  1
  O  O4  1  0.198804  0.918314  0.837088  1
  O  O5  1  0.801196  0.837088  0.081686  1
  O  O6  1  0.801196  0.162912  0.918314  1
  O  O7  1  0.198804  0.081686  0.162912  1
  O  O8  1  0.801196  0.418314  0.662912  1
  O  O9  1  0.801196  0.581686  0.337088  1
  O  O10  1  0.198804  0.662912  0.581686  1
  O  O11  1  0.198804  0.337088  0.418314  1
  O  O12  1  0.291101  0.641314  0.141314  1
  O  O13  1  0.708899  0.141314  0.358686  1
  O  O14  1  0.708899  0.858686  0.641314  1
  O  O15  1  0.291101  0.358686  0.858686  1
  O  O16  1  0.818559  0.500000  0.000000  1
  O  O17  1  0.181441  0.000000  0.500000  1
  Si  Si18  1  0.000000  0.500000  0.500000  1
  Si  Si19  1  0.000000  0.000000  0.000000  1
  Y  Y20  1  0.507509  0.159007  0.659007  1
  Y  Y21  1  0.492491  0.659007  0.840993  1
  Y  Y22  1  0.492491  0.340993  0.159007  1
  Y  Y23  1  0.507509  0.840993  0.340993  1
