# generated using pymatgen
data_Cd2Bi6O11
_symmetry_space_group_name_H-M   'P 1'
_cell_length_a   7.66295992
_cell_length_b   7.56195923
_cell_length_c   15.12995820
_cell_angle_alpha   107.97654324
_cell_angle_beta   111.61176435
_cell_angle_gamma   109.67162931
_symmetry_Int_Tables_number   1
_chemical_formula_structural   Cd2Bi6O11
_chemical_formula_sum   'Cd4 Bi12 O22'
_cell_volume   667.26591448
_cell_formula_units_Z   2
loop_
 _symmetry_equiv_pos_site_id
 _symmetry_equiv_pos_as_xyz
  1  'x, y, z'
loop_
 _atom_site_type_symbol
 _atom_site_label
 _atom_site_symmetry_multiplicity
 _atom_site_fract_x
 _atom_site_fract_y
 _atom_site_fract_z
 _atom_site_occupancy
  Cd  Cd0  1  0.004454  0.018054  0.008254  1
  Cd  Cd1  1  0.512077  0.959781  0.262681  1
  Cd  Cd2  1  0.995336  0.009608  0.509841  1
  Cd  Cd3  1  0.027551  0.491300  0.250649  1
  Bi  Bi4  1  0.467346  0.516800  0.741871  1
  Bi  Bi5  1  0.504622  0.046815  0.763887  1
  Bi  Bi6  1  0.573677  0.628825  0.529444  1
  Bi  Bi7  1  0.424341  0.034368  0.503418  1
  Bi  Bi8  1  0.520448  0.471114  0.260071  1
  Bi  Bi9  1  0.095496  0.624155  0.810027  1
  Bi  Bi10  1  0.476850  0.465637  0.004864  1
  Bi  Bi11  1  0.028729  0.000260  0.768587  1
  Bi  Bi12  1  0.998794  0.434299  0.465863  1
  Bi  Bi13  1  0.556304  0.014256  0.054925  1
  Bi  Bi14  1  0.987745  0.534603  0.006142  1
  Bi  Bi15  1  0.014873  0.947812  0.230731  1
  O  O16  1  0.143112  0.813041  0.989198  1
  O  O17  1  0.291309  0.929698  0.591952  1
  O  O18  1  0.183407  0.552435  0.685153  1
  O  O19  1  0.375842  0.633295  0.917207  1
  O  O20  1  0.356749  0.978241  0.894390  1
  O  O21  1  0.316442  0.228876  0.779059  1
  O  O22  1  0.160987  0.730011  0.202767  1
  O  O23  1  0.356024  0.690395  0.424904  1
  O  O24  1  0.091166  0.898237  0.376755  1
  O  O25  1  0.632063  0.787339  0.697572  1
  O  O26  1  0.756896  0.363913  0.813068  1
  O  O27  1  0.330722  0.308111  0.570912  1
  O  O28  1  0.830006  0.961524  0.602877  1
  O  O29  1  0.327342  0.153535  0.233760  1
  O  O30  1  0.564696  0.729700  0.155400  1
  O  O31  1  0.076579  0.214742  0.918638  1
  O  O32  1  0.773446  0.568648  0.420037  1
  O  O33  1  0.634292  0.365613  0.156296  1
  O  O34  1  0.764718  0.134514  0.437588  1
  O  O35  1  0.800257  0.689492  0.031247  1
  O  O36  1  0.928798  0.248885  0.302349  1
  O  O37  1  0.866503  0.197068  0.065118  1
