# generated using pymatgen
data_Ba2As6O11
_symmetry_space_group_name_H-M   'P 1'
_cell_length_a   7.03369931
_cell_length_b   7.02232448
_cell_length_c   7.49684430
_cell_angle_alpha   73.88259541
_cell_angle_beta   81.67001191
_cell_angle_gamma   78.02893841
_symmetry_Int_Tables_number   1
_chemical_formula_structural   Ba2As6O11
_chemical_formula_sum   'Ba2 As6 O11'
_cell_volume   346.49583415
_cell_formula_units_Z   1
loop_
 _symmetry_equiv_pos_site_id
 _symmetry_equiv_pos_as_xyz
  1  'x, y, z'
loop_
 _atom_site_type_symbol
 _atom_site_label
 _atom_site_symmetry_multiplicity
 _atom_site_fract_x
 _atom_site_fract_y
 _atom_site_fract_z
 _atom_site_occupancy
  Ba  Ba0  1  0.184979  0.281312  0.405086  1
  Ba  Ba1  1  0.686961  0.502829  -0.001402  1
  As  As2  1  0.551843  0.866942  0.592155  1
  As  As3  1  0.303211  0.773109  0.312964  1
  As  As4  1  0.135862  0.127409  0.949336  1
  As  As5  1  0.862310  0.929014  0.024649  1
  As  As6  1  0.694525  0.273202  0.639742  1
  As  As7  1  0.175539  0.645310  0.782988  1
  O  O8  1  0.071868  0.538568  0.620831  1
  O  O9  1  0.926866  0.781892  0.844509  1
  O  O10  1  0.319089  0.924774  0.068591  1
  O  O11  1  0.540123  0.484777  0.685069  1
  O  O12  1  0.511235  0.907108  0.355882  1
  O  O13  1  0.524710  0.142996  0.572679  1
  O  O14  1  0.422978  0.546942  0.260695  1
  O  O15  1  0.691543  0.142277  0.897897  1
  O  O16  1  0.274966  0.877526  0.676359  1
  O  O17  1  0.018620  0.266271  0.115057  1
  O  O18  1  0.975973  0.640042  0.448012  1
