# generated using pymatgen
data_NaCa2Mg2(AsO4)3
_symmetry_space_group_name_H-M   'P 1'
_cell_length_a   10.84603308
_cell_length_b   10.84603288
_cell_length_c   10.84603310
_cell_angle_alpha   109.48114333
_cell_angle_beta   109.45137792
_cell_angle_gamma   109.48114050
_symmetry_Int_Tables_number   1
_chemical_formula_structural   NaCa2Mg2(AsO4)3
_chemical_formula_sum   'Na4 Ca8 Mg8 As12 O48'
_cell_volume   982.17946025
_cell_formula_units_Z   4
loop_
 _symmetry_equiv_pos_site_id
 _symmetry_equiv_pos_as_xyz
  1  'x, y, z'
loop_
 _atom_site_type_symbol
 _atom_site_label
 _atom_site_symmetry_multiplicity
 _atom_site_fract_x
 _atom_site_fract_y
 _atom_site_fract_z
 _atom_site_occupancy
  Na  Na0  1  0.125000  0.250000  0.375000  1
  Na  Na1  1  0.375000  0.750000  0.125000  1
  Na  Na2  1  0.625000  0.250000  0.875000  1
  Na  Na3  1  0.875000  0.750000  0.625000  1
  Ca  Ca4  1  0.127307  0.377307  0.750000  1
  Ca  Ca5  1  0.250000  0.877307  0.627307  1
  Ca  Ca6  1  0.627307  0.877307  0.750000  1
  Ca  Ca7  1  0.250000  0.377307  0.127307  1
  Ca  Ca8  1  0.372693  0.122693  0.250000  1
  Ca  Ca9  1  0.750000  0.622693  0.872693  1
  Ca  Ca10  1  0.872693  0.622693  0.250000  1
  Ca  Ca11  1  0.750000  0.122693  0.372693  1
  Mg  Mg12  1  0.000000  0.000000  0.000000  1
  Mg  Mg13  1  0.500000  0.500000  0.500000  1
  Mg  Mg14  1  0.500000  0.000000  0.500000  1
  Mg  Mg15  1  0.500000  0.500000  0.000000  1
  Mg  Mg16  1  0.500000  0.000000  0.000000  1
  Mg  Mg17  1  0.000000  0.500000  0.500000  1
  Mg  Mg18  1  0.000000  0.500000  0.000000  1
  Mg  Mg19  1  0.000000  0.000000  0.500000  1
  As  As20  1  0.125000  0.750000  0.875000  1
  As  As21  1  0.124856  0.874856  0.250000  1
  As  As22  1  0.250000  0.125144  0.875144  1
  As  As23  1  0.250000  0.625144  0.375144  1
  As  As24  1  0.375144  0.625144  0.750000  1
  As  As25  1  0.375000  0.250000  0.625000  1
  As  As26  1  0.625000  0.750000  0.375000  1
  As  As27  1  0.750000  0.374856  0.624856  1
  As  As28  1  0.624856  0.374856  0.250000  1
  As  As29  1  0.750000  0.874856  0.124856  1
  As  As30  1  0.875144  0.125144  0.750000  1
  As  As31  1  0.875000  0.250000  0.125000  1
  O  O32  1  0.106324  0.988560  0.693676  1
  O  O33  1  0.114903  0.600943  0.906092  1
  O  O34  1  0.015886  0.307628  0.894389  1
  O  O35  1  0.093908  0.708811  0.694851  1
  O  O36  1  0.086762  0.878504  0.394389  1
  O  O37  1  0.105611  0.621496  0.413238  1
  O  O38  1  0.193676  0.488560  0.606324  1
  O  O39  1  0.413238  0.807628  0.791742  1
  O  O40  1  0.291742  0.307628  0.913238  1
  O  O41  1  0.382237  0.587352  0.893676  1
  O  O42  1  0.013960  0.208811  0.114903  1
  O  O43  1  0.306324  0.912648  0.294884  1
  O  O44  1  0.194851  0.208811  0.593908  1
  O  O45  1  0.205116  0.587352  0.193676  1
  O  O46  1  0.394389  0.807628  0.515886  1
  O  O47  1  0.305149  0.899057  0.013960  1
  O  O48  1  0.294884  0.488560  0.382237  1
  O  O49  1  0.117763  0.011440  0.205116  1
  O  O50  1  0.515886  0.621496  0.708258  1
  O  O51  1  0.393676  0.087352  0.882237  1
  O  O52  1  0.513960  0.399057  0.805149  1
  O  O53  1  0.385097  0.291189  0.486040  1
  O  O54  1  0.791742  0.878504  0.984114  1
  O  O55  1  0.406092  0.100943  0.614903  1
  O  O56  1  0.593908  0.899057  0.385097  1
  O  O57  1  0.208258  0.121496  0.015886  1
  O  O58  1  0.614903  0.708811  0.513960  1
  O  O59  1  0.486040  0.600943  0.194851  1
  O  O60  1  0.606324  0.912648  0.117763  1
  O  O61  1  0.484114  0.378504  0.291742  1
  O  O62  1  0.882237  0.988560  0.794884  1
  O  O63  1  0.705116  0.511440  0.617763  1
  O  O64  1  0.694851  0.100943  0.986040  1
  O  O65  1  0.605611  0.192372  0.484114  1
  O  O66  1  0.794884  0.412648  0.806324  1
  O  O67  1  0.805149  0.791189  0.406092  1
  O  O68  1  0.693676  0.087352  0.705116  1
  O  O69  1  0.986040  0.791189  0.885097  1
  O  O70  1  0.617763  0.412648  0.106324  1
  O  O71  1  0.708258  0.692372  0.086762  1
  O  O72  1  0.586762  0.192372  0.208258  1
  O  O73  1  0.806324  0.511440  0.393676  1
  O  O74  1  0.894389  0.378504  0.586762  1
  O  O75  1  0.913238  0.121496  0.605611  1
  O  O76  1  0.906092  0.291189  0.305149  1
  O  O77  1  0.885097  0.399057  0.093908  1
  O  O78  1  0.984114  0.692372  0.105611  1
  O  O79  1  0.893676  0.011440  0.306324  1
