# generated using pymatgen
data_U2CuAs2(HO)24
_symmetry_space_group_name_H-M   'P 1'
_cell_length_a   7.22006145
_cell_length_b   7.22006145
_cell_length_c   21.13694582
_cell_angle_alpha   90.00000000
_cell_angle_beta   90.00000000
_cell_angle_gamma   90.00000000
_symmetry_Int_Tables_number   1
_chemical_formula_structural   U2CuAs2(HO)24
_chemical_formula_sum   'U4 Cu2 As4 H48 O48'
_cell_volume   1101.85392218
_cell_formula_units_Z   2
loop_
 _symmetry_equiv_pos_site_id
 _symmetry_equiv_pos_as_xyz
  1  'x, y, z'
loop_
 _atom_site_type_symbol
 _atom_site_label
 _atom_site_symmetry_multiplicity
 _atom_site_fract_x
 _atom_site_fract_y
 _atom_site_fract_z
 _atom_site_occupancy
  U  U0  1  0.750000  0.750000  0.545439  1
  U  U1  1  0.750000  0.750000  0.954561  1
  U  U2  1  0.250000  0.250000  0.454561  1
  U  U3  1  0.250000  0.250000  0.045439  1
  Cu  Cu4  1  0.750000  0.750000  0.750000  1
  Cu  Cu5  1  0.250000  0.250000  0.250000  1
  As  As6  1  0.250000  0.750000  0.500000  1
  As  As7  1  0.250000  0.750000  0.000000  1
  As  As8  1  0.750000  0.250000  0.500000  1
  As  As9  1  0.750000  0.250000  0.000000  1
  H  H10  1  0.094589  0.404425  0.665386  1
  H  H11  1  0.405411  0.095575  0.665386  1
  H  H12  1  0.405411  0.404425  0.834614  1
  H  H13  1  0.094589  0.095575  0.834614  1
  H  H14  1  0.905411  0.595575  0.334614  1
  H  H15  1  0.594589  0.904425  0.334614  1
  H  H16  1  0.594589  0.595575  0.165386  1
  H  H17  1  0.905411  0.904425  0.165386  1
  H  H18  1  0.404425  0.094589  0.834614  1
  H  H19  1  0.095575  0.405411  0.834614  1
  H  H20  1  0.404425  0.405411  0.665386  1
  H  H21  1  0.095575  0.094589  0.665386  1
  H  H22  1  0.595575  0.905411  0.165386  1
  H  H23  1  0.904425  0.594589  0.165386  1
  H  H24  1  0.595575  0.594589  0.334614  1
  H  H25  1  0.904425  0.905411  0.334614  1
  H  H26  1  0.146035  0.580660  0.625701  1
  H  H27  1  0.353965  0.919340  0.625701  1
  H  H28  1  0.353965  0.580660  0.874299  1
  H  H29  1  0.146035  0.919340  0.874299  1
  H  H30  1  0.853965  0.419340  0.374299  1
  H  H31  1  0.646035  0.080660  0.374299  1
  H  H32  1  0.646035  0.419340  0.125701  1
  H  H33  1  0.853965  0.080660  0.125701  1
  H  H34  1  0.580660  0.146035  0.874299  1
  H  H35  1  0.919340  0.353965  0.874299  1
  H  H36  1  0.580660  0.353965  0.625701  1
  H  H37  1  0.919340  0.146035  0.625701  1
  H  H38  1  0.419340  0.853965  0.125701  1
  H  H39  1  0.080660  0.646035  0.125701  1
  H  H40  1  0.419340  0.646035  0.374299  1
  H  H41  1  0.080660  0.853965  0.374299  1
  H  H42  1  0.091861  0.666784  0.721568  1
  H  H43  1  0.408139  0.833216  0.721568  1
  H  H44  1  0.408139  0.666784  0.778432  1
  H  H45  1  0.091861  0.833216  0.778432  1
  H  H46  1  0.908139  0.333216  0.278432  1
  H  H47  1  0.591861  0.166784  0.278432  1
  H  H48  1  0.591861  0.333216  0.221568  1
  H  H49  1  0.908139  0.166784  0.221568  1
  H  H50  1  0.666784  0.091861  0.778432  1
  H  H51  1  0.833216  0.408139  0.778432  1
  H  H52  1  0.666784  0.408139  0.721568  1
  H  H53  1  0.833216  0.091861  0.721568  1
  H  H54  1  0.333216  0.908139  0.221568  1
  H  H55  1  0.166784  0.591861  0.221568  1
  H  H56  1  0.333216  0.591861  0.278432  1
  H  H57  1  0.166784  0.908139  0.278432  1
  O  O58  1  0.750000  0.750000  0.631403  1
  O  O59  1  0.750000  0.750000  0.868597  1
  O  O60  1  0.250000  0.250000  0.368597  1
  O  O61  1  0.250000  0.250000  0.131403  1
  O  O62  1  0.750000  0.750000  0.459451  1
  O  O63  1  0.750000  0.750000  0.040549  1
  O  O64  1  0.250000  0.250000  0.540549  1
  O  O65  1  0.250000  0.250000  0.959451  1
  O  O66  1  0.019347  0.750000  0.750000  1
  O  O67  1  0.480653  0.750000  0.750000  1
  O  O68  1  0.980653  0.250000  0.250000  1
  O  O69  1  0.519347  0.250000  0.250000  1
  O  O70  1  0.750000  0.019347  0.750000  1
  O  O71  1  0.750000  0.480653  0.750000  1
  O  O72  1  0.250000  0.980653  0.250000  1
  O  O73  1  0.250000  0.519347  0.250000  1
  O  O74  1  0.066891  0.706381  0.550106  1
  O  O75  1  0.433109  0.793619  0.550106  1
  O  O76  1  0.433109  0.706381  0.949894  1
  O  O77  1  0.066891  0.793619  0.949894  1
  O  O78  1  0.933109  0.293619  0.449894  1
  O  O79  1  0.566891  0.206381  0.449894  1
  O  O80  1  0.566891  0.293619  0.050106  1
  O  O81  1  0.933109  0.206381  0.050106  1
  O  O82  1  0.706381  0.066891  0.949894  1
  O  O83  1  0.793619  0.433109  0.949894  1
  O  O84  1  0.706381  0.433109  0.550106  1
  O  O85  1  0.793619  0.066891  0.550106  1
  O  O86  1  0.293619  0.933109  0.050106  1
  O  O87  1  0.206381  0.566891  0.050106  1
  O  O88  1  0.293619  0.566891  0.449894  1
  O  O89  1  0.206381  0.933109  0.449894  1
  O  O90  1  0.176176  0.515679  0.665631  1
  O  O91  1  0.323824  0.984321  0.665631  1
  O  O92  1  0.323824  0.515679  0.834369  1
  O  O93  1  0.176176  0.984321  0.834369  1
  O  O94  1  0.823824  0.484321  0.334369  1
  O  O95  1  0.676176  0.015679  0.334369  1
  O  O96  1  0.676176  0.484321  0.165631  1
  O  O97  1  0.823824  0.015679  0.165631  1
  O  O98  1  0.515679  0.176176  0.834369  1
  O  O99  1  0.984321  0.323824  0.834369  1
  O  O100  1  0.515679  0.323824  0.665631  1
  O  O101  1  0.984321  0.176176  0.665631  1
  O  O102  1  0.484321  0.823824  0.165631  1
  O  O103  1  0.015679  0.676176  0.165631  1
  O  O104  1  0.484321  0.676176  0.334369  1
  O  O105  1  0.015679  0.823824  0.334369  1
