# generated using pymatgen
data_H5BrO2
_symmetry_space_group_name_H-M   'P 1'
_cell_length_a   4.39039909
_cell_length_b   12.43378393
_cell_length_c   6.98451549
_cell_angle_alpha   91.49198029
_cell_angle_beta   104.81982979
_cell_angle_gamma   90.67464526
_symmetry_Int_Tables_number   1
_chemical_formula_structural   H5BrO2
_chemical_formula_sum   'H20 Br4 O8'
_cell_volume   368.40432782
_cell_formula_units_Z   4
loop_
 _symmetry_equiv_pos_site_id
 _symmetry_equiv_pos_as_xyz
  1  'x, y, z'
loop_
 _atom_site_type_symbol
 _atom_site_label
 _atom_site_symmetry_multiplicity
 _atom_site_fract_x
 _atom_site_fract_y
 _atom_site_fract_z
 _atom_site_occupancy
  H  H0  1  0.718345  0.303863  0.584107  1
  H  H1  1  0.483004  0.396629  0.668601  1
  H  H2  1  0.416350  0.356703  0.420305  1
  H  H3  1  0.590395  0.840627  0.076800  1
  H  H4  1  0.537681  0.891368  0.843582  1
  H  H5  1  0.290013  0.793384  0.901372  1
  H  H6  1  0.582555  0.643156  0.561559  1
  H  H7  1  0.277777  0.697871  0.405465  1
  H  H8  1  0.420096  0.146188  0.938223  1
  H  H9  1  0.743216  0.183183  0.095545  1
  H  H10  1  0.257181  0.385970  0.892296  1
  H  H11  1  0.219405  0.501244  0.791636  1
  H  H12  1  0.734940  0.893108  0.601961  1
  H  H13  1  0.756854  0.008687  0.710072  1
  H  H14  1  0.508039  0.601215  0.316984  1
  H  H15  1  0.881811  0.558947  0.219444  1
  H  H16  1  0.575537  0.510466  0.072170  1
  H  H17  1  0.273903  0.108219  0.406598  1
  H  H18  1  0.233921  0.990078  0.304701  1
  H  H19  1  0.466419  0.096204  0.181499  1
  Br  Br20  1  0.042228  0.171455  0.653890  1
  Br  Br21  1  0.977714  0.655860  0.805757  1
  Br  Br22  1  0.970939  0.835386  0.343639  1
  Br  Br23  1  0.064426  0.327884  0.152073  1
  O  O24  1  0.586002  0.370442  0.549975  1
  O  O25  1  0.423649  0.859645  0.953280  1
  O  O26  1  0.404316  0.629531  0.436059  1
  O  O27  1  0.583387  0.122802  0.057275  1
  O  O28  1  0.363180  0.438600  0.823953  1
  O  O29  1  0.676739  0.934172  0.709335  1
  O  O30  1  0.653475  0.564675  0.179563  1
  O  O31  1  0.350607  0.059974  0.314870  1
