# generated using pymatgen
data_CrHO2
_symmetry_space_group_name_H-M   'P 1'
_cell_length_a   4.52403488
_cell_length_b   9.95017213
_cell_length_c   3.04000999
_cell_angle_alpha   90.00000000
_cell_angle_beta   90.00000000
_cell_angle_gamma   90.00000000
_symmetry_Int_Tables_number   1
_chemical_formula_structural   CrHO2
_chemical_formula_sum   'Cr4 H4 O8'
_cell_volume   136.84582406
_cell_formula_units_Z   4
loop_
 _symmetry_equiv_pos_site_id
 _symmetry_equiv_pos_as_xyz
  1  'x, y, z'
loop_
 _atom_site_type_symbol
 _atom_site_label
 _atom_site_symmetry_multiplicity
 _atom_site_fract_x
 _atom_site_fract_y
 _atom_site_fract_z
 _atom_site_occupancy
  Cr  Cr0  1  0.551726  0.639435  0.250000  1
  Cr  Cr1  1  0.948274  0.139435  0.250000  1
  Cr  Cr2  1  0.448274  0.360565  0.750000  1
  Cr  Cr3  1  0.051726  0.860565  0.750000  1
  H  H4  1  0.908373  0.400984  0.250000  1
  H  H5  1  0.591627  0.900984  0.250000  1
  H  H6  1  0.091627  0.599016  0.750000  1
  H  H7  1  0.408373  0.099016  0.750000  1
  O  O8  1  0.186205  0.307405  0.250000  1
  O  O9  1  0.313795  0.807405  0.250000  1
  O  O10  1  0.813795  0.692595  0.750000  1
  O  O11  1  0.686205  0.192595  0.750000  1
  O  O12  1  0.699129  0.440733  0.250000  1
  O  O13  1  0.800871  0.940733  0.250000  1
  O  O14  1  0.300871  0.559267  0.750000  1
  O  O15  1  0.199129  0.059267  0.750000  1
