# generated using pymatgen
data_Ba5Re3O16
_symmetry_space_group_name_H-M   'P 1'
_cell_length_a   11.07861906
_cell_length_b   11.07861887
_cell_length_c   7.96378935
_cell_angle_alpha   90.00000000
_cell_angle_beta   90.00000000
_cell_angle_gamma   120.00094698
_symmetry_Int_Tables_number   1
_chemical_formula_structural   Ba5Re3O16
_chemical_formula_sum   'Ba10 Re6 O32'
_cell_volume   846.48156206
_cell_formula_units_Z   2
loop_
 _symmetry_equiv_pos_site_id
 _symmetry_equiv_pos_as_xyz
  1  'x, y, z'
loop_
 _atom_site_type_symbol
 _atom_site_label
 _atom_site_symmetry_multiplicity
 _atom_site_fract_x
 _atom_site_fract_y
 _atom_site_fract_z
 _atom_site_occupancy
  Ba  Ba0  1  0.666692  0.333361  0.502939  1
  Ba  Ba1  1  0.333361  0.666692  0.502939  1
  Ba  Ba2  1  0.333308  0.666639  0.002939  1
  Ba  Ba3  1  0.666639  0.333308  0.002939  1
  Ba  Ba4  1  0.260240  0.260240  0.239571  1
  Ba  Ba5  1  0.739741  0.000002  0.239594  1
  Ba  Ba6  1  0.000002  0.739741  0.239594  1
  Ba  Ba7  1  0.739760  0.739760  0.739571  1
  Ba  Ba8  1  0.260259  -0.000002  0.739594  1
  Ba  Ba9  1  -0.000002  0.260259  0.739594  1
  Re  Re10  1  0.390019  0.390019  0.794903  1
  Re  Re11  1  0.609982  -0.000001  0.794861  1
  Re  Re12  1  -0.000001  0.609982  0.794861  1
  Re  Re13  1  0.609981  0.609981  0.294903  1
  Re  Re14  1  0.390018  0.000001  0.294861  1
  Re  Re15  1  0.000001  0.390018  0.294861  1
  O  O16  1  0.000005  0.000005  0.179350  1
  O  O17  1  0.999995  0.999995  0.679350  1
  O  O18  1  0.296945  0.296945  0.615679  1
  O  O19  1  0.703060  0.999995  0.615668  1
  O  O20  1  0.999995  0.703060  0.615668  1
  O  O21  1  0.703055  0.703055  0.115679  1
  O  O22  1  0.296940  0.000005  0.115668  1
  O  O23  1  0.000005  0.296940  0.115668  1
  O  O24  1  0.576906  0.446244  0.759131  1
  O  O25  1  0.553745  0.130670  0.759132  1
  O  O26  1  0.869325  0.423076  0.759137  1
  O  O27  1  0.446244  0.576906  0.759131  1
  O  O28  1  0.130670  0.553745  0.759132  1
  O  O29  1  0.423076  0.869325  0.759137  1
  O  O30  1  0.423094  0.553756  0.259131  1
  O  O31  1  0.446255  0.869330  0.259132  1
  O  O32  1  0.130675  0.576924  0.259137  1
  O  O33  1  0.553756  0.423094  0.259131  1
  O  O34  1  0.869330  0.446255  0.259132  1
  O  O35  1  0.576924  0.130675  0.259137  1
  O  O36  1  0.385806  0.254441  0.935425  1
  O  O37  1  0.745534  0.131349  0.935406  1
  O  O38  1  0.868654  0.614183  0.935406  1
  O  O39  1  0.254441  0.385806  0.935425  1
  O  O40  1  0.131349  0.745534  0.935406  1
  O  O41  1  0.614183  0.868654  0.935406  1
  O  O42  1  0.614194  0.745559  0.435425  1
  O  O43  1  0.254466  0.868651  0.435406  1
  O  O44  1  0.131346  0.385817  0.435406  1
  O  O45  1  0.745559  0.614194  0.435425  1
  O  O46  1  0.868651  0.254466  0.435406  1
  O  O47  1  0.385817  0.131346  0.435406  1
