# generated using pymatgen
data_Ba15(ZrSe3)14
_symmetry_space_group_name_H-M   'P 1'
_cell_length_a   31.54561879
_cell_length_b   31.54561845
_cell_length_c   31.54561915
_cell_angle_alpha   23.09735895
_cell_angle_beta   23.09736039
_cell_angle_gamma   23.09735957
_symmetry_Int_Tables_number   1
_chemical_formula_structural   Ba15(ZrSe3)14
_chemical_formula_sum   'Ba30 Zr28 Se84'
_cell_volume   4240.44849688
_cell_formula_units_Z   2
loop_
 _symmetry_equiv_pos_site_id
 _symmetry_equiv_pos_as_xyz
  1  'x, y, z'
loop_
 _atom_site_type_symbol
 _atom_site_label
 _atom_site_symmetry_multiplicity
 _atom_site_fract_x
 _atom_site_fract_y
 _atom_site_fract_z
 _atom_site_occupancy
  Ba  Ba0  1  0.715882  0.357559  0.076839  1
  Ba  Ba1  1  0.483656  0.807654  0.156777  1
  Ba  Ba2  1  0.156777  0.483656  0.807654  1
  Ba  Ba3  1  0.516344  0.192346  0.843223  1
  Ba  Ba4  1  0.608512  0.250000  0.891488  1
  Ba  Ba5  1  0.357559  0.076839  0.715882  1
  Ba  Ba6  1  0.142441  0.784118  0.423161  1
  Ba  Ba7  1  0.692346  0.016344  0.343223  1
  Ba  Ba8  1  0.284118  0.642441  0.923161  1
  Ba  Ba9  1  0.192346  0.843223  0.516344  1
  Ba  Ba10  1  0.923161  0.284118  0.642441  1
  Ba  Ba11  1  0.784118  0.423161  0.142441  1
  Ba  Ba12  1  0.343223  0.692346  0.016344  1
  Ba  Ba13  1  0.215882  0.576839  0.857559  1
  Ba  Ba14  1  0.656777  0.307654  0.983656  1
  Ba  Ba15  1  0.807654  0.156777  0.483656  1
  Ba  Ba16  1  0.391488  0.750000  0.108512  1
  Ba  Ba17  1  0.423161  0.142441  0.784118  1
  Ba  Ba18  1  0.076839  0.715882  0.357559  1
  Ba  Ba19  1  0.843223  0.516344  0.192346  1
  Ba  Ba20  1  0.250000  0.891488  0.608512  1
  Ba  Ba21  1  0.576839  0.857559  0.215882  1
  Ba  Ba22  1  0.108512  0.391488  0.750000  1
  Ba  Ba23  1  0.891488  0.608512  0.250000  1
  Ba  Ba24  1  0.857559  0.215882  0.576839  1
  Ba  Ba25  1  0.016344  0.343223  0.692346  1
  Ba  Ba26  1  0.307654  0.983656  0.656777  1
  Ba  Ba27  1  0.983656  0.656777  0.307654  1
  Ba  Ba28  1  0.750000  0.108512  0.391488  1
  Ba  Ba29  1  0.642441  0.923161  0.284118  1
  Zr  Zr30  1  0.139390  0.139390  0.139390  1
  Zr  Zr31  1  0.966415  0.966415  0.966415  1
  Zr  Zr32  1  0.360610  0.360610  0.360610  1
  Zr  Zr33  1  0.175366  0.175366  0.175366  1
  Zr  Zr34  1  0.567981  0.567981  0.567981  1
  Zr  Zr35  1  0.212287  0.212287  0.212287  1
  Zr  Zr36  1  0.396724  0.396724  0.396724  1
  Zr  Zr37  1  0.250000  0.250000  0.250000  1
  Zr  Zr38  1  0.896724  0.896724  0.896724  1
  Zr  Zr39  1  0.824634  0.824634  0.824634  1
  Zr  Zr40  1  0.067981  0.067981  0.067981  1
  Zr  Zr41  1  0.639390  0.639390  0.639390  1
  Zr  Zr42  1  0.787713  0.787713  0.787713  1
  Zr  Zr43  1  0.932019  0.932019  0.932019  1
  Zr  Zr44  1  0.466415  0.466415  0.466415  1
  Zr  Zr45  1  0.324634  0.324634  0.324634  1
  Zr  Zr46  1  0.712287  0.712287  0.712287  1
  Zr  Zr47  1  0.432019  0.432019  0.432019  1
  Zr  Zr48  1  0.675366  0.675366  0.675366  1
  Zr  Zr49  1  0.103276  0.103276  0.103276  1
  Zr  Zr50  1  0.287713  0.287713  0.287713  1
  Zr  Zr51  1  0.533585  0.533585  0.533585  1
  Zr  Zr52  1  0.033585  0.033585  0.033585  1
  Zr  Zr53  1  0.000000  0.000000  0.000000  1
  Zr  Zr54  1  0.500000  0.500000  0.500000  1
  Zr  Zr55  1  0.860610  0.860610  0.860610  1
  Zr  Zr56  1  0.603276  0.603276  0.603276  1
  Zr  Zr57  1  0.750000  0.750000  0.750000  1
  Se  Se58  1  0.545751  0.203211  0.388332  1
  Se  Se59  1  0.034773  0.235085  0.883417  1
  Se  Se60  1  0.079196  0.382507  0.345771  1
  Se  Se61  1  0.862508  0.689667  0.527221  1
  Se  Se62  1  0.388332  0.545751  0.203211  1
  Se  Se63  1  0.883417  0.034773  0.235085  1
  Se  Se64  1  0.660788  0.480253  0.308094  1
  Se  Se65  1  0.611668  0.454249  0.796789  1
  Se  Se66  1  0.839212  0.191906  0.019747  1
  Se  Se67  1  0.382507  0.345771  0.079196  1
  Se  Se68  1  0.111668  0.296789  0.954249  1
  Se  Se69  1  0.160788  0.808094  0.980253  1
  Se  Se70  1  0.237081  0.583217  0.423034  1
  Se  Se71  1  0.616583  0.264915  0.465227  1
  Se  Se72  1  0.519747  0.691906  0.339212  1
  Se  Se73  1  0.203211  0.388332  0.545751  1
  Se  Se74  1  0.583217  0.423034  0.237081  1
  Se  Se75  1  0.004299  0.664609  0.861062  1
  Se  Se76  1  0.691906  0.339212  0.519747  1
  Se  Se77  1  0.689667  0.527221  0.862508  1
  Se  Se78  1  0.420804  0.154229  0.117493  1
  Se  Se79  1  0.735085  0.534773  0.383417  1
  Se  Se80  1  0.495701  0.638938  0.835391  1
  Se  Se81  1  0.345771  0.079196  0.382507  1
  Se  Se82  1  0.916783  0.262919  0.076966  1
  Se  Se83  1  0.117493  0.420804  0.154229  1
  Se  Se84  1  0.480253  0.308094  0.660788  1
  Se  Se85  1  0.296789  0.954249  0.111668  1
  Se  Se86  1  0.116583  0.965227  0.764915  1
  Se  Se87  1  0.617493  0.654229  0.920804  1
  Se  Se88  1  0.637492  0.972779  0.810333  1
  Se  Se89  1  0.191906  0.019747  0.839212  1
  Se  Se90  1  0.465227  0.616583  0.264915  1
  Se  Se91  1  0.235085  0.883417  0.034773  1
  Se  Se92  1  0.339212  0.519747  0.691906  1
  Se  Se93  1  0.189667  0.362508  0.027221  1
  Se  Se94  1  0.965227  0.764915  0.116583  1
  Se  Se95  1  0.808094  0.980253  0.160788  1
  Se  Se96  1  0.361062  0.164609  0.504299  1
  Se  Se97  1  0.138938  0.995701  0.335391  1
  Se  Se98  1  0.664609  0.861062  0.004299  1
  Se  Se99  1  0.534773  0.383417  0.735085  1
  Se  Se100  1  0.027221  0.189667  0.362508  1
  Se  Se101  1  0.923034  0.083217  0.737081  1
  Se  Se102  1  0.423034  0.237081  0.583217  1
  Se  Se103  1  0.954249  0.111668  0.296789  1
  Se  Se104  1  0.472779  0.137492  0.310333  1
  Se  Se105  1  0.076966  0.916783  0.262919  1
  Se  Se106  1  0.638938  0.835391  0.495701  1
  Se  Se107  1  0.019747  0.839212  0.191906  1
  Se  Se108  1  0.888332  0.703211  0.045751  1
  Se  Se109  1  0.576966  0.762919  0.416783  1
  Se  Se110  1  0.504299  0.361062  0.164609  1
  Se  Se111  1  0.920804  0.617493  0.654229  1
  Se  Se112  1  0.762919  0.416783  0.576966  1
  Se  Se113  1  0.262919  0.076966  0.916783  1
  Se  Se114  1  0.654229  0.920804  0.617493  1
  Se  Se115  1  0.737081  0.923034  0.083217  1
  Se  Se116  1  0.045751  0.888332  0.703211  1
  Se  Se117  1  0.164609  0.504299  0.361062  1
  Se  Se118  1  0.416783  0.576966  0.762919  1
  Se  Se119  1  0.154229  0.117493  0.420804  1
  Se  Se120  1  0.835391  0.495701  0.638938  1
  Se  Se121  1  0.362508  0.027221  0.189667  1
  Se  Se122  1  0.796789  0.611668  0.454249  1
  Se  Se123  1  0.310333  0.472779  0.137492  1
  Se  Se124  1  0.579196  0.845771  0.882507  1
  Se  Se125  1  0.810333  0.637492  0.972779  1
  Se  Se126  1  0.703211  0.045751  0.888332  1
  Se  Se127  1  0.972779  0.810333  0.637492  1
  Se  Se128  1  0.083217  0.737081  0.923034  1
  Se  Se129  1  0.527221  0.862508  0.689667  1
  Se  Se130  1  0.383417  0.735085  0.534773  1
  Se  Se131  1  0.335391  0.138938  0.995701  1
  Se  Se132  1  0.845771  0.882507  0.579196  1
  Se  Se133  1  0.137492  0.310333  0.472779  1
  Se  Se134  1  0.264915  0.465227  0.616583  1
  Se  Se135  1  0.764915  0.116583  0.965227  1
  Se  Se136  1  0.861062  0.004299  0.664609  1
  Se  Se137  1  0.454249  0.796789  0.611668  1
  Se  Se138  1  0.995701  0.335391  0.138938  1
  Se  Se139  1  0.308094  0.660788  0.480253  1
  Se  Se140  1  0.882507  0.579196  0.845771  1
  Se  Se141  1  0.980253  0.160788  0.808094  1
