# generated using pymatgen
data_Cs3V4Te2ClO14
_symmetry_space_group_name_H-M   'P 1'
_cell_length_a   5.57968636
_cell_length_b   6.94085648
_cell_length_c   24.44350453
_cell_angle_alpha   89.99991893
_cell_angle_beta   89.99999600
_cell_angle_gamma   90.00001036
_symmetry_Int_Tables_number   1
_chemical_formula_structural   Cs3V4Te2ClO14
_chemical_formula_sum   'Cs6 V8 Te4 Cl2 O28'
_cell_volume   946.64320920
_cell_formula_units_Z   2
loop_
 _symmetry_equiv_pos_site_id
 _symmetry_equiv_pos_as_xyz
  1  'x, y, z'
loop_
 _atom_site_type_symbol
 _atom_site_label
 _atom_site_symmetry_multiplicity
 _atom_site_fract_x
 _atom_site_fract_y
 _atom_site_fract_z
 _atom_site_occupancy
  Cs  Cs0  1  -0.000000  -0.000000  0.499999  1
  Cs  Cs1  1  0.500000  0.652974  0.770651  1
  Cs  Cs2  1  0.000000  0.152970  0.729348  1
  Cs  Cs3  1  0.000000  0.847026  0.270651  1
  Cs  Cs4  1  0.500000  0.347028  0.229348  1
  Cs  Cs5  1  0.500000  0.500000  0.000000  1
  V  V6  1  -0.000000  0.630555  0.637173  1
  V  V7  1  0.500000  0.869453  0.137168  1
  V  V8  1  -0.000000  0.563485  0.115964  1
  V  V9  1  0.500000  0.936507  0.615961  1
  V  V10  1  0.000000  0.369449  0.362825  1
  V  V11  1  0.500000  0.130548  0.862832  1
  V  V12  1  0.500000  0.063488  0.384035  1
  V  V13  1  0.000000  0.436514  0.884036  1
  Te  Te14  1  0.500000  0.572453  0.415946  1
  Te  Te15  1  0.500000  0.427544  0.584053  1
  Te  Te16  1  0.000000  0.072453  0.084054  1
  Te  Te17  1  -0.000000  0.927547  0.915946  1
  Cl  Cl18  1  0.000000  0.500000  0.500000  1
  Cl  Cl19  1  0.500000  -0.000001  -0.000000  1
  O  O20  1  0.251562  0.294400  0.898431  1
  O  O21  1  0.000000  0.350607  0.069507  1
  O  O22  1  0.000000  0.649392  0.930492  1
  O  O23  1  0.248424  0.794390  0.601568  1
  O  O24  1  0.251563  0.705600  0.101568  1
  O  O25  1  0.500000  0.002222  0.318903  1
  O  O26  1  0.751565  0.205601  0.398431  1
  O  O27  1  0.243814  0.581202  0.365368  1
  O  O28  1  0.751575  0.794390  0.601568  1
  O  O29  1  0.000000  0.299066  0.298193  1
  O  O30  1  0.748437  0.705600  0.101568  1
  O  O31  1  0.756184  0.418798  0.634630  1
  O  O32  1  0.743815  0.918797  0.865369  1
  O  O33  1  0.500000  0.997786  0.681106  1
  O  O34  1  0.500000  0.850606  0.430493  1
  O  O35  1  0.743816  0.081202  0.134630  1
  O  O36  1  0.248434  0.205601  0.398431  1
  O  O37  1  0.500000  0.200939  0.798189  1
  O  O38  1  0.256184  0.081202  0.134630  1
  O  O39  1  -0.000000  0.700944  0.701816  1
  O  O40  1  0.256185  0.918797  0.865369  1
  O  O41  1  -0.000000  0.497779  0.818901  1
  O  O42  1  0.748438  0.294400  0.898431  1
  O  O43  1  0.756186  0.581203  0.365368  1
  O  O44  1  0.500000  0.799061  0.201812  1
  O  O45  1  0.000000  0.502221  0.181099  1
  O  O46  1  0.243816  0.418798  0.634630  1
  O  O47  1  0.500000  0.149402  0.569506  1
