# generated using pymatgen
data_ZnH8C2(SN3)2
_symmetry_space_group_name_H-M   'P 1'
_cell_length_a   7.18838851
_cell_length_b   14.93578500
_cell_length_c   4.30203516
_cell_angle_alpha   90.00000000
_cell_angle_beta   105.55525080
_cell_angle_gamma   90.00000000
_symmetry_Int_Tables_number   1
_chemical_formula_structural   ZnH8C2(SN3)2
_chemical_formula_sum   'Zn2 H16 C4 S4 N12'
_cell_volume   444.96690069
_cell_formula_units_Z   2
loop_
 _symmetry_equiv_pos_site_id
 _symmetry_equiv_pos_as_xyz
  1  'x, y, z'
loop_
 _atom_site_type_symbol
 _atom_site_label
 _atom_site_symmetry_multiplicity
 _atom_site_fract_x
 _atom_site_fract_y
 _atom_site_fract_z
 _atom_site_occupancy
  Zn  Zn0  1  0.000000  0.000000  0.000000  1
  Zn  Zn1  1  0.500000  0.500000  0.000000  1
  H  H2  1  0.073219  0.874382  0.463137  1
  H  H3  1  0.426781  0.374382  0.536863  1
  H  H4  1  0.926781  0.125618  0.536863  1
  H  H5  1  0.573219  0.625618  0.463137  1
  H  H6  1  0.883971  0.847338  0.169004  1
  H  H7  1  0.616029  0.347338  0.830996  1
  H  H8  1  0.116029  0.152662  0.830996  1
  H  H9  1  0.383971  0.652662  0.169004  1
  H  H10  1  0.731425  0.870187  0.528685  1
  H  H11  1  0.768575  0.370187  0.471315  1
  H  H12  1  0.268575  0.129813  0.471315  1
  H  H13  1  0.231425  0.629813  0.528685  1
  H  H14  1  0.740220  0.974985  0.423558  1
  H  H15  1  0.759780  0.474985  0.576442  1
  H  H16  1  0.259780  0.025015  0.576442  1
  H  H17  1  0.240220  0.525015  0.423558  1
  C  C18  1  0.634690  0.126221  0.043576  1
  C  C19  1  0.865310  0.626220  0.956424  1
  C  C20  1  0.365310  0.873780  0.956424  1
  C  C21  1  0.134690  0.373779  0.043576  1
  S  S22  1  0.485826  0.202483  0.097275  1
  S  S23  1  0.014174  0.702483  0.902725  1
  S  S24  1  0.514174  0.797517  0.902725  1
  S  S25  1  0.985826  0.297517  0.097275  1
  N  N26  1  0.945684  0.898969  0.320452  1
  N  N27  1  0.554316  0.398969  0.679548  1
  N  N28  1  0.054316  0.101031  0.679548  1
  N  N29  1  0.445684  0.601031  0.320452  1
  N  N30  1  0.825564  0.922324  0.529881  1
  N  N31  1  0.674436  0.422324  0.470119  1
  N  N32  1  0.174436  0.077676  0.470119  1
  N  N33  1  0.325564  0.577676  0.529881  1
  N  N34  1  0.744082  0.069938  0.007943  1
  N  N35  1  0.755918  0.569938  0.992057  1
  N  N36  1  0.255918  0.930062  0.992057  1
  N  N37  1  0.244082  0.430062  0.007943  1
