# generated using pymatgen
data_H8N2O
_symmetry_space_group_name_H-M   'P 1'
_cell_length_a   9.79544158
_cell_length_b   8.79073592
_cell_length_c   4.36801191
_cell_angle_alpha   90.00000000
_cell_angle_beta   85.77875183
_cell_angle_gamma   90.00000000
_symmetry_Int_Tables_number   1
_chemical_formula_structural   H8N2O
_chemical_formula_sum   'H32 N8 O4'
_cell_volume   375.10541362
_cell_formula_units_Z   4
loop_
 _symmetry_equiv_pos_site_id
 _symmetry_equiv_pos_as_xyz
  1  'x, y, z'
loop_
 _atom_site_type_symbol
 _atom_site_label
 _atom_site_symmetry_multiplicity
 _atom_site_fract_x
 _atom_site_fract_y
 _atom_site_fract_z
 _atom_site_occupancy
  H  H0  1  0.459026  0.814599  0.512921  1
  H  H1  1  0.265543  0.910324  0.586628  1
  H  H2  1  0.371059  0.664136  0.544771  1
  H  H3  1  0.607895  0.611582  0.246963  1
  H  H4  1  0.239796  0.883877  0.951324  1
  H  H5  1  0.370900  0.553803  0.001673  1
  H  H6  1  0.535912  0.810557  0.964764  1
  H  H7  1  0.175374  0.653613  0.242269  1
  H  H8  1  0.078770  0.516178  0.382778  1
  H  H9  1  0.974930  0.375049  0.541687  1
  H  H10  1  0.344271  0.183073  0.253618  1
  H  H11  1  0.138955  0.127850  0.359749  1
  H  H12  1  0.913556  0.078013  0.244410  1
  H  H13  1  0.250901  0.455700  0.851201  1
  H  H14  1  0.994717  0.318682  0.894398  1
  H  H15  1  0.156472  0.099574  0.001563  1
  H  H16  1  0.578770  0.983822  0.882778  1
  H  H17  1  0.474930  0.124951  0.041687  1
  H  H18  1  0.494717  0.181318  0.394398  1
  H  H19  1  0.656472  0.400426  0.501563  1
  H  H20  1  0.750901  0.044300  0.351201  1
  H  H21  1  0.638955  0.372150  0.859749  1
  H  H22  1  0.413556  0.421987  0.744410  1
  H  H23  1  0.844271  0.316927  0.753618  1
  H  H24  1  0.959026  0.685401  0.012921  1
  H  H25  1  0.107895  0.888418  0.746963  1
  H  H26  1  0.765543  0.589676  0.086628  1
  H  H27  1  0.739796  0.616123  0.451324  1
  H  H28  1  0.675374  0.846387  0.742269  1
  H  H29  1  0.035912  0.689443  0.464764  1
  H  H30  1  0.871059  0.835864  0.044771  1
  H  H31  1  0.870900  0.946197  0.501673  1
  N  N32  1  0.075299  0.621932  0.288843  1
  N  N33  1  0.432110  0.120709  0.261138  1
  N  N34  1  0.932110  0.379291  0.761138  1
  N  N35  1  0.575299  0.878068  0.788843  1
  N  N36  1  0.700028  0.559559  0.272897  1
  N  N37  1  0.843467  0.993620  0.300973  1
  N  N38  1  0.343467  0.506380  0.800973  1
  N  N39  1  0.200028  0.940441  0.772897  1
  O  O40  1  0.397457  0.748552  0.395254  1
  O  O41  1  0.118327  0.173429  0.164896  1
  O  O42  1  0.618327  0.326571  0.664896  1
  O  O43  1  0.897457  0.751448  0.895254  1
