# generated using pymatgen
data_RbTiPO5
_symmetry_space_group_name_H-M   'P 1'
_cell_length_a   8.61768420
_cell_length_b   9.95077706
_cell_length_c   10.31114166
_cell_angle_alpha   90.00000000
_cell_angle_beta   90.00000000
_cell_angle_gamma   90.00000000
_symmetry_Int_Tables_number   1
_chemical_formula_structural   RbTiPO5
_chemical_formula_sum   'Rb8 Ti8 P8 O40'
_cell_volume   884.20776567
_cell_formula_units_Z   8
loop_
 _symmetry_equiv_pos_site_id
 _symmetry_equiv_pos_as_xyz
  1  'x, y, z'
loop_
 _atom_site_type_symbol
 _atom_site_label
 _atom_site_symmetry_multiplicity
 _atom_site_fract_x
 _atom_site_fract_y
 _atom_site_fract_z
 _atom_site_occupancy
  Rb  Rb0  1  0.450573  0.602476  0.652301  1
  Rb  Rb1  1  0.950573  0.102476  0.847699  1
  Rb  Rb2  1  0.321694  0.892926  0.560249  1
  Rb  Rb3  1  0.178306  0.892926  0.060249  1
  Rb  Rb4  1  0.549427  0.102476  0.347699  1
  Rb  Rb5  1  0.821694  0.392926  0.939751  1
  Rb  Rb6  1  0.678306  0.392926  0.439751  1
  Rb  Rb7  1  0.049427  0.602476  0.152301  1
  Ti  Ti8  1  0.716358  0.746116  0.349493  1
  Ti  Ti9  1  0.685784  0.885592  0.106412  1
  Ti  Ti10  1  0.216358  0.246116  0.150507  1
  Ti  Ti11  1  0.283642  0.246116  0.650507  1
  Ti  Ti12  1  0.814216  0.885592  0.606412  1
  Ti  Ti13  1  0.185784  0.385592  0.393588  1
  Ti  Ti14  1  0.783642  0.746116  0.849493  1
  Ti  Ti15  1  0.314216  0.385592  0.893588  1
  P  P16  1  0.490686  0.058277  0.980572  1
  P  P17  1  0.405169  0.715322  0.270970  1
  P  P18  1  0.990686  0.558277  0.519428  1
  P  P19  1  0.905169  0.215322  0.229030  1
  P  P20  1  0.594831  0.215322  0.729030  1
  P  P21  1  0.509314  0.558277  0.019428  1
  P  P22  1  0.094831  0.715322  0.770970  1
  P  P23  1  0.009314  0.058277  0.480572  1
  O  O24  1  0.269080  0.168314  0.833422  1
  O  O25  1  0.159099  0.039140  0.365119  1
  O  O26  1  0.139274  0.567744  0.411739  1
  O  O27  1  0.495319  0.901630  0.984273  1
  O  O28  1  0.905304  0.146479  0.377785  1
  O  O29  1  0.691140  0.881628  0.753303  1
  O  O30  1  0.513923  0.844694  0.246919  1
  O  O31  1  0.159082  0.356374  0.012327  1
  O  O32  1  0.769080  0.668314  0.666578  1
  O  O33  1  0.522692  0.633594  0.362969  1
  O  O34  1  0.659099  0.539140  0.134881  1
  O  O35  1  0.126229  0.136496  0.576719  1
  O  O36  1  0.639274  0.067744  0.088261  1
  O  O37  1  -0.004681  0.401630  0.515727  1
  O  O38  1  0.873771  0.636496  0.423281  1
  O  O39  1  0.405304  0.646479  0.122215  1
  O  O40  1  0.477308  0.133595  0.637031  1
  O  O41  1  0.191140  0.381628  0.746697  1
  O  O42  1  0.840918  0.856374  -0.012327  1
  O  O43  1  0.486077  0.344694  0.753081  1
  O  O44  1  0.013923  0.344694  0.253081  1
  O  O45  1  0.659082  0.856374  0.487673  1
  O  O46  1  0.308860  0.381628  0.246697  1
  O  O47  1  0.022692  0.133595  0.137031  1
  O  O48  1  0.094696  0.646479  0.622215  1
  O  O49  1  0.626229  0.636496  0.923281  1
  O  O50  1  0.504681  0.401630  0.015727  1
  O  O51  1  0.860726  0.067744  0.588261  1
  O  O52  1  0.373771  0.136496  0.076719  1
  O  O53  1  0.840901  0.539140  0.634881  1
  O  O54  1  0.977308  0.633594  0.862969  1
  O  O55  1  0.730920  0.668314  0.166578  1
  O  O56  1  0.340918  0.356374  0.512327  1
  O  O57  1  -0.013923  0.844694  0.746919  1
  O  O58  1  0.808860  0.881628  0.253303  1
  O  O59  1  0.594696  0.146479  0.877785  1
  O  O60  1  0.004681  0.901630  0.484273  1
  O  O61  1  0.360726  0.567744  0.911739  1
  O  O62  1  0.340901  0.039140  0.865119  1
  O  O63  1  0.230920  0.168314  0.333422  1
