# generated using pymatgen
data_LiSn(PO3)3
_symmetry_space_group_name_H-M   'P 1'
_cell_length_a   10.48303863
_cell_length_b   10.46807831
_cell_length_c   9.77906884
_cell_angle_alpha   107.65777938
_cell_angle_beta   103.88241009
_cell_angle_gamma   112.82637027
_symmetry_Int_Tables_number   1
_chemical_formula_structural   LiSn(PO3)3
_chemical_formula_sum   'Li4 Sn4 P12 O36'
_cell_volume   860.81980267
_cell_formula_units_Z   4
loop_
 _symmetry_equiv_pos_site_id
 _symmetry_equiv_pos_as_xyz
  1  'x, y, z'
loop_
 _atom_site_type_symbol
 _atom_site_label
 _atom_site_symmetry_multiplicity
 _atom_site_fract_x
 _atom_site_fract_y
 _atom_site_fract_z
 _atom_site_occupancy
  Li  Li0  1  0.506827  0.935908  0.337572  1
  Li  Li1  1  0.368215  0.119105  0.337089  1
  Li  Li2  1  0.493173  0.064092  0.662428  1
  Li  Li3  1  0.631785  0.880895  0.662911  1
  Sn  Sn4  1  0.784756  0.672739  0.875752  1
  Sn  Sn5  1  0.275195  0.246838  0.734617  1
  Sn  Sn6  1  0.724805  0.753162  0.265383  1
  Sn  Sn7  1  0.215244  0.327261  0.124248  1
  P  P8  1  0.826719  0.206471  0.965132  1
  P  P9  1  0.358710  0.648469  0.990966  1
  P  P10  1  0.403837  0.611671  0.689926  1
  P  P11  1  0.173281  0.793529  0.034868  1
  P  P12  1  0.122453  0.851894  0.491988  1
  P  P13  1  0.914255  0.102248  0.207819  1
  P  P14  1  0.299519  0.694284  0.440525  1
  P  P15  1  0.085745  0.897752  0.792181  1
  P  P16  1  0.700481  0.305716  0.559475  1
  P  P17  1  0.641290  0.351531  0.009034  1
  P  P18  1  0.596163  0.388329  0.310074  1
  P  P19  1  0.877547  0.148106  0.508012  1
  O  O20  1  0.514796  0.220201  0.857556  1
  O  O21  1  0.265276  0.006449  0.561772  1
  O  O22  1  0.270551  0.565400  0.294813  1
  O  O23  1  0.554715  0.153491  0.493271  1
  O  O24  1  0.713160  0.360039  0.423979  1
  O  O25  1  0.988141  0.276421  0.982767  1
  O  O26  1  0.704205  0.086395  0.805672  1
  O  O27  1  0.734724  0.993551  0.438228  1
  O  O28  1  0.485204  0.779799  0.142444  1
  O  O29  1  0.445285  0.846509  0.506729  1
  O  O30  1  0.345822  0.442507  0.634618  1
  O  O31  1  0.562311  0.713958  0.710558  1
  O  O32  1  0.907875  0.193781  0.370047  1
  O  O33  1  0.163359  0.068494  0.840979  1
  O  O34  1  0.092125  0.806219  0.629953  1
  O  O35  1  0.154170  0.717874  0.402207  1
  O  O36  1  0.387041  0.687209  0.850014  1
  O  O37  1  0.845830  0.282126  0.597793  1
  O  O38  1  0.202060  0.650817  0.971947  1
  O  O39  1  0.674113  0.513444  0.038905  1
  O  O40  1  0.075924  0.179355  0.222948  1
  O  O41  1  0.654178  0.557493  0.365382  1
  O  O42  1  0.836641  0.931506  0.159021  1
  O  O43  1  0.011859  0.723579  0.017233  1
  O  O44  1  0.809046  0.137355  0.091267  1
  O  O45  1  0.437689  0.286042  0.289442  1
  O  O46  1  0.980642  0.830600  0.382310  1
  O  O47  1  0.797940  0.349183  0.028053  1
  O  O48  1  0.190954  0.862645  0.908733  1
  O  O49  1  0.019358  0.169400  0.617690  1
  O  O50  1  0.286840  0.639961  0.576021  1
  O  O51  1  0.924076  0.820645  0.777052  1
  O  O52  1  0.295795  0.913605  0.194328  1
  O  O53  1  0.612959  0.312791  0.149986  1
  O  O54  1  0.325887  0.486556  0.961095  1
  O  O55  1  0.729449  0.434600  0.705187  1
