# generated using pymatgen
data_RbCr3S5
_symmetry_space_group_name_H-M   'P 1'
_cell_length_a   3.54097245
_cell_length_b   9.92566205
_cell_length_c   10.90123987
_cell_angle_alpha   71.74163074
_cell_angle_beta   80.65310853
_cell_angle_gamma   79.72489831
_symmetry_Int_Tables_number   1
_chemical_formula_structural   RbCr3S5
_chemical_formula_sum   'Rb2 Cr6 S10'
_cell_volume   355.68127953
_cell_formula_units_Z   2
loop_
 _symmetry_equiv_pos_site_id
 _symmetry_equiv_pos_as_xyz
  1  'x, y, z'
loop_
 _atom_site_type_symbol
 _atom_site_label
 _atom_site_symmetry_multiplicity
 _atom_site_fract_x
 _atom_site_fract_y
 _atom_site_fract_z
 _atom_site_occupancy
  Rb  Rb0  1  0.254156  0.656902  0.834786  1
  Rb  Rb1  1  0.745844  0.343098  0.165214  1
  Cr  Cr2  1  0.983506  0.262520  0.770468  1
  Cr  Cr3  1  0.834940  0.941171  0.388950  1
  Cr  Cr4  1  0.500000  0.000000  0.000000  1
  Cr  Cr5  1  0.016494  0.737480  0.229532  1
  Cr  Cr6  1  0.165060  0.058829  0.611050  1
  Cr  Cr7  1  0.500000  0.500000  0.500000  1
  S  S8  1  0.409779  0.263557  0.916886  1
  S  S9  1  0.424563  0.758622  0.392253  1
  S  S10  1  0.074401  0.002789  0.848410  1
  S  S11  1  0.575437  0.241378  0.607747  1
  S  S12  1  0.921029  0.507540  0.650403  1
  S  S13  1  0.925599  0.997211  0.151590  1
  S  S14  1  0.256281  0.103182  0.384255  1
  S  S15  1  0.590221  0.736444  0.083114  1
  S  S16  1  0.743719  0.896818  0.615745  1
  S  S17  1  0.078971  0.492460  0.349597  1
