# generated using pymatgen
data_Nb17Ir3S40
_symmetry_space_group_name_H-M   'P 1'
_cell_length_a   3.43740435
_cell_length_b   33.89901202
_cell_length_c   21.06836891
_cell_angle_alpha   35.92909841
_cell_angle_beta   114.07216182
_cell_angle_gamma   120.46464563
_symmetry_Int_Tables_number   1
_chemical_formula_structural   Nb17Ir3S40
_chemical_formula_sum   'Nb17 Ir3 S40'
_cell_volume   1241.64867101
_cell_formula_units_Z   1
loop_
 _symmetry_equiv_pos_site_id
 _symmetry_equiv_pos_as_xyz
  1  'x, y, z'
loop_
 _atom_site_type_symbol
 _atom_site_label
 _atom_site_symmetry_multiplicity
 _atom_site_fract_x
 _atom_site_fract_y
 _atom_site_fract_z
 _atom_site_occupancy
  Nb  Nb0  1  0.956110  0.938504  0.505435  1
  Nb  Nb1  1  0.000000  0.850000  0.500000  1
  Nb  Nb2  1  0.043890  0.761496  0.494565  1
  Nb  Nb3  1  0.999459  0.900705  0.998374  1
  Nb  Nb4  1  0.000541  0.799295  0.001626  1
  Nb  Nb5  1  0.048215  0.559967  0.499352  1
  Nb  Nb6  1  0.000692  0.600247  0.999783  1
  Nb  Nb7  1  0.953515  0.441444  0.498519  1
  Nb  Nb8  1  0.000984  0.699754  0.000886  1
  Nb  Nb9  1  0.998247  0.399390  0.000518  1
  Nb  Nb10  1  0.951785  0.140033  0.500648  1
  Nb  Nb11  1  -0.002124  0.498953  0.001244  1
  Nb  Nb12  1  0.046485  0.258556  0.501481  1
  Nb  Nb13  1  0.001753  0.300610  0.999482  1
  Nb  Nb14  1  0.002124  0.201047  0.998756  1
  Nb  Nb15  1  -0.000692  0.099753  0.000217  1
  Nb  Nb16  1  0.999016  0.000246  0.999114  1
  Ir  Ir17  1  0.960103  0.640234  0.503573  1
  Ir  Ir18  1  0.000000  0.350000  0.500000  1
  Ir  Ir19  1  0.039897  0.059766  0.496427  1
  S  S20  1  0.667940  -0.003581  0.874337  1
  S  S21  1  0.353298  0.970220  0.600880  1
  S  S22  1  0.664592  0.894592  0.876653  1
  S  S23  1  0.333446  0.849813  0.633754  1
  S  S24  1  0.668383  0.795232  0.876888  1
  S  S25  1  0.337253  0.752916  0.629071  1
  S  S26  1  0.668373  0.695575  0.876198  1
  S  S27  1  0.662747  0.947084  0.370929  1
  S  S28  1  0.317477  0.661902  0.603188  1
  S  S29  1  0.331617  0.904768  0.123112  1
  S  S30  1  0.666554  0.850187  0.366246  1
  S  S31  1  0.666242  0.594877  0.876741  1
  S  S32  1  0.341603  0.553741  0.629159  1
  S  S33  1  0.335408  0.805408  0.123347  1
  S  S34  1  0.646702  0.729780  0.399120  1
  S  S35  1  0.667957  0.495130  0.876922  1
  S  S36  1  0.330268  0.461199  0.609710  1
  S  S37  1  0.332060  0.703581  0.125663  1
  S  S38  1  0.668368  0.396008  0.875330  1
  S  S39  1  0.668882  0.649438  0.368677  1
  S  S40  1  0.332060  0.603916  0.124994  1
  S  S41  1  0.318004  0.349492  0.628219  1
  S  S42  1  0.669063  0.296518  0.874589  1
  S  S43  1  0.658582  0.537780  0.387872  1
  S  S44  1  0.332435  0.504642  0.123691  1
  S  S45  1  0.362567  0.260799  0.623429  1
  S  S46  1  0.637433  0.439201  0.376571  1
  S  S47  1  0.667565  0.195358  0.876309  1
  S  S48  1  0.330937  0.403482  0.125411  1
  S  S49  1  0.341418  0.162220  0.612128  1
  S  S50  1  0.667940  0.096084  0.875006  1
  S  S51  1  0.681996  0.350508  0.371781  1
  S  S52  1  0.331118  0.050562  0.631323  1
  S  S53  1  0.331632  0.303992  0.124670  1
  S  S54  1  0.669732  0.238801  0.390290  1
  S  S55  1  0.332043  0.204870  0.123078  1
  S  S56  1  0.658397  0.146259  0.370841  1
  S  S57  1  0.333758  0.105123  0.123259  1
  S  S58  1  0.682523  0.038098  0.396812  1
  S  S59  1  0.331627  0.004425  0.123802  1
