# generated using pymatgen
data_Ca2H2S2O9
_symmetry_space_group_name_H-M   'P 1'
_cell_length_a   9.55282519
_cell_length_b   9.56131099
_cell_length_c   9.55282519
_cell_angle_alpha   99.14430096
_cell_angle_beta   136.04366171
_cell_angle_gamma   96.94756465
_symmetry_Int_Tables_number   1
_chemical_formula_structural   Ca2H2S2O9
_chemical_formula_sum   'Ca6 H6 S6 O27'
_cell_volume   561.56373104
_cell_formula_units_Z   3
loop_
 _symmetry_equiv_pos_site_id
 _symmetry_equiv_pos_as_xyz
  1  'x, y, z'
loop_
 _atom_site_type_symbol
 _atom_site_label
 _atom_site_symmetry_multiplicity
 _atom_site_fract_x
 _atom_site_fract_y
 _atom_site_fract_z
 _atom_site_occupancy
  Ca  Ca0  1  0.463977  0.000000  0.463977  1
  Ca  Ca1  1  0.004216  0.500000  0.504216  1
  Ca  Ca2  1  0.096134  0.567871  0.001563  1
  Ca  Ca3  1  0.433692  0.432129  0.528263  1
  Ca  Ca4  1  0.917190  0.917095  0.504480  1
  Ca  Ca5  1  0.587385  0.082905  0.000095  1
  H  H6  1  0.646894  0.562508  0.211808  1
  H  H7  1  0.649300  0.437492  0.084386  1
  H  H8  1  0.996612  0.125010  0.789001  1
  H  H9  1  0.663991  0.874990  0.871602  1
  H  H10  1  0.188294  0.060592  0.916240  1
  H  H11  1  0.855648  0.939408  0.127702  1
  S  S12  1  0.191291  0.189071  0.544978  1
  S  S13  1  0.355907  0.810929  0.002219  1
  S  S14  1  0.206374  0.749951  0.454331  1
  S  S15  1  0.704380  0.250049  0.456422  1
  S  S16  1  0.855194  0.310848  0.997563  1
  S  S17  1  0.686715  0.689152  0.544346  1
  O  O18  1  0.700017  0.848449  0.585545  1
  O  O19  1  0.737096  0.151551  0.851568  1
  O  O20  1  0.212867  0.350995  0.590623  1
  O  O21  1  0.239628  0.649005  0.861872  1
  O  O22  1  0.587574  0.854315  0.144478  1
  O  O23  1  0.290163  0.145685  0.733259  1
  O  O24  1  0.088946  0.358524  0.142770  1
  O  O25  1  0.784246  0.641476  0.730422  1
  O  O26  1  0.158628  0.744538  0.267079  1
  O  O27  1  0.522541  0.255462  0.414089  1
  O  O28  1  0.655944  0.246248  0.269186  1
  O  O29  1  0.022939  0.753753  0.409697  1
  O  O30  1  0.457947  0.585377  0.357408  1
  O  O31  1  0.772031  0.414623  0.872570  1
  O  O32  1  0.959259  0.089765  0.364726  1
  O  O33  1  0.274961  0.910235  0.869495  1
  O  O34  1  0.315827  0.831677  0.127559  1
  O  O35  1  0.295882  0.168323  0.484150  1
  O  O36  1  0.820937  0.326065  0.129965  1
  O  O37  1  0.803900  0.673935  0.494872  1
  O  O38  1  0.744711  0.109012  0.506044  1
  O  O39  1  0.397032  0.890988  0.635699  1
  O  O40  1  0.256073  0.614002  0.514353  1
  O  O41  1  0.900351  0.385998  0.642071  1
  O  O42  1  0.567887  0.500000  0.067887  1
  O  O43  1  0.133617  0.133434  0.932340  1
  O  O44  1  0.798905  0.866566  0.000183  1
