# generated using pymatgen
data_Li2CoCl4
_symmetry_space_group_name_H-M   'P 1'
_cell_length_a   7.48926020
_cell_length_b   7.25630465
_cell_length_c   21.79789865
_cell_angle_alpha   61.79791781
_cell_angle_beta   58.57780439
_cell_angle_gamma   59.04740705
_symmetry_Int_Tables_number   1
_chemical_formula_structural   Li2CoCl4
_chemical_formula_sum   'Li12 Co6 Cl24'
_cell_volume   832.40107946
_cell_formula_units_Z   6
loop_
 _symmetry_equiv_pos_site_id
 _symmetry_equiv_pos_as_xyz
  1  'x, y, z'
loop_
 _atom_site_type_symbol
 _atom_site_label
 _atom_site_symmetry_multiplicity
 _atom_site_fract_x
 _atom_site_fract_y
 _atom_site_fract_z
 _atom_site_occupancy
  Cl  Cl0  1  0.241101  0.261602  0.077827  1
  Cl  Cl1  1  0.257131  0.268660  0.253765  1
  Cl  Cl2  1  0.279056  0.761023  0.078650  1
  Cl  Cl3  1  0.244117  0.271877  0.411256  1
  Cl  Cl4  1  0.247295  0.735548  0.257443  1
  Cl  Cl5  1  0.755105  0.271396  0.076967  1
  Cl  Cl6  1  0.255926  0.263524  0.588225  1
  Cl  Cl7  1  0.283790  0.736353  0.412144  1
  Cl  Cl8  1  0.730654  0.259095  0.250423  1
  Cl  Cl9  1  0.732568  0.763972  0.076605  1
  Cl  Cl10  1  0.244913  0.731099  0.592461  1
  Cl  Cl11  1  0.240014  0.271008  0.746512  1
  Cl  Cl12  1  0.749761  0.266457  0.408949  1
  Cl  Cl13  1  0.754491  0.731176  0.253632  1
  Cl  Cl14  1  0.261402  0.235566  0.924281  1
  Cl  Cl15  1  0.277752  0.734803  0.746724  1
  Cl  Cl16  1  0.727752  0.254842  0.585469  1
  Cl  Cl17  1  0.737334  0.745352  0.414766  1
  Cl  Cl18  1  0.236045  0.725764  0.921363  1
  Cl  Cl19  1  0.750022  0.266296  0.741647  1
  Cl  Cl20  1  0.751618  0.726733  0.589382  1
  Cl  Cl21  1  0.728437  0.223579  0.916845  1
  Cl  Cl22  1  0.734854  0.744179  0.750508  1
  Cl  Cl23  1  0.753843  0.729277  0.921627  1
  Co  Co24  1  0.987471  0.502901  0.001020  1
  Co  Co25  1  0.502097  0.995803  0.999473  1
  Co  Co26  1  0.980971  0.508857  0.335380  1
  Co  Co27  1  0.983444  0.507184  0.668890  1
  Co  Co28  1  0.495558  0.494828  0.331394  1
  Co  Co29  1  0.497335  0.492537  0.665134  1
  Li  Li30  1  0.366664  0.047659  0.181893  1
  Li  Li31  1  0.500443  0.492988  0.996365  1
  Li  Li32  1  0.504134  0.498196  0.167348  1
  Li  Li33  1  0.365995  0.044397  0.514846  1
  Li  Li34  1  0.507564  0.498138  0.501117  1
  Li  Li35  1  0.508930  0.997606  0.333967  1
  Li  Li36  1  0.393267  0.016364  0.842597  1
  Li  Li37  1  0.955221  0.985829  0.156135  1
  Li  Li38  1  0.505026  -0.000491  0.666863  1
  Li  Li39  1  0.505641  0.503423  0.830135  1
  Li  Li40  1  0.954357  0.959216  0.485328  1
  Li  Li41  1  0.964899  0.975384  0.824643  1
