# generated using pymatgen
data_KH3C2O3
_symmetry_space_group_name_H-M   'P 1'
_cell_length_a   3.87148992
_cell_length_b   5.70277508
_cell_length_c   10.03190867
_cell_angle_alpha   101.04270965
_cell_angle_beta   90.25248037
_cell_angle_gamma   92.48995527
_symmetry_Int_Tables_number   1
_chemical_formula_structural   KH3C2O3
_chemical_formula_sum   'K2 H6 C4 O6'
_cell_volume   217.16240789
_cell_formula_units_Z   2
loop_
 _symmetry_equiv_pos_site_id
 _symmetry_equiv_pos_as_xyz
  1  'x, y, z'
loop_
 _atom_site_type_symbol
 _atom_site_label
 _atom_site_symmetry_multiplicity
 _atom_site_fract_x
 _atom_site_fract_y
 _atom_site_fract_z
 _atom_site_occupancy
  K  K0  1  0.875602  0.710757  0.875523  1
  K  K1  1  0.124398  0.289243  0.124477  1
  H  H2  1  0.009175  0.174521  0.610850  1
  H  H3  1  0.990825  0.825479  0.389150  1
  H  H4  1  0.169038  0.463121  0.586334  1
  H  H5  1  0.830962  0.536879  0.413666  1
  H  H6  1  0.419608  0.204564  0.533009  1
  H  H7  1  0.580392  0.795436  0.466991  1
  C  C8  1  0.489139  0.156405  0.803713  1
  C  C9  1  0.510861  0.843595  0.196287  1
  C  C10  1  0.241173  0.291517  0.610027  1
  C  C11  1  0.758827  0.708483  0.389973  1
  O  O12  1  0.405754  0.349835  0.742332  1
  O  O13  1  0.594246  0.650165  0.257668  1
  O  O14  1  0.393045  0.948597  0.746025  1
  O  O15  1  0.606955  0.051403  0.253975  1
  O  O16  1  0.658122  0.224108  0.914214  1
  O  O17  1  0.341878  0.775892  0.085786  1
