# generated using pymatgen
data_Ba(H8O5)2
_symmetry_space_group_name_H-M   'P 1'
_cell_length_a   6.54310512
_cell_length_b   6.55055281
_cell_length_c   11.38550667
_cell_angle_alpha   90.02550941
_cell_angle_beta   90.00000000
_cell_angle_gamma   90.00000000
_symmetry_Int_Tables_number   1
_chemical_formula_structural   Ba(H8O5)2
_chemical_formula_sum   'Ba2 H32 O20'
_cell_volume   487.99364768
_cell_formula_units_Z   2
loop_
 _symmetry_equiv_pos_site_id
 _symmetry_equiv_pos_as_xyz
  1  'x, y, z'
loop_
 _atom_site_type_symbol
 _atom_site_label
 _atom_site_symmetry_multiplicity
 _atom_site_fract_x
 _atom_site_fract_y
 _atom_site_fract_z
 _atom_site_occupancy
  Ba  Ba0  1  0.003774  0.995798  0.251633  1
  Ba  Ba1  1  0.996226  0.995798  0.751633  1
  H  H2  1  0.040208  0.455060  0.370706  1
  H  H3  1  0.277598  0.401805  0.353019  1
  H  H4  1  0.719873  0.597929  0.352865  1
  H  H5  1  0.853253  0.665703  0.464081  1
  H  H6  1  0.596052  0.278955  0.352982  1
  H  H7  1  0.666589  0.146991  0.463871  1
  H  H8  1  0.456758  0.960414  0.369559  1
  H  H9  1  0.401682  0.722316  0.352993  1
  H  H10  1  0.722402  0.401805  0.853019  1
  H  H11  1  0.959792  0.455060  0.870706  1
  H  H12  1  0.280127  0.597929  0.852865  1
  H  H13  1  0.146747  0.665703  0.964081  1
  H  H14  1  0.403948  0.278955  0.852982  1
  H  H15  1  0.333411  0.146991  0.963871  1
  H  H16  1  0.598318  0.722316  0.852993  1
  H  H17  1  0.543242  0.960414  0.869559  1
  H  H18  1  0.957327  0.543094  0.630547  1
  H  H19  1  0.721269  0.598827  0.647673  1
  H  H20  1  0.264292  0.397008  0.659666  1
  H  H21  1  0.151774  0.336033  0.541346  1
  H  H22  1  0.402057  0.720167  0.648234  1
  H  H23  1  0.334141  0.852651  0.536100  1
  H  H24  1  0.543144  0.039839  0.630439  1
  H  H25  1  0.597316  0.277401  0.647636  1
  H  H26  1  0.042673  0.543094  0.130547  1
  H  H27  1  0.278731  0.598827  0.147673  1
  H  H28  1  0.735708  0.397008  0.159666  1
  H  H29  1  0.848226  0.336033  0.041346  1
  H  H30  1  0.597943  0.720167  0.148234  1
  H  H31  1  0.665859  0.852651  0.036100  1
  H  H32  1  0.456856  0.039839  0.130439  1
  H  H33  1  0.402684  0.277401  0.147636  1
  O  O34  1  0.498955  0.501359  0.317621  1
  O  O35  1  0.501045  0.501359  0.817621  1
  O  O36  1  0.495927  0.498575  0.686151  1
  O  O37  1  0.504073  0.498575  0.186151  1
  O  O38  1  0.141802  0.343067  0.381639  1
  O  O39  1  0.859857  0.654431  0.376671  1
  O  O40  1  0.654817  0.140178  0.376421  1
  O  O41  1  0.343106  0.859894  0.379362  1
  O  O42  1  0.858198  0.343067  0.881639  1
  O  O43  1  0.140143  0.654431  0.876671  1
  O  O44  1  0.345183  0.140178  0.876421  1
  O  O45  1  0.656894  0.859894  0.879362  1
  O  O46  1  0.857741  0.657376  0.620480  1
  O  O47  1  0.130107  0.342427  0.628474  1
  O  O48  1  0.344963  0.859250  0.623546  1
  O  O49  1  0.656375  0.140723  0.620618  1
  O  O50  1  0.142259  0.657376  0.120480  1
  O  O51  1  0.869893  0.342427  0.128474  1
  O  O52  1  0.655037  0.859250  0.123546  1
  O  O53  1  0.343625  0.140723  0.120618  1
