# generated using pymatgen
data_Yb2Pt2Pb
_symmetry_space_group_name_H-M   'P 1'
_cell_length_a   7.52375496
_cell_length_b   7.72466471
_cell_length_c   7.72476660
_cell_angle_alpha   89.99143765
_cell_angle_beta   90.00063824
_cell_angle_gamma   90.00149404
_symmetry_Int_Tables_number   1
_chemical_formula_structural   Yb2Pt2Pb
_chemical_formula_sum   'Yb8 Pt8 Pb4'
_cell_volume   448.95172242
_cell_formula_units_Z   4
loop_
 _symmetry_equiv_pos_site_id
 _symmetry_equiv_pos_as_xyz
  1  'x, y, z'
loop_
 _atom_site_type_symbol
 _atom_site_label
 _atom_site_symmetry_multiplicity
 _atom_site_fract_x
 _atom_site_fract_y
 _atom_site_fract_z
 _atom_site_occupancy
  Yb  Yb0  1  0.000005  0.174698  0.174697  1
  Yb  Yb1  1  0.499993  0.843319  0.843319  1
  Yb  Yb2  1  0.499994  0.674698  0.325302  1
  Yb  Yb3  1  0.499995  0.156681  0.156680  1
  Yb  Yb4  1  0.000007  0.825302  0.825302  1
  Yb  Yb5  1  0.499994  0.325302  0.674698  1
  Yb  Yb6  1  0.000003  0.656682  0.343318  1
  Yb  Yb7  1  0.000003  0.343318  0.656681  1
  Pt  Pt8  1  0.732866  0.368607  0.368607  1
  Pt  Pt9  1  0.732866  0.631390  0.631394  1
  Pt  Pt10  1  0.767134  0.868614  0.131384  1
  Pt  Pt11  1  0.232861  0.868607  0.131394  1
  Pt  Pt12  1  0.232861  0.131394  0.868606  1
  Pt  Pt13  1  0.267134  0.631393  0.631392  1
  Pt  Pt14  1  0.267137  0.368611  0.368609  1
  Pt  Pt15  1  0.767135  0.131384  0.868614  1
  Pb  Pb16  1  0.750003  0.500008  0.999974  1
  Pb  Pb17  1  0.250001  0.499993  0.000033  1
  Pb  Pb18  1  0.750003  0.999963  0.499996  1
  Pb  Pb19  1  0.250004  0.000038  0.500001  1
