# generated using pymatgen
data_Ca5Al12Si12(AgO24)2
_symmetry_space_group_name_H-M   'P 1'
_cell_length_a   12.92924803
_cell_length_b   12.18118788
_cell_length_c   12.17451976
_cell_angle_alpha   89.80216295
_cell_angle_beta   89.46363154
_cell_angle_gamma   89.52801142
_symmetry_Int_Tables_number   1
_chemical_formula_structural   Ca5Al12Si12(AgO24)2
_chemical_formula_sum   'Ca5 Al12 Si12 Ag2 O48'
_cell_volume   1917.24894054
_cell_formula_units_Z   1
loop_
 _symmetry_equiv_pos_site_id
 _symmetry_equiv_pos_as_xyz
  1  'x, y, z'
loop_
 _atom_site_type_symbol
 _atom_site_label
 _atom_site_symmetry_multiplicity
 _atom_site_fract_x
 _atom_site_fract_y
 _atom_site_fract_z
 _atom_site_occupancy
  Ca  Ca0  1  0.229260  0.198686  0.196196  1
  Ca  Ca1  1  0.783235  0.184011  0.813440  1
  Ca  Ca2  1  0.777586  0.186197  0.183992  1
  Ca  Ca3  1  0.782168  0.816050  0.183011  1
  Ca  Ca4  1  0.783710  0.820870  0.819867  1
  Al  Al5  1  0.177209  0.361436  0.000396  1
  Al  Al6  1  0.176088  0.002956  0.363037  1
  Al  Al7  1  0.373576  0.004599  0.803558  1
  Al  Al8  1  0.376275  0.803444  0.998887  1
  Al  Al9  1  0.611426  0.999730  0.195614  1
  Al  Al10  1  0.610952  0.195843  0.000217  1
  Al  Al11  1  0.611786  0.002442  0.805589  1
  Al  Al12  1  0.612045  0.804492  0.001702  1
  Al  Al13  1  0.834364  0.998820  0.635562  1
  Al  Al14  1  0.832169  0.364173  0.997498  1
  Al  Al15  1  0.834363  0.636167  0.998493  1
  Al  Al16  1  0.832319  0.998529  0.363660  1
  Si  Si17  1  0.003864  0.185311  0.630889  1
  Si  Si18  1  0.001134  0.628428  0.186078  1
  Si  Si19  1  0.005807  0.810554  0.366049  1
  Si  Si20  1  0.008161  0.628439  0.812675  1
  Si  Si21  1  0.008292  0.812707  0.629946  1
  Si  Si22  1  0.177956  0.003209  0.627994  1
  Si  Si23  1  0.178146  0.625053  0.001961  1
  Si  Si24  1  0.378196  0.997020  0.189169  1
  Si  Si25  1  0.376492  0.188675  0.993255  1
  Si  Si26  1  0.999802  0.188470  0.366879  1
  Si  Si27  1  0.000655  0.365214  0.187979  1
  Si  Si28  1  0.005605  0.365214  0.811385  1
  Ag  Ag29  1  0.215434  0.809510  0.803279  1
  Ag  Ag30  1  0.210425  0.799268  0.193476  1
  O  O31  1  0.000229  0.310598  0.310817  1
  O  O32  1  0.010977  0.303998  0.691576  1
  O  O33  1  0.012247  0.691100  0.303927  1
  O  O34  1  0.999283  0.498240  0.785454  1
  O  O35  1  0.001813  0.786446  0.498223  1
  O  O36  1  0.101477  0.107255  0.660137  1
  O  O37  1  0.101994  0.658003  0.109861  1
  O  O38  1  0.109691  0.653939  0.889133  1
  O  O39  1  0.108902  0.888506  0.656133  1
  O  O40  1  0.104654  0.124421  0.323387  1
  O  O41  1  0.107105  0.325236  0.126217  1
  O  O42  1  0.102590  0.334380  0.886673  1
  O  O43  1  0.108107  0.881162  0.330177  1
  O  O44  1  0.203953  0.005116  0.499080  1
  O  O45  1  0.208395  0.498517  0.007204  1
  O  O46  1  0.280499  0.026898  0.273683  1
  O  O47  1  0.281775  0.274357  0.029695  1
  O  O48  1  0.272093  0.708541  0.009930  1
  O  O49  1  0.275870  0.999123  0.703551  1
  O  O50  1  0.365810  0.106823  0.107009  1
  O  O51  1  0.350365  0.122935  0.885446  1
  O  O52  1  0.353530  0.883843  0.124307  1
  O  O53  1  0.346009  0.888431  0.887857  1
  O  O54  1  0.486345  0.251282  0.997771  1
  O  O55  1  0.494941  0.004232  0.743217  1
  O  O56  1  0.495334  0.740114  0.002509  1
  O  O57  1  0.486686  0.998229  0.252520  1
  O  O58  1  0.629157  0.123529  0.124160  1
  O  O59  1  0.637630  0.123492  0.880155  1
  O  O60  1  0.634346  0.878336  0.123976  1
  O  O61  1  0.637311  0.884034  0.884395  1
  O  O62  1  0.733146  0.000640  0.267133  1
  O  O63  1  0.731422  0.269429  0.004617  1
  O  O64  1  0.738388  0.736898  0.000520  1
  O  O65  1  0.738024  0.999762  0.736341  1
  O  O66  1  0.810309  0.500491  0.998047  1
  O  O67  1  0.809785  0.995713  0.499991  1
  O  O68  1  0.897527  0.125097  0.673866  1
  O  O69  1  0.897507  0.675196  0.125647  1
  O  O70  1  0.904628  0.677128  0.875276  1
  O  O71  1  0.903307  0.874074  0.675792  1
  O  O72  1  0.897206  0.123882  0.322717  1
  O  O73  1  0.898950  0.321818  0.122053  1
  O  O74  1  0.897614  0.322618  0.872139  1
  O  O75  1  0.901336  0.874237  0.321785  1
  O  O76  1  0.998728  0.207265  0.498397  1
  O  O77  1  0.996797  0.497340  0.208190  1
  O  O78  1  0.023510  0.696775  0.697180  1
