# generated using pymatgen
data_Ho7(CuTe4)3
_symmetry_space_group_name_H-M   'P 1'
_cell_length_a   14.27017353
_cell_length_b   42.78802304
_cell_length_c   28.20629219
_cell_angle_alpha   8.68186635
_cell_angle_beta   15.22550999
_cell_angle_gamma   17.47161177
_symmetry_Int_Tables_number   1
_chemical_formula_structural   Ho7(CuTe4)3
_chemical_formula_sum   'Ho7 Cu3 Te12'
_cell_volume   682.73236570
_cell_formula_units_Z   1
loop_
 _symmetry_equiv_pos_site_id
 _symmetry_equiv_pos_as_xyz
  1  'x, y, z'
loop_
 _atom_site_type_symbol
 _atom_site_label
 _atom_site_symmetry_multiplicity
 _atom_site_fract_x
 _atom_site_fract_y
 _atom_site_fract_z
 _atom_site_occupancy
  Ho  Ho0  1  0.583842  0.997984  0.584576  1
  Ho  Ho1  1  0.999935  0.666866  0.999377  1
  Ho  Ho2  1  0.414066  0.333285  0.419007  1
  Ho  Ho3  1  0.585083  0.335573  0.577582  1
  Ho  Ho4  1  0.420628  0.668116  0.413484  1
  Ho  Ho5  1  0.577323  0.666381  0.585258  1
  Ho  Ho6  1  0.418414  0.998734  0.418704  1
  Cu  Cu7  1  0.188723  0.334075  0.189112  1
  Cu  Cu8  1  0.811919  0.333260  0.810034  1
  Cu  Cu9  1  0.810130  0.999510  0.811547  1
  Te  Te10  1  0.124840  0.997440  0.132129  1
  Te  Te11  1  0.123402  0.337010  0.122828  1
  Te  Te12  1  0.292745  0.332479  0.292724  1
  Te  Te13  1  0.707915  0.001026  0.706863  1
  Te  Te14  1  0.130286  0.666656  0.125727  1
  Te  Te15  1  0.871052  0.996879  0.879120  1
  Te  Te16  1  0.290800  0.666650  0.292586  1
  Te  Te17  1  0.706941  0.332553  0.710037  1
  Te  Te18  1  0.878538  0.333240  0.870840  1
  Te  Te19  1  0.292452  0.000674  0.290709  1
  Te  Te20  1  0.709492  0.666427  0.707817  1
  Te  Te21  1  0.872275  0.668514  0.870737  1
