# generated using pymatgen
data_Na3Si2PO8
_symmetry_space_group_name_H-M   'P 1'
_cell_length_a   7.28141471
_cell_length_b   11.07273784
_cell_length_c   11.30430116
_cell_angle_alpha   89.99954465
_cell_angle_beta   89.99240942
_cell_angle_gamma   90.00618493
_symmetry_Int_Tables_number   1
_chemical_formula_structural   Na3Si2PO8
_chemical_formula_sum   'Na12 Si8 P4 O32'
_cell_volume   911.41148585
_cell_formula_units_Z   4
loop_
 _symmetry_equiv_pos_site_id
 _symmetry_equiv_pos_as_xyz
  1  'x, y, z'
loop_
 _atom_site_type_symbol
 _atom_site_label
 _atom_site_symmetry_multiplicity
 _atom_site_fract_x
 _atom_site_fract_y
 _atom_site_fract_z
 _atom_site_occupancy
  Na  Na0  1  0.031229  0.678605  0.739567  1
  Na  Na1  1  0.969175  0.821204  0.239583  1
  Na  Na2  1  0.778299  0.084571  0.745810  1
  Na  Na3  1  0.386343  0.728102  0.176516  1
  Na  Na4  1  0.721792  0.584601  0.254237  1
  Na  Na5  1  0.886196  0.272311  0.323005  1
  Na  Na6  1  0.468904  0.178571  0.260414  1
  Na  Na7  1  0.113586  0.228208  0.823595  1
  Na  Na8  1  0.278016  0.915720  0.754776  1
  Na  Na9  1  0.222169  0.415806  0.245209  1
  Na  Na10  1  0.613863  0.772184  0.676919  1
  Na  Na11  1  0.530864  0.321116  0.760368  1
  Si  Si12  1  0.529391  0.429249  0.469053  1
  Si  Si13  1  0.127172  0.118548  0.122293  1
  Si  Si14  1  0.970645  0.929227  0.530940  1
  Si  Si15  1  0.872937  0.381296  0.622151  1
  Si  Si16  1  0.372646  0.618544  0.877611  1
  Si  Si17  1  0.470789  0.070709  0.969595  1
  Si  Si18  1  0.029171  0.570875  0.030452  1
  Si  Si19  1  0.627245  0.881252  0.377825  1
  P  P20  1  0.632957  0.524553  0.985976  1
  P  P21  1  0.367044  0.974941  0.486538  1
  P  P22  1  0.132838  0.475035  0.513411  1
  P  P23  1  0.866906  0.024575  0.014116  1
  O  O24  1  0.926217  0.820763  0.617809  1
  O  O25  1  0.471266  0.930853  0.913873  1
  O  O26  1  0.529234  0.569325  0.413624  1
  O  O27  1  0.073846  0.679466  0.117148  1
  O  O28  1  0.970929  0.069255  0.586451  1
  O  O29  1  0.172227  0.912696  0.453649  1
  O  O30  1  0.412775  0.561084  0.302888  1
  O  O31  1  0.497971  0.647793  0.002141  1
  O  O32  1  0.656993  0.790854  0.272093  1
  O  O33  1  0.175503  0.558940  0.918063  1
  O  O34  1  0.343082  0.709340  0.772304  1
  O  O35  1  0.426066  0.179405  0.882815  1
  O  O36  1  0.827531  0.587368  0.953267  1
  O  O37  1  0.087274  0.061010  0.697226  1
  O  O38  1  0.028888  0.430899  0.086145  1
  O  O39  1  0.675546  0.440713  0.581357  1
  O  O40  1  0.327835  0.412721  0.546337  1
  O  O41  1  0.530825  0.505367  0.853539  1
  O  O42  1  0.587533  0.939338  0.803117  1
  O  O43  1  0.824247  0.940650  0.418670  1
  O  O44  1  0.912618  0.439476  0.196894  1
  O  O45  1  0.843025  0.290838  0.727896  1
  O  O46  1  0.030795  0.494602  0.645833  1
  O  O47  1  0.672260  0.087449  0.046787  1
  O  O48  1  0.324428  0.058865  0.081780  1
  O  O49  1  0.998318  0.351553  0.497810  1
  O  O50  1  0.157003  0.209538  0.227760  1
  O  O51  1  0.573779  0.320677  0.382056  1
  O  O52  1  0.469188  0.994573  0.354174  1
  O  O53  1  0.501740  0.851490  0.502105  1
  O  O54  1  0.968973  0.005559  0.146518  1
  O  O55  1  0.001908  0.147733  0.997913  1
