# generated using pymatgen
data_Ba25(Bi5O18)3
_symmetry_space_group_name_H-M   'P 1'
_cell_length_a   6.33651589
_cell_length_b   6.33651577
_cell_length_c   62.93742349
_cell_angle_alpha   92.83999360
_cell_angle_beta   118.18118675
_cell_angle_gamma   118.79740475
_symmetry_Int_Tables_number   1
_chemical_formula_structural   Ba25(Bi5O18)3
_chemical_formula_sum   'Ba25 Bi15 O54'
_cell_volume   1822.12997965
_cell_formula_units_Z   1
loop_
 _symmetry_equiv_pos_site_id
 _symmetry_equiv_pos_as_xyz
  1  'x, y, z'
loop_
 _atom_site_type_symbol
 _atom_site_label
 _atom_site_symmetry_multiplicity
 _atom_site_fract_x
 _atom_site_fract_y
 _atom_site_fract_z
 _atom_site_occupancy
  Ba  Ba0  1  0.464050  0.770639  0.923469  1
  Ba  Ba1  1  0.439731  0.268889  0.970862  1
  Ba  Ba2  1  0.484665  0.255041  0.873971  1
  Ba  Ba3  1  0.506059  0.753011  0.825907  1
  Ba  Ba4  1  0.525409  0.245409  0.777082  1
  Ba  Ba5  1  0.541424  0.734767  0.727619  1
  Ba  Ba6  1  0.585782  0.758077  0.634386  1
  Ba  Ba7  1  0.572317  0.242455  0.681477  1
  Ba  Ba8  1  0.529297  0.775931  0.530523  1
  Ba  Ba9  1  0.490193  0.252483  0.574268  1
  Ba  Ba10  1  0.996196  0.539803  0.353600  1
  Ba  Ba11  1  0.592906  0.284883  0.487779  1
  Ba  Ba12  1  0.519859  0.826459  0.434632  1
  Ba  Ba13  1  0.063721  0.533866  0.559759  1
  Ba  Ba14  1  0.521884  0.330156  0.385204  1
  Ba  Ba15  1  0.509678  0.807120  0.331680  1
  Ba  Ba16  1  0.471795  0.794276  0.226607  1
  Ba  Ba17  1  0.468156  0.293167  0.276132  1
  Ba  Ba18  1  0.954361  0.536551  0.049091  1
  Ba  Ba19  1  0.478765  0.788727  0.126749  1
  Ba  Ba20  1  0.476846  0.306092  0.178294  1
  Ba  Ba21  1  0.987057  0.537498  0.252456  1
  Ba  Ba22  1  0.412285  0.267838  0.068012  1
  Ba  Ba23  1  0.428741  0.754948  0.018369  1
  Ba  Ba24  1  0.945466  0.509991  0.145546  1
  Bi  Bi25  1  0.007324  0.998894  0.800622  1
  Bi  Bi26  1  0.025950  0.490751  0.751670  1
  Bi  Bi27  1  0.961962  0.517247  0.947921  1
  Bi  Bi28  1  0.038540  0.463987  0.650253  1
  Bi  Bi29  1  0.976610  0.012624  0.898923  1
  Bi  Bi30  1  0.995684  0.504078  0.849976  1
  Bi  Bi31  1  0.035563  0.984277  0.701984  1
  Bi  Bi32  1  0.009518  0.043280  0.405280  1
  Bi  Bi33  1  0.069494  0.976141  0.604564  1
  Bi  Bi34  1  0.026968  0.997445  0.502441  1
  Bi  Bi35  1  0.016873  0.530285  0.454716  1
  Bi  Bi36  1  0.980818  0.019177  0.199999  1
  Bi  Bi37  1  0.969630  0.000231  0.096986  1
  Bi  Bi38  1  0.997823  0.024371  0.302219  1
  Bi  Bi39  1  0.942241  0.028340  0.997058  1
  O  O40  1  0.011719  0.784184  0.979590  1
  O  O41  1  0.963365  0.233636  0.970248  1
  O  O42  1  0.933752  0.259665  0.919342  1
  O  O43  1  0.468842  0.739113  0.970248  1
  O  O44  1  0.983937  0.239536  0.873586  1
  O  O45  1  0.000370  0.756556  0.825130  1
  O  O46  1  0.459411  0.266755  0.924780  1
  O  O47  1  0.496328  0.751927  0.873586  1
  O  O48  1  0.981045  0.788389  0.924780  1
  O  O49  1  0.494740  0.250926  0.825130  1
  O  O50  1  0.003843  0.763050  0.876689  1
  O  O51  1  0.518536  0.754734  0.776164  1
  O  O52  1  0.527823  0.238012  0.724942  1
  O  O53  1  0.006168  0.747114  0.775328  1
  O  O54  1  0.148777  0.213639  0.636242  1
  O  O55  1  0.522577  0.754166  0.676749  1
  O  O56  1  0.994052  0.248910  0.824296  1
  O  O57  1  0.006904  0.243102  0.776164  1
  O  O58  1  0.011405  0.721595  0.724942  1
  O  O59  1  0.558851  0.153099  0.619694  1
  O  O60  1  0.990249  0.716416  0.670667  1
  O  O61  1  0.591154  0.707657  0.575812  1
  O  O62  1  0.043192  0.237778  0.728097  1
  O  O63  1  0.003258  0.258005  0.475553  1
  O  O64  1  0.043842  0.638090  0.619694  1
  O  O65  1  0.013324  0.244913  0.676749  1
  O  O66  1  0.512452  0.223556  0.526202  1
  O  O67  1  0.497525  0.752272  0.475553  1
  O  O68  1  0.001819  0.210204  0.374157  1
  O  O69  1  0.038460  0.749564  0.526202  1
  O  O70  1  0.050466  0.166969  0.575812  1
  O  O71  1  0.503129  0.239950  0.425599  1
  O  O72  1  0.045791  0.253338  0.329913  1
  O  O73  1  0.531363  0.739748  0.374157  1
  O  O74  1  0.018835  0.237093  0.525593  1
  O  O75  1  0.990332  0.200563  0.274440  1
  O  O76  1  0.016038  0.752859  0.425599  1
  O  O77  1  0.441468  0.169036  0.315685  1
  O  O78  1  0.543836  0.754066  0.274440  1
  O  O79  1  0.959498  0.284504  0.424400  1
  O  O80  1  0.962731  0.228561  0.171440  1
  O  O81  1  0.987810  0.715377  0.315685  1
  O  O82  1  0.464005  0.186481  0.216904  1
  O  O83  1  0.485842  0.751671  0.171440  1
  O  O84  1  0.969595  0.212315  0.072320  1
  O  O85  1  0.982556  0.705032  0.216904  1
  O  O86  1  0.398665  0.122431  0.107975  1
  O  O87  1  0.510880  0.753601  0.072320  1
  O  O88  1  0.066079  0.252289  0.231837  1
  O  O89  1  0.957323  0.681089  0.107975  1
  O  O90  1  0.406390  0.314406  0.024895  1
  O  O91  1  0.066231  0.223590  0.128982  1
  O  O92  1  0.934542  0.842558  0.024895  1
  O  O93  1  0.857235  0.264709  0.012194  1
