# generated using pymatgen
data_SrMgNiH4
_symmetry_space_group_name_H-M   'P 1'
_cell_length_a   6.92001269
_cell_length_b   6.92001487
_cell_length_c   6.92001321
_cell_angle_alpha   90.00961920
_cell_angle_beta   89.99486077
_cell_angle_gamma   89.98830014
_symmetry_Int_Tables_number   1
_chemical_formula_structural   SrMgNiH4
_chemical_formula_sum   'Sr4 Mg4 Ni4 H16'
_cell_volume   331.37582765
_cell_formula_units_Z   4
loop_
 _symmetry_equiv_pos_site_id
 _symmetry_equiv_pos_as_xyz
  1  'x, y, z'
loop_
 _atom_site_type_symbol
 _atom_site_label
 _atom_site_symmetry_multiplicity
 _atom_site_fract_x
 _atom_site_fract_y
 _atom_site_fract_z
 _atom_site_occupancy
  Sr  Sr0  1  0.161967  0.662021  0.838059  1
  Sr  Sr1  1  0.661943  0.838001  0.162012  1
  Sr  Sr2  1  0.837952  0.162020  0.662055  1
  Sr  Sr3  1  0.337958  0.338037  0.338011  1
  Mg  Mg4  1  0.848290  0.348299  0.151782  1
  Mg  Mg5  1  0.348229  0.151686  0.848281  1
  Mg  Mg6  1  0.151682  0.848304  0.348340  1
  Mg  Mg7  1  0.651684  0.651766  0.651690  1
  Ni  Ni8  1  0.440437  0.940499  0.559533  1
  Ni  Ni9  1  0.940344  0.559674  0.440395  1
  Ni  Ni10  1  0.560042  0.439934  0.939952  1
  Ni  Ni11  1  0.059665  0.059671  0.059700  1
  H  H12  1  0.574051  0.074128  0.425929  1
  H  H13  1  0.073992  0.425975  0.574085  1
  H  H14  1  0.426245  0.573721  0.073732  1
  H  H15  1  0.925980  0.926056  0.926071  1
  H  H16  1  0.264584  0.955646  0.081437  1
  H  H17  1  0.918551  0.764615  0.544415  1
  H  H18  1  0.455522  0.418610  0.735304  1
  H  H19  1  0.764689  0.544451  0.918622  1
  H  H20  1  0.418555  0.735444  0.455677  1
  H  H21  1  0.955559  0.081429  0.264676  1
  H  H22  1  0.735359  0.455658  0.418629  1
  H  H23  1  0.081364  0.264657  0.955666  1
  H  H24  1  0.544299  0.918613  0.764613  1
  H  H25  1  0.235379  0.044376  0.581440  1
  H  H26  1  0.581369  0.235286  0.044454  1
  H  H27  1  0.044308  0.581423  0.235442  1
