# generated using pymatgen
data_Li5TiAs3
_symmetry_space_group_name_H-M   'P 1'
_cell_length_a   8.51528978
_cell_length_b   12.85600236
_cell_length_c   10.46328131
_cell_angle_alpha   35.22558483
_cell_angle_beta   35.55023426
_cell_angle_gamma   60.21443959
_symmetry_Int_Tables_number   1
_chemical_formula_structural   Li5TiAs3
_chemical_formula_sum   'Li10 Ti2 As6'
_cell_volume   332.54506895
_cell_formula_units_Z   2
loop_
 _symmetry_equiv_pos_site_id
 _symmetry_equiv_pos_as_xyz
  1  'x, y, z'
loop_
 _atom_site_type_symbol
 _atom_site_label
 _atom_site_symmetry_multiplicity
 _atom_site_fract_x
 _atom_site_fract_y
 _atom_site_fract_z
 _atom_site_occupancy
  Li  Li0  1  0.992527  0.345020  0.239155  1
  Li  Li1  1  0.994929  0.655911  0.273073  1
  Li  Li2  1  0.523077  0.342495  0.230828  1
  Li  Li3  1  0.007446  0.344595  0.724624  1
  Li  Li4  1  0.488886  0.658423  0.257075  1
  Li  Li5  1  0.481053  0.000043  0.269413  1
  Li  Li6  1  0.512770  0.343322  0.740053  1
  Li  Li7  1  0.478030  0.657224  0.769057  1
  Li  Li8  1  0.520504  0.000646  0.729114  1
  Li  Li9  1  0.009149  0.656462  0.758181  1
  Ti  Ti10  1  0.015312  0.000155  0.234568  1
  Ti  Ti11  1  0.985520  0.000231  0.764205  1
  As  As12  1  0.000349  0.000227  0.999479  1
  As  As13  1  0.014162  0.310710  0.002053  1
  As  As14  1  0.500504  0.000807  0.998811  1
  As  As15  1  0.987875  0.690188  0.995046  1
  As  As16  1  0.451798  0.310119  0.065365  1
  As  As17  1  0.549291  0.690428  0.933689  1
