# generated using pymatgen
data_Tm2In8Co
_symmetry_space_group_name_H-M   'P 1'
_cell_length_a   4.58661003
_cell_length_b   4.58890504
_cell_length_c   12.18873374
_cell_angle_alpha   89.99744817
_cell_angle_beta   89.99472332
_cell_angle_gamma   89.99158496
_symmetry_Int_Tables_number   1
_chemical_formula_structural   Tm2In8Co
_chemical_formula_sum   'Tm2 In8 Co1'
_cell_volume   256.54258721
_cell_formula_units_Z   1
loop_
 _symmetry_equiv_pos_site_id
 _symmetry_equiv_pos_as_xyz
  1  'x, y, z'
loop_
 _atom_site_type_symbol
 _atom_site_label
 _atom_site_symmetry_multiplicity
 _atom_site_fract_x
 _atom_site_fract_y
 _atom_site_fract_z
 _atom_site_occupancy
  Tm  Tm0  1  -0.000003  0.000011  0.307498  1
  Tm  Tm1  1  0.000033  0.999967  0.692474  1
  In  In2  1  0.000005  0.499999  0.119848  1
  In  In3  1  0.499998  0.999948  0.119886  1
  In  In4  1  0.500003  0.499999  0.696125  1
  In  In5  1  0.500020  0.000179  0.880093  1
  In  In6  1  0.499922  0.500028  0.303924  1
  In  In7  1  0.999976  0.499968  0.500021  1
  In  In8  1  0.000019  0.499916  0.880110  1
  In  In9  1  0.500011  0.999988  0.500014  1
  Co  Co10  1  0.000018  -0.000003  0.000007  1
