# generated using pymatgen
data_RbC2N3
_symmetry_space_group_name_H-M   'P 1'
_cell_length_a   8.65275335
_cell_length_b   8.64083208
_cell_length_c   13.99055525
_cell_angle_alpha   101.07307586
_cell_angle_beta   103.62141630
_cell_angle_gamma   108.13599040
_symmetry_Int_Tables_number   1
_chemical_formula_structural   RbC2N3
_chemical_formula_sum   'Rb8 C16 N24'
_cell_volume   925.36863925
_cell_formula_units_Z   8
loop_
 _symmetry_equiv_pos_site_id
 _symmetry_equiv_pos_as_xyz
  1  'x, y, z'
loop_
 _atom_site_type_symbol
 _atom_site_label
 _atom_site_symmetry_multiplicity
 _atom_site_fract_x
 _atom_site_fract_y
 _atom_site_fract_z
 _atom_site_occupancy
  Rb  Rb0  1  0.252980  0.302864  0.911920  1
  Rb  Rb1  1  0.792157  0.828380  0.629062  1
  Rb  Rb2  1  0.112394  0.665470  0.416103  1
  Rb  Rb3  1  0.305109  0.842702  0.130994  1
  Rb  Rb4  1  0.749730  0.704035  0.084973  1
  Rb  Rb5  1  0.888157  0.342278  0.585837  1
  Rb  Rb6  1  0.702963  0.160400  0.872935  1
  Rb  Rb7  1  0.209577  0.174995  0.370336  1
  C  C8  1  0.424213  0.513757  0.617818  1
  C  C9  1  0.604350  0.192182  0.119101  1
  C  C10  1  0.982327  0.581021  0.877783  1
  C  C11  1  0.392534  0.803574  0.883289  1
  C  C12  1  0.792799  0.892252  0.377958  1
  C  C13  1  0.789553  0.219473  0.273903  1
  C  C14  1  0.958712  0.839830  0.890485  1
  C  C15  1  0.453505  0.067310  0.609066  1
  C  C16  1  0.448058  0.520651  0.225916  1
  C  C17  1  0.575811  0.489088  0.381221  1
  C  C18  1  0.041958  0.158190  0.110460  1
  C  C19  1  0.209964  0.780004  0.727231  1
  C  C20  1  0.553944  0.482604  0.773558  1
  C  C21  1  0.551296  0.934776  0.394265  1
  C  C22  1  0.015607  0.417569  0.122820  1
  C  C23  1  0.207196  0.103565  0.622946  1
  N  N24  1  0.441828  0.465640  0.305687  1
  N  N25  1  0.910993  0.286488  0.348662  1
  N  N26  1  0.451352  0.768095  0.957515  1
  N  N27  1  0.932864  0.950488  0.859275  1
  N  N28  1  0.297334  0.057082  0.568626  1
  N  N29  1  0.595387  0.072344  0.640006  1
  N  N30  1  0.315758  0.504502  0.544851  1
  N  N31  1  0.979991  0.447668  0.835004  1
  N  N32  1  0.436944  0.563954  0.150138  1
  N  N33  1  0.989131  0.725059  0.932061  1
  N  N34  1  0.409842  0.930877  0.363986  1
  N  N35  1  0.011106  0.273354  0.069725  1
  N  N36  1  0.089366  0.719427  0.652061  1
  N  N37  1  0.684787  0.498746  0.454163  1
  N  N38  1  0.567544  0.440096  0.849708  1
  N  N39  1  0.014521  0.550628  0.163345  1
  N  N40  1  0.557520  0.536624  0.693373  1
  N  N41  1  0.347338  0.861029  0.806087  1
  N  N42  1  0.068923  0.046906  0.140460  1
  N  N43  1  0.543161  0.229543  0.046198  1
  N  N44  1  0.707536  0.944815  0.434131  1
  N  N45  1  0.653329  0.132729  0.194804  1
  N  N46  1  0.116595  0.143373  0.665736  1
  N  N47  1  0.879058  0.847884  0.333246  1
