# generated using pymatgen
data_U2MoO8
_symmetry_space_group_name_H-M   'P 1'
_cell_length_a   4.15033969
_cell_length_b   6.65081342
_cell_length_c   23.83950518
_cell_angle_alpha   89.95035204
_cell_angle_beta   89.99719539
_cell_angle_gamma   90.48978121
_symmetry_Int_Tables_number   1
_chemical_formula_structural   U2MoO8
_chemical_formula_sum   'U8 Mo4 O32'
_cell_volume   658.02078714
_cell_formula_units_Z   4
loop_
 _symmetry_equiv_pos_site_id
 _symmetry_equiv_pos_as_xyz
  1  'x, y, z'
loop_
 _atom_site_type_symbol
 _atom_site_label
 _atom_site_symmetry_multiplicity
 _atom_site_fract_x
 _atom_site_fract_y
 _atom_site_fract_z
 _atom_site_occupancy
  U  U0  1  0.994385  0.804326  0.879697  1
  U  U1  1  0.003129  0.168163  0.287229  1
  U  U2  1  0.996652  0.332466  0.787101  1
  U  U3  1  0.995197  0.303423  0.620444  1
  U  U4  1  0.997327  0.832183  0.712825  1
  U  U5  1  0.005993  0.696790  0.379668  1
  U  U6  1  0.003100  0.667559  0.212893  1
  U  U7  1  0.005398  0.195853  0.120216  1
  Mo  Mo8  1  0.915475  0.166416  0.452375  1
  Mo  Mo9  1  0.087764  0.334596  0.952198  1
  Mo  Mo10  1  0.913096  0.664795  0.047701  1
  Mo  Mo11  1  0.083122  0.833696  0.547702  1
  O  O12  1  0.999427  0.158512  0.708280  1
  O  O13  1  0.009378  0.453971  0.431505  1
  O  O14  1  0.005268  0.952361  0.068756  1
  O  O15  1  0.495700  0.182087  0.455011  1
  O  O16  1  0.002821  0.966355  0.187209  1
  O  O17  1  0.001499  0.841657  0.291756  1
  O  O18  1  0.001881  0.341636  0.208345  1
  O  O19  1  0.502811  0.666021  0.214869  1
  O  O20  1  0.010645  0.083132  0.374284  1
  O  O21  1  0.506244  0.209914  0.122307  1
  O  O22  1  0.507153  0.320491  0.954574  1
  O  O23  1  0.009709  0.638244  0.963609  1
  O  O24  1  0.988530  0.862572  0.463679  1
  O  O25  1  0.998394  0.533479  0.687154  1
  O  O26  1  0.502725  0.166490  0.285254  1
  O  O27  1  0.493542  0.790633  0.877592  1
  O  O28  1  0.506798  0.711722  0.377580  1
  O  O29  1  0.002430  0.465966  0.312859  1
  O  O30  1  0.006588  0.580937  0.125673  1
  O  O31  1  0.990373  0.546148  0.568327  1
  O  O32  1  0.496898  0.334393  0.784957  1
  O  O33  1  0.493003  0.679381  0.045133  1
  O  O34  1  0.998062  0.658290  0.791641  1
  O  O35  1  0.494697  0.287978  0.622604  1
  O  O36  1  0.996556  0.033439  0.812834  1
  O  O37  1  0.008788  0.137342  0.536458  1
  O  O38  1  0.994738  0.047272  0.931443  1
  O  O39  1  0.994118  0.418795  0.874231  1
  O  O40  1  0.502513  0.818828  0.545168  1
  O  O41  1  0.991085  0.361358  0.036165  1
  O  O42  1  0.989186  0.916940  0.625744  1
  O  O43  1  0.497801  0.833392  0.714950  1
