# generated using pymatgen
data_Ti2NiH
_symmetry_space_group_name_H-M   'P 1'
_cell_length_a   8.08636196
_cell_length_b   8.08750916
_cell_length_c   8.08926276
_cell_angle_alpha   59.98062212
_cell_angle_beta   59.97442291
_cell_angle_gamma   59.96794959
_symmetry_Int_Tables_number   1
_chemical_formula_structural   Ti2NiH
_chemical_formula_sum   'Ti16 Ni8 H8'
_cell_volume   373.86003102
_cell_formula_units_Z   8
loop_
 _symmetry_equiv_pos_site_id
 _symmetry_equiv_pos_as_xyz
  1  'x, y, z'
loop_
 _atom_site_type_symbol
 _atom_site_label
 _atom_site_symmetry_multiplicity
 _atom_site_fract_x
 _atom_site_fract_y
 _atom_site_fract_z
 _atom_site_occupancy
  Ti  Ti0  1  0.565103  0.185000  0.184867  1
  Ti  Ti1  1  0.185201  0.565094  0.565024  1
  Ti  Ti2  1  0.184973  0.184708  0.565181  1
  Ti  Ti3  1  0.565014  0.565054  0.185025  1
  Ti  Ti4  1  0.185087  0.565167  0.184691  1
  Ti  Ti5  1  0.565049  0.185091  0.565020  1
  Ti  Ti6  1  0.435000  0.815003  0.815126  1
  Ti  Ti7  1  0.814806  0.434815  0.434914  1
  Ti  Ti8  1  0.814997  0.815231  0.434987  1
  Ti  Ti9  1  0.434978  0.434966  0.814874  1
  Ti  Ti10  1  0.814940  0.434939  0.815293  1
  Ti  Ti11  1  0.434886  0.814857  0.434967  1
  Ti  Ti12  1  0.999862  0.500007  0.000006  1
  Ti  Ti13  1  0.999976  0.000013  0.500041  1
  Ti  Ti14  1  0.500033  0.999844  0.999966  1
  Ti  Ti15  1  0.000090  0.000029  0.999873  1
  Ni  Ni16  1  0.784854  0.145538  0.784815  1
  Ni  Ni17  1  0.784779  0.784691  0.145775  1
  Ni  Ni18  1  0.145600  0.784777  0.784823  1
  Ni  Ni19  1  0.784787  0.784735  0.784809  1
  Ni  Ni20  1  0.215199  0.854403  0.215211  1
  Ni  Ni21  1  0.215202  0.215282  0.854301  1
  Ni  Ni22  1  0.854441  0.215231  0.215171  1
  Ni  Ni23  1  0.215186  0.215277  0.215234  1
  H  H24  1  0.499944  0.999963  0.500111  1
  H  H25  1  0.500025  0.500132  0.999985  1
  H  H26  1  0.000012  0.499972  0.500032  1
  H  H27  1  0.500004  0.500032  0.499886  1
  H  H28  1  0.624875  0.625032  0.625043  1
  H  H29  1  0.375113  0.375076  0.374987  1
  H  H30  1  0.875007  0.875043  0.874952  1
  H  H31  1  0.124976  0.124999  0.125010  1
