# generated using pymatgen
data_Cu19Se11
_symmetry_space_group_name_H-M   'P 1'
_cell_length_a   4.11183589
_cell_length_b   3.97500795
_cell_length_c   45.94623037
_cell_angle_alpha   59.87983422
_cell_angle_beta   56.25613677
_cell_angle_gamma   62.40345427
_symmetry_Int_Tables_number   1
_chemical_formula_structural   Cu19Se11
_chemical_formula_sum   'Cu19 Se11'
_cell_volume   522.06598994
_cell_formula_units_Z   1
loop_
 _symmetry_equiv_pos_site_id
 _symmetry_equiv_pos_as_xyz
  1  'x, y, z'
loop_
 _atom_site_type_symbol
 _atom_site_label
 _atom_site_symmetry_multiplicity
 _atom_site_fract_x
 _atom_site_fract_y
 _atom_site_fract_z
 _atom_site_occupancy
  Cu  Cu0  1  0.697812  0.698774  0.083086  1
  Cu  Cu1  1  0.701001  0.774887  0.158160  1
  Cu  Cu2  1  0.647292  0.441761  0.223533  1
  Cu  Cu3  1  0.829259  0.696085  0.252748  1
  Cu  Cu4  1  0.741480  0.739051  0.341063  1
  Cu  Cu5  1  0.546703  0.535198  0.408912  1
  Cu  Cu6  1  0.795168  0.781731  0.432031  1
  Cu  Cu7  1  0.769934  0.764412  0.521579  1
  Cu  Cu8  1  0.286740  0.292040  0.648457  1
  Cu  Cu9  1  0.283138  0.291794  0.737502  1
  Cu  Cu10  1  0.792880  0.797128  0.601816  1
  Cu  Cu11  1  0.286608  0.286093  0.836467  1
  Cu  Cu12  1  0.794667  0.793492  0.691157  1
  Cu  Cu13  1  0.236255  0.241926  0.941861  1
  Cu  Cu14  1  0.792465  0.784364  0.788928  1
  Cu  Cu15  1  0.527774  0.530162  0.863563  1
  Cu  Cu16  1  0.765173  0.771662  0.889550  1
  Cu  Cu17  1  0.463481  0.471245  0.969853  1
  Cu  Cu18  1  0.725348  0.722144  0.990717  1
  Se  Se19  1  0.984779  0.975984  0.012467  1
  Se  Se20  1  0.002402  0.994498  0.092933  1
  Se  Se21  1  0.964617  0.012751  0.183619  1
  Se  Se22  1  0.050378  0.970336  0.274262  1
  Se  Se23  1  0.004402  -0.001917  0.362630  1
  Se  Se24  1  0.052189  0.036871  0.452667  1
  Se  Se25  1  0.052536  0.043097  0.536606  1
  Se  Se26  1  0.048024  0.047700  0.624391  1
  Se  Se27  1  0.021389  0.028766  0.718583  1
  Se  Se28  1  0.063908  0.051107  0.806287  1
  Se  Se29  1  0.034199  0.032858  0.908576  1
