# generated using pymatgen
data_TiO2
_symmetry_space_group_name_H-M   'P 1'
_cell_length_a   6.26540399
_cell_length_b   10.51716858
_cell_length_c   11.48936933
_cell_angle_alpha   90.00000000
_cell_angle_beta   90.00000000
_cell_angle_gamma   90.00000000
_symmetry_Int_Tables_number   1
_chemical_formula_structural   TiO2
_chemical_formula_sum   'Ti8 O16'
_cell_volume   757.08406416
_cell_formula_units_Z   8
loop_
 _symmetry_equiv_pos_site_id
 _symmetry_equiv_pos_as_xyz
  1  'x, y, z'
loop_
 _atom_site_type_symbol
 _atom_site_label
 _atom_site_symmetry_multiplicity
 _atom_site_fract_x
 _atom_site_fract_y
 _atom_site_fract_z
 _atom_site_occupancy
  Ti  Ti0  1  0.500000  0.002121  0.251634  1
  Ti  Ti1  1  0.251908  0.939850  0.000000  1
  Ti  Ti2  1  0.000000  0.002121  0.751633  1
  Ti  Ti3  1  0.751908  0.939850  0.500000  1
  Ti  Ti4  1  0.500000  0.002121  0.748367  1
  Ti  Ti5  1  0.248092  0.939850  0.500000  1
  Ti  Ti6  1  0.748092  0.939850  0.000000  1
  Ti  Ti7  1  0.000000  0.002121  0.248366  1
  O  O8  1  0.747837  0.038414  0.865271  1
  O  O9  1  0.000000  0.855498  0.000000  1
  O  O10  1  0.000000  0.847324  0.751949  1
  O  O11  1  0.252163  0.038414  0.134729  1
  O  O12  1  0.500000  0.855498  0.500000  1
  O  O13  1  0.000000  0.847324  0.248051  1
  O  O14  1  0.752163  0.038414  0.634729  1
  O  O15  1  0.247837  0.038414  0.365271  1
  O  O16  1  0.247837  0.038414  0.634729  1
  O  O17  1  0.752163  0.038414  0.365271  1
  O  O18  1  0.000000  0.850756  0.500000  1
  O  O19  1  0.500000  0.847324  0.748051  1
  O  O20  1  0.500000  0.850756  0.000000  1
  O  O21  1  0.252163  0.038414  0.865271  1
  O  O22  1  0.747837  0.038414  0.134729  1
  O  O23  1  0.500000  0.847324  0.251949  1
