# generated using pymatgen
data_BaYbAl2Si2N5O2
_symmetry_space_group_name_H-M   'P 1'
_cell_length_a   6.06950109
_cell_length_b   7.73194074
_cell_length_c   8.11251685
_cell_angle_alpha   84.88152711
_cell_angle_beta   93.58763940
_cell_angle_gamma   115.26262524
_symmetry_Int_Tables_number   1
_chemical_formula_structural   BaYbAl2Si2N5O2
_chemical_formula_sum   'Ba2 Yb2 Al4 Si4 N10 O4'
_cell_volume   342.80173846
_cell_formula_units_Z   2
loop_
 _symmetry_equiv_pos_site_id
 _symmetry_equiv_pos_as_xyz
  1  'x, y, z'
loop_
 _atom_site_type_symbol
 _atom_site_label
 _atom_site_symmetry_multiplicity
 _atom_site_fract_x
 _atom_site_fract_y
 _atom_site_fract_z
 _atom_site_occupancy
  Yb  Yb0  1  0.414092  0.748765  0.611134  1
  Yb  Yb1  1  0.643902  0.414694  0.212958  1
  Ba  Ba2  1  0.242463  0.592647  0.247980  1
  Ba  Ba3  1  0.641842  0.338471  0.806493  1
  Al  Al4  1  0.186062  0.916399  0.932192  1
  Al  Al5  1  0.137738  0.290122  -0.029028  1
  Al  Al6  1  0.663530  0.763086  0.934987  1
  Al  Al7  1  0.892926  0.693258  0.532010  1
  Si  Si8  1  0.641624  0.019149  0.295725  1
  Si  Si9  1  0.313864  0.085300  0.528398  1
  Si  Si10  1  0.950355  0.269994  0.560842  1
  Si  Si11  1  0.072967  0.950054  0.217112  1
  N  N12  1  0.175491  0.876409  0.409837  1
  N  N13  1  0.913815  0.756327  0.098224  1
  N  N14  1  -0.056885  0.074868  0.311475  1
  N  N15  1  0.118802  0.202736  0.423891  1
  N  N16  1  0.277416  0.123602  0.076907  1
  N  N17  1  0.943918  0.969679  0.812282  1
  N  N18  1  0.801914  0.795642  0.713135  1
  N  N19  1  0.641975  0.162111  0.456366  1
  N  N20  1  0.018746  0.504814  0.573487  1
  N  N21  1  0.985930  0.172331  0.761723  1
  O  O22  1  0.923525  0.353246  0.058491  1
  O  O23  1  0.413000  0.837991  0.891859  1
  O  O24  1  0.440633  0.504528  0.981449  1
  O  O25  1  0.600355  0.583775  0.438871  1
