# generated using pymatgen
data_Ba2YReO6
_symmetry_space_group_name_H-M   'P 1'
_cell_length_a   5.99476974
_cell_length_b   5.99476974
_cell_length_c   5.99476974
_cell_angle_alpha   60.00000001
_cell_angle_beta   60.00000003
_cell_angle_gamma   60.00000004
_symmetry_Int_Tables_number   1
_chemical_formula_structural   Ba2YReO6
_chemical_formula_sum   'Ba2 Y1 Re1 O6'
_cell_volume   152.33599104
_cell_formula_units_Z   1
loop_
 _symmetry_equiv_pos_site_id
 _symmetry_equiv_pos_as_xyz
  1  'x, y, z'
loop_
 _atom_site_type_symbol
 _atom_site_label
 _atom_site_symmetry_multiplicity
 _atom_site_fract_x
 _atom_site_fract_y
 _atom_site_fract_z
 _atom_site_occupancy
  O  O0  1  0.234708  0.765292  0.765292  1
  O  O1  1  0.234708  0.765292  0.234708  1
  O  O2  1  0.765292  0.234708  0.765292  1
  O  O3  1  0.234708  0.234708  0.765292  1
  O  O4  1  0.765292  0.234708  0.234708  1
  O  O5  1  0.765292  0.765292  0.234708  1
  Y  Y6  1  0.500000  0.500000  0.500000  1
  Ba  Ba7  1  0.250000  0.250000  0.250000  1
  Ba  Ba8  1  0.750000  0.750000  0.750000  1
  Re  Re9  1  0.000000  0.000000  0.000000  1
