# generated using pymatgen
data_Ti2(Mo3Se4)5
_symmetry_space_group_name_H-M   'P 1'
_cell_length_a   33.81934828
_cell_length_b   14.72716435
_cell_length_c   8.91190662
_cell_angle_alpha   55.75994911
_cell_angle_beta   49.59520831
_cell_angle_gamma   27.80872115
_symmetry_Int_Tables_number   1
_chemical_formula_structural   Ti2(Mo3Se4)5
_chemical_formula_sum   'Ti4 Mo30 Se40'
_cell_volume   1576.12824921
_cell_formula_units_Z   2
loop_
 _symmetry_equiv_pos_site_id
 _symmetry_equiv_pos_as_xyz
  1  'x, y, z'
loop_
 _atom_site_type_symbol
 _atom_site_label
 _atom_site_symmetry_multiplicity
 _atom_site_fract_x
 _atom_site_fract_y
 _atom_site_fract_z
 _atom_site_occupancy
  Ti  Ti0  1  0.012001  0.496651  0.012021  1
  Ti  Ti1  1  0.387999  0.503349  0.987979  1
  Ti  Ti2  1  0.589838  0.501816  0.982683  1
  Ti  Ti3  1  0.810162  0.498184  0.017317  1
  Mo  Mo4  1  0.081304  0.234128  0.547279  1
  Mo  Mo5  1  0.091334  0.422255  0.225765  1
  Mo  Mo6  1  0.054615  0.451914  0.587773  1
  Mo  Mo7  1  0.148626  0.546024  0.399407  1
  Mo  Mo8  1  0.106257  0.579058  0.767352  1
  Mo  Mo9  1  0.283971  0.229333  0.542454  1
  Mo  Mo10  1  0.116029  0.770667  0.457546  1
  Mo  Mo11  1  0.293743  0.420942  0.232648  1
  Mo  Mo12  1  0.251374  0.453976  0.600593  1
  Mo  Mo13  1  0.345385  0.548086  0.412228  1
  Mo  Mo14  1  0.308666  0.577745  0.774235  1
  Mo  Mo15  1  0.478728  0.238884  0.543389  1
  Mo  Mo16  1  0.318696  0.765872  0.452721  1
  Mo  Mo17  1  0.491993  0.422170  0.232681  1
  Mo  Mo18  1  0.456478  0.449125  0.591027  1
  Mo  Mo19  1  0.546033  0.546733  0.410183  1
  Mo  Mo20  1  0.509910  0.576821  0.770377  1
  Mo  Mo21  1  0.681125  0.235028  0.541885  1
  Mo  Mo22  1  0.521306  0.761787  0.449791  1
  Mo  Mo23  1  0.691553  0.420348  0.234497  1
  Mo  Mo24  1  0.657443  0.448003  0.588115  1
  Mo  Mo25  1  0.742557  0.551997  0.411885  1
  Mo  Mo26  1  0.708447  0.579652  0.765503  1
  Mo  Mo27  1  0.878694  0.238213  0.550209  1
  Mo  Mo28  1  0.718875  0.764972  0.458115  1
  Mo  Mo29  1  0.890090  0.423179  0.229623  1
  Mo  Mo30  1  0.853967  0.453267  0.589817  1
  Mo  Mo31  1  0.943522  0.550875  0.408973  1
  Mo  Mo32  1  0.908007  0.577830  0.767319  1
  Mo  Mo33  1  0.921272  0.761116  0.456611  1
  Se  Se34  1  0.012672  0.136281  0.380050  1
  Se  Se35  1  0.110348  0.214178  0.205768  1
  Se  Se36  1  0.042442  0.273206  0.891939  1
  Se  Se37  1  0.214606  0.134729  0.374582  1
  Se  Se38  1  0.063683  0.632726  0.275388  1
  Se  Se39  1  0.148595  0.344097  0.701151  1
  Se  Se40  1  0.311325  0.221425  0.204384  1
  Se  Se41  1  0.158813  0.729591  0.112528  1
  Se  Se42  1  0.241187  0.270409  0.887472  1
  Se  Se43  1  0.088675  0.778575  0.795616  1
  Se  Se44  1  0.414901  0.130848  0.386386  1
  Se  Se45  1  0.251405  0.655903  0.298849  1
  Se  Se46  1  0.336317  0.367274  0.724612  1
  Se  Se47  1  0.185394  0.865271  0.625418  1
  Se  Se48  1  0.506238  0.231764  0.196182  1
  Se  Se49  1  0.357558  0.726794  0.108061  1
  Se  Se50  1  0.448091  0.254222  0.891245  1
  Se  Se51  1  0.289652  0.785822  0.794232  1
  Se  Se52  1  0.615224  0.131907  0.380760  1
  Se  Se53  1  0.453086  0.653706  0.293873  1
  Se  Se54  1  0.539257  0.360650  0.719869  1
  Se  Se55  1  0.387328  0.863719  0.619950  1
  Se  Se56  1  0.706871  0.228671  0.195956  1
  Se  Se57  1  0.557380  0.726098  0.108381  1
  Se  Se58  1  0.648336  0.254408  0.890071  1
  Se  Se59  1  0.490340  0.785340  0.792099  1
  Se  Se60  1  0.816529  0.128927  0.379847  1
  Se  Se61  1  0.660299  0.641820  0.279593  1
  Se  Se62  1  0.739701  0.358180  0.720407  1
  Se  Se63  1  0.583471  0.871073  0.620153  1
  Se  Se64  1  0.909660  0.214660  0.207901  1
  Se  Se65  1  0.751664  0.745592  0.109929  1
  Se  Se66  1  0.842620  0.273902  0.891619  1
  Se  Se67  1  0.693129  0.771329  0.804044  1
  Se  Se68  1  0.860743  0.639350  0.280131  1
  Se  Se69  1  0.946914  0.346294  0.706127  1
  Se  Se70  1  0.784776  0.868093  0.619240  1
  Se  Se71  1  0.951909  0.745778  0.108755  1
  Se  Se72  1  0.893762  0.768236  0.803818  1
  Se  Se73  1  0.985099  0.869152  0.613614  1
