# generated using pymatgen
data_Ca5Si2C2O13
_symmetry_space_group_name_H-M   'P 1'
_cell_length_a   7.62869408
_cell_length_b   10.37751857
_cell_length_c   15.21326451
_cell_angle_alpha   90.00000000
_cell_angle_beta   103.70505427
_cell_angle_gamma   90.00000000
_symmetry_Int_Tables_number   1
_chemical_formula_structural   Ca5Si2C2O13
_chemical_formula_sum   'Ca20 Si8 C8 O52'
_cell_volume   1170.09616714
_cell_formula_units_Z   4
loop_
 _symmetry_equiv_pos_site_id
 _symmetry_equiv_pos_as_xyz
  1  'x, y, z'
loop_
 _atom_site_type_symbol
 _atom_site_label
 _atom_site_symmetry_multiplicity
 _atom_site_fract_x
 _atom_site_fract_y
 _atom_site_fract_z
 _atom_site_occupancy
  C  C0  1  0.809228  0.810677  0.469055  1
  C  C1  1  0.703756  0.194790  0.523746  1
  C  C2  1  0.796244  0.694790  0.976254  1
  C  C3  1  0.296244  0.805210  0.476254  1
  C  C4  1  0.203756  0.305210  0.023746  1
  C  C5  1  0.190772  0.189323  0.530945  1
  C  C6  1  0.309228  0.689323  0.969055  1
  C  C7  1  0.690772  0.310677  0.030945  1
  O  O8  1  0.360232  0.583735  0.725585  1
  O  O9  1  0.658524  0.467770  0.773548  1
  O  O10  1  0.158524  0.032230  0.273548  1
  O  O11  1  0.341476  0.532230  0.226452  1
  O  O12  1  0.049358  0.529631  0.601590  1
  O  O13  1  0.450642  0.029631  0.898410  1
  O  O14  1  0.950642  0.470369  0.398410  1
  O  O15  1  0.549358  0.970369  0.101590  1
  O  O16  1  0.543697  0.524365  0.599019  1
  O  O17  1  0.956303  0.024365  0.900981  1
  O  O18  1  0.456303  0.475635  0.400981  1
  O  O19  1  0.043697  0.975635  0.099019  1
  O  O20  1  0.095463  0.733340  0.728125  1
  O  O21  1  0.281308  0.826659  0.557212  1
  O  O22  1  0.904537  0.266660  0.271875  1
  O  O23  1  0.595463  0.766660  0.228125  1
  O  O24  1  0.639249  0.724915  0.725665  1
  O  O25  1  0.860751  0.224915  0.774335  1
  O  O26  1  0.360751  0.275085  0.274335  1
  O  O27  1  0.139249  0.775085  0.225665  1
  O  O28  1  0.901079  0.526165  0.224445  1
  O  O29  1  0.841476  0.967770  0.726452  1
  O  O30  1  0.598921  0.026165  0.275555  1
  O  O31  1  0.098921  0.473835  0.775555  1
  O  O32  1  0.401079  0.973835  0.724445  1
  O  O33  1  0.860232  0.916265  0.225585  1
  O  O34  1  0.639768  0.416265  0.274415  1
  O  O35  1  0.139768  0.083735  0.774415  1
  O  O36  1  0.772688  0.207757  0.071324  1
  O  O37  1  0.727312  0.707757  0.428676  1
  O  O38  1  0.227312  0.792243  0.928676  1
  O  O39  1  0.272688  0.292243  0.571324  1
  O  O40  1  0.284081  0.205748  0.070092  1
  O  O41  1  0.215919  0.705748  0.429908  1
  O  O42  1  0.715919  0.794252  0.929908  1
  O  O43  1  0.784081  0.294252  0.570092  1
  O  O44  1  0.595019  0.378216  0.073863  1
  O  O45  1  0.904981  0.878216  0.426137  1
  O  O46  1  0.404981  0.621784  0.926137  1
  O  O47  1  0.095019  0.121784  0.573863  1
  O  O48  1  0.099856  0.376279  0.060298  1
  O  O49  1  0.400144  0.876279  0.439702  1
  O  O50  1  0.900144  0.623721  0.939702  1
  O  O51  1  0.599856  0.123721  0.560298  1
  O  O52  1  0.300730  0.660001  0.049859  1
  O  O53  1  0.199270  0.160001  0.450141  1
  O  O54  1  0.699270  0.339999  0.950141  1
  O  O55  1  0.800730  0.839999  0.549859  1
  O  O56  1  0.781308  0.673341  0.057212  1
  O  O57  1  0.718692  0.173341  0.442788  1
  O  O58  1  0.218692  0.326659  0.942788  1
  O  O59  1  0.404537  0.233340  0.771875  1
  Si  Si60  1  0.133965  0.584050  0.703407  1
  Si  Si61  1  0.366035  0.084050  0.796593  1
  Si  Si62  1  0.866035  0.415950  0.296593  1
  Si  Si63  1  0.633965  0.915950  0.203407  1
  Si  Si64  1  0.563729  0.578860  0.701335  1
  Si  Si65  1  0.936271  0.078860  0.798665  1
  Si  Si66  1  0.436271  0.421140  0.298665  1
  Si  Si67  1  0.063729  0.921140  0.201335  1
  Ca  Ca68  1  0.418496  0.089215  0.373730  1
  Ca  Ca69  1  0.420044  0.420343  0.860625  1
  Ca  Ca70  1  0.920044  0.079657  0.360625  1
  Ca  Ca71  1  0.579956  0.579657  0.139375  1
  Ca  Ca72  1  0.581504  0.910785  0.626270  1
  Ca  Ca73  1  0.918496  0.410785  0.873730  1
  Ca  Ca74  1  0.079956  0.920343  0.639375  1
  Ca  Ca75  1  0.081504  0.589215  0.126270  1
  Ca  Ca76  1  0.072457  0.290350  0.680612  1
  Ca  Ca77  1  0.427543  0.790350  0.819388  1
  Ca  Ca78  1  0.927543  0.709650  0.319388  1
  Ca  Ca79  1  0.572457  0.209650  0.180612  1
  Ca  Ca80  1  0.586139  0.288165  0.676180  1
  Ca  Ca81  1  0.913861  0.788165  0.823820  1
  Ca  Ca82  1  0.413861  0.711835  0.323820  1
  Ca  Ca83  1  0.086139  0.211835  0.176180  1
  Ca  Ca84  1  0.754217  0.505401  0.503626  1
  Ca  Ca85  1  0.745783  0.005401  0.996374  1
  Ca  Ca86  1  0.245783  0.494599  0.496374  1
  Ca  Ca87  1  0.254217  0.994599  0.003626  1
