# generated using pymatgen
data_LiB13C2
_symmetry_space_group_name_H-M   'P 1'
_cell_length_a   5.67897024
_cell_length_b   7.30929696
_cell_length_c   7.31147418
_cell_angle_alpha   66.69617494
_cell_angle_beta   67.30804869
_cell_angle_gamma   67.29648715
_symmetry_Int_Tables_number   1
_chemical_formula_structural   LiB13C2
_chemical_formula_sum   'Li2 B26 C4'
_cell_volume   247.21495868
_cell_formula_units_Z   2
loop_
 _symmetry_equiv_pos_site_id
 _symmetry_equiv_pos_as_xyz
  1  'x, y, z'
loop_
 _atom_site_type_symbol
 _atom_site_label
 _atom_site_symmetry_multiplicity
 _atom_site_fract_x
 _atom_site_fract_y
 _atom_site_fract_z
 _atom_site_occupancy
  Li  Li0  1  0.746223  0.940386  0.566493  1
  Li  Li1  1  0.249231  0.068578  0.437551  1
  B  B2  1  0.664183  0.322230  0.345422  1
  B  B3  1  0.822387  0.481409  0.376372  1
  B  B4  1  0.178173  0.125782  0.020579  1
  B  B5  1  0.175003  0.521642  0.622419  1
  B  B6  1  0.906495  0.092687  0.771537  1
  B  B7  1  0.269879  0.730093  0.408638  1
  B  B8  1  0.680281  0.522215  0.622443  1
  B  B9  1  0.673464  0.125548  0.020043  1
  B  B10  1  0.406813  0.273182  0.590497  1
  B  B11  1  0.332591  0.680828  0.653784  1
  B  B12  1  0.425592  0.398391  0.750490  1
  B  B13  1  0.589620  0.730214  0.408651  1
  B  B14  1  0.816622  0.879060  0.979302  1
  B  B15  1  0.831167  0.156157  0.179168  1
  B  B16  1  0.316907  0.481267  0.376036  1
  B  B17  1  0.748366  0.616389  0.885493  1
  B  B18  1  0.769245  0.910915  0.228284  1
  B  B19  1  0.164347  0.847773  0.820463  1
  B  B20  1  0.923816  0.253819  0.896503  1
  B  B21  1  0.727465  0.273325  0.590051  1
  B  B22  1  0.225932  0.093013  0.772061  1
  B  B23  1  0.071124  0.750903  0.103361  1
  B  B24  1  0.321323  0.879034  0.980147  1
  B  B25  1  0.571930  0.604943  0.247952  1
  B  B26  1  0.247494  0.389553  0.112094  1
  B  B27  1  0.088898  0.911208  0.228874  1
  C  C28  1  0.116197  0.511740  0.251079  1
  C  C29  1  0.379740  0.250604  0.988961  1
  C  C30  1  0.616133  0.754358  0.009216  1
  C  C31  1  0.880466  0.492153  0.747628  1
