# generated using pymatgen
data_Bi34Ir3Br37
_symmetry_space_group_name_H-M   'P 1'
_cell_length_a   13.09892423
_cell_length_b   13.20020930
_cell_length_c   17.39003188
_cell_angle_alpha   89.18944527
_cell_angle_beta   90.11781046
_cell_angle_gamma   118.94272381
_symmetry_Int_Tables_number   1
_chemical_formula_structural   Bi34Ir3Br37
_chemical_formula_sum   'Bi34 Ir3 Br37'
_cell_volume   2631.03415216
_cell_formula_units_Z   1
loop_
 _symmetry_equiv_pos_site_id
 _symmetry_equiv_pos_as_xyz
  1  'x, y, z'
loop_
 _atom_site_type_symbol
 _atom_site_label
 _atom_site_symmetry_multiplicity
 _atom_site_fract_x
 _atom_site_fract_y
 _atom_site_fract_z
 _atom_site_occupancy
  Bi  Bi0  1  0.140468  0.977967  0.418685  1
  Bi  Bi1  1  0.856517  0.854127  0.425896  1
  Bi  Bi2  1  0.883137  0.018653  0.572190  1
  Bi  Bi3  1  0.391409  0.856926  0.575453  1
  Bi  Bi4  1  0.202332  0.721207  0.760543  1
  Bi  Bi5  1  0.809314  0.468334  0.912583  1
  Bi  Bi6  1  0.993740  0.850001  0.575201  1
  Bi  Bi7  1  0.496862  0.787757  0.235584  1
  Bi  Bi8  1  0.948564  0.812192  0.091628  1
  Bi  Bi9  1  0.051805  0.188469  0.908785  1
  Bi  Bi10  1  0.521553  0.803752  0.757237  1
  Bi  Bi11  1  0.671808  0.448236  0.757023  1
  Bi  Bi12  1  0.306132  0.788751  0.136908  1
  Bi  Bi13  1  0.820246  0.330137  0.772874  1
  Bi  Bi14  1  0.159240  0.123355  0.562269  1
  Bi  Bi15  1  0.134669  0.952100  0.904737  1
  Bi  Bi16  1  0.814444  0.866779  0.908786  1
  Bi  Bi17  1  0.805495  0.290835  0.237186  1
  Bi  Bi18  1  0.004369  0.131184  0.414485  1
  Bi  Bi19  1  0.614142  0.148375  0.428789  1
  Bi  Bi20  1  0.718117  0.514772  0.239994  1
  Bi  Bi21  1  0.536721  0.388904  0.426042  1
  Bi  Bi22  1  0.150777  0.537222  0.576025  1
  Bi  Bi23  1  0.469199  0.614443  0.574828  1
  Bi  Bi24  1  0.282856  0.480761  0.758297  1
  Bi  Bi25  1  0.538320  0.363280  0.907295  1
  Bi  Bi26  1  0.636382  0.199138  0.894586  1
  Bi  Bi27  1  0.855071  0.459951  0.425557  1
  Bi  Bi28  1  0.191764  0.544707  0.079765  1
  Bi  Bi29  1  0.489306  0.194318  0.242635  1
  Bi  Bi30  1  0.185412  0.132523  0.090610  1
  Bi  Bi31  1  0.304602  0.529195  0.228643  1
  Bi  Bi32  1  0.866324  0.050186  0.094974  1
  Bi  Bi33  1  0.467143  0.669808  0.082464  1
  Ir  Ir34  1  0.999444  0.999935  0.999861  1
  Ir  Ir35  1  0.669008  0.333462  0.335266  1
  Ir  Ir36  1  0.335531  0.668901  0.666644  1
  Br  Br37  1  0.911823  0.264537  0.008546  1
  Br  Br38  1  0.647931  0.336606  0.108904  1
  Br  Br39  1  0.945387  0.523760  0.166965  1
  Br  Br40  1  0.073928  0.317462  0.665261  1
  Br  Br41  1  0.444773  0.428425  0.173366  1
  Br  Br42  1  0.262898  0.345757  0.994140  1
  Br  Br43  1  0.803778  0.854355  0.204929  1
  Br  Br44  1  0.277890  0.461812  0.468634  1
  Br  Br45  1  0.418362  0.399203  0.663404  1
  Br  Br46  1  0.126390  0.518271  0.866030  1
  Br  Br47  1  0.305775  0.226338  0.341558  1
  Br  Br48  1  0.080868  0.732235  0.991289  1
  Br  Br49  1  0.985201  0.590967  0.663738  1
  Br  Br50  1  0.544550  0.818278  0.466100  1
  Br  Br51  1  0.392314  0.988216  0.346614  1
  Br  Br52  1  0.726691  0.535503  0.533577  1
  Br  Br53  1  0.604611  0.013845  0.660900  1
  Br  Br54  1  0.394180  0.877351  0.862464  1
  Br  Br55  1  0.941663  0.792183  0.802822  1
  Br  Br56  1  0.052923  0.197759  0.201888  1
  Br  Br57  1  0.153009  0.937370  0.198004  1
  Br  Br58  1  0.772377  0.077294  0.339558  1
  Br  Br59  1  0.211715  0.157638  0.803063  1
  Br  Br60  1  0.013606  0.396463  0.339323  1
  Br  Br61  1  0.686640  0.752878  0.667544  1
  Br  Br62  1  0.462649  0.189673  0.536405  1
  Br  Br63  1  0.181981  0.736054  0.469826  1
  Br  Br64  1  0.480109  0.602259  0.865217  1
  Br  Br65  1  0.643606  0.910665  0.998948  1
  Br  Br66  1  0.347796  0.080356  0.003113  1
  Br  Br67  1  0.843687  0.062488  0.805755  1
  Br  Br68  1  0.728604  0.656078  0.011926  1
  Br  Br69  1  0.241413  0.932061  0.668405  1
  Br  Br70  1  0.815594  0.270936  0.534869  1
  Br  Br71  1  0.601297  0.613785  0.343013  1
  Br  Br72  1  0.921741  0.688399  0.336471  1
  Br  Br73  1  0.587817  0.053598  0.173545  1
