# generated using pymatgen
data_ErNiSn
_symmetry_space_group_name_H-M   'P 1'
_cell_length_a   4.44754921
_cell_length_b   7.07520207
_cell_length_c   7.69274056
_cell_angle_alpha   90.00858394
_cell_angle_beta   90.00036846
_cell_angle_gamma   89.99966537
_symmetry_Int_Tables_number   1
_chemical_formula_structural   ErNiSn
_chemical_formula_sum   'Er4 Ni4 Sn4'
_cell_volume   242.06984448
_cell_formula_units_Z   4
loop_
 _symmetry_equiv_pos_site_id
 _symmetry_equiv_pos_as_xyz
  1  'x, y, z'
loop_
 _atom_site_type_symbol
 _atom_site_label
 _atom_site_symmetry_multiplicity
 _atom_site_fract_x
 _atom_site_fract_y
 _atom_site_fract_z
 _atom_site_occupancy
  Er  Er0  1  0.749999  0.508128  0.203463  1
  Er  Er1  1  0.750000  0.008091  0.296525  1
  Er  Er2  1  0.249999  0.991814  0.703489  1
  Er  Er3  1  0.250001  0.491827  0.796510  1
  Ni  Ni4  1  0.750001  0.800553  0.913100  1
  Ni  Ni5  1  0.249999  0.199449  0.086941  1
  Ni  Ni6  1  0.749998  0.300849  0.586880  1
  Ni  Ni7  1  0.250000  0.699375  0.413089  1
  Sn  Sn8  1  0.750000  0.194241  0.913621  1
  Sn  Sn9  1  0.750006  0.694255  0.586400  1
  Sn  Sn10  1  0.249997  0.805715  0.086357  1
  Sn  Sn11  1  0.250000  0.305702  0.413626  1
