# generated using pymatgen
data_Tl3(V3S4)8
_symmetry_space_group_name_H-M   'P 1'
_cell_length_a   15.09768247
_cell_length_b   13.13222357
_cell_length_c   9.20270057
_cell_angle_alpha   44.68954898
_cell_angle_beta   113.05841027
_cell_angle_gamma   91.46823527
_symmetry_Int_Tables_number   1
_chemical_formula_structural   Tl3(V3S4)8
_chemical_formula_sum   'Tl3 V24 S32'
_cell_volume   1086.79906636
_cell_formula_units_Z   1
loop_
 _symmetry_equiv_pos_site_id
 _symmetry_equiv_pos_as_xyz
  1  'x, y, z'
loop_
 _atom_site_type_symbol
 _atom_site_label
 _atom_site_symmetry_multiplicity
 _atom_site_fract_x
 _atom_site_fract_y
 _atom_site_fract_z
 _atom_site_occupancy
  Tl  Tl0  1  0.020734  0.978242  0.050415  1
  Tl  Tl1  1  0.347887  0.236790  0.459510  1
  Tl  Tl2  1  0.673232  0.737938  0.538543  1
  V  V3  1  0.938106  0.018072  0.662347  1
  V  V4  1  0.985526  0.614886  0.355389  1
  V  V5  1  0.989414  0.339557  0.214631  1
  V  V6  1  0.260586  0.000358  0.905818  1
  V  V7  1  0.312083  0.733061  0.788521  1
  V  V8  1  0.222763  0.571759  0.242277  1
  V  V9  1  0.220187  0.416196  0.726041  1
  V  V10  1  0.172098  0.203301  0.068759  1
  V  V11  1  0.346934  0.788430  0.450546  1
  V  V12  1  0.487873  0.531627  0.901815  1
  V  V13  1  0.534297  0.348008  0.722765  1
  V  V14  1  0.452688  0.167148  0.076067  1
  V  V15  1  0.549496  0.900694  0.795846  1
  V  V16  1  0.455317  0.733555  0.235060  1
  V  V17  1  0.545731  0.360499  0.369205  1
  V  V18  1  0.728900  0.225648  0.636738  1
  V  V19  1  0.836696  0.790536  0.915559  1
  V  V20  1  0.769689  0.599494  0.210585  1
  V  V21  1  0.870836  0.293639  0.944019  1
  V  V22  1  0.671245  0.276220  0.180870  1
  V  V23  1  0.737042  0.947243  0.147341  1
  V  V24  1  0.015496  0.643643  0.775739  1
  V  V25  1  0.011973  0.355549  0.667504  1
  V  V26  1  0.999113  0.991956  0.480109  1
  S  S27  1  0.086458  0.482827  0.759549  1
  S  S28  1  0.082429  0.071559  0.651429  1
  S  S29  1  0.153987  0.744681  0.806640  1
  S  S30  1  0.169885  0.218968  0.796638  1
  S  S31  1  0.054674  0.178995  0.203041  1
  S  S32  1  0.112752  0.650268  0.283209  1
  S  S33  1  0.125057  0.433188  0.207451  1
  S  S34  1  0.208118  0.934400  0.355742  1
  S  S35  1  0.334057  0.925719  0.796688  1
  S  S36  1  0.311857  0.575023  0.739851  1
  S  S37  1  0.357810  0.361879  0.666781  1
  S  S38  1  0.454320  0.776146  0.731122  1
  S  S39  1  0.292811  0.744053  0.230824  1
  S  S40  1  0.337377  0.190256  0.172739  1
  S  S41  1  0.422127  0.943276  0.191940  1
  S  S42  1  0.421835  0.537897  0.262291  1
  S  S43  1  0.552494  0.526215  0.716194  1
  S  S44  1  0.605469  0.097289  0.746184  1
  S  S45  1  0.668244  0.803870  0.782056  1
  S  S46  1  0.686970  0.340330  0.719797  1
  S  S47  1  0.526951  0.262086  0.223124  1
  S  S48  1  0.612090  0.722804  0.194976  1
  S  S49  1  0.657480  0.452028  0.204107  1
  S  S50  1  0.629321  0.105164  0.145626  1
  S  S51  1  0.780445  0.061924  0.633185  1
  S  S52  1  0.880485  0.533443  0.787549  1
  S  S53  1  0.857716  0.335850  0.637466  1
  S  S54  1  0.920960  0.812015  0.735710  1
  S  S55  1  0.827504  0.766633  0.195740  1
  S  S56  1  0.845643  0.237132  0.231620  1
  S  S57  1  0.907616  0.950133  0.263767  1
  S  S58  1  0.917515  0.503101  0.238542  1
