# generated using pymatgen
data_SrNd10Se12(Cl2O9)4
_symmetry_space_group_name_H-M   'P 1'
_cell_length_a   13.41195672
_cell_length_b   13.55671132
_cell_length_c   15.64684243
_cell_angle_alpha   90.00000000
_cell_angle_beta   90.00000000
_cell_angle_gamma   105.68983510
_symmetry_Int_Tables_number   1
_chemical_formula_structural   SrNd10Se12(Cl2O9)4
_chemical_formula_sum   'Sr2 Nd20 Se24 Cl16 O72'
_cell_volume   2738.93735520
_cell_formula_units_Z   2
loop_
 _symmetry_equiv_pos_site_id
 _symmetry_equiv_pos_as_xyz
  1  'x, y, z'
loop_
 _atom_site_type_symbol
 _atom_site_label
 _atom_site_symmetry_multiplicity
 _atom_site_fract_x
 _atom_site_fract_y
 _atom_site_fract_z
 _atom_site_occupancy
  Sr  Sr0  1  0.022808  0.166471  0.398442  1
  Sr  Sr1  1  0.522808  0.666471  0.601558  1
  Nd  Nd2  1  0.012808  0.502726  0.991156  1
  Nd  Nd3  1  0.049143  0.536656  0.752625  1
  Nd  Nd4  1  0.250586  0.748837  0.245721  1
  Nd  Nd5  1  0.254924  0.751834  0.589844  1
  Nd  Nd6  1  0.256199  0.764617  0.927574  1
  Nd  Nd7  1  0.195199  0.006036  0.889014  1
  Nd  Nd8  1  0.315427  0.493658  0.890110  1
  Nd  Nd9  1  0.465599  0.998913  0.765662  1
  Nd  Nd10  1  0.474815  0.304361  0.382783  1
  Nd  Nd11  1  0.512808  0.002726  0.008844  1
  Nd  Nd12  1  0.500868  0.018687  0.500325  1
  Nd  Nd13  1  0.549143  0.036656  0.247375  1
  Nd  Nd14  1  0.695199  0.506036  0.110986  1
  Nd  Nd15  1  0.815427  0.993658  0.109890  1
  Nd  Nd16  1  0.756199  0.264617  0.072426  1
  Nd  Nd17  1  0.754924  0.251834  0.410156  1
  Nd  Nd18  1  0.750586  0.248837  0.754279  1
  Nd  Nd19  1  0.974815  0.804361  0.617217  1
  Nd  Nd20  1  0.965599  0.498913  0.234338  1
  Nd  Nd21  1  0.000868  0.518687  0.499675  1
  Se  Se22  1  0.986974  0.717098  0.337660  1
  Se  Se23  1  0.078614  0.790636  0.064006  1
  Se  Se24  1  0.052126  0.282017  0.765871  1
  Se  Se25  1  0.297963  0.034108  0.137655  1
  Se  Se26  1  0.209092  0.914923  0.451579  1
  Se  Se27  1  0.203236  0.363856  0.295760  1
  Se  Se28  1  0.289503  0.586230  0.440017  1
  Se  Se29  1  0.191772  0.473281  0.169282  1
  Se  Se30  1  0.260782  0.059054  0.271182  1
  Se  Se31  1  0.423664  0.705734  0.055588  1
  Se  Se32  1  0.504485  0.807736  0.366220  1
  Se  Se33  1  0.552126  0.782017  0.234129  1
  Se  Se34  1  0.359913  0.226377  0.772822  1
  Se  Se35  1  0.486974  0.217098  0.662340  1
  Se  Se36  1  0.578614  0.290636  0.935994  1
  Se  Se37  1  0.703236  0.863856  0.704240  1
  Se  Se38  1  0.797963  0.534108  0.862345  1
  Se  Se39  1  0.709092  0.414923  0.548421  1
  Se  Se40  1  0.760782  0.559054  0.728818  1
  Se  Se41  1  0.789503  0.086230  0.559983  1
  Se  Se42  1  0.691772  0.973281  0.830718  1
  Se  Se43  1  0.859913  0.726377  0.227178  1
  Se  Se44  1  0.923663  0.205734  0.944412  1
  Se  Se45  1  0.004485  0.307736  0.633780  1
  Cl  Cl46  1  0.972232  0.962520  0.498172  1
  Cl  Cl47  1  0.944614  0.043055  0.250896  1
  Cl  Cl48  1  0.969918  0.977821  0.996208  1
  Cl  Cl49  1  0.336125  0.305592  0.223107  1
  Cl  Cl50  1  0.234482  0.213334  0.681507  1
  Cl  Cl51  1  0.217175  0.208636  0.928892  1
  Cl  Cl52  1  0.246574  0.233860  0.436527  1
  Cl  Cl53  1  0.580100  0.459507  0.260345  1
  Cl  Cl54  1  0.472232  0.462520  0.501828  1
  Cl  Cl55  1  0.469918  0.477821  0.003792  1
  Cl  Cl56  1  0.444614  0.543055  0.749104  1
  Cl  Cl57  1  0.717175  0.708636  0.071108  1
  Cl  Cl58  1  0.734482  0.713334  0.318493  1
  Cl  Cl59  1  0.746574  0.733860  0.563473  1
  Cl  Cl60  1  0.836125  0.805592  0.776893  1
  Cl  Cl61  1  0.080100  0.959507  0.739655  1
  O  O62  1  0.971201  0.680242  0.519040  1
  O  O63  1  0.093351  0.710741  0.683305  1
  O  O64  1  0.059734  0.698959  0.249769  1
  O  O65  1  0.101223  0.674986  0.036556  1
  O  O66  1  0.072168  0.436297  0.614527  1
  O  O67  1  0.132523  0.622697  0.872534  1
  O  O68  1  0.097943  0.428309  0.366217  1
  O  O69  1  0.129642  0.854669  0.968882  1
  O  O70  1  0.174567  0.826668  0.371013  1
  O  O71  1  0.129630  0.421300  0.898845  1
  O  O72  1  0.141262  0.849625  0.539613  1
  O  O73  1  0.065923  0.429647  0.129587  1
  O  O74  1  0.110352  0.624467  0.629824  1
  O  O75  1  0.182459  0.839104  0.130225  1
  O  O76  1  0.162707  0.566075  0.233373  1
  O  O77  1  0.176390  0.617148  0.469930  1
  O  O78  1  0.220554  0.606594  0.819299  1
  O  O79  1  0.175704  0.467798  0.979868  1
  O  O80  1  0.331970  0.975711  0.965231  1
  O  O81  1  0.265745  0.885108  0.807774  1
  O  O82  1  0.328665  0.896491  0.483043  1
  O  O83  1  0.403989  0.884827  0.206027  1
  O  O84  1  0.324789  0.669980  0.127662  1
  O  O85  1  0.386429  0.884652  0.654358  1
  O  O86  1  0.365467  0.659043  0.521593  1
  O  O87  1  0.328708  0.664599  0.353764  1
  O  O88  1  0.358776  0.647484  0.962277  1
  O  O89  1  0.361052  0.856046  0.827822  1
  O  O90  1  0.411851  0.825890  0.024996  1
  O  O91  1  0.383997  0.900446  0.293424  1
  O  O92  1  0.433072  0.076655  0.129907  1
  O  O93  1  0.407833  0.790453  0.674632  1
  O  O94  1  0.390818  0.050431  0.900162  1
  O  O95  1  0.556188  0.862236  0.567591  1
  O  O96  1  0.413200  0.118261  0.411157  1
  O  O97  1  0.572168  0.936297  0.385473  1
  O  O98  1  0.442396  0.088191  0.634343  1
  O  O99  1  0.597943  0.928309  0.633783  1
  O  O100  1  0.471201  0.180242  0.480960  1
  O  O101  1  0.629630  0.921300  0.101155  1
  O  O102  1  0.593351  0.210741  0.316695  1
  O  O103  1  0.565923  0.929647  0.870413  1
  O  O104  1  0.559734  0.198959  0.750231  1
  O  O105  1  0.601223  0.174986  0.963444  1
  O  O106  1  0.632523  0.122697  0.127466  1
  O  O107  1  0.629642  0.354669  0.031118  1
  O  O108  1  0.674567  0.326668  0.628987  1
  O  O109  1  0.641262  0.349625  0.460387  1
  O  O110  1  0.610352  0.124467  0.370176  1
  O  O111  1  0.682459  0.339104  0.869775  1
  O  O112  1  0.662707  0.066075  0.766627  1
  O  O113  1  0.676390  0.117148  0.530070  1
  O  O114  1  0.720554  0.106594  0.180701  1
  O  O115  1  0.675704  0.967798  0.020132  1
  O  O116  1  0.831970  0.475711  0.034769  1
  O  O117  1  0.765745  0.385108  0.192226  1
  O  O118  1  0.828665  0.396491  0.516957  1
  O  O119  1  0.903989  0.384827  0.793973  1
  O  O120  1  0.824789  0.169980  0.872338  1
  O  O121  1  0.886429  0.384652  0.345642  1
  O  O122  1  0.933072  0.576655  0.870093  1
  O  O123  1  0.865467  0.159043  0.478407  1
  O  O124  1  0.890818  0.550431  0.099838  1
  O  O125  1  0.828708  0.164599  0.646236  1
  O  O126  1  0.858776  0.147484  0.037723  1
  O  O127  1  0.913200  0.618261  0.588843  1
  O  O128  1  0.861052  0.356046  0.172178  1
  O  O129  1  0.942396  0.588191  0.365657  1
  O  O130  1  0.911851  0.325890  0.975004  1
  O  O131  1  0.883997  0.400446  0.706576  1
  O  O132  1  0.907833  0.290453  0.325368  1
  O  O133  1  0.056188  0.362236  0.432409  1
