# generated using pymatgen
data_Yb2S3
_symmetry_space_group_name_H-M   'P 1'
_cell_length_a   11.11707561
_cell_length_b   11.11739425
_cell_length_c   11.11616782
_cell_angle_alpha   109.46758584
_cell_angle_beta   109.45971411
_cell_angle_gamma   109.48891483
_symmetry_Int_Tables_number   1
_chemical_formula_structural   Yb2S3
_chemical_formula_sum   'Yb16 S24'
_cell_volume   1057.57959919
_cell_formula_units_Z   8
loop_
 _symmetry_equiv_pos_site_id
 _symmetry_equiv_pos_as_xyz
  1  'x, y, z'
loop_
 _atom_site_type_symbol
 _atom_site_label
 _atom_site_symmetry_multiplicity
 _atom_site_fract_x
 _atom_site_fract_y
 _atom_site_fract_z
 _atom_site_occupancy
  Yb  Yb0  1  0.249955  0.202345  0.952356  1
  Yb  Yb1  1  0.749956  0.297567  0.547643  1
  Yb  Yb2  1  0.202509  0.952515  0.249986  1
  Yb  Yb3  1  0.547635  0.750029  0.297659  1
  Yb  Yb4  1  0.452447  0.249985  0.702322  1
  Yb  Yb5  1  0.297653  0.547668  0.749994  1
  Yb  Yb6  1  0.047677  0.750063  0.797676  1
  Yb  Yb7  1  0.797656  0.047670  0.749996  1
  Yb  Yb8  1  0.952446  0.250016  0.202419  1
  Yb  Yb9  1  0.702467  0.452451  0.250025  1
  Yb  Yb10  1  0.999992  0.000014  0.500013  1
  Yb  Yb11  1  0.250054  0.702398  0.452438  1
  Yb  Yb12  1  0.750000  0.797621  0.047569  1
  Yb  Yb13  1  0.499961  0.499971  0.499979  1
  Yb  Yb14  1  0.499979  -0.000044  -0.000002  1
  Yb  Yb15  1  0.999968  0.499959  -0.000023  1
  S  S16  1  0.559420  0.543018  0.780027  1
  S  S17  1  0.720124  0.263067  0.779511  1
  S  S18  1  0.720499  0.983508  0.940613  1
  S  S19  1  0.279282  0.016284  0.059233  1
  S  S20  1  0.779994  0.559433  0.542943  1
  S  S21  1  0.516430  0.237042  0.956984  1
  S  S22  1  0.220172  0.440744  0.457141  1
  S  S23  1  0.542892  0.779859  0.559376  1
  S  S24  1  0.236943  0.957007  0.516381  1
  S  S25  1  0.279955  0.737068  0.220591  1
  S  S26  1  0.483577  0.763023  0.042901  1
  S  S27  1  0.779358  0.720008  0.263050  1
  S  S28  1  0.220554  0.279896  0.737008  1
  S  S29  1  0.456991  0.220059  0.440730  1
  S  S30  1  0.983538  0.940606  0.720440  1
  S  S31  1  0.059372  0.279428  0.016478  1
  S  S32  1  0.957035  0.516348  0.236965  1
  S  S33  1  0.016359  0.059352  0.279373  1
  S  S34  1  0.763012  0.042947  0.483564  1
  S  S35  1  0.736976  0.220558  0.279929  1
  S  S36  1  0.042810  0.483467  0.762958  1
  S  S37  1  0.940665  0.720545  0.983595  1
  S  S38  1  0.263013  0.779452  0.720080  1
  S  S39  1  0.440671  0.457055  0.220077  1
