# generated using pymatgen
data_U11Se20
_symmetry_space_group_name_H-M   'P 1'
_cell_length_a   6.71777902
_cell_length_b   21.31377887
_cell_length_c   15.07393127
_cell_angle_alpha   45.01355465
_cell_angle_beta   89.98953769
_cell_angle_gamma   89.95958381
_symmetry_Int_Tables_number   1
_chemical_formula_structural   U11Se20
_chemical_formula_sum   'U22 Se40'
_cell_volume   1526.51216382
_cell_formula_units_Z   2
loop_
 _symmetry_equiv_pos_site_id
 _symmetry_equiv_pos_as_xyz
  1  'x, y, z'
loop_
 _atom_site_type_symbol
 _atom_site_label
 _atom_site_symmetry_multiplicity
 _atom_site_fract_x
 _atom_site_fract_y
 _atom_site_fract_z
 _atom_site_occupancy
  U  U0  1  0.148386  0.999449  0.751197  1
  U  U1  1  0.251251  0.406932  0.086792  1
  U  U2  1  0.250751  0.903802  0.094925  1
  U  U3  1  0.252826  0.246408  0.600368  1
  U  U4  1  0.250523  0.743889  0.600166  1
  U  U5  1  0.250463  0.096819  0.404918  1
  U  U6  1  0.251221  0.593160  0.412986  1
  U  U7  1  0.249766  0.255765  0.899522  1
  U  U8  1  0.252773  0.752834  0.898849  1
  U  U9  1  0.351051  0.500185  0.249557  1
  U  U10  1  0.346606  0.000025  0.250177  1
  U  U11  1  0.645761  0.499245  0.750608  1
  U  U12  1  0.748798  0.253028  0.093893  1
  U  U13  1  0.751982  0.755540  0.089864  1
  U  U14  1  0.752590  0.244559  0.410945  1
  U  U15  1  0.749817  0.094363  0.900729  1
  U  U16  1  0.752383  0.403254  0.600175  1
  U  U17  1  0.750965  0.745737  0.407876  1
  U  U18  1  0.751293  0.906662  0.599879  1
  U  U19  1  0.751063  0.596809  0.899101  1
  U  U20  1  0.851792  0.500359  0.249365  1
  U  U21  1  0.846843  -0.000064  0.250155  1
  Se  Se22  1  0.004373  0.748465  0.251479  1
  Se  Se23  1  0.002654  0.248363  0.752648  1
  Se  Se24  1  0.001483  0.751646  0.746231  1
  Se  Se25  1  0.107963  0.058964  0.042644  1
  Se  Se26  1  0.108905  0.149409  0.159373  1
  Se  Se27  1  0.110935  0.560667  0.039866  1
  Se  Se28  1  0.111514  0.352393  0.338607  1
  Se  Se29  1  0.111360  0.647979  0.160850  1
  Se  Se30  1  0.111319  0.439504  0.459375  1
  Se  Se31  1  0.109362  0.850729  0.340694  1
  Se  Se32  1  0.108560  0.941782  0.457357  1
  Se  Se33  1  0.386194  0.148907  0.541139  1
  Se  Se34  1  0.392940  0.439032  0.662088  1
  Se  Se35  1  0.391571  0.647371  0.542495  1
  Se  Se36  1  0.387652  0.940699  0.661263  1
  Se  Se37  1  0.390457  0.351744  0.958357  1
  Se  Se38  1  0.385128  0.850393  0.960020  1
  Se  Se39  1  0.386045  0.059683  0.839808  1
  Se  Se40  1  0.392312  0.560757  0.837763  1
  Se  Se41  1  0.502001  0.252285  0.248959  1
  Se  Se42  1  0.502478  0.747928  0.252191  1
  Se  Se43  1  0.503168  0.249702  0.751354  1
  Se  Se44  1  0.504178  0.751654  0.745606  1
  Se  Se45  1  0.611080  0.441803  0.159583  1
  Se  Se46  1  0.610107  0.940694  0.160219  1
  Se  Se47  1  0.606795  0.148263  0.043034  1
  Se  Se48  1  0.610155  0.059551  0.339707  1
  Se  Se49  1  0.612642  0.351128  0.457659  1
  Se  Se50  1  0.612879  0.649499  0.041204  1
  Se  Se51  1  0.606868  0.851636  0.456290  1
  Se  Se52  1  0.610458  0.558530  0.339575  1
  Se  Se53  1  0.895187  0.060847  0.540623  1
  Se  Se54  1  0.887703  0.557909  0.544091  1
  Se  Se55  1  0.894897  0.149162  0.661254  1
  Se  Se56  1  0.881648  0.349880  0.840214  1
  Se  Se57  1  0.888646  0.441578  0.955646  1
  Se  Se58  1  0.895361  0.850426  0.839589  1
  Se  Se59  1  0.884279  0.648440  0.660694  1
  Se  Se60  1  0.893623  0.939805  0.959910  1
  Se  Se61  1  0.003216  0.252035  0.248490  1
