# generated using pymatgen
data_Rb8U9O31
_symmetry_space_group_name_H-M   'P 1'
_cell_length_a   7.07037565
_cell_length_b   14.56759929
_cell_length_c   34.41438054
_cell_angle_alpha   90.00000000
_cell_angle_beta   90.00000000
_cell_angle_gamma   90.00000000
_symmetry_Int_Tables_number   1
_chemical_formula_structural   Rb8U9O31
_chemical_formula_sum   'Rb32 U36 O124'
_cell_volume   3544.62610849
_cell_formula_units_Z   4
loop_
 _symmetry_equiv_pos_site_id
 _symmetry_equiv_pos_as_xyz
  1  'x, y, z'
loop_
 _atom_site_type_symbol
 _atom_site_label
 _atom_site_symmetry_multiplicity
 _atom_site_fract_x
 _atom_site_fract_y
 _atom_site_fract_z
 _atom_site_occupancy
  Rb  Rb0  1  0.239736  0.485769  0.472892  1
  Rb  Rb1  1  0.760264  0.985769  0.472892  1
  Rb  Rb2  1  0.247188  0.947704  0.412437  1
  Rb  Rb3  1  0.283254  0.394671  0.352748  1
  Rb  Rb4  1  0.747188  0.947704  0.087563  1
  Rb  Rb5  1  0.747188  0.552296  0.912437  1
  Rb  Rb6  1  0.803844  0.126556  0.719969  1
  Rb  Rb7  1  0.252812  0.052296  0.912437  1
  Rb  Rb8  1  0.303844  0.373444  0.219969  1
  Rb  Rb9  1  0.739736  0.485769  0.027108  1
  Rb  Rb10  1  0.216746  0.894671  0.147252  1
  Rb  Rb11  1  0.260264  0.985769  0.027108  1
  Rb  Rb12  1  0.216746  0.605329  0.852748  1
  Rb  Rb13  1  0.783254  0.105329  0.852748  1
  Rb  Rb14  1  0.196156  0.873444  0.280031  1
  Rb  Rb15  1  0.252812  0.447704  0.087563  1
  Rb  Rb16  1  0.783254  0.394671  0.147252  1
  Rb  Rb17  1  0.696156  0.626556  0.780031  1
  Rb  Rb18  1  0.239736  0.014231  0.527108  1
  Rb  Rb19  1  0.196156  0.626556  0.719969  1
  Rb  Rb20  1  0.752812  0.447704  0.412437  1
  Rb  Rb21  1  0.752812  0.052296  0.587563  1
  Rb  Rb22  1  0.303844  0.126556  0.780031  1
  Rb  Rb23  1  0.716746  0.894671  0.352748  1
  Rb  Rb24  1  0.283254  0.105329  0.647252  1
  Rb  Rb25  1  0.803844  0.373444  0.280031  1
  Rb  Rb26  1  0.260264  0.514231  0.972892  1
  Rb  Rb27  1  0.247188  0.552296  0.587563  1
  Rb  Rb28  1  0.739736  0.014231  0.972892  1
  Rb  Rb29  1  0.716746  0.605329  0.647252  1
  Rb  Rb30  1  0.696156  0.873444  0.219969  1
  Rb  Rb31  1  0.760264  0.514231  0.527108  1
  U  U32  1  0.063367  0.132418  0.330720  1
  U  U33  1  0.949814  0.750000  0.000000  1
  U  U34  1  0.063367  0.367582  0.669280  1
  U  U35  1  0.015689  0.383565  0.784604  1
  U  U36  1  0.515689  0.116435  0.284604  1
  U  U37  1  0.585620  0.212279  0.056639  1
  U  U38  1  0.550186  0.250000  0.500000  1
  U  U39  1  0.881256  0.827576  0.890042  1
  U  U40  1  0.563367  0.367582  0.830720  1
  U  U41  1  0.118744  0.172424  0.109958  1
  U  U42  1  0.381256  0.827576  0.609958  1
  U  U43  1  0.984311  0.883565  0.784604  1
  U  U44  1  0.618744  0.327576  0.609958  1
  U  U45  1  0.118744  0.327576  0.890042  1
  U  U46  1  0.936633  0.632418  0.330720  1
  U  U47  1  0.936633  0.867582  0.669280  1
  U  U48  1  0.449814  0.750000  0.500000  1
  U  U49  1  0.984311  0.616435  0.215396  1
  U  U50  1  0.881256  0.672424  0.109958  1
  U  U51  1  0.484311  0.883565  0.715396  1
  U  U52  1  0.050186  0.250000  0.000000  1
  U  U53  1  0.085620  0.287721  0.556639  1
  U  U54  1  0.914380  0.787721  0.556639  1
  U  U55  1  0.085620  0.212279  0.443361  1
  U  U56  1  0.618744  0.172424  0.390042  1
  U  U57  1  0.381256  0.672424  0.390042  1
  U  U58  1  0.484311  0.616435  0.284604  1
  U  U59  1  0.436633  0.867582  0.830720  1
  U  U60  1  0.436633  0.632418  0.169280  1
  U  U61  1  0.914380  0.712279  0.443361  1
  U  U62  1  0.515689  0.383565  0.715396  1
  U  U63  1  0.563367  0.132418  0.169280  1
  U  U64  1  0.414380  0.712279  0.056639  1
  U  U65  1  0.585620  0.287721  0.943361  1
  U  U66  1  0.015689  0.116435  0.215396  1
  U  U67  1  0.414380  0.787721  0.943361  1
  O  O68  1  0.434305  0.742702  0.818557  1
  O  O69  1  0.750925  0.630522  0.174681  1
  O  O70  1  0.698065  0.398406  0.770908  1
  O  O71  1  0.438720  0.994422  0.840685  1
  O  O72  1  0.972903  0.488006  0.211142  1
  O  O73  1  0.085626  0.164352  0.573383  1
  O  O74  1  0.625174  0.637999  0.344364  1
  O  O75  1  0.447899  0.872896  0.484948  1
  O  O76  1  0.801935  0.898406  0.729092  1
  O  O77  1  0.698065  0.101594  0.229092  1
  O  O78  1  0.065695  0.257298  0.318557  1
  O  O79  1  0.544401  0.835176  0.888754  1
  O  O80  1  0.100634  0.705216  0.066407  1
  O  O81  1  0.250925  0.869478  0.674681  1
  O  O82  1  0.027097  0.511994  0.788858  1
  O  O83  1  0.249075  0.369478  0.825319  1
  O  O84  1  0.585626  0.164352  0.926617  1
  O  O85  1  0.250925  0.630522  0.325319  1
  O  O86  1  0.910987  0.587997  0.458865  1
  O  O87  1  0.112130  0.048529  0.096688  1
  O  O88  1  0.749075  0.130522  0.325319  1
  O  O89  1  0.874826  0.362001  0.844364  1
  O  O90  1  0.589013  0.412003  0.958865  1
  O  O91  1  0.210177  0.250000  0.500000  1
  O  O92  1  0.374200  0.793389  0.373268  1
  O  O93  1  0.374200  0.706611  0.626732  1
  O  O94  1  0.198065  0.398406  0.729092  1
  O  O95  1  0.198065  0.101594  0.270908  1
  O  O96  1  0.414374  0.835648  0.073383  1
  O  O97  1  0.600634  0.794784  0.566407  1
  O  O98  1  0.125174  0.862001  0.844364  1
  O  O99  1  0.414374  0.664352  0.926617  1
  O  O100  1  0.112130  0.451471  0.903312  1
  O  O101  1  0.229415  0.782628  0.545224  1
  O  O102  1  0.710177  0.250000  0.000000  1
  O  O103  1  0.887870  0.951471  0.903312  1
  O  O104  1  0.625800  0.206611  0.626732  1
  O  O105  1  0.052101  0.372896  0.015052  1
  O  O106  1  0.938720  0.505578  0.340685  1
  O  O107  1  0.065695  0.242702  0.681443  1
  O  O108  1  0.472903  0.488006  0.288858  1
  O  O109  1  0.289823  0.750000  0.000000  1
  O  O110  1  0.374826  0.362001  0.655636  1
  O  O111  1  0.565695  0.257298  0.181443  1
  O  O112  1  0.100634  0.794784  0.933593  1
  O  O113  1  0.387870  0.548529  0.403312  1
  O  O114  1  0.085626  0.335648  0.426617  1
  O  O115  1  0.410987  0.587997  0.041135  1
  O  O116  1  0.044401  0.835176  0.611246  1
  O  O117  1  0.770585  0.217372  0.454776  1
  O  O118  1  0.729415  0.782628  0.954776  1
  O  O119  1  0.874200  0.706611  0.873268  1
  O  O120  1  0.061280  0.005578  0.340685  1
  O  O121  1  0.589013  0.087997  0.041135  1
  O  O122  1  0.387870  0.951471  0.596688  1
  O  O123  1  0.612130  0.048529  0.403312  1
  O  O124  1  0.438720  0.505578  0.159315  1
  O  O125  1  0.997878  0.741540  0.224877  1
  O  O126  1  0.729415  0.717372  0.045224  1
  O  O127  1  0.544401  0.664824  0.111246  1
  O  O128  1  0.887870  0.548529  0.096688  1
  O  O129  1  0.472903  0.011994  0.711142  1
  O  O130  1  0.527097  0.988006  0.288858  1
  O  O131  1  0.270585  0.217372  0.045224  1
  O  O132  1  0.625174  0.862001  0.655636  1
  O  O133  1  0.089013  0.087997  0.458865  1
  O  O134  1  0.899366  0.294784  0.933593  1
  O  O135  1  0.625800  0.293389  0.373268  1
  O  O136  1  0.399366  0.205216  0.433593  1
  O  O137  1  0.229415  0.717372  0.454776  1
  O  O138  1  0.585626  0.335648  0.073383  1
  O  O139  1  0.552101  0.127104  0.515052  1
  O  O140  1  0.612130  0.451471  0.596688  1
  O  O141  1  0.301935  0.898406  0.770908  1
  O  O142  1  0.565695  0.242702  0.818557  1
  O  O143  1  0.750925  0.869478  0.825319  1
  O  O144  1  0.249075  0.130522  0.174681  1
  O  O145  1  0.874200  0.793389  0.126732  1
  O  O146  1  0.947899  0.627104  0.984948  1
  O  O147  1  0.934305  0.757298  0.318557  1
  O  O148  1  0.874826  0.137999  0.155636  1
  O  O149  1  0.749075  0.369478  0.674681  1
  O  O150  1  0.301935  0.601594  0.229092  1
  O  O151  1  0.089013  0.412003  0.541135  1
  O  O152  1  0.125174  0.637999  0.155636  1
  O  O153  1  0.270585  0.282628  0.954776  1
  O  O154  1  0.455599  0.335176  0.888754  1
  O  O155  1  0.044401  0.664824  0.388754  1
  O  O156  1  0.061280  0.494422  0.659315  1
  O  O157  1  0.497878  0.758460  0.724877  1
  O  O158  1  0.910987  0.912003  0.541135  1
  O  O159  1  0.955599  0.164824  0.388754  1
  O  O160  1  0.561280  0.005578  0.159315  1
  O  O161  1  0.434305  0.757298  0.181443  1
  O  O162  1  0.997878  0.758460  0.775123  1
  O  O163  1  0.052101  0.127104  0.984948  1
  O  O164  1  0.789823  0.750000  0.500000  1
  O  O165  1  0.914374  0.835648  0.426617  1
  O  O166  1  0.934305  0.742702  0.681443  1
  O  O167  1  0.374826  0.137999  0.344364  1
  O  O168  1  0.801935  0.601594  0.270908  1
  O  O169  1  0.125800  0.206611  0.873268  1
  O  O170  1  0.002122  0.258460  0.775123  1
  O  O171  1  0.027097  0.988006  0.211142  1
  O  O172  1  0.552101  0.372896  0.484948  1
  O  O173  1  0.502122  0.241540  0.275123  1
  O  O174  1  0.947899  0.872896  0.015052  1
  O  O175  1  0.770585  0.282628  0.545224  1
  O  O176  1  0.399366  0.294784  0.566407  1
  O  O177  1  0.972903  0.011994  0.788858  1
  O  O178  1  0.561280  0.494422  0.840685  1
  O  O179  1  0.527097  0.511994  0.711142  1
  O  O180  1  0.502122  0.258460  0.724877  1
  O  O181  1  0.447899  0.627104  0.515052  1
  O  O182  1  0.002122  0.241540  0.224877  1
  O  O183  1  0.938720  0.994422  0.659315  1
  O  O184  1  0.497878  0.741540  0.275123  1
  O  O185  1  0.955599  0.335176  0.611246  1
  O  O186  1  0.600634  0.705216  0.433593  1
  O  O187  1  0.410987  0.912003  0.958865  1
  O  O188  1  0.914374  0.664352  0.573383  1
  O  O189  1  0.899366  0.205216  0.066407  1
  O  O190  1  0.455599  0.164824  0.111246  1
  O  O191  1  0.125800  0.293389  0.126732  1
