# generated using pymatgen
data_NaH2CSO4F3
_symmetry_space_group_name_H-M   'P 1'
_cell_length_a   5.48369903
_cell_length_b   6.53690835
_cell_length_c   17.69214039
_cell_angle_alpha   90.00001549
_cell_angle_beta   90.00001167
_cell_angle_gamma   90.00000619
_symmetry_Int_Tables_number   1
_chemical_formula_structural   NaH2CSO4F3
_chemical_formula_sum   'Na4 H8 C4 S4 O16 F12'
_cell_volume   634.20021319
_cell_formula_units_Z   4
loop_
 _symmetry_equiv_pos_site_id
 _symmetry_equiv_pos_as_xyz
  1  'x, y, z'
loop_
 _atom_site_type_symbol
 _atom_site_label
 _atom_site_symmetry_multiplicity
 _atom_site_fract_x
 _atom_site_fract_y
 _atom_site_fract_z
 _atom_site_occupancy
  Na  Na0  1  0.249999  0.564953  0.236754  1
  Na  Na1  1  0.750001  0.435044  0.763246  1
  Na  Na2  1  0.749999  0.935046  0.736754  1
  Na  Na3  1  0.250000  0.064952  0.263247  1
  H  H4  1  0.894367  0.254488  0.624740  1
  H  H5  1  0.894368  0.754488  0.875260  1
  H  H6  1  0.605632  0.754489  0.875260  1
  H  H7  1  0.394368  0.245512  0.124740  1
  H  H8  1  0.605633  0.254488  0.624740  1
  H  H9  1  0.394367  0.745512  0.375260  1
  H  H10  1  0.105633  0.245512  0.124740  1
  H  H11  1  0.105633  0.745512  0.375260  1
  C  C12  1  0.750000  0.722938  0.070905  1
  C  C13  1  0.750000  0.222938  0.429095  1
  C  C14  1  0.250000  0.777062  0.570905  1
  C  C15  1  0.250000  0.277062  0.929095  1
  S  S16  1  0.250000  0.112185  0.842983  1
  S  S17  1  0.750000  0.887815  0.157017  1
  S  S18  1  0.250000  0.612185  0.657017  1
  S  S19  1  0.750000  0.387815  0.342983  1
  O  O20  1  0.750000  0.596301  0.372754  1
  O  O21  1  0.473808  0.671236  0.696186  1
  O  O22  1  0.250000  0.786991  0.346626  1
  O  O23  1  0.526192  0.328764  0.303814  1
  O  O24  1  0.526192  0.828764  0.196186  1
  O  O25  1  0.026192  0.171236  0.803814  1
  O  O26  1  0.750000  0.096301  0.127246  1
  O  O27  1  0.026192  0.671236  0.696186  1
  O  O28  1  0.973808  0.328764  0.303814  1
  O  O29  1  0.250000  0.903699  0.872754  1
  O  O30  1  0.250000  0.403699  0.627246  1
  O  O31  1  0.473808  0.171236  0.803814  1
  O  O32  1  0.750000  0.213009  0.653374  1
  O  O33  1  0.973808  0.828764  0.196186  1
  O  O34  1  0.250000  0.286991  0.153374  1
  O  O35  1  0.750000  0.713009  0.846626  1
  F  F36  1  0.750000  0.522144  0.090549  1
  F  F37  1  0.549514  0.260259  0.471724  1
  F  F38  1  0.549515  0.760259  0.028276  1
  F  F39  1  0.049514  0.239742  0.971724  1
  F  F40  1  0.049515  0.739741  0.528276  1
  F  F41  1  0.950486  0.760259  0.028276  1
  F  F42  1  0.250000  0.477856  0.909451  1
  F  F43  1  0.750000  0.022144  0.409451  1
  F  F44  1  0.450486  0.239741  0.971724  1
  F  F45  1  0.250000  0.977856  0.590549  1
  F  F46  1  0.950486  0.260259  0.471724  1
  F  F47  1  0.450486  0.739741  0.528276  1
