# generated using pymatgen
data_Co3B7BrO13
_symmetry_space_group_name_H-M   'P 1'
_cell_length_a   8.65114806
_cell_length_b   8.64656168
_cell_length_c   12.24418730
_cell_angle_alpha   90.00000000
_cell_angle_beta   90.00000000
_cell_angle_gamma   90.00000000
_symmetry_Int_Tables_number   1
_chemical_formula_structural   Co3B7BrO13
_chemical_formula_sum   'Co12 B28 Br4 O52'
_cell_volume   915.89808940
_cell_formula_units_Z   4
loop_
 _symmetry_equiv_pos_site_id
 _symmetry_equiv_pos_as_xyz
  1  'x, y, z'
loop_
 _atom_site_type_symbol
 _atom_site_label
 _atom_site_symmetry_multiplicity
 _atom_site_fract_x
 _atom_site_fract_y
 _atom_site_fract_z
 _atom_site_occupancy
  Co  Co0  1  0.014004  0.970022  0.002955  1
  Co  Co1  1  0.985996  0.029978  0.502955  1
  Co  Co2  1  0.514004  0.029978  0.002955  1
  Co  Co3  1  0.515506  0.468632  0.000664  1
  Co  Co4  1  0.984494  0.468632  0.500664  1
  Co  Co5  1  0.739831  0.253220  0.726164  1
  Co  Co6  1  0.239831  0.746780  0.726164  1
  Co  Co7  1  0.484494  0.531368  0.500664  1
  Co  Co8  1  0.015506  0.531368  0.000664  1
  Co  Co9  1  0.260169  0.746780  0.226164  1
  Co  Co10  1  0.760169  0.253220  0.226164  1
  Co  Co11  1  0.485996  0.970022  0.502955  1
  B  B12  1  0.746390  0.904033  0.170322  1
  B  B13  1  0.256736  0.246572  0.497768  1
  B  B14  1  0.957134  0.750558  0.352416  1
  B  B15  1  0.743264  0.753428  0.997768  1
  B  B16  1  0.542866  0.750558  0.852416  1
  B  B17  1  0.746447  0.597491  0.169861  1
  B  B18  1  0.253610  0.095967  0.670322  1
  B  B19  1  0.498000  0.996553  0.750476  1
  B  B20  1  0.905777  0.750400  0.822640  1
  B  B21  1  0.753553  0.597491  0.669861  1
  B  B22  1  0.002000  0.996553  0.250476  1
  B  B23  1  0.998000  0.003447  0.750476  1
  B  B24  1  0.246390  0.095967  0.170322  1
  B  B25  1  0.253553  0.402509  0.669861  1
  B  B26  1  0.594223  0.750400  0.322640  1
  B  B27  1  0.997867  0.496372  0.750262  1
  B  B28  1  0.753610  0.904033  0.670322  1
  B  B29  1  0.002133  0.503628  0.250262  1
  B  B30  1  0.756736  0.753428  0.497768  1
  B  B31  1  0.042866  0.249442  0.852416  1
  B  B32  1  0.502000  0.003447  0.250476  1
  B  B33  1  0.497867  0.503628  0.750262  1
  B  B34  1  0.457134  0.249442  0.352416  1
  B  B35  1  0.094223  0.249600  0.322640  1
  B  B36  1  0.246447  0.402509  0.169861  1
  B  B37  1  0.243264  0.246572  0.997768  1
  B  B38  1  0.502133  0.496372  0.250262  1
  B  B39  1  0.405777  0.249600  0.822640  1
  Br  Br40  1  0.771404  0.248333  0.511285  1
  Br  Br41  1  0.271404  0.751667  0.511285  1
  Br  Br42  1  0.228596  0.751667  0.011285  1
  Br  Br43  1  0.728596  0.248333  0.011285  1
  O  O44  1  0.179130  0.363582  0.566457  1
  O  O45  1  0.910411  0.941668  0.156419  1
  O  O46  1  0.036433  0.090019  0.854035  1
  O  O47  1  0.033041  0.838755  0.772325  1
  O  O48  1  0.116611  0.328225  0.935721  1
  O  O49  1  0.357933  0.175573  0.924568  1
  O  O50  1  0.957255  0.330557  0.776332  1
  O  O51  1  0.320870  0.363582  0.066457  1
  O  O52  1  0.167084  0.973595  0.228722  1
  O  O53  1  0.332916  0.973595  0.728722  1
  O  O54  1  0.089208  0.460977  0.151931  1
  O  O55  1  0.466959  0.838755  0.272325  1
  O  O56  1  0.536433  0.909981  0.854035  1
  O  O57  1  0.542745  0.330557  0.276332  1
  O  O58  1  0.410792  0.460977  0.651931  1
  O  O59  1  0.172706  0.125189  0.064896  1
  O  O60  1  0.832916  0.026405  0.728722  1
  O  O61  1  0.883389  0.671775  0.435721  1
  O  O62  1  0.836306  0.483129  0.230332  1
  O  O63  1  0.451132  0.408533  0.844040  1
  O  O64  1  0.589208  0.539023  0.151931  1
  O  O65  1  0.548868  0.591467  0.344040  1
  O  O66  1  0.327294  0.125189  0.564896  1
  O  O67  1  0.769959  0.749838  0.738511  1
  O  O68  1  0.966959  0.161245  0.272325  1
  O  O69  1  0.230041  0.250162  0.238511  1
  O  O70  1  0.457255  0.669443  0.776332  1
  O  O71  1  0.410411  0.058332  0.156419  1
  O  O72  1  0.820870  0.636418  0.066457  1
  O  O73  1  0.589589  0.941668  0.656419  1
  O  O74  1  0.533041  0.161245  0.772325  1
  O  O75  1  0.951132  0.591467  0.844040  1
  O  O76  1  0.827294  0.874811  0.564896  1
  O  O77  1  0.048868  0.408533  0.344040  1
  O  O78  1  0.679130  0.636418  0.566457  1
  O  O79  1  0.857933  0.824427  0.924568  1
  O  O80  1  0.089589  0.058332  0.656419  1
  O  O81  1  0.730041  0.749838  0.238511  1
  O  O82  1  0.463567  0.090019  0.354035  1
  O  O83  1  0.910792  0.539023  0.651931  1
  O  O84  1  0.642067  0.824427  0.424568  1
  O  O85  1  0.042745  0.669443  0.276332  1
  O  O86  1  0.163694  0.516871  0.730332  1
  O  O87  1  0.269959  0.250162  0.738511  1
  O  O88  1  0.142067  0.175573  0.424568  1
  O  O89  1  0.336306  0.516871  0.230332  1
  O  O90  1  0.616611  0.671775  0.935721  1
  O  O91  1  0.672706  0.874811  0.064896  1
  O  O92  1  0.963567  0.909981  0.354035  1
  O  O93  1  0.667084  0.026405  0.228722  1
  O  O94  1  0.383389  0.328225  0.435721  1
  O  O95  1  0.663694  0.483129  0.730332  1
