# generated using pymatgen
data_PrGaCo
_symmetry_space_group_name_H-M   'P 1'
_cell_length_a   4.20133016
_cell_length_b   8.24156368
_cell_length_c   7.81389405
_cell_angle_alpha   90.04937505
_cell_angle_beta   90.16972194
_cell_angle_gamma   90.01441341
_symmetry_Int_Tables_number   1
_chemical_formula_structural   PrGaCo
_chemical_formula_sum   'Pr4 Ga4 Co4'
_cell_volume   270.55892678
_cell_formula_units_Z   4
loop_
 _symmetry_equiv_pos_site_id
 _symmetry_equiv_pos_as_xyz
  1  'x, y, z'
loop_
 _atom_site_type_symbol
 _atom_site_label
 _atom_site_symmetry_multiplicity
 _atom_site_fract_x
 _atom_site_fract_y
 _atom_site_fract_z
 _atom_site_occupancy
  Pr  Pr0  1  0.251793  0.714953  0.425958  1
  Pr  Pr1  1  0.248479  0.215332  0.073244  1
  Pr  Pr2  1  0.751551  0.785058  0.926996  1
  Pr  Pr3  1  0.748169  0.284730  0.574148  1
  Ga  Ga4  1  0.748932  0.002387  0.272433  1
  Ga  Ga5  1  0.251160  0.998063  0.727867  1
  Ga  Ga6  1  0.751128  0.499809  0.227553  1
  Ga  Ga7  1  0.248781  0.499700  0.772098  1
  Co  Co8  1  0.749532  0.455132  0.925372  1
  Co  Co9  1  0.249507  0.044634  0.426000  1
  Co  Co10  1  0.250369  0.545398  0.074105  1
  Co  Co11  1  0.750600  0.954804  0.574227  1
