# generated using pymatgen
data_NaAl3Tl2(SiO4)3
_symmetry_space_group_name_H-M   'P 1'
_cell_length_a   12.42000068
_cell_length_b   12.55092738
_cell_length_c   12.55092738
_cell_angle_alpha   90.00000000
_cell_angle_beta   90.00000000
_cell_angle_gamma   90.00000000
_symmetry_Int_Tables_number   1
_chemical_formula_structural   NaAl3Tl2(SiO4)3
_chemical_formula_sum   'Na4 Al12 Tl8 Si12 O48'
_cell_volume   1956.47027110
_cell_formula_units_Z   4
loop_
 _symmetry_equiv_pos_site_id
 _symmetry_equiv_pos_as_xyz
  1  'x, y, z'
loop_
 _atom_site_type_symbol
 _atom_site_label
 _atom_site_symmetry_multiplicity
 _atom_site_fract_x
 _atom_site_fract_y
 _atom_site_fract_z
 _atom_site_occupancy
  Na  Na0  1  0.568121  0.000000  0.391487  1
  Na  Na1  1  0.568121  0.391487  0.000000  1
  Na  Na2  1  0.568121  0.000000  0.608513  1
  Na  Na3  1  0.568121  0.608513  0.000000  1
  Al  Al4  1  0.182889  0.000000  0.628510  1
  Al  Al5  1  0.182889  0.371490  0.000000  1
  Al  Al6  1  0.182889  0.628510  0.000000  1
  Al  Al7  1  0.182889  0.000000  0.371490  1
  Al  Al8  1  0.630679  0.000000  0.180800  1
  Al  Al9  1  0.630679  0.180800  0.000000  1
  Al  Al10  1  0.630679  0.000000  0.819200  1
  Al  Al11  1  0.630679  0.819200  0.000000  1
  Al  Al12  1  0.820859  0.000000  0.624916  1
  Al  Al13  1  0.820859  0.624916  0.000000  1
  Al  Al14  1  0.820859  0.375084  0.000000  1
  Al  Al15  1  0.820859  0.000000  0.375084  1
  Tl  Tl16  1  0.246813  0.250896  0.250896  1
  Tl  Tl17  1  0.246813  0.250896  0.749104  1
  Tl  Tl18  1  0.246813  0.749104  0.250896  1
  Tl  Tl19  1  0.246813  0.749104  0.749104  1
  Tl  Tl20  1  0.745448  0.244708  0.244708  1
  Tl  Tl21  1  0.745448  0.244708  0.755292  1
  Tl  Tl22  1  0.745448  0.755292  0.244708  1
  Tl  Tl23  1  0.745448  0.755292  0.755292  1
  Si  Si24  1  0.002555  0.626312  0.189221  1
  Si  Si25  1  0.002555  0.189221  0.626312  1
  Si  Si26  1  0.002555  0.810779  0.626312  1
  Si  Si27  1  0.374420  0.000000  0.181425  1
  Si  Si28  1  0.374420  0.181425  0.000000  1
  Si  Si29  1  0.374420  0.000000  0.818575  1
  Si  Si30  1  0.374420  0.818575  0.000000  1
  Si  Si31  1  0.002555  0.189221  0.373688  1
  Si  Si32  1  0.002555  0.373688  0.189221  1
  Si  Si33  1  0.002555  0.373688  0.810779  1
  Si  Si34  1  0.002555  0.626312  0.810779  1
  Si  Si35  1  0.002555  0.810779  0.373688  1
  O  O36  1  0.002777  0.299655  0.299655  1
  O  O37  1  0.005973  0.500000  0.226579  1
  O  O38  1  0.002777  0.299655  0.700345  1
  O  O39  1  0.002777  0.700345  0.299655  1
  O  O40  1  0.005973  0.773421  0.500000  1
  O  O41  1  0.002777  0.700345  0.700345  1
  O  O42  1  0.110688  0.120772  0.343268  1
  O  O43  1  0.110688  0.343268  0.120772  1
  O  O44  1  0.110688  0.343268  0.879228  1
  O  O45  1  0.110688  0.879228  0.343268  1
  O  O46  1  0.110688  0.120772  0.656732  1
  O  O47  1  0.110688  0.656732  0.120772  1
  O  O48  1  0.110688  0.656732  0.879228  1
  O  O49  1  0.110688  0.879228  0.656732  1
  O  O50  1  0.231855  0.000000  0.500000  1
  O  O51  1  0.231855  0.500000  0.000000  1
  O  O52  1  0.286551  0.000000  0.275472  1
  O  O53  1  0.286551  0.275472  0.000000  1
  O  O54  1  0.286551  0.000000  0.724528  1
  O  O55  1  0.286551  0.724528  0.000000  1
  O  O56  1  0.356135  0.107024  0.107024  1
  O  O57  1  0.356135  0.107024  0.892976  1
  O  O58  1  0.356135  0.892976  0.107024  1
  O  O59  1  0.356135  0.892976  0.892976  1
  O  O60  1  0.494503  0.000000  0.232211  1
  O  O61  1  0.494503  0.232211  0.000000  1
  O  O62  1  0.494503  0.000000  0.767789  1
  O  O63  1  0.494503  0.767789  0.000000  1
  O  O64  1  0.654388  0.118652  0.118652  1
  O  O65  1  0.654388  0.118652  0.881348  1
  O  O66  1  0.654388  0.881348  0.118652  1
  O  O67  1  0.654388  0.881348  0.881348  1
  O  O68  1  0.709383  0.000000  0.293750  1
  O  O69  1  0.709383  0.000000  0.706250  1
  O  O70  1  0.709383  0.293750  0.000000  1
  O  O71  1  0.709383  0.706250  0.000000  1
  O  O72  1  0.756801  0.000000  0.500000  1
  O  O73  1  0.756801  0.500000  0.000000  1
  O  O74  1  0.895123  0.119470  0.349825  1
  O  O75  1  0.895123  0.349825  0.119470  1
  O  O76  1  0.895123  0.349825  0.880530  1
  O  O77  1  0.895123  0.880530  0.349825  1
  O  O78  1  0.895123  0.119470  0.650175  1
  O  O79  1  0.895123  0.650175  0.119470  1
  O  O80  1  0.895123  0.650175  0.880530  1
  O  O81  1  0.895123  0.880530  0.650175  1
  O  O82  1  0.005973  0.226579  0.500000  1
  O  O83  1  0.005973  0.500000  0.773421  1
