# generated using pymatgen
data_Cd18Sn19O56
_symmetry_space_group_name_H-M   'P 1'
_cell_length_a   6.55087092
_cell_length_b   6.68834848
_cell_length_c   46.53825665
_cell_angle_alpha   59.00051121
_cell_angle_beta   58.73646288
_cell_angle_gamma   58.82751901
_symmetry_Int_Tables_number   1
_chemical_formula_structural   Cd18Sn19O56
_chemical_formula_sum   'Cd18 Sn19 O56'
_cell_volume   1404.11577363
_cell_formula_units_Z   1
loop_
 _symmetry_equiv_pos_site_id
 _symmetry_equiv_pos_as_xyz
  1  'x, y, z'
loop_
 _atom_site_type_symbol
 _atom_site_label
 _atom_site_symmetry_multiplicity
 _atom_site_fract_x
 _atom_site_fract_y
 _atom_site_fract_z
 _atom_site_occupancy
  Cd  Cd0  1  0.126879  0.115076  0.305190  1
  Cd  Cd1  1  0.500205  0.501770  0.213124  1
  Cd  Cd2  1  0.150455  0.111588  0.441454  1
  Cd  Cd3  1  0.867068  0.877428  0.126047  1
  Cd  Cd4  1  0.500558  0.500329  0.356973  1
  Cd  Cd5  1  0.128262  0.115353  0.590510  1
  Cd  Cd6  1  0.853666  0.890807  0.271995  1
  Cd  Cd7  1  0.499881  0.499895  0.500044  1
  Cd  Cd8  1  0.149995  0.111095  0.727338  1
  Cd  Cd9  1  0.871489  0.884767  0.409543  1
  Cd  Cd10  1  0.500067  0.499906  0.642857  1
  Cd  Cd11  1  0.130180  0.115842  0.875690  1
  Cd  Cd12  1  0.849907  0.888843  0.558379  1
  Cd  Cd13  1  0.500041  0.500053  0.785697  1
  Cd  Cd14  1  0.871982  0.884620  0.695158  1
  Cd  Cd15  1  0.490875  0.491908  0.930405  1
  Cd  Cd16  1  0.848981  0.886758  0.844798  1
  Cd  Cd17  1  0.877788  0.882644  0.979502  1
  Sn  Sn18  1  0.013248  0.498827  0.070479  1
  Sn  Sn19  1  0.500552  0.009795  0.070596  1
  Sn  Sn20  1  0.000621  0.504219  0.214042  1
  Sn  Sn21  1  0.499172  0.497372  0.070616  1
  Sn  Sn22  1  0.500173  0.003098  0.213957  1
  Sn  Sn23  1  0.491047  0.487318  0.145200  1
  Sn  Sn24  1  0.475544  0.501736  0.288287  1
  Sn  Sn25  1  -0.000406  0.499938  0.500058  1
  Sn  Sn26  1  0.500041  -0.000248  0.500040  1
  Sn  Sn27  1  0.500921  0.000597  0.356912  1
  Sn  Sn28  1  0.524505  0.498182  0.425742  1
  Sn  Sn29  1  0.476197  0.501099  0.574087  1
  Sn  Sn30  1  -0.000026  0.499341  0.785712  1
  Sn  Sn31  1  0.523655  0.499159  0.711653  1
  Sn  Sn32  1  0.499823  0.000165  0.642882  1
  Sn  Sn33  1  0.500019  0.000326  0.785601  1
  Sn  Sn34  1  0.478446  0.501694  0.859702  1
  Sn  Sn35  1  0.535358  0.500675  0.996331  1
  Sn  Sn36  1  0.496437  0.001140  0.928418  1
  O  O37  1  0.262864  0.263971  0.041013  1
  O  O38  1  0.267959  0.262445  0.100670  1
  O  O39  1  0.266779  0.691243  0.040333  1
  O  O40  1  0.702402  0.260973  0.040349  1
  O  O41  1  0.300939  0.730206  0.104302  1
  O  O42  1  0.257870  0.265738  0.181618  1
  O  O43  1  0.732104  0.728731  0.044754  1
  O  O44  1  0.253095  0.252051  0.243204  1
  O  O45  1  0.251987  0.700572  0.177205  1
  O  O46  1  0.730148  0.302939  0.104310  1
  O  O47  1  0.732717  0.730190  0.104760  1
  O  O48  1  0.706889  0.246135  0.177176  1
  O  O49  1  0.300013  0.245440  0.318440  1
  O  O50  1  0.292043  0.758063  0.248182  1
  O  O51  1  0.292072  0.233461  0.385162  1
  O  O52  1  0.307243  0.725977  0.315280  1
  O  O53  1  0.743575  0.315080  0.248272  1
  O  O54  1  0.744557  0.752360  0.183985  1
  O  O55  1  0.749488  0.747854  0.244485  1
  O  O56  1  0.715755  0.250270  0.319024  1
  O  O57  1  0.285042  0.751500  0.394556  1
  O  O58  1  0.250528  0.254742  0.468919  1
  O  O59  1  0.258328  0.689498  0.464740  1
  O  O60  1  0.254558  0.250335  0.528741  1
  O  O61  1  0.694742  0.275228  0.398417  1
  O  O62  1  0.709421  0.768617  0.328205  1
  O  O63  1  0.701925  0.756107  0.395251  1
  O  O64  1  0.712478  0.244091  0.464989  1
  O  O65  1  0.298955  0.243970  0.604511  1
  O  O66  1  0.287825  0.756397  0.534876  1
  O  O67  1  0.742176  0.310897  0.535096  1
  O  O68  1  0.291544  0.233559  0.671095  1
  O  O69  1  0.305797  0.725709  0.601450  1
  O  O70  1  0.745634  0.749901  0.471136  1
  O  O71  1  0.749830  0.745624  0.530925  1
  O  O72  1  0.715819  0.249032  0.605179  1
  O  O73  1  0.250234  0.254311  0.754699  1
  O  O74  1  0.284186  0.751001  0.680543  1
  O  O75  1  0.255272  0.250314  0.814336  1
  O  O76  1  0.694199  0.273844  0.684281  1
  O  O77  1  0.257648  0.689190  0.750626  1
  O  O78  1  0.708667  0.766320  0.614590  1
  O  O79  1  0.701076  0.756173  0.681213  1
  O  O80  1  0.712360  0.243677  0.750768  1
  O  O81  1  0.297820  0.247019  0.889741  1
  O  O82  1  0.287096  0.756770  0.820730  1
  O  O83  1  0.302871  0.724346  0.887691  1
  O  O84  1  0.745364  0.749823  0.756933  1
  O  O85  1  0.298084  0.222717  0.957446  1
  O  O86  1  0.742657  0.309708  0.820735  1
  O  O87  1  0.718931  0.248412  0.890240  1
  O  O88  1  0.748832  0.745114  0.816823  1
  O  O89  1  0.285453  0.742602  0.967979  1
  O  O90  1  0.707041  0.268200  0.970480  1
  O  O91  1  0.697388  0.763397  0.901216  1
  O  O92  1  0.706114  0.755043  0.966156  1
