# generated using pymatgen
data_SiO2
_symmetry_space_group_name_H-M   'P 1'
_cell_length_a   9.95787591
_cell_length_b   14.16120712
_cell_length_c   28.31547505
_cell_angle_alpha   90.00000000
_cell_angle_beta   90.00000000
_cell_angle_gamma   90.00000000
_symmetry_Int_Tables_number   1
_chemical_formula_structural   SiO2
_chemical_formula_sum   'Si64 O128'
_cell_volume   3992.92209618
_cell_formula_units_Z   64
loop_
 _symmetry_equiv_pos_site_id
 _symmetry_equiv_pos_as_xyz
  1  'x, y, z'
loop_
 _atom_site_type_symbol
 _atom_site_label
 _atom_site_symmetry_multiplicity
 _atom_site_fract_x
 _atom_site_fract_y
 _atom_site_fract_z
 _atom_site_occupancy
  Si  Si0  1  0.156582  0.132538  0.366162  1
  Si  Si1  1  0.156582  0.867462  0.633838  1
  Si  Si2  1  0.843418  0.132538  0.133838  1
  Si  Si3  1  0.843418  0.867462  0.866162  1
  Si  Si4  1  0.843418  0.867462  0.633838  1
  Si  Si5  1  0.843418  0.132538  0.366162  1
  Si  Si6  1  0.156582  0.867462  0.866162  1
  Si  Si7  1  0.156582  0.132538  0.133838  1
  Si  Si8  1  0.656582  0.632538  0.366162  1
  Si  Si9  1  0.656582  0.367462  0.633838  1
  Si  Si10  1  0.343418  0.632538  0.133838  1
  Si  Si11  1  0.343418  0.367462  0.866162  1
  Si  Si12  1  0.343418  0.367462  0.633838  1
  Si  Si13  1  0.343418  0.632538  0.366162  1
  Si  Si14  1  0.656582  0.367462  0.866162  1
  Si  Si15  1  0.656582  0.632538  0.133838  1
  Si  Si16  1  0.656443  0.004807  0.304698  1
  Si  Si17  1  0.656443  0.995193  0.695302  1
  Si  Si18  1  0.343557  0.004807  0.195302  1
  Si  Si19  1  0.343557  0.995193  0.804698  1
  Si  Si20  1  0.343557  0.995193  0.695302  1
  Si  Si21  1  0.343557  0.004807  0.304698  1
  Si  Si22  1  0.656443  0.995193  0.804698  1
  Si  Si23  1  0.656443  0.004807  0.195302  1
  Si  Si24  1  0.156443  0.504807  0.304698  1
  Si  Si25  1  0.156443  0.495193  0.695302  1
  Si  Si26  1  0.843557  0.504807  0.195302  1
  Si  Si27  1  0.843557  0.495193  0.804698  1
  Si  Si28  1  0.843557  0.495193  0.695302  1
  Si  Si29  1  0.843557  0.504807  0.304698  1
  Si  Si30  1  0.156443  0.495193  0.804698  1
  Si  Si31  1  0.156443  0.504807  0.195302  1
  Si  Si32  1  0.843100  0.978209  0.445968  1
  Si  Si33  1  0.843100  0.021791  0.554032  1
  Si  Si34  1  0.156900  0.978209  0.054032  1
  Si  Si35  1  0.156900  0.021791  0.945968  1
  Si  Si36  1  0.156900  0.021791  0.554032  1
  Si  Si37  1  0.156900  0.978209  0.445968  1
  Si  Si38  1  0.843100  0.021791  0.945968  1
  Si  Si39  1  0.843100  0.978209  0.054032  1
  Si  Si40  1  0.343100  0.478209  0.445968  1
  Si  Si41  1  0.343100  0.521791  0.554032  1
  Si  Si42  1  0.656900  0.478209  0.054032  1
  Si  Si43  1  0.656900  0.521791  0.945968  1
  Si  Si44  1  0.656900  0.521791  0.554032  1
  Si  Si45  1  0.656900  0.478209  0.445968  1
  Si  Si46  1  0.343100  0.521791  0.945968  1
  Si  Si47  1  0.343100  0.478209  0.054032  1
  Si  Si48  1  0.342941  0.850440  0.383968  1
  Si  Si49  1  0.342941  0.149560  0.616032  1
  Si  Si50  1  0.657059  0.850440  0.116032  1
  Si  Si51  1  0.657059  0.149560  0.883968  1
  Si  Si52  1  0.657059  0.149560  0.616032  1
  Si  Si53  1  0.657059  0.850440  0.383968  1
  Si  Si54  1  0.342941  0.149560  0.883968  1
  Si  Si55  1  0.342941  0.850440  0.116032  1
  Si  Si56  1  0.842941  0.350440  0.383968  1
  Si  Si57  1  0.842941  0.649560  0.616032  1
  Si  Si58  1  0.157059  0.350440  0.116032  1
  Si  Si59  1  0.157059  0.649560  0.883968  1
  Si  Si60  1  0.157059  0.649560  0.616032  1
  Si  Si61  1  0.157059  0.350440  0.383968  1
  Si  Si62  1  0.842941  0.649560  0.883968  1
  Si  Si63  1  0.842941  0.350440  0.116032  1
  O  O64  1  0.178776  0.073309  0.414698  1
  O  O65  1  0.178776  0.926691  0.585302  1
  O  O66  1  0.821224  0.073309  0.085302  1
  O  O67  1  0.821224  0.926691  0.914698  1
  O  O68  1  0.821224  0.926691  0.585302  1
  O  O69  1  0.821224  0.073309  0.414698  1
  O  O70  1  0.178776  0.926691  0.914698  1
  O  O71  1  0.178776  0.073309  0.085302  1
  O  O72  1  0.678776  0.573309  0.414698  1
  O  O73  1  0.678776  0.426691  0.585302  1
  O  O74  1  0.321224  0.573309  0.085302  1
  O  O75  1  0.321224  0.426691  0.914698  1
  O  O76  1  0.321224  0.426691  0.585302  1
  O  O77  1  0.321224  0.573309  0.414698  1
  O  O78  1  0.678776  0.426691  0.914698  1
  O  O79  1  0.678776  0.573309  0.085302  1
  O  O80  1  0.199466  0.241379  0.375213  1
  O  O81  1  0.199466  0.758621  0.624787  1
  O  O82  1  0.800534  0.241379  0.124787  1
  O  O83  1  0.800534  0.758621  0.875213  1
  O  O84  1  0.800534  0.758621  0.624787  1
  O  O85  1  0.800534  0.241379  0.375213  1
  O  O86  1  0.199466  0.758621  0.875213  1
  O  O87  1  0.199466  0.241379  0.124787  1
  O  O88  1  0.699466  0.741379  0.375213  1
  O  O89  1  0.699466  0.258621  0.624787  1
  O  O90  1  0.300534  0.741379  0.124787  1
  O  O91  1  0.300534  0.258621  0.875213  1
  O  O92  1  0.300534  0.258621  0.624787  1
  O  O93  1  0.300534  0.741379  0.375213  1
  O  O94  1  0.699466  0.258621  0.875213  1
  O  O95  1  0.699466  0.741379  0.124787  1
  O  O96  1  0.000000  0.126839  0.349795  1
  O  O97  1  0.000000  0.873161  0.650205  1
  O  O98  1  0.000000  0.126839  0.150205  1
  O  O99  1  0.000000  0.873161  0.849795  1
  O  O100  1  0.500000  0.626839  0.349795  1
  O  O101  1  0.500000  0.373161  0.650205  1
  O  O102  1  0.500000  0.626839  0.150205  1
  O  O103  1  0.500000  0.373161  0.849795  1
  O  O104  1  0.249280  0.089356  0.324315  1
  O  O105  1  0.249280  0.910644  0.675685  1
  O  O106  1  0.750720  0.089356  0.175685  1
  O  O107  1  0.750720  0.910644  0.824315  1
  O  O108  1  0.750720  0.910644  0.675685  1
  O  O109  1  0.750720  0.089356  0.324315  1
  O  O110  1  0.249280  0.910644  0.824315  1
  O  O111  1  0.249280  0.089356  0.175685  1
  O  O112  1  0.749280  0.589356  0.324315  1
  O  O113  1  0.749280  0.410644  0.675685  1
  O  O114  1  0.250720  0.589356  0.175685  1
  O  O115  1  0.250720  0.410644  0.824315  1
  O  O116  1  0.250720  0.410644  0.675685  1
  O  O117  1  0.250720  0.589356  0.324315  1
  O  O118  1  0.749280  0.410644  0.824315  1
  O  O119  1  0.749280  0.589356  0.175685  1
  O  O120  1  0.680678  0.909196  0.335188  1
  O  O121  1  0.680678  0.090804  0.664812  1
  O  O122  1  0.319322  0.909196  0.164812  1
  O  O123  1  0.319322  0.090804  0.835188  1
  O  O124  1  0.319322  0.090804  0.664812  1
  O  O125  1  0.319322  0.909196  0.335188  1
  O  O126  1  0.680678  0.090804  0.835188  1
  O  O127  1  0.680678  0.909196  0.164812  1
  O  O128  1  0.180678  0.409196  0.335188  1
  O  O129  1  0.180678  0.590804  0.664812  1
  O  O130  1  0.819322  0.409196  0.164812  1
  O  O131  1  0.819322  0.590804  0.835188  1
  O  O132  1  0.819322  0.590804  0.664812  1
  O  O133  1  0.819322  0.409196  0.335188  1
  O  O134  1  0.180678  0.590804  0.835188  1
  O  O135  1  0.180678  0.409196  0.164812  1
  O  O136  1  0.694723  0.983143  0.250000  1
  O  O137  1  0.694723  0.016857  0.750000  1
  O  O138  1  0.305277  0.983143  0.250000  1
  O  O139  1  0.305277  0.016857  0.750000  1
  O  O140  1  0.194723  0.483143  0.250000  1
  O  O141  1  0.194723  0.516857  0.750000  1
  O  O142  1  0.805277  0.483143  0.250000  1
  O  O143  1  0.805277  0.516857  0.750000  1
  O  O144  1  0.500000  0.037621  0.308629  1
  O  O145  1  0.500000  0.962379  0.691371  1
  O  O146  1  0.500000  0.037621  0.191371  1
  O  O147  1  0.500000  0.962379  0.808629  1
  O  O148  1  0.000000  0.537621  0.308629  1
  O  O149  1  0.000000  0.462379  0.691371  1
  O  O150  1  0.000000  0.537621  0.191371  1
  O  O151  1  0.000000  0.462379  0.808629  1
  O  O152  1  0.000000  0.945574  0.443990  1
  O  O153  1  0.000000  0.054426  0.556010  1
  O  O154  1  0.000000  0.945574  0.056010  1
  O  O155  1  0.000000  0.054426  0.943990  1
  O  O156  1  0.500000  0.445574  0.443990  1
  O  O157  1  0.500000  0.554426  0.556010  1
  O  O158  1  0.500000  0.445574  0.056010  1
  O  O159  1  0.500000  0.554426  0.943990  1
  O  O160  1  0.750110  0.893423  0.425702  1
  O  O161  1  0.750110  0.106577  0.574298  1
  O  O162  1  0.249890  0.893423  0.074298  1
  O  O163  1  0.249890  0.106577  0.925702  1
  O  O164  1  0.249890  0.106577  0.574298  1
  O  O165  1  0.249890  0.893423  0.425702  1
  O  O166  1  0.750110  0.106577  0.925702  1
  O  O167  1  0.750110  0.893423  0.074298  1
  O  O168  1  0.250110  0.393423  0.425702  1
  O  O169  1  0.250110  0.606577  0.574298  1
  O  O170  1  0.749890  0.393423  0.074298  1
  O  O171  1  0.749890  0.606577  0.925702  1
  O  O172  1  0.749890  0.606577  0.574298  1
  O  O173  1  0.749890  0.393423  0.425702  1
  O  O174  1  0.250110  0.606577  0.925702  1
  O  O175  1  0.250110  0.393423  0.074298  1
  O  O176  1  0.799169  0.000000  0.500000  1
  O  O177  1  0.200831  0.000000  0.000000  1
  O  O178  1  0.200831  0.000000  0.500000  1
  O  O179  1  0.799169  0.000000  0.000000  1
  O  O180  1  0.299169  0.500000  0.500000  1
  O  O181  1  0.700831  0.500000  0.000000  1
  O  O182  1  0.700831  0.500000  0.500000  1
  O  O183  1  0.299169  0.500000  0.000000  1
  O  O184  1  0.500000  0.856973  0.399910  1
  O  O185  1  0.500000  0.143027  0.600090  1
  O  O186  1  0.500000  0.856973  0.100090  1
  O  O187  1  0.500000  0.143027  0.899910  1
  O  O188  1  0.000000  0.356973  0.399910  1
  O  O189  1  0.000000  0.643027  0.600090  1
  O  O190  1  0.000000  0.356973  0.100090  1
  O  O191  1  0.000000  0.643027  0.899910  1
