# generated using pymatgen
data_Rb2Cr4Cu(HO4)4
_symmetry_space_group_name_H-M   'P 1'
_cell_length_a   7.60516242
_cell_length_b   7.79429994
_cell_length_c   7.74932531
_cell_angle_alpha   92.04722572
_cell_angle_beta   98.76413590
_cell_angle_gamma   117.04421713
_symmetry_Int_Tables_number   1
_chemical_formula_structural   Rb2Cr4Cu(HO4)4
_chemical_formula_sum   'Rb2 Cr4 Cu1 H4 O16'
_cell_volume   401.46419310
_cell_formula_units_Z   1
loop_
 _symmetry_equiv_pos_site_id
 _symmetry_equiv_pos_as_xyz
  1  'x, y, z'
loop_
 _atom_site_type_symbol
 _atom_site_label
 _atom_site_symmetry_multiplicity
 _atom_site_fract_x
 _atom_site_fract_y
 _atom_site_fract_z
 _atom_site_occupancy
  Rb  Rb0  1  0.245218  0.732118  0.156079  1
  Rb  Rb1  1  0.754782  0.267882  0.843921  1
  Cr  Cr2  1  0.245729  0.477979  0.668932  1
  Cr  Cr3  1  0.300880  0.244225  0.149506  1
  Cr  Cr4  1  0.754271  0.522021  0.331068  1
  Cr  Cr5  1  0.699120  0.755775  0.850494  1
  Cu  Cu6  1  0.000000  0.000000  0.500000  1
  H  H7  1  0.329078  0.037179  0.627836  1
  H  H8  1  0.230185  0.012731  0.795342  1
  H  H9  1  0.670922  0.962821  0.372164  1
  H  H10  1  0.769815  0.987269  0.204658  1
  O  O11  1  0.487274  0.520663  0.786164  1
  O  O12  1  0.257506  0.128122  0.323655  1
  O  O13  1  0.204273  0.958909  0.668403  1
  O  O14  1  0.274767  0.565293  0.482531  1
  O  O15  1  0.111305  0.277534  0.066494  1
  O  O16  1  0.742494  0.871878  0.676345  1
  O  O17  1  0.652230  0.881987  0.996875  1
  O  O18  1  0.915835  0.759193  0.357673  1
  O  O19  1  0.725233  0.434707  0.517469  1
  O  O20  1  0.888695  0.722466  0.933506  1
  O  O21  1  0.347770  0.118013  0.003125  1
  O  O22  1  0.795727  0.041091  0.331597  1
  O  O23  1  0.160257  0.588906  0.785902  1
  O  O24  1  0.839743  0.411094  0.214098  1
  O  O25  1  0.512726  0.479337  0.213836  1
  O  O26  1  0.084165  0.240807  0.642327  1
