# generated using pymatgen
data_SrH6C4O7
_symmetry_space_group_name_H-M   'P 1'
_cell_length_a   7.43697059
_cell_length_b   7.43697059
_cell_length_c   8.56916321
_cell_angle_alpha   83.08090529
_cell_angle_beta   96.91909471
_cell_angle_gamma   126.08126215
_symmetry_Int_Tables_number   1
_chemical_formula_structural   SrH6C4O7
_chemical_formula_sum   'Sr2 H12 C8 O14'
_cell_volume   379.52178468
_cell_formula_units_Z   2
loop_
 _symmetry_equiv_pos_site_id
 _symmetry_equiv_pos_as_xyz
  1  'x, y, z'
loop_
 _atom_site_type_symbol
 _atom_site_label
 _atom_site_symmetry_multiplicity
 _atom_site_fract_x
 _atom_site_fract_y
 _atom_site_fract_z
 _atom_site_occupancy
  Sr  Sr0  1  0.986246  0.986246  0.750000  1
  Sr  Sr1  1  0.013754  0.013754  0.250000  1
  H  H2  1  0.512624  0.884363  0.145927  1
  H  H3  1  0.884363  0.512624  0.354073  1
  H  H4  1  0.487376  0.115637  0.854073  1
  H  H5  1  0.115637  0.487376  0.645927  1
  H  H6  1  0.592590  0.854556  0.992643  1
  H  H7  1  0.854556  0.592590  0.507357  1
  H  H8  1  0.407410  0.145444  0.007357  1
  H  H9  1  0.145444  0.407410  0.492643  1
  H  H10  1  0.446989  0.534904  0.181003  1
  H  H11  1  0.534904  0.446989  0.318997  1
  H  H12  1  0.553011  0.465096  0.818997  1
  H  H13  1  0.465096  0.553011  0.681003  1
  C  C14  1  0.971537  0.617024  0.017887  1
  C  C15  1  0.617024  0.971537  0.482113  1
  C  C16  1  0.028463  0.382976  0.982113  1
  C  C17  1  0.382976  0.028463  0.517887  1
  C  C18  1  0.016521  0.550825  0.880529  1
  C  C19  1  0.550825  0.016521  0.619471  1
  C  C20  1  0.983479  0.449175  0.119471  1
  C  C21  1  0.449175  0.983479  0.380529  1
  O  O22  1  0.832444  0.596629  0.392284  1
  O  O23  1  0.596629  0.832444  0.107716  1
  O  O24  1  0.167556  0.403371  0.607716  1
  O  O25  1  0.403371  0.167556  0.892284  1
  O  O26  1  0.600566  0.600566  0.750000  1
  O  O27  1  0.399434  0.399434  0.250000  1
  O  O28  1  0.938637  0.762492  0.032733  1
  O  O29  1  0.762492  0.938637  0.467267  1
  O  O30  1  0.061363  0.237508  0.967267  1
  O  O31  1  0.237508  0.061363  0.532733  1
  O  O32  1  0.380315  0.962734  0.237001  1
  O  O33  1  0.962734  0.380315  0.262999  1
  O  O34  1  0.619685  0.037266  0.762999  1
  O  O35  1  0.037266  0.619685  0.737001  1
