# generated using pymatgen
data_Ba7(Fe3S7)2
_symmetry_space_group_name_H-M   'P 1'
_cell_length_a   8.30070746
_cell_length_b   13.57495172
_cell_length_c   14.95243324
_cell_angle_alpha   63.44751830
_cell_angle_beta   73.59719907
_cell_angle_gamma   72.21633078
_symmetry_Int_Tables_number   1
_chemical_formula_structural   Ba7(Fe3S7)2
_chemical_formula_sum   'Ba14 Fe12 S28'
_cell_volume   1413.93998351
_cell_formula_units_Z   2
loop_
 _symmetry_equiv_pos_site_id
 _symmetry_equiv_pos_as_xyz
  1  'x, y, z'
loop_
 _atom_site_type_symbol
 _atom_site_label
 _atom_site_symmetry_multiplicity
 _atom_site_fract_x
 _atom_site_fract_y
 _atom_site_fract_z
 _atom_site_occupancy
  Ba  Ba0  1  0.636389  0.384887  0.264982  1
  Ba  Ba1  1  0.678656  0.249242  0.748216  1
  Ba  Ba2  1  0.146975  0.511196  0.124334  1
  Ba  Ba3  1  0.851338  0.487537  0.874493  1
  Ba  Ba4  1  0.365812  0.616515  0.731626  1
  Ba  Ba5  1  0.286171  0.115891  0.232717  1
  Ba  Ba6  1  0.777201  0.947007  0.073601  1
  Ba  Ba7  1  0.225306  0.055735  0.923597  1
  Ba  Ba8  1  0.322465  0.750607  0.248246  1
  Ba  Ba9  1  0.785404  0.989072  0.374576  1
  Ba  Ba10  1  0.217614  0.012114  0.623800  1
  Ba  Ba11  1  0.714653  0.883291  0.766033  1
  Ba  Ba12  1  0.203950  0.447200  0.572716  1
  Ba  Ba13  1  0.794646  0.556031  0.425331  1
  Fe  Fe14  1  0.401208  0.743413  0.983958  1
  Fe  Fe15  1  0.089260  0.810040  0.910934  1
  Fe  Fe16  1  0.598223  0.257810  0.013471  1
  Fe  Fe17  1  0.709371  0.677612  0.049292  1
  Fe  Fe18  1  0.189027  0.310403  0.411352  1
  Fe  Fe19  1  0.909424  0.189466  0.087727  1
  Fe  Fe20  1  0.290055  0.325030  0.948612  1
  Fe  Fe21  1  0.130035  0.756689  0.514887  1
  Fe  Fe22  1  0.437416  0.824407  0.450600  1
  Fe  Fe23  1  0.565144  0.177802  0.547568  1
  Fe  Fe24  1  0.814214  0.690096  0.587598  1
  Fe  Fe25  1  0.870630  0.244391  0.484113  1
  S  S26  1  0.458184  0.143933  0.998636  1
  S  S27  1  0.562594  0.830733  0.569186  1
  S  S28  1  0.555446  0.563485  0.048787  1
  S  S29  1  0.233550  0.489335  0.334263  1
  S  S30  1  0.601656  0.358380  0.498203  1
  S  S31  1  0.129955  0.773489  0.073021  1
  S  S32  1  0.943785  0.989649  0.834077  1
  S  S33  1  0.869315  0.224035  0.926742  1
  S  S34  1  0.631562  0.207292  0.177159  1
  S  S35  1  0.980113  0.725382  0.425610  1
  S  S36  1  0.770521  0.510478  0.663646  1
  S  S37  1  0.041933  0.329774  0.067705  1
  S  S38  1  0.017569  0.293643  0.321167  1
  S  S39  1  0.833899  0.063249  0.549896  1
  S  S40  1  0.433008  0.118337  0.708812  1
  S  S41  1  0.366332  0.793708  0.820504  1
  S  S42  1  0.022866  0.274995  0.572337  1
  S  S43  1  0.446962  0.438578  0.947811  1
  S  S44  1  0.741296  0.619563  0.209364  1
  S  S45  1  0.539569  0.857190  -0.000004  1
  S  S46  1  0.398949  0.644402  0.499403  1
  S  S47  1  0.260304  0.382169  0.787855  1
  S  S48  1  0.571320  0.882690  0.289994  1
  S  S49  1  0.982835  0.705628  0.679054  1
  S  S50  1  0.056352  0.009887  0.164198  1
  S  S51  1  0.440784  0.170606  0.429260  1
  S  S52  1  0.958424  0.670823  0.929934  1
  S  S53  1  0.166979  0.936261  0.450229  1
