# generated using pymatgen
data_K4In3Ge20
_symmetry_space_group_name_H-M   'P 1'
_cell_length_a   11.17120977
_cell_length_b   11.17236207
_cell_length_c   11.17653817
_cell_angle_alpha   90.02452403
_cell_angle_beta   89.99413329
_cell_angle_gamma   90.02501206
_symmetry_Int_Tables_number   1
_chemical_formula_structural   K4In3Ge20
_chemical_formula_sum   'K8 In6 Ge40'
_cell_volume   1394.93005305
_cell_formula_units_Z   2
loop_
 _symmetry_equiv_pos_site_id
 _symmetry_equiv_pos_as_xyz
  1  'x, y, z'
loop_
 _atom_site_type_symbol
 _atom_site_label
 _atom_site_symmetry_multiplicity
 _atom_site_fract_x
 _atom_site_fract_y
 _atom_site_fract_z
 _atom_site_occupancy
  K  K0  1  0.750059  0.500099  0.999916  1
  K  K1  1  0.500036  0.499984  0.500007  1
  K  K2  1  0.250094  0.500044  0.999946  1
  K  K3  1  0.500012  -0.000011  0.250082  1
  K  K4  1  -0.000025  0.749997  0.499929  1
  K  K5  1  0.999994  -0.000030  0.999934  1
  K  K6  1  0.499940  0.000020  0.749946  1
  K  K7  1  -0.000042  0.249994  0.499950  1
  In  In8  1  0.000123  0.499960  0.250122  1
  In  In9  1  0.250201  0.000091  0.500120  1
  In  In10  1  0.499964  0.749972  -0.000063  1
  In  In11  1  0.500030  0.249870  -0.000043  1
  In  In12  1  0.999958  0.500102  0.750100  1
  In  In13  1  0.750152  0.999996  0.500046  1
  Ge  Ge14  1  0.183274  0.816655  0.183355  1
  Ge  Ge15  1  0.299648  0.114516  0.999983  1
  Ge  Ge16  1  0.816840  0.183124  0.183225  1
  Ge  Ge17  1  0.183278  0.183232  0.183309  1
  Ge  Ge18  1  0.683157  0.316607  0.683308  1
  Ge  Ge19  1  0.999901  0.299766  0.885633  1
  Ge  Ge20  1  0.316743  0.683120  0.683266  1
  Ge  Ge21  1  0.614240  0.799605  0.499903  1
  Ge  Ge22  1  0.700188  0.885709  -0.000099  1
  Ge  Ge23  1  0.499985  0.385599  0.200261  1
  Ge  Ge24  1  0.183388  0.816651  0.816926  1
  Ge  Ge25  1  0.385570  0.200326  0.500075  1
  Ge  Ge26  1  0.614334  0.200142  0.499894  1
  Ge  Ge27  1  0.816789  0.816829  0.183286  1
  Ge  Ge28  1  0.683203  0.683194  0.316781  1
  Ge  Ge29  1  -0.000036  0.700202  0.114261  1
  Ge  Ge30  1  0.700233  0.114356  0.999973  1
  Ge  Ge31  1  0.114398  0.000078  0.700117  1
  Ge  Ge32  1  0.816691  0.183125  0.816744  1
  Ge  Ge33  1  0.385692  0.799897  0.500050  1
  Ge  Ge34  1  0.316779  0.683286  0.316694  1
  Ge  Ge35  1  0.183289  0.183241  0.816791  1
  Ge  Ge36  1  0.114395  0.000096  0.299820  1
  Ge  Ge37  1  0.799656  0.500080  0.385624  1
  Ge  Ge38  1  0.316879  0.316744  0.316682  1
  Ge  Ge39  1  0.200136  0.500031  0.614537  1
  Ge  Ge40  1  0.816914  0.816618  0.816836  1
  Ge  Ge41  1  0.316919  0.316865  0.683073  1
  Ge  Ge42  1  0.683209  0.316793  0.316848  1
  Ge  Ge43  1  0.885599  -0.000086  0.299763  1
  Ge  Ge44  1  0.000045  0.700234  0.885483  1
  Ge  Ge45  1  0.499934  0.614590  0.799683  1
  Ge  Ge46  1  0.299817  0.885452  -0.000028  1
  Ge  Ge47  1  0.500078  0.385380  0.799878  1
  Ge  Ge48  1  0.000063  0.299773  0.114359  1
  Ge  Ge49  1  0.682953  0.683322  0.683174  1
  Ge  Ge50  1  0.499803  0.614470  0.200365  1
  Ge  Ge51  1  0.885586  0.000106  0.700201  1
  Ge  Ge52  1  0.200142  0.500161  0.385648  1
  Ge  Ge53  1  0.799791  0.500024  0.614327  1
