# generated using pymatgen
data_Dy2Zr8O19
_symmetry_space_group_name_H-M   'P 1'
_cell_length_a   3.66374671
_cell_length_b   36.92308142
_cell_length_c   35.24610479
_cell_angle_alpha   5.17459730
_cell_angle_beta   58.68831169
_cell_angle_gamma   60.25833633
_symmetry_Int_Tables_number   1
_chemical_formula_structural   Dy2Zr8O19
_chemical_formula_sum   'Dy2 Zr8 O19'
_cell_volume   352.82586621
_cell_formula_units_Z   1
loop_
 _symmetry_equiv_pos_site_id
 _symmetry_equiv_pos_as_xyz
  1  'x, y, z'
loop_
 _atom_site_type_symbol
 _atom_site_label
 _atom_site_symmetry_multiplicity
 _atom_site_fract_x
 _atom_site_fract_y
 _atom_site_fract_z
 _atom_site_occupancy
  Dy  Dy0  1  0.033883  0.028061  0.964350  1
  Dy  Dy1  1  0.951093  0.065522  0.042836  1
  Zr  Zr2  1  0.972130  0.177624  0.027377  1
  Zr  Zr3  1  0.976729  0.284469  0.019451  1
  Zr  Zr4  1  0.988406  0.391354  0.011233  1
  Zr  Zr5  1  0.995186  0.493156  0.007826  1
  Zr  Zr6  1  0.005926  0.601678  0.997537  1
  Zr  Zr7  1  0.016394  0.812794  0.983827  1
  Zr  Zr8  1  0.008871  0.705318  0.992474  1
  Zr  Zr9  1  0.019338  0.915930  0.979753  1
  O  O10  1  0.262889  0.013613  0.233119  1
  O  O11  1  0.202785  0.064824  0.294145  1
  O  O12  1  0.257407  0.204246  0.244375  1
  O  O13  1  0.253952  0.302027  0.247213  1
  O  O14  1  0.230476  0.384975  0.268360  1
  O  O15  1  0.296270  0.538409  0.202060  1
  O  O16  1  0.223716  0.581954  0.272325  1
  O  O17  1  0.805166  0.147207  0.690759  1
  O  O18  1  0.313320  0.751983  0.184703  1
  O  O19  1  0.729242  0.185125  0.768278  1
  O  O20  1  0.741596  0.295314  0.754996  1
  O  O21  1  0.175071  0.844534  0.319031  1
  O  O22  1  0.754638  0.408564  0.738985  1
  O  O23  1  0.686970  0.452771  0.809182  1
  O  O24  1  0.761717  0.611981  0.735122  1
  O  O25  1  0.727564  0.679398  0.775238  1
  O  O26  1  0.743820  0.793916  0.757257  1
  O  O27  1  0.776839  0.921538  0.722645  1
  O  O28  1  0.727187  0.983470  0.770831  1
