# generated using pymatgen
data_InCo3(CO)12
_symmetry_space_group_name_H-M   'P 1'
_cell_length_a   6.87290857
_cell_length_b   16.71896061
_cell_length_c   18.91023935
_cell_angle_alpha   113.57992657
_cell_angle_beta   90.00000000
_cell_angle_gamma   90.00000000
_symmetry_Int_Tables_number   1
_chemical_formula_structural   InCo3(CO)12
_chemical_formula_sum   'In4 Co12 C48 O48'
_cell_volume   1991.50190834
_cell_formula_units_Z   4
loop_
 _symmetry_equiv_pos_site_id
 _symmetry_equiv_pos_as_xyz
  1  'x, y, z'
loop_
 _atom_site_type_symbol
 _atom_site_label
 _atom_site_symmetry_multiplicity
 _atom_site_fract_x
 _atom_site_fract_y
 _atom_site_fract_z
 _atom_site_occupancy
  In  In0  1  0.142538  0.987985  0.217478  1
  In  In1  1  0.642538  0.512015  0.282522  1
  In  In2  1  0.357462  0.487985  0.717478  1
  In  In3  1  0.857462  0.012015  0.782522  1
  Co  Co4  1  0.719945  0.920839  0.856773  1
  Co  Co5  1  0.311435  0.542779  0.867679  1
  Co  Co6  1  0.188565  0.042779  0.367679  1
  Co  Co7  1  0.507723  0.332765  0.640887  1
  Co  Co8  1  0.780055  0.420839  0.356773  1
  Co  Co9  1  0.492277  0.667235  0.359113  1
  Co  Co10  1  0.811435  0.957221  0.632321  1
  Co  Co11  1  0.688565  0.457221  0.132321  1
  Co  Co12  1  0.280055  0.079161  0.143227  1
  Co  Co13  1  0.007723  0.167235  0.859113  1
  Co  Co14  1  0.219945  0.579161  0.643227  1
  Co  Co15  1  0.992277  0.832765  0.140887  1
  C  C16  1  0.431134  0.457424  0.135694  1
  C  C17  1  0.699493  0.858980  0.627401  1
  C  C18  1  0.441398  0.670770  0.268090  1
  C  C19  1  0.005675  0.573485  0.692108  1
  C  C20  1  0.234898  0.987777  0.055076  1
  C  C21  1  0.706952  0.439931  0.034292  1
  C  C22  1  0.163759  0.448766  0.830933  1
  C  C23  1  0.800507  0.358980  0.127401  1
  C  C24  1  0.360482  0.155176  0.106142  1
  C  C25  1  0.068866  0.957424  0.635694  1
  C  C26  1  0.389689  0.769057  0.417111  1
  C  C27  1  0.494325  0.073485  0.192108  1
  C  C28  1  0.199493  0.641020  0.872599  1
  C  C29  1  0.941398  0.829230  0.231910  1
  C  C30  1  0.058602  0.170770  0.768090  1
  C  C31  1  0.913018  0.854866  0.803874  1
  C  C32  1  0.139518  0.655176  0.606142  1
  C  C33  1  0.237105  0.811340  0.110907  1
  C  C34  1  0.265102  0.487777  0.555076  1
  C  C35  1  0.153000  0.108286  0.898337  1
  C  C36  1  0.086982  0.145134  0.196126  1
  C  C37  1  0.336241  0.948766  0.330933  1
  C  C38  1  0.765102  0.012223  0.944924  1
  C  C39  1  0.734898  0.512223  0.444924  1
  C  C40  1  0.762895  0.188660  0.889093  1
  C  C41  1  0.300507  0.141020  0.372599  1
  C  C42  1  0.889689  0.730943  0.082889  1
  C  C43  1  0.110311  0.269057  0.917111  1
  C  C44  1  0.653000  0.391714  0.601663  1
  C  C45  1  0.836241  0.551234  0.169067  1
  C  C46  1  0.568866  0.542576  0.864306  1
  C  C47  1  0.347000  0.608286  0.398337  1
  C  C48  1  0.262895  0.311340  0.610907  1
  C  C49  1  0.663759  0.051234  0.669067  1
  C  C50  1  0.206952  0.060069  0.465708  1
  C  C51  1  0.505675  0.926515  0.807892  1
  C  C52  1  0.793048  0.939931  0.534292  1
  C  C53  1  0.639518  0.844824  0.893858  1
  C  C54  1  0.994325  0.426515  0.307892  1
  C  C55  1  0.610311  0.230943  0.582889  1
  C  C56  1  0.860482  0.344824  0.393858  1
  C  C57  1  0.586982  0.354866  0.303874  1
  C  C58  1  0.737105  0.688660  0.389093  1
  C  C59  1  0.413018  0.645134  0.696126  1
  C  C60  1  0.847000  0.891714  0.101663  1
  C  C61  1  0.558602  0.329230  0.731910  1
  C  C62  1  0.293048  0.560069  0.965708  1
  C  C63  1  0.931134  0.042576  0.364306  1
  O  O64  1  0.639148  0.073013  0.223893  1
  O  O65  1  0.319572  0.835071  0.455409  1
  O  O66  1  0.246755  0.576950  0.429766  1
  O  O67  1  0.089952  0.706630  0.583526  1
  O  O68  1  0.091103  0.179265  0.711426  1
  O  O69  1  0.711046  0.570490  0.503674  1
  O  O70  1  0.753245  0.423050  0.570234  1
  O  O71  1  0.762036  0.045312  0.367108  1
  O  O72  1  0.605057  0.207513  0.911920  1
  O  O73  1  0.534003  0.694085  0.730333  1
  O  O74  1  0.123010  0.705834  0.880912  1
  O  O75  1  0.908897  0.820735  0.288574  1
  O  O76  1  0.408897  0.679265  0.211426  1
  O  O77  1  0.746755  0.923050  0.070234  1
  O  O78  1  0.394943  0.792487  0.088080  1
  O  O79  1  0.788954  0.070490  0.003674  1
  O  O80  1  0.105057  0.292487  0.588080  1
  O  O81  1  0.876990  0.294166  0.119088  1
  O  O82  1  0.262036  0.454688  0.132892  1
  O  O83  1  0.034003  0.805915  0.769667  1
  O  O84  1  0.410048  0.206630  0.083526  1
  O  O85  1  0.591103  0.320735  0.788574  1
  O  O86  1  0.063104  0.387493  0.810534  1
  O  O87  1  0.436896  0.887493  0.310534  1
  O  O88  1  0.139148  0.426987  0.276107  1
  O  O89  1  0.218255  0.071736  0.530025  1
  O  O90  1  0.253245  0.076950  0.929766  1
  O  O91  1  0.589952  0.793370  0.916474  1
  O  O92  1  0.737964  0.545312  0.867108  1
  O  O93  1  0.288954  0.429510  0.496326  1
  O  O94  1  0.894943  0.707513  0.411920  1
  O  O95  1  0.180428  0.335071  0.955409  1
  O  O96  1  0.465997  0.305915  0.269667  1
  O  O97  1  0.623010  0.794166  0.619088  1
  O  O98  1  0.718255  0.428264  0.969975  1
  O  O99  1  0.360852  0.926987  0.776107  1
  O  O100  1  0.965997  0.194085  0.230333  1
  O  O101  1  0.910048  0.293370  0.416474  1
  O  O102  1  0.211046  0.929510  0.996326  1
  O  O103  1  0.680428  0.164929  0.544591  1
  O  O104  1  0.819572  0.664929  0.044591  1
  O  O105  1  0.281745  0.571736  0.030025  1
  O  O106  1  0.860852  0.573013  0.723893  1
  O  O107  1  0.563104  0.112507  0.689466  1
  O  O108  1  0.376990  0.205834  0.380912  1
  O  O109  1  0.936896  0.612507  0.189466  1
  O  O110  1  0.781745  0.928264  0.469975  1
  O  O111  1  0.237964  0.954688  0.632892  1
