# generated using pymatgen
data_Li7(Ga3Te5)8
_symmetry_space_group_name_H-M   'P 1'
_cell_length_a   10.37266545
_cell_length_b   10.39292606
_cell_length_c   20.74481972
_cell_angle_alpha   90.06414144
_cell_angle_beta   90.31588393
_cell_angle_gamma   90.08272766
_symmetry_Int_Tables_number   1
_chemical_formula_structural   Li7(Ga3Te5)8
_chemical_formula_sum   'Li7 Ga24 Te40'
_cell_volume   2236.30247456
_cell_formula_units_Z   1
loop_
 _symmetry_equiv_pos_site_id
 _symmetry_equiv_pos_as_xyz
  1  'x, y, z'
loop_
 _atom_site_type_symbol
 _atom_site_label
 _atom_site_symmetry_multiplicity
 _atom_site_fract_x
 _atom_site_fract_y
 _atom_site_fract_z
 _atom_site_occupancy
  Li  Li0  1  0.268805  0.727496  0.001420  1
  Li  Li1  1  0.416969  0.416034  0.709068  1
  Li  Li2  1  0.581113  0.581971  0.791689  1
  Li  Li3  1  0.563504  0.565743  0.281996  1
  Li  Li4  1  0.731195  0.999311  0.634672  1
  Li  Li5  1  0.728170  0.003734  0.134973  1
  Li  Li6  1  0.004288  0.270646  0.364437  1
  Ga  Ga7  1  0.126216  0.429537  0.578556  1
  Ga  Ga8  1  0.126070  0.430352  0.079021  1
  Ga  Ga9  1  0.156732  0.126189  0.714850  1
  Ga  Ga10  1  0.158867  0.127086  0.214525  1
  Ga  Ga11  1  0.167306  0.750367  0.668797  1
  Ga  Ga12  1  0.168336  0.749650  0.168749  1
  Ga  Ga13  1  0.248371  0.833209  0.830163  1
  Ga  Ga14  1  0.249803  0.832250  0.331665  1
  Ga  Ga15  1  0.337028  0.167082  0.875530  1
  Ga  Ga16  1  0.336388  0.168709  0.374293  1
  Ga  Ga17  1  0.428482  0.156936  0.561615  1
  Ga  Ga18  1  0.428698  0.158516  0.063502  1
  Ga  Ga19  1  0.572654  0.875315  0.921164  1
  Ga  Ga20  1  0.570003  0.874225  0.421581  1
  Ga  Ga21  1  0.662519  0.249547  0.916367  1
  Ga  Ga22  1  0.659314  0.248345  0.416416  1
  Ga  Ga23  1  0.752152  0.340543  0.583180  1
  Ga  Ga24  1  0.748638  0.336455  0.084335  1
  Ga  Ga25  1  0.832901  0.660125  0.624493  1
  Ga  Ga26  1  0.833281  0.659773  0.124053  1
  Ga  Ga27  1  0.842735  0.569967  0.937043  1
  Ga  Ga28  1  0.843240  0.571583  0.438159  1
  Ga  Ga29  1  0.876493  0.843181  0.785713  1
  Ga  Ga30  1  0.875821  0.842421  0.286304  1
  Te  Te31  1  0.067530  0.671361  0.782984  1
  Te  Te32  1  0.067957  0.672447  0.283144  1
  Te  Te33  1  0.084974  0.503221  0.958783  1
  Te  Te34  1  0.082794  0.496340  0.457319  1
  Te  Te35  1  0.168248  0.997301  0.916169  1
  Te  Te36  1  0.168423  0.001527  0.416288  1
  Te  Te37  1  0.171885  0.172123  0.585981  1
  Te  Te38  1  0.171230  0.172528  0.085829  1
  Te  Te39  1  0.237662  0.320569  0.787883  1
  Te  Te40  1  0.241382  0.322539  0.285967  1
  Te  Te41  1  0.321209  0.575856  0.619059  1
  Te  Te42  1  0.321553  0.573155  0.121028  1
  Te  Te43  1  0.327204  0.932465  0.716756  1
  Te  Te44  1  0.326917  0.932328  0.217152  1
  Te  Te45  1  0.423556  0.679834  0.881941  1
  Te  Te46  1  0.426353  0.679285  0.380772  1
  Te  Te47  1  0.433764  0.326783  0.966134  1
  Te  Te48  1  0.433002  0.328778  0.466018  1
  Te  Te49  1  0.504435  0.918138  0.543076  1
  Te  Te50  1  0.499505  0.915901  0.041759  1
  Te  Te51  1  0.565639  0.067796  0.836248  1
  Te  Te52  1  0.565406  0.067321  0.336283  1
  Te  Te53  1  0.577435  0.236714  0.659753  1
  Te  Te54  1  0.572206  0.241215  0.161138  1
  Te  Te55  1  0.670787  0.566692  0.533656  1
  Te  Te56  1  0.672141  0.565393  0.033426  1
  Te  Te57  1  0.679176  0.762858  0.712045  1
  Te  Te58  1  0.680886  0.763546  0.211824  1
  Te  Te59  1  0.761728  0.424167  0.839270  1
  Te  Te60  1  0.763271  0.424194  0.340358  1
  Te  Te61  1  0.828781  0.827596  0.914062  1
  Te  Te62  1  0.827828  0.827947  0.414468  1
  Te  Te63  1  0.832312  0.168019  0.500172  1
  Te  Te64  1  0.833160  0.168493  0.000721  1
  Te  Te65  1  0.914120  0.082302  0.748043  1
  Te  Te66  1  0.915948  0.083646  0.249713  1
  Te  Te67  1  0.933231  0.433601  0.664314  1
  Te  Te68  1  0.932324  0.433233  0.163890  1
  Te  Te69  1  0.997294  0.831372  0.583874  1
  Te  Te70  1  0.998320  0.833788  0.084205  1
