# generated using pymatgen
data_ZrP2(H3O5)2
_symmetry_space_group_name_H-M   'P 1'
_cell_length_a   5.46575794
_cell_length_b   6.69722274
_cell_length_c   12.54046252
_cell_angle_alpha   90.00000000
_cell_angle_beta   99.41248180
_cell_angle_gamma   90.00000000
_symmetry_Int_Tables_number   1
_chemical_formula_structural   ZrP2(H3O5)2
_chemical_formula_sum   'Zr2 P4 H12 O20'
_cell_volume   452.86825185
_cell_formula_units_Z   2
loop_
 _symmetry_equiv_pos_site_id
 _symmetry_equiv_pos_as_xyz
  1  'x, y, z'
loop_
 _atom_site_type_symbol
 _atom_site_label
 _atom_site_symmetry_multiplicity
 _atom_site_fract_x
 _atom_site_fract_y
 _atom_site_fract_z
 _atom_site_occupancy
  Zr  Zr0  1  0.197609  0.752793  0.873256  1
  Zr  Zr1  1  0.802391  0.252793  0.126744  1
  P  P2  1  0.758598  0.753050  0.058563  1
  P  P3  1  0.241402  0.253050  0.941437  1
  P  P4  1  0.645829  0.675051  0.695150  1
  P  P5  1  0.354171  0.175051  0.304850  1
  H  H6  1  0.502030  0.359766  0.675470  1
  H  H7  1  0.497970  0.859766  0.324530  1
  H  H8  1  0.397642  0.719140  0.547271  1
  H  H9  1  0.602358  0.219140  0.452729  1
  H  H10  1  0.845612  0.691854  0.297319  1
  H  H11  1  0.154388  0.191854  0.702681  1
  H  H12  1  0.047912  0.654440  0.600606  1
  H  H13  1  0.952088  0.154440  0.399394  1
  H  H14  1  0.855701  0.839628  0.398554  1
  H  H15  1  0.144299  0.339628  0.601445  1
  H  H16  1  0.001113  0.094291  0.523129  1
  H  H17  1  0.998887  0.594291  0.476871  1
  O  O18  1  0.932826  0.750816  0.973089  1
  O  O19  1  0.067174  0.250816  0.026911  1
  O  O20  1  0.807345  0.568320  0.133485  1
  O  O21  1  0.192655  0.068320  0.866515  1
  O  O22  1  0.805132  0.940146  0.129868  1
  O  O23  1  0.194868  0.440146  0.870132  1
  O  O24  1  0.487434  0.751024  -0.000249  1
  O  O25  1  0.512566  0.251024  0.000249  1
  O  O26  1  0.914071  0.744152  0.729244  1
  O  O27  1  0.085929  0.244152  0.270756  1
  O  O28  1  0.459996  0.742875  0.765883  1
  O  O29  1  0.540004  0.242875  0.234117  1
  O  O30  1  0.658740  0.439432  0.691069  1
  O  O31  1  0.341260  0.939432  0.308931  1
  O  O32  1  0.568647  0.765070  0.578200  1
  O  O33  1  0.431353  0.265070  0.421800  1
  O  O34  1  0.782977  0.713567  0.365294  1
  O  O35  1  0.217023  0.213567  0.634706  1
  O  O36  1  0.878854  0.083583  0.455704  1
  O  O37  1  0.121146  0.583583  0.544296  1
