# generated using pymatgen
data_SiHC3O
_symmetry_space_group_name_H-M   'P 1'
_cell_length_a   9.41526128
_cell_length_b   16.11862339
_cell_length_c   11.83515174
_cell_angle_alpha   90.00000000
_cell_angle_beta   103.38322550
_cell_angle_gamma   90.00000000
_symmetry_Int_Tables_number   1
_chemical_formula_structural   SiHC3O
_chemical_formula_sum   'Si12 H12 C36 O12'
_cell_volume   1747.33919638
_cell_formula_units_Z   12
loop_
 _symmetry_equiv_pos_site_id
 _symmetry_equiv_pos_as_xyz
  1  'x, y, z'
loop_
 _atom_site_type_symbol
 _atom_site_label
 _atom_site_symmetry_multiplicity
 _atom_site_fract_x
 _atom_site_fract_y
 _atom_site_fract_z
 _atom_site_occupancy
  Si  Si0  1  0.888018  0.334655  0.594549  1
  Si  Si1  1  0.111982  0.834655  0.905451  1
  Si  Si2  1  0.111982  0.665345  0.405451  1
  Si  Si3  1  0.888018  0.165345  0.094549  1
  Si  Si4  1  0.515882  0.690740  0.621509  1
  Si  Si5  1  0.484118  0.190740  0.878491  1
  Si  Si6  1  0.484118  0.309260  0.378491  1
  Si  Si7  1  0.515882  0.809260  0.121509  1
  Si  Si8  1  0.771311  0.081762  0.612547  1
  Si  Si9  1  0.228689  0.581762  0.887453  1
  Si  Si10  1  0.228689  0.918238  0.387453  1
  Si  Si11  1  0.771311  0.418238  0.112547  1
  H  H12  1  0.632871  0.319375  0.358571  1
  H  H13  1  0.367129  0.819375  0.141429  1
  H  H14  1  0.367129  0.680625  0.641429  1
  H  H15  1  0.632871  0.180625  0.858571  1
  H  H16  1  0.279996  0.663094  0.853740  1
  H  H17  1  0.720004  0.163094  0.646260  1
  H  H18  1  0.720004  0.336906  0.146260  1
  H  H19  1  0.279996  0.836906  0.353740  1
  H  H20  1  0.773514  0.275923  0.528311  1
  H  H21  1  0.226486  0.775923  0.971689  1
  H  H22  1  0.226486  0.724077  0.471689  1
  H  H23  1  0.773514  0.224077  0.028311  1
  C  C24  1  0.850033  0.445628  0.628779  1
  C  C25  1  0.149967  0.945628  0.871221  1
  C  C26  1  0.149967  0.554372  0.371221  1
  C  C27  1  0.850033  0.054372  0.128779  1
  C  C28  1  0.942317  0.287952  0.741194  1
  C  C29  1  0.057683  0.787952  0.758806  1
  C  C30  1  0.057683  0.712048  0.258806  1
  C  C31  1  0.942317  0.212048  0.241194  1
  C  C32  1  0.058967  0.374830  0.560405  1
  C  C33  1  0.941033  0.874830  0.939595  1
  C  C34  1  0.941033  0.625170  0.439595  1
  C  C35  1  0.058967  0.125170  0.060405  1
  C  C36  1  0.677209  0.756738  0.684710  1
  C  C37  1  0.322791  0.256738  0.815290  1
  C  C38  1  0.322791  0.243262  0.315290  1
  C  C39  1  0.677209  0.743262  0.184710  1
  C  C40  1  0.692059  0.681163  0.721000  1
  C  C41  1  0.307941  0.181163  0.779000  1
  C  C42  1  0.307941  0.318837  0.279000  1
  C  C43  1  0.692059  0.818837  0.221000  1
  C  C44  1  0.490654  0.668255  0.466075  1
  C  C45  1  0.509346  0.168255  0.033925  1
  C  C46  1  0.509346  0.331745  0.533925  1
  C  C47  1  0.490654  0.831745  0.966075  1
  C  C48  1  0.901016  0.043756  0.530186  1
  C  C49  1  0.098984  0.543756  0.969814  1
  C  C50  1  0.098984  0.956244  0.469814  1
  C  C51  1  0.901016  0.456244  0.030186  1
  C  C52  1  0.770688  0.048272  0.464615  1
  C  C53  1  0.229312  0.548272  0.035385  1
  C  C54  1  0.229312  0.951728  0.535385  1
  C  C55  1  0.770688  0.451728  0.964615  1
  C  C56  1  0.683935  0.022563  0.711498  1
  C  C57  1  0.316065  0.522563  0.788502  1
  C  C58  1  0.316065  0.977437  0.288502  1
  C  C59  1  0.683935  0.477437  0.211498  1
  O  O60  1  0.987316  0.268880  0.836896  1
  O  O61  1  0.012684  0.768880  0.663104  1
  O  O62  1  0.012684  0.731120  0.163104  1
  O  O63  1  0.987316  0.231120  0.336896  1
  O  O64  1  0.492014  0.660847  0.368351  1
  O  O65  1  0.507986  0.160847  0.131649  1
  O  O66  1  0.507986  0.339153  0.631649  1
  O  O67  1  0.492014  0.839153  0.868351  1
  O  O68  1  0.641569  -0.005525  0.788018  1
  O  O69  1  0.358431  0.494475  0.711982  1
  O  O70  1  0.358431  0.005525  0.211982  1
  O  O71  1  0.641569  0.505525  0.288018  1
