# generated using pymatgen
data_Bi2Te2O7
_symmetry_space_group_name_H-M   'P 1'
_cell_length_a   5.61793476
_cell_length_b   22.39352571
_cell_length_c   22.92381166
_cell_angle_alpha   90.00000000
_cell_angle_beta   90.00000000
_cell_angle_gamma   90.00000000
_symmetry_Int_Tables_number   1
_chemical_formula_structural   Bi2Te2O7
_chemical_formula_sum   'Bi32 Te32 O112'
_cell_volume   2883.93852712
_cell_formula_units_Z   16
loop_
 _symmetry_equiv_pos_site_id
 _symmetry_equiv_pos_as_xyz
  1  'x, y, z'
loop_
 _atom_site_type_symbol
 _atom_site_label
 _atom_site_symmetry_multiplicity
 _atom_site_fract_x
 _atom_site_fract_y
 _atom_site_fract_z
 _atom_site_occupancy
  Bi  Bi0  1  0.489604  0.820794  0.306471  1
  Bi  Bi1  1  0.544368  0.930686  0.944476  1
  Bi  Bi2  1  0.020977  0.943774  0.312280  1
  Bi  Bi3  1  0.044368  0.569314  0.444476  1
  Bi  Bi4  1  0.955632  0.069314  0.444476  1
  Bi  Bi5  1  0.489604  0.679206  0.693529  1
  Bi  Bi6  1  0.989604  0.679206  0.806471  1
  Bi  Bi7  1  0.044368  0.930686  0.555524  1
  Bi  Bi8  1  0.497567  0.195837  0.193555  1
  Bi  Bi9  1  0.997567  0.304163  0.693555  1
  Bi  Bi10  1  0.010396  0.320794  0.193529  1
  Bi  Bi11  1  0.455632  0.430686  0.944476  1
  Bi  Bi12  1  0.497567  0.304163  0.806445  1
  Bi  Bi13  1  0.002433  0.695837  0.306445  1
  Bi  Bi14  1  0.989604  0.820794  0.193529  1
  Bi  Bi15  1  0.455632  0.069314  0.055524  1
  Bi  Bi16  1  0.010396  0.179206  0.806471  1
  Bi  Bi17  1  0.020977  0.556226  0.687720  1
  Bi  Bi18  1  0.002433  0.804163  0.693555  1
  Bi  Bi19  1  0.955632  0.430686  0.555524  1
  Bi  Bi20  1  0.502433  0.804163  0.806445  1
  Bi  Bi21  1  0.997567  0.195837  0.306445  1
  Bi  Bi22  1  0.520977  0.556226  0.812280  1
  Bi  Bi23  1  0.979023  0.443774  0.312280  1
  Bi  Bi24  1  0.979023  0.056226  0.687720  1
  Bi  Bi25  1  0.510396  0.320794  0.306471  1
  Bi  Bi26  1  0.502433  0.695837  0.193555  1
  Bi  Bi27  1  0.479023  0.443774  0.187720  1
  Bi  Bi28  1  0.479023  0.056226  0.812280  1
  Bi  Bi29  1  0.510396  0.179206  0.693529  1
  Bi  Bi30  1  0.544368  0.569314  0.055524  1
  Bi  Bi31  1  0.520977  0.943774  0.187720  1
  Te  Te32  1  0.988017  0.688549  0.567424  1
  Te  Te33  1  0.075915  0.933883  0.811428  1
  Te  Te34  1  0.424085  0.066117  0.311428  1
  Te  Te35  1  0.499869  0.056737  0.564065  1
  Te  Te36  1  0.499869  0.443263  0.435935  1
  Te  Te37  1  0.495930  0.306661  0.566361  1
  Te  Te38  1  0.924085  0.066117  0.188572  1
  Te  Te39  1  0.495930  0.193339  0.433639  1
  Te  Te40  1  0.011983  0.188549  0.567424  1
  Te  Te41  1  0.424085  0.433883  0.688572  1
  Te  Te42  1  0.500131  0.943263  0.435935  1
  Te  Te43  1  0.504070  0.693339  0.433639  1
  Te  Te44  1  -0.000131  0.056737  0.935935  1
  Te  Te45  1  0.500131  0.556737  0.564065  1
  Te  Te46  1  0.924085  0.433883  0.811428  1
  Te  Te47  1  0.000131  0.556737  0.935935  1
  Te  Te48  1  0.504070  0.806661  0.566361  1
  Te  Te49  1  0.511983  0.188549  0.932576  1
  Te  Te50  1  0.488017  0.688549  0.932576  1
  Te  Te51  1  0.988017  0.811451  0.432576  1
  Te  Te52  1  -0.000131  0.443263  0.064065  1
  Te  Te53  1  0.488017  0.811451  0.067424  1
  Te  Te54  1  0.075915  0.566117  0.188572  1
  Te  Te55  1  0.995930  0.306661  0.933639  1
  Te  Te56  1  0.575915  0.566117  0.311428  1
  Te  Te57  1  0.995930  0.193339  0.066361  1
  Te  Te58  1  0.004070  0.806661  0.933639  1
  Te  Te59  1  0.511983  0.311451  0.067424  1
  Te  Te60  1  0.004070  0.693339  0.066361  1
  Te  Te61  1  0.000131  0.943263  0.064065  1
  Te  Te62  1  0.575915  0.933883  0.688572  1
  Te  Te63  1  0.011983  0.311451  0.432576  1
  O  O64  1  0.696895  0.632660  0.266787  1
  O  O65  1  0.282146  0.142515  0.973822  1
  O  O66  1  0.755264  0.009227  0.530577  1
  O  O67  1  0.819189  0.276045  0.868726  1
  O  O68  1  0.363234  0.938150  0.856068  1
  O  O69  1  0.136766  0.061850  0.356068  1
  O  O70  1  0.743892  0.856637  0.534575  1
  O  O71  1  0.211969  0.244804  0.749323  1
  O  O72  1  0.811241  0.274258  0.375026  1
  O  O73  1  0.744736  0.509227  0.969423  1
  O  O74  1  0.711969  0.244804  0.750677  1
  O  O75  1  0.788031  0.755196  0.250677  1
  O  O76  1  0.153634  0.368723  0.382163  1
  O  O77  1  0.755264  0.490773  0.469423  1
  O  O78  1  0.205587  0.622616  0.741801  1
  O  O79  1  0.196895  0.867340  0.766787  1
  O  O80  1  0.346366  0.868723  0.117837  1
  O  O81  1  0.312125  0.636547  0.392798  1
  O  O82  1  0.288031  0.744804  0.750677  1
  O  O83  1  0.187875  0.136547  0.107202  1
  O  O84  1  0.217854  0.642515  0.526178  1
  O  O85  1  0.688759  0.774258  0.124974  1
  O  O86  1  0.180811  0.776045  0.868726  1
  O  O87  1  0.688759  0.725742  0.875026  1
  O  O88  1  0.313907  0.505162  0.398627  1
  O  O89  1  0.311241  0.225742  0.875026  1
  O  O90  1  0.313907  0.994838  0.601373  1
  O  O91  1  0.705402  0.504142  0.261631  1
  O  O92  1  0.794413  0.377384  0.258199  1
  O  O93  1  0.311241  0.274258  0.124974  1
  O  O94  1  0.294413  0.122616  0.758199  1
  O  O95  1  0.846366  0.868723  0.382163  1
  O  O96  1  0.705402  0.995858  0.738369  1
  O  O97  1  0.756108  0.143363  0.034575  1
  O  O98  1  0.138190  0.421780  0.137643  1
  O  O99  1  0.680811  0.776045  0.631274  1
  O  O100  1  0.136766  0.438150  0.643932  1
  O  O101  1  0.205402  0.995858  0.761631  1
  O  O102  1  0.861810  0.921780  0.137643  1
  O  O103  1  0.863234  0.938150  0.643932  1
  O  O104  1  0.196895  0.632660  0.233213  1
  O  O105  1  0.312125  0.863453  0.607202  1
  O  O106  1  0.794598  0.495858  0.761631  1
  O  O107  1  0.863234  0.561850  0.356068  1
  O  O108  1  0.782146  0.142515  0.526178  1
  O  O109  1  0.696895  0.867340  0.733213  1
  O  O110  1  0.243892  0.643363  0.034575  1
  O  O111  1  0.138190  0.078220  0.862357  1
  O  O112  1  0.717854  0.642515  0.973822  1
  O  O113  1  0.282146  0.357485  0.026178  1
  O  O114  1  0.794413  0.122616  0.741801  1
  O  O115  1  0.186093  0.005162  0.101373  1
  O  O116  1  0.319189  0.223955  0.368726  1
  O  O117  1  0.705587  0.877384  0.241801  1
  O  O118  1  0.638190  0.421780  0.362357  1
  O  O119  1  0.211969  0.255196  0.250677  1
  O  O120  1  0.180811  0.723955  0.131274  1
  O  O121  1  0.153634  0.131277  0.617837  1
  O  O122  1  0.205402  0.504142  0.238369  1
  O  O123  1  0.217854  0.857485  0.473822  1
  O  O124  1  0.638190  0.078220  0.637643  1
  O  O125  1  0.794598  0.004142  0.238369  1
  O  O126  1  0.705587  0.622616  0.758199  1
  O  O127  1  0.861810  0.578220  0.862357  1
  O  O128  1  0.846366  0.631277  0.617837  1
  O  O129  1  0.361810  0.921780  0.362357  1
  O  O130  1  0.255264  0.009227  0.969423  1
  O  O131  1  0.636766  0.438150  0.856068  1
  O  O132  1  0.653634  0.131277  0.882163  1
  O  O133  1  0.686093  0.494838  0.601373  1
  O  O134  1  0.256108  0.356637  0.534575  1
  O  O135  1  0.188759  0.725742  0.624974  1
  O  O136  1  0.244736  0.509227  0.530577  1
  O  O137  1  0.782146  0.357485  0.473822  1
  O  O138  1  0.294413  0.377384  0.241801  1
  O  O139  1  0.187875  0.363453  0.892798  1
  O  O140  1  0.653634  0.368723  0.117837  1
  O  O141  1  0.680811  0.723955  0.368726  1
  O  O142  1  0.687875  0.363453  0.607202  1
  O  O143  1  0.188759  0.774258  0.375026  1
  O  O144  1  0.744736  0.990773  0.030577  1
  O  O145  1  0.303105  0.132660  0.266787  1
  O  O146  1  0.803105  0.367340  0.766787  1
  O  O147  1  0.243892  0.856637  0.965425  1
  O  O148  1  0.319189  0.276045  0.631274  1
  O  O149  1  0.711969  0.255196  0.249323  1
  O  O150  1  0.346366  0.631277  0.882163  1
  O  O151  1  0.256108  0.143363  0.465425  1
  O  O152  1  0.813907  0.505162  0.101373  1
  O  O153  1  0.813907  0.994838  0.898627  1
  O  O154  1  0.186093  0.494838  0.898627  1
  O  O155  1  0.288031  0.755196  0.249323  1
  O  O156  1  0.743892  0.643363  0.465425  1
  O  O157  1  0.255264  0.490773  0.030577  1
  O  O158  1  0.811241  0.225742  0.624974  1
  O  O159  1  0.636766  0.061850  0.143932  1
  O  O160  1  0.812125  0.863453  0.892798  1
  O  O161  1  0.244736  0.990773  0.469423  1
  O  O162  1  0.686093  0.005162  0.398627  1
  O  O163  1  0.756108  0.356637  0.965425  1
  O  O164  1  0.303105  0.367340  0.733213  1
  O  O165  1  0.363234  0.561850  0.143932  1
  O  O166  1  0.294598  0.004142  0.261631  1
  O  O167  1  0.294598  0.495858  0.738369  1
  O  O168  1  0.819189  0.223955  0.131274  1
  O  O169  1  0.788031  0.744804  0.749323  1
  O  O170  1  0.803105  0.132660  0.233213  1
  O  O171  1  0.717854  0.857485  0.026178  1
  O  O172  1  0.687875  0.136547  0.392798  1
  O  O173  1  0.205587  0.877384  0.258199  1
  O  O174  1  0.812125  0.636547  0.107202  1
  O  O175  1  0.361810  0.578220  0.637643  1
