# generated using pymatgen
data_Bi12PbO20
_symmetry_space_group_name_H-M   'P 1'
_cell_length_a   9.03244999
_cell_length_b   9.03244054
_cell_length_c   9.03243687
_cell_angle_alpha   109.47112599
_cell_angle_beta   109.47119032
_cell_angle_gamma   109.47105561
_symmetry_Int_Tables_number   1
_chemical_formula_structural   Bi12PbO20
_chemical_formula_sum   'Bi12 Pb1 O20'
_cell_volume   567.27713038
_cell_formula_units_Z   1
loop_
 _symmetry_equiv_pos_site_id
 _symmetry_equiv_pos_as_xyz
  1  'x, y, z'
loop_
 _atom_site_type_symbol
 _atom_site_label
 _atom_site_symmetry_multiplicity
 _atom_site_fract_x
 _atom_site_fract_y
 _atom_site_fract_z
 _atom_site_occupancy
  Bi  Bi0  1  0.305842  0.807938  0.141192  1
  Bi  Bi1  1  0.694160  0.835351  0.502097  1
  Bi  Bi2  1  0.666748  0.164649  0.858809  1
  Bi  Bi3  1  0.164648  0.858809  0.666747  1
  Bi  Bi4  1  0.835352  0.502098  0.694161  1
  Bi  Bi5  1  0.141195  0.305846  0.807940  1
  Bi  Bi6  1  0.502098  0.694160  0.835352  1
  Bi  Bi7  1  0.497901  0.333252  0.192060  1
  Bi  Bi8  1  0.858808  0.666747  0.164649  1
  Bi  Bi9  1  0.192061  0.497902  0.333253  1
  Bi  Bi10  1  0.333252  0.192060  0.497901  1
  Bi  Bi11  1  0.807940  0.141193  0.305844  1
  Pb  Pb12  1  -0.000003  -0.000005  -0.000005  1
  O  O13  1  0.244711  0.359199  0.623355  1
  O  O14  1  0.755289  0.378643  0.114489  1
  O  O15  1  0.766401  0.766402  0.766400  1
  O  O16  1  0.233597  -0.000001  -0.000001  1
  O  O17  1  0.885511  0.264158  0.640801  1
  O  O18  1  0.640801  0.885511  0.264157  1
  O  O19  1  0.378644  0.114488  0.755290  1
  O  O20  1  0.264157  0.640801  0.885510  1
  O  O21  1  0.635139  1.000000  -0.000000  1
  O  O22  1  0.621357  0.376647  0.735845  1
  O  O23  1  0.359198  0.623355  0.244711  1
  O  O24  1  0.114489  0.755289  0.378646  1
  O  O25  1  -0.000001  0.635137  0.000000  1
  O  O26  1  -0.000001  0.233599  -0.000000  1
  O  O27  1  0.376647  0.735845  0.621357  1
  O  O28  1  0.000000  -0.000000  0.233598  1
  O  O29  1  0.364859  0.364859  0.364859  1
  O  O30  1  0.000000  0.000000  0.635138  1
  O  O31  1  0.735844  0.621357  0.376647  1
  O  O32  1  0.623355  0.244710  0.359198  1
