# generated using pymatgen
data_Si2H2O3
_symmetry_space_group_name_H-M   'P 1'
_cell_length_a   12.40429190
_cell_length_b   9.73262351
_cell_length_c   12.42258213
_cell_angle_alpha   100.68776422
_cell_angle_beta   139.47704558
_cell_angle_gamma   96.72410794
_symmetry_Int_Tables_number   1
_chemical_formula_structural   Si2H2O3
_chemical_formula_sum   'Si20 H20 O30'
_cell_volume   875.85090986
_cell_formula_units_Z   10
loop_
 _symmetry_equiv_pos_site_id
 _symmetry_equiv_pos_as_xyz
  1  'x, y, z'
loop_
 _atom_site_type_symbol
 _atom_site_label
 _atom_site_symmetry_multiplicity
 _atom_site_fract_x
 _atom_site_fract_y
 _atom_site_fract_z
 _atom_site_occupancy
  Si  Si0  1  0.726463  0.857139  0.621867  1
  Si  Si1  1  0.722424  0.637200  0.355488  1
  Si  Si2  1  0.288613  0.144814  0.430939  1
  Si  Si3  1  0.230287  0.360368  0.627496  1
  Si  Si4  1  0.081476  0.111705  0.843466  1
  Si  Si5  1  0.758511  0.391030  0.492445  1
  Si  Si6  1  0.909770  0.879111  0.149861  1
  Si  Si7  1  0.263324  0.615169  0.523700  1
  Si  Si8  1  0.423684  0.032223  0.227882  1
  Si  Si9  1  0.263239  0.463412  0.954555  1
  Si  Si10  1  0.459756  0.984594  0.632602  1
  Si  Si11  1  0.800574  0.532505  0.104605  1
  Si  Si12  1  0.390635  0.804235  0.943580  1
  Si  Si13  1  0.160455  0.758878  0.122059  1
  Si  Si14  1  0.634678  0.260840  0.098834  1
  Si  Si15  1  0.864023  0.303876  0.916124  1
  Si  Si16  1  0.128737  0.879391  0.645075  1
  Si  Si17  1  0.738718  0.581734  0.741567  1
  Si  Si18  1  0.837465  0.082111  0.340072  1
  Si  Si19  1  0.234316  0.372696  0.251554  1
  H  H20  1  0.055186  0.886774  0.894402  1
  H  H21  1  0.992812  0.660103  0.663044  1
  H  H22  1  0.001601  0.145979  0.172026  1
  H  H23  1  -0.011753  0.386759  0.327193  1
  H  H24  1  0.397668  0.225900  0.125740  1
  H  H25  1  0.937602  0.289804  0.695042  1
  H  H26  1  0.608316  0.793485  0.864054  1
  H  H27  1  0.083748  0.724760  0.312235  1
  H  H28  1  0.321746  0.537047  0.836776  1
  H  H29  1  0.702271  0.039480  0.714026  1
  H  H30  1  0.526753  0.718786  0.313047  1
  H  H31  1  0.399290  0.212936  0.692072  1
  H  H32  1  0.116017  0.124548  0.683762  1
  H  H33  1  0.564816  0.348137  0.491044  1
  H  H34  1  0.864267  0.850810  0.299724  1
  H  H35  1  0.435083  0.620827  0.501427  1
  H  H36  1  0.615202  0.971561  0.248650  1
  H  H37  1  0.271885  0.520942  0.142012  1
  H  H38  1  0.377860  0.021868  0.743860  1
  H  H39  1  0.721902  0.469216  0.855397  1
  O  O40  1  0.968818  0.919352  0.787153  1
  O  O41  1  0.859632  0.585783  0.550592  1
  O  O42  1  0.047672  0.076166  0.237144  1
  O  O43  1  0.129562  0.420409  0.447229  1
  O  O44  1  0.303056  0.126341  0.061378  1
  O  O45  1  0.961810  0.387892  0.690833  1
  O  O46  1  0.724389  0.875720  0.946425  1
  O  O47  1  0.057004  0.623904  0.313425  1
  O  O48  1  0.216374  0.895547  0.086163  1
  O  O49  1  0.315627  0.602270  0.909302  1
  O  O50  1  0.684798  0.107856  0.772585  1
  O  O51  1  0.806914  0.396779  0.178210  1
  O  O52  1  0.173144  0.797107  0.780028  1
  O  O53  1  0.961578  0.656379  0.902198  1
  O  O54  1  0.750391  0.152802  0.189533  1
  O  O55  1  0.015689  0.288360  0.121986  1
  O  O56  1  0.675019  0.708796  0.645472  1
  O  O57  1  0.900725  0.770785  0.445774  1
  O  O58  1  0.330512  0.266260  0.377473  1
  O  O59  1  0.058565  0.211646  0.530211  1
  O  O60  1  0.661484  0.758991  0.429515  1
  O  O61  1  0.328056  0.259453  0.598562  1
  O  O62  1  0.109852  0.047854  0.723910  1
  O  O63  1  0.676052  0.434495  0.563419  1
  O  O64  1  0.874913  0.933270  0.267650  1
  O  O65  1  0.319102  0.543338  0.431346  1
  O  O66  1  0.470641  0.915380  0.146020  1
  O  O67  1  0.288857  0.585950  0.097614  1
  O  O68  1  0.473674  0.091691  0.774634  1
  O  O69  1  0.768182  0.413656  0.943662  1
