# generated using pymatgen
data_Tl2Ag16Te11
_symmetry_space_group_name_H-M   'P 1'
_cell_length_a   15.46837729
_cell_length_b   15.43670436
_cell_length_c   15.50034014
_cell_angle_alpha   43.54222528
_cell_angle_beta   43.24362278
_cell_angle_gamma   43.40138514
_symmetry_Int_Tables_number   1
_chemical_formula_structural   Tl2Ag16Te11
_chemical_formula_sum   'Tl4 Ag32 Te22'
_cell_volume   1584.74169512
_cell_formula_units_Z   2
loop_
 _symmetry_equiv_pos_site_id
 _symmetry_equiv_pos_as_xyz
  1  'x, y, z'
loop_
 _atom_site_type_symbol
 _atom_site_label
 _atom_site_symmetry_multiplicity
 _atom_site_fract_x
 _atom_site_fract_y
 _atom_site_fract_z
 _atom_site_occupancy
  Tl  Tl0  1  0.190831  0.195968  0.191264  1
  Tl  Tl1  1  0.298700  0.306210  0.309468  1
  Tl  Tl2  1  0.704374  0.694292  0.692603  1
  Tl  Tl3  1  0.809777  0.803758  0.791477  1
  Ag  Ag4  1  0.375879  0.101556  0.600937  1
  Ag  Ag5  1  0.183010  0.811794  0.234995  1
  Ag  Ag6  1  0.384846  0.394052  0.384861  1
  Ag  Ag7  1  0.597801  0.396824  0.091801  1
  Ag  Ag8  1  0.311368  0.277630  0.681552  1
  Ag  Ag9  1  0.482612  0.736783  0.021021  1
  Ag  Ag10  1  0.105586  0.901144  0.409806  1
  Ag  Ag11  1  0.747994  0.010241  0.486629  1
  Ag  Ag12  1  0.818629  0.232330  0.178975  1
  Ag  Ag13  1  0.401930  0.114273  0.904201  1
  Ag  Ag14  1  0.099728  0.592389  0.884434  1
  Ag  Ag15  1  0.604974  0.611874  0.196271  1
  Ag  Ag16  1  0.389203  0.395316  0.796351  1
  Ag  Ag17  1  0.400926  0.792635  0.388463  1
  Ag  Ag18  1  0.907433  0.400338  0.110923  1
  Ag  Ag19  1  0.594860  0.890924  0.093856  1
  Ag  Ag20  1  0.175282  0.773550  0.823524  1
  Ag  Ag21  1  0.245783  0.987267  0.513993  1
  Ag  Ag22  1  0.792263  0.388169  0.399781  1
  Ag  Ag23  1  0.891330  0.094120  0.592894  1
  Ag  Ag24  1  0.512342  0.247793  0.986341  1
  Ag  Ag25  1  0.775940  0.818698  0.181437  1
  Ag  Ag26  1  0.396881  0.618420  0.910109  1
  Ag  Ag27  1  0.618575  0.616714  0.610026  1
  Ag  Ag28  1  0.822282  0.177114  0.775776  1
  Ag  Ag29  1  0.987049  0.512841  0.251158  1
  Ag  Ag30  1  0.617922  0.905051  0.397321  1
  Ag  Ag31  1  0.308902  0.887730  0.889007  1
  Ag  Ag32  1  0.910635  0.400622  0.612832  1
  Ag  Ag33  1  0.893888  0.302799  0.885549  1
  Ag  Ag34  1  0.902174  0.876917  0.309055  1
  Ag  Ag35  1  0.884156  0.886766  0.884985  1
  Te  Te36  1  0.043793  0.041645  0.045905  1
  Te  Te37  1  0.010856  0.252902  0.485496  1
  Te  Te38  1  0.251641  0.485114  0.013406  1
  Te  Te39  1  0.482708  0.012499  0.253141  1
  Te  Te40  1  0.126469  0.344376  0.619414  1
  Te  Te41  1  0.317739  0.611141  0.149184  1
  Te  Te42  1  0.612376  0.134314  0.334582  1
  Te  Te43  1  0.169902  0.368598  0.877261  1
  Te  Te44  1  0.462134  0.445667  0.453703  1
  Te  Te45  1  0.364320  0.880704  0.168087  1
  Te  Te46  1  0.124820  0.829114  0.627470  1
  Te  Te47  1  0.871858  0.169926  0.371200  1
  Te  Te48  1  0.631253  0.123092  0.827573  1
  Te  Te49  1  0.547244  0.546249  0.550745  1
  Te  Te50  1  0.833880  0.628931  0.121172  1
  Te  Te51  1  0.378415  0.871230  0.665623  1
  Te  Te52  1  0.664197  0.381199  0.871057  1
  Te  Te53  1  0.875778  0.664558  0.379553  1
  Te  Te54  1  0.509624  0.983526  0.757418  1
  Te  Te55  1  0.759623  0.520532  0.975179  1
  Te  Te56  1  0.983548  0.749150  0.513472  1
  Te  Te57  1  0.953258  0.953328  0.955284  1
