# generated using pymatgen
data_Co8As3O16
_symmetry_space_group_name_H-M   'P 1'
_cell_length_a   9.91292149
_cell_length_b   9.96592056
_cell_length_c   9.96592023
_cell_angle_alpha   36.01756240
_cell_angle_beta   35.59378699
_cell_angle_gamma   35.59378861
_symmetry_Int_Tables_number   1
_chemical_formula_structural   Co8As3O16
_chemical_formula_sum   'Co8 As3 O16'
_cell_volume   300.20656049
_cell_formula_units_Z   1
loop_
 _symmetry_equiv_pos_site_id
 _symmetry_equiv_pos_as_xyz
  1  'x, y, z'
loop_
 _atom_site_type_symbol
 _atom_site_label
 _atom_site_symmetry_multiplicity
 _atom_site_fract_x
 _atom_site_fract_y
 _atom_site_fract_z
 _atom_site_occupancy
  Co  Co0  1  0.500000  0.500000  0.000000  1
  Co  Co1  1  0.244735  0.745606  0.264910  1
  Co  Co2  1  0.244735  0.264910  0.745606  1
  Co  Co3  1  0.762768  0.252180  0.252180  1
  Co  Co4  1  0.237232  0.747820  0.747820  1
  Co  Co5  1  0.755265  0.735090  0.254394  1
  Co  Co6  1  0.755265  0.254394  0.735090  1
  Co  Co7  1  0.500000  0.000000  0.500000  1
  As  As8  1  0.000000  0.000000  0.000000  1
  As  As9  1  0.202722  0.189187  0.189187  1
  As  As10  1  0.797278  0.810813  0.810813  1
  O  O11  1  0.140300  0.125437  0.125437  1
  O  O12  1  0.112921  0.096365  0.674478  1
  O  O13  1  0.112921  0.674478  0.096365  1
  O  O14  1  0.667190  0.107964  0.107964  1
  O  O15  1  0.401163  0.367075  0.367075  1
  O  O16  1  0.098601  0.634931  0.634931  1
  O  O17  1  0.627448  0.103613  0.634345  1
  O  O18  1  0.627448  0.634345  0.103613  1
  O  O19  1  0.372552  0.365655  0.896387  1
  O  O20  1  0.372552  0.896387  0.365655  1
  O  O21  1  0.901399  0.365069  0.365069  1
  O  O22  1  0.598837  0.632925  0.632925  1
  O  O23  1  0.332810  0.892036  0.892036  1
  O  O24  1  0.887079  0.325522  0.903635  1
  O  O25  1  0.887079  0.903635  0.325522  1
  O  O26  1  0.859700  0.874563  0.874563  1
