# generated using pymatgen
data_GaCuTe2
_symmetry_space_group_name_H-M   'P 1'
_cell_length_a   8.09621514
_cell_length_b   10.69468924
_cell_length_c   6.98819156
_cell_angle_alpha   29.22314192
_cell_angle_beta   54.59235707
_cell_angle_gamma   40.79164945
_symmetry_Int_Tables_number   1
_chemical_formula_structural   GaCuTe2
_chemical_formula_sum   'Ga2 Cu2 Te4'
_cell_volume   186.61218500
_cell_formula_units_Z   2
loop_
 _symmetry_equiv_pos_site_id
 _symmetry_equiv_pos_as_xyz
  1  'x, y, z'
loop_
 _atom_site_type_symbol
 _atom_site_label
 _atom_site_symmetry_multiplicity
 _atom_site_fract_x
 _atom_site_fract_y
 _atom_site_fract_z
 _atom_site_occupancy
  Ga  Ga0  1  0.000434  0.004596  0.992179  1
  Ga  Ga1  1  0.751685  0.498200  0.002067  1
  Cu  Cu2  1  0.497242  0.005840  0.989711  1
  Cu  Cu3  1  0.251106  0.504637  0.991801  1
  Te  Te4  1  0.492460  0.502190  0.510358  1
  Te  Te5  1  0.258045  0.000994  0.484674  1
  Te  Te6  1  0.006338  0.503265  0.482516  1
  Te  Te7  1  0.744389  0.001988  0.507314  1
