# generated using pymatgen
data_Li11Ta37N48
_symmetry_space_group_name_H-M   'P 1'
_cell_length_a   5.23251158
_cell_length_b   5.23251168
_cell_length_c   41.68428257
_cell_angle_alpha   90.00000000
_cell_angle_beta   90.00000000
_cell_angle_gamma   119.99999318
_symmetry_Int_Tables_number   1
_chemical_formula_structural   Li11Ta37N48
_chemical_formula_sum   'Li11 Ta37 N48'
_cell_volume   988.37874458
_cell_formula_units_Z   1
loop_
 _symmetry_equiv_pos_site_id
 _symmetry_equiv_pos_as_xyz
  1  'x, y, z'
loop_
 _atom_site_type_symbol
 _atom_site_label
 _atom_site_symmetry_multiplicity
 _atom_site_fract_x
 _atom_site_fract_y
 _atom_site_fract_z
 _atom_site_occupancy
  Li  Li0  1  0.333333  0.666667  0.001407  1
  Li  Li1  1  0.000000  0.000000  0.125779  1
  Li  Li2  1  0.000000  0.000000  0.250220  1
  Li  Li3  1  0.000000  0.000000  0.498590  1
  Li  Li4  1  0.333333  0.666667  0.374127  1
  Li  Li5  1  0.666667  0.333333  0.126214  1
  Li  Li6  1  0.000000  0.000000  0.374202  1
  Li  Li7  1  0.000000  0.000000  0.749964  1
  Li  Li8  1  0.000000  0.000000  0.875366  1
  Li  Li9  1  0.666667  0.333333  0.749992  1
  Li  Li10  1  0.000000  0.000000  0.624128  1
  Ta  Ta11  1  0.995603  0.668591  0.187909  1
  Ta  Ta12  1  0.004896  0.672635  0.436241  1
  Ta  Ta13  1  0.994887  0.667568  0.687448  1
  Ta  Ta14  1  0.002563  0.669367  0.938155  1
  Ta  Ta15  1  0.332126  0.004999  0.812250  1
  Ta  Ta16  1  0.333333  0.666667  0.249125  1
  Ta  Ta17  1  0.333333  0.666667  0.497871  1
  Ta  Ta18  1  0.333333  0.666667  0.750043  1
  Ta  Ta19  1  0.000000  0.000000  0.001866  1
  Ta  Ta20  1  0.333333  0.666667  0.126085  1
  Ta  Ta21  1  0.333333  0.666667  0.626168  1
  Ta  Ta22  1  0.333333  0.666667  0.873788  1
  Ta  Ta23  1  0.331409  0.327011  0.187909  1
  Ta  Ta24  1  0.327365  0.332261  0.436241  1
  Ta  Ta25  1  0.332432  0.327320  0.687448  1
  Ta  Ta26  1  0.330633  0.333197  0.938155  1
  Ta  Ta27  1  0.672989  0.004397  0.187909  1
  Ta  Ta28  1  0.667739  0.995104  0.436241  1
  Ta  Ta29  1  0.672680  0.005113  0.687448  1
  Ta  Ta30  1  0.666803  0.997437  0.938155  1
  Ta  Ta31  1  0.333038  0.003618  0.063854  1
  Ta  Ta32  1  0.326808  0.995345  0.312518  1
  Ta  Ta33  1  0.329041  0.000189  0.561641  1
  Ta  Ta34  1  0.670580  0.666962  0.063854  1
  Ta  Ta35  1  0.671148  0.670959  0.561641  1
  Ta  Ta36  1  0.668538  0.673192  0.312518  1
  Ta  Ta37  1  0.672874  0.667874  0.812250  1
  Ta  Ta38  1  0.666667  0.333333  0.373854  1
  Ta  Ta39  1  0.666667  0.333333  0.874779  1
  Ta  Ta40  1  0.666667  0.333333  0.625417  1
  Ta  Ta41  1  0.666667  0.333333  0.002119  1
  Ta  Ta42  1  0.666667  0.333333  0.251094  1
  Ta  Ta43  1  0.666667  0.333333  0.497365  1
  Ta  Ta44  1  0.996382  0.329420  0.063854  1
  Ta  Ta45  1  0.004655  0.331462  0.312518  1
  Ta  Ta46  1  0.999811  0.328852  0.561641  1
  Ta  Ta47  1  0.995001  0.327126  0.812250  1
  N  N48  1  0.007012  0.667131  0.031395  1
  N  N49  1  0.000178  0.667687  0.279838  1
  N  N50  1  -0.000220  0.664339  0.529023  1
  N  N51  1  0.009156  0.665399  0.780742  1
  N  N52  1  0.008765  0.343714  0.156690  1
  N  N53  1  0.991146  0.334812  0.404973  1
  N  N54  1  0.001090  0.329574  0.654841  1
  N  N55  1  0.999316  0.332278  0.905588  1
  N  N56  1  0.343666  0.008854  0.404973  1
  N  N57  1  0.332961  0.000684  0.905588  1
  N  N58  1  0.660119  0.992988  0.031395  1
  N  N59  1  0.656243  0.990844  0.780742  1
  N  N60  1  0.333476  0.341224  0.095271  1
  N  N61  1  0.342867  0.334743  0.343776  1
  N  N62  1  0.335598  0.336381  0.594206  1
  N  N63  1  0.329867  0.330523  0.844856  1
  N  N64  1  0.332869  0.339881  0.031395  1
  N  N65  1  0.332313  0.332492  0.279838  1
  N  N66  1  0.335661  0.335441  0.529023  1
  N  N67  1  0.334601  0.343757  0.780742  1
  N  N68  1  0.668201  0.667853  0.220646  1
  N  N69  1  0.671844  0.670253  0.468748  1
  N  N70  1  0.656072  0.665482  0.718875  1
  N  N71  1  0.665384  0.664127  0.970659  1
  N  N72  1  0.665188  0.656334  0.404973  1
  N  N73  1  0.656286  0.665051  0.156690  1
  N  N74  1  0.670426  0.671515  0.654841  1
  N  N75  1  0.667722  0.667039  0.905588  1
  N  N76  1  0.332147  0.000348  0.220646  1
  N  N77  1  0.334949  0.991235  0.156690  1
  N  N78  1  0.329747  0.001591  0.468748  1
  N  N79  1  0.334518  0.990589  0.718875  1
  N  N80  1  0.328485  0.998910  0.654841  1
  N  N81  1  0.335873  0.001257  0.970659  1
  N  N82  1  0.658776  0.992252  0.095271  1
  N  N83  1  0.665257  0.008123  0.343776  1
  N  N84  1  0.663619  0.999217  0.594206  1
  N  N85  1  0.669477  0.999344  0.844856  1
  N  N86  1  0.667508  0.999822  0.279838  1
  N  N87  1  0.664559  0.000220  0.529023  1
  N  N88  1  0.991877  0.657133  0.343776  1
  N  N89  1  0.007748  0.666524  0.095271  1
  N  N90  1  0.000783  0.664402  0.594206  1
  N  N91  1  0.000656  0.670133  0.844856  1
  N  N92  1  0.998409  0.328156  0.468748  1
  N  N93  1  0.999652  0.331799  0.220646  1
  N  N94  1  0.009411  0.343928  0.718875  1
  N  N95  1  0.998743  0.334616  0.970659  1
