# generated using pymatgen
data_KDy(PO3)4
_symmetry_space_group_name_H-M   'P 1'
_cell_length_a   7.46993925
_cell_length_b   7.46993924
_cell_length_c   10.57754036
_cell_angle_alpha   101.13606329
_cell_angle_beta   101.13606327
_cell_angle_gamma   115.45823618
_symmetry_Int_Tables_number   1
_chemical_formula_structural   KDy(PO3)4
_chemical_formula_sum   'K2 Dy2 P8 O24'
_cell_volume   496.82608811
_cell_formula_units_Z   2
loop_
 _symmetry_equiv_pos_site_id
 _symmetry_equiv_pos_as_xyz
  1  'x, y, z'
loop_
 _atom_site_type_symbol
 _atom_site_label
 _atom_site_symmetry_multiplicity
 _atom_site_fract_x
 _atom_site_fract_y
 _atom_site_fract_z
 _atom_site_occupancy
  O  O0  1  0.703419  0.199357  0.892423  1
  O  O1  1  0.800643  0.296581  0.607577  1
  O  O2  1  0.296581  0.800643  0.107577  1
  O  O3  1  0.199357  0.703419  0.392423  1
  O  O4  1  0.906659  0.515055  0.113261  1
  O  O5  1  0.484945  0.093341  0.386739  1
  O  O6  1  0.093341  0.484945  0.886739  1
  O  O7  1  0.515055  0.906659  0.613261  1
  O  O8  1  0.642777  0.507539  0.911110  1
  O  O9  1  0.492461  0.357223  0.588890  1
  O  O10  1  0.357223  0.492461  0.088890  1
  O  O11  1  0.507539  0.642777  0.411110  1
  O  O12  1  0.754053  0.828097  0.835266  1
  O  O13  1  0.171903  0.245947  0.664734  1
  O  O14  1  0.245947  0.171903  0.164734  1
  O  O15  1  0.828097  0.754053  0.335266  1
  O  O16  1  0.839011  0.864204  0.092400  1
  O  O17  1  0.135796  0.160989  0.407600  1
  O  O18  1  0.160989  0.135796  0.907600  1
  O  O19  1  0.864204  0.839011  0.592400  1
  O  O20  1  0.470694  0.729520  0.941201  1
  O  O21  1  0.270480  0.529306  0.558799  1
  O  O22  1  0.529306  0.270480  0.058799  1
  O  O23  1  0.729520  0.470694  0.441201  1
  P  P24  1  0.713914  0.377650  0.993685  1
  P  P25  1  0.622350  0.286086  0.506315  1
  P  P26  1  0.286086  0.622350  0.006315  1
  P  P27  1  0.377650  0.713914  0.493685  1
  P  P28  1  0.750250  0.696718  0.448633  1
  P  P29  1  0.303282  0.249750  0.051367  1
  P  P30  1  0.249750  0.303282  0.551367  1
  P  P31  1  0.696718  0.750250  0.948633  1
  K  K32  1  0.189321  0.810679  0.750000  1
  K  K33  1  0.810679  0.189321  0.250000  1
  Dy  Dy34  1  0.120341  0.879659  0.250000  1
  Dy  Dy35  1  0.879659  0.120341  0.750000  1
