# generated using pymatgen
data_SeO2
_symmetry_space_group_name_H-M   'P 1'
_cell_length_a   5.34964957
_cell_length_b   9.12613009
_cell_length_c   8.87516072
_cell_angle_alpha   90.00000000
_cell_angle_beta   90.00000000
_cell_angle_gamma   90.00000000
_symmetry_Int_Tables_number   1
_chemical_formula_structural   SeO2
_chemical_formula_sum   'Se8 O16'
_cell_volume   433.29952807
_cell_formula_units_Z   8
loop_
 _symmetry_equiv_pos_site_id
 _symmetry_equiv_pos_as_xyz
  1  'x, y, z'
loop_
 _atom_site_type_symbol
 _atom_site_label
 _atom_site_symmetry_multiplicity
 _atom_site_fract_x
 _atom_site_fract_y
 _atom_site_fract_z
 _atom_site_occupancy
  Se  Se0  1  0.000000  0.621810  0.275934  1
  Se  Se1  1  0.000000  0.121810  0.224066  1
  Se  Se2  1  0.500000  0.760239  0.191319  1
  Se  Se3  1  0.000000  0.378190  0.724066  1
  Se  Se4  1  0.000000  0.878190  0.775934  1
  Se  Se5  1  0.500000  0.260239  0.308681  1
  Se  Se6  1  0.500000  0.239761  0.808681  1
  Se  Se7  1  0.500000  0.739761  0.691319  1
  O  O8  1  0.756412  0.640601  0.127507  1
  O  O9  1  0.243588  0.859399  0.627507  1
  O  O10  1  0.756412  0.859399  0.627507  1
  O  O11  1  0.500000  0.720818  0.373715  1
  O  O12  1  0.000000  0.055182  0.808339  1
  O  O13  1  0.000000  0.555182  0.691661  1
  O  O14  1  0.000000  0.944818  0.191661  1
  O  O15  1  0.500000  0.279182  0.626285  1
  O  O16  1  0.756412  0.140601  0.372493  1
  O  O17  1  0.500000  0.779182  0.873715  1
  O  O18  1  0.000000  0.444818  0.308339  1
  O  O19  1  0.500000  0.220818  0.126285  1
  O  O20  1  0.243588  0.140601  0.372493  1
  O  O21  1  0.756412  0.359399  0.872493  1
  O  O22  1  0.243588  0.640601  0.127507  1
  O  O23  1  0.243588  0.359399  0.872493  1
