# generated using pymatgen
data_Cu4Bi4S9
_symmetry_space_group_name_H-M   'P 1'
_cell_length_a   3.92937874
_cell_length_b   11.30665836
_cell_length_c   33.32312364
_cell_angle_alpha   90.00000000
_cell_angle_beta   90.00000000
_cell_angle_gamma   90.00000000
_symmetry_Int_Tables_number   1
_chemical_formula_structural   Cu4Bi4S9
_chemical_formula_sum   'Cu16 Bi16 S36'
_cell_volume   1480.48450163
_cell_formula_units_Z   4
loop_
 _symmetry_equiv_pos_site_id
 _symmetry_equiv_pos_as_xyz
  1  'x, y, z'
loop_
 _atom_site_type_symbol
 _atom_site_label
 _atom_site_symmetry_multiplicity
 _atom_site_fract_x
 _atom_site_fract_y
 _atom_site_fract_z
 _atom_site_occupancy
  Cu  Cu0  1  0.250000  0.422443  0.302692  1
  Cu  Cu1  1  0.750000  0.899294  0.012911  1
  Cu  Cu2  1  0.750000  0.834407  0.307039  1
  Cu  Cu3  1  0.250000  0.077557  0.802692  1
  Cu  Cu4  1  0.750000  0.922443  0.197308  1
  Cu  Cu5  1  0.250000  0.165593  0.692961  1
  Cu  Cu6  1  0.250000  0.881002  0.358610  1
  Cu  Cu7  1  0.250000  0.100706  0.987089  1
  Cu  Cu8  1  0.750000  0.665593  0.807039  1
  Cu  Cu9  1  0.750000  0.381002  0.141390  1
  Cu  Cu10  1  0.750000  0.118998  0.641390  1
  Cu  Cu11  1  0.250000  0.334407  0.192961  1
  Cu  Cu12  1  0.750000  0.577557  0.697308  1
  Cu  Cu13  1  0.750000  0.600706  0.512911  1
  Cu  Cu14  1  0.250000  0.399294  0.487089  1
  Cu  Cu15  1  0.250000  0.618998  0.858610  1
  Bi  Bi16  1  0.750000  0.620456  0.967224  1
  Bi  Bi17  1  0.750000  0.909746  0.908180  1
  Bi  Bi18  1  0.750000  0.851844  0.723545  1
  Bi  Bi19  1  0.250000  0.720069  0.110896  1
  Bi  Bi20  1  0.750000  0.279931  0.889104  1
  Bi  Bi21  1  0.750000  0.590254  0.408180  1
  Bi  Bi22  1  0.250000  0.090254  0.091820  1
  Bi  Bi23  1  0.250000  0.779931  0.610896  1
  Bi  Bi24  1  0.250000  0.148156  0.276455  1
  Bi  Bi25  1  0.250000  0.120456  0.532776  1
  Bi  Bi26  1  0.750000  0.220069  0.389104  1
  Bi  Bi27  1  0.250000  0.351844  0.776455  1
  Bi  Bi28  1  0.250000  0.379544  0.032776  1
  Bi  Bi29  1  0.750000  0.648156  0.223545  1
  Bi  Bi30  1  0.250000  0.409746  0.591820  1
  Bi  Bi31  1  0.750000  0.879544  0.467224  1
  S  S32  1  0.250000  0.016338  0.737272  1
  S  S33  1  0.750000  0.319443  0.316737  1
  S  S34  1  0.250000  0.078307  0.351393  1
  S  S35  1  0.250000  0.320020  0.111264  1
  S  S36  1  0.250000  0.844426  0.977234  1
  S  S37  1  0.750000  0.882463  0.081697  1
  S  S38  1  0.750000  0.418195  0.654657  1
  S  S39  1  0.250000  0.040280  0.451204  1
  S  S40  1  0.750000  0.180557  0.816737  1
  S  S41  1  0.250000  0.459720  0.951204  1
  S  S42  1  0.750000  0.921693  0.648607  1
  S  S43  1  0.750000  0.540280  0.048796  1
  S  S44  1  0.250000  0.382463  0.418303  1
  S  S45  1  0.750000  0.578307  0.148607  1
  S  S46  1  0.750000  0.516338  0.762728  1
  S  S47  1  0.250000  0.767862  0.807171  1
  S  S48  1  0.750000  0.344426  0.522766  1
  S  S49  1  0.750000  0.081805  0.154657  1
  S  S50  1  0.250000  0.918195  0.845343  1
  S  S51  1  0.750000  0.267862  0.692829  1
  S  S52  1  0.750000  0.959720  0.548796  1
  S  S53  1  0.750000  0.232138  0.192829  1
  S  S54  1  0.750000  0.617537  0.581697  1
  S  S55  1  0.750000  0.679980  0.888736  1
  S  S56  1  0.250000  0.819443  0.183263  1
  S  S57  1  0.250000  0.581805  0.345343  1
  S  S58  1  0.750000  0.155574  0.022766  1
  S  S59  1  0.250000  0.732138  0.307171  1
  S  S60  1  0.250000  0.680557  0.683263  1
  S  S61  1  0.250000  0.655574  0.477234  1
  S  S62  1  0.250000  0.483662  0.237272  1
  S  S63  1  0.750000  0.820020  0.388736  1
  S  S64  1  0.250000  0.421693  0.851393  1
  S  S65  1  0.250000  0.179980  0.611264  1
  S  S66  1  0.750000  0.983662  0.262728  1
  S  S67  1  0.250000  0.117537  0.918303  1
