# generated using pymatgen
data_YAl6Si30(N15O)3
_symmetry_space_group_name_H-M   'P 1'
_cell_length_a   7.93384981
_cell_length_b   7.88670453
_cell_length_c   17.12960488
_cell_angle_alpha   90.29051100
_cell_angle_beta   89.80661275
_cell_angle_gamma   120.32567408
_symmetry_Int_Tables_number   1
_chemical_formula_structural   YAl6Si30(N15O)3
_chemical_formula_sum   'Y1 Al6 Si30 N45 O3'
_cell_volume   925.16063223
_cell_formula_units_Z   1
loop_
 _symmetry_equiv_pos_site_id
 _symmetry_equiv_pos_as_xyz
  1  'x, y, z'
loop_
 _atom_site_type_symbol
 _atom_site_label
 _atom_site_symmetry_multiplicity
 _atom_site_fract_x
 _atom_site_fract_y
 _atom_site_fract_z
 _atom_site_occupancy
  Y  Y0  1  0.676103  0.330600  0.728097  1
  Al  Al1  1  0.096447  0.581773  0.717756  1
  Al  Al2  1  0.916023  0.483610  0.550742  1
  Al  Al3  1  0.924855  0.492463  0.892918  1
  Al  Al4  1  0.913283  0.165037  0.319569  1
  Al  Al5  1  0.922387  0.168245  0.650353  1
  Al  Al6  1  0.914240  0.165300  0.986855  1
  Si  Si7  1  0.169249  0.928246  0.151605  1
  Si  Si8  1  0.169107  0.927228  0.480642  1
  Si  Si9  1  0.170793  0.928940  0.818851  1
  Si  Si10  1  0.083889  0.566409  0.054686  1
  Si  Si11  1  0.088189  0.568537  0.383780  1
  Si  Si12  1  0.088765  0.260546  0.152991  1
  Si  Si13  1  0.088099  0.260193  0.485338  1
  Si  Si14  1  0.078769  0.256239  0.819529  1
  Si  Si15  1  0.486798  0.917913  0.055732  1
  Si  Si16  1  0.489099  0.920655  0.386963  1
  Si  Si17  1  0.486713  0.907170  0.720173  1
  Si  Si18  1  0.428703  0.510740  0.056525  1
  Si  Si19  1  0.430734  0.511403  0.387833  1
  Si  Si20  1  0.426100  0.511814  0.721413  1
  Si  Si21  1  0.252834  0.084776  0.317242  1
  Si  Si22  1  0.247135  0.074185  0.648771  1
  Si  Si23  1  0.248936  0.080329  0.985827  1
  Si  Si24  1  0.514059  0.430030  0.221402  1
  Si  Si25  1  0.512885  0.429903  0.551467  1
  Si  Si26  1  0.507505  0.427831  0.889683  1
  Si  Si27  1  0.744670  0.835008  0.152451  1
  Si  Si28  1  0.745709  0.835104  0.483563  1
  Si  Si29  1  0.748293  0.831063  0.820369  1
  Si  Si30  1  0.836045  0.747089  0.318138  1
  Si  Si31  1  0.831190  0.745657  0.649658  1
  Si  Si32  1  0.835642  0.745691  0.988514  1
  Si  Si33  1  0.568399  0.080370  0.222080  1
  Si  Si34  1  0.565758  0.076632  0.890653  1
  Si  Si35  1  0.563258  0.079650  0.552304  1
  Si  Si36  1  0.913084  0.479351  0.224024  1
  N  N37  1  0.006159  0.991632  0.318393  1
  N  N38  1  0.003632  0.987802  0.652726  1
  N  N39  1  0.309833  0.989526  0.067694  1
  N  N40  1  0.316530  0.997179  0.399213  1
  N  N41  1  0.325168  0.001786  0.734234  1
  N  N42  1  0.008283  0.327078  0.072801  1
  N  N43  1  0.007271  0.329163  0.404931  1
  N  N44  1  0.984031  0.319225  0.740800  1
  N  N45  1  0.332176  0.665527  0.041236  1
  N  N46  1  0.336036  0.667829  0.372440  1
  N  N47  1  0.348268  0.668284  0.696927  1
  N  N48  1  0.998364  0.000509  0.816562  1
  N  N49  1  0.608999  0.953872  0.478618  1
  N  N50  1  0.609423  0.955383  0.145924  1
  N  N51  1  0.610262  0.953716  0.811090  1
  N  N52  1  0.347259  0.385956  0.145927  1
  N  N53  1  0.346120  0.386997  0.477561  1
  N  N54  1  0.344018  0.384179  0.809946  1
  N  N55  1  0.390693  0.344589  0.311591  1
  N  N56  1  0.400754  0.339027  0.647472  1
  N  N57  1  0.391574  0.342116  0.979976  1
  N  N58  1  0.318108  0.005245  0.231789  1
  N  N59  1  0.309180  0.990801  0.565101  1
  N  N60  1  0.316810  0.003270  0.899804  1
  N  N61  1  0.677371  0.688117  0.067688  1
  N  N62  1  0.681523  0.685864  0.399627  1
  N  N63  1  0.680869  0.671593  0.735911  1
  N  N64  1  0.690298  0.680717  0.233045  1
  N  N65  1  0.688719  0.677724  0.901123  1
  N  N66  1  0.682911  0.682837  0.565949  1
  N  N67  1  0.666898  0.333400  0.202956  1
  N  N68  1  0.652254  0.324352  0.534113  1
  N  N69  1  0.656984  0.326875  0.863396  1
  N  N70  1  0.997899  0.002499  0.151805  1
  N  N71  1  0.003750  0.990049  0.985402  1
  N  N72  1  0.643492  0.056967  0.647105  1
  N  N73  1  0.642983  0.040168  0.311024  1
  N  N74  1  0.640942  0.040416  0.979112  1
  N  N75  1  0.955056  0.607888  0.312072  1
  N  N76  1  0.925950  0.593216  0.649745  1
  N  N77  1  0.952225  0.610963  0.988004  1
  N  N78  1  0.006109  0.327889  0.232435  1
  N  N79  1  0.009378  0.320585  0.901012  1
  N  N80  1  0.014583  0.324027  0.566174  1
  N  N81  1  0.998260  0.001364  0.483574  1
  O  O82  1  0.043922  0.660965  0.148319  1
  O  O83  1  0.048814  0.670617  0.471814  1
  O  O84  1  0.052778  0.677819  0.812675  1
