# generated using pymatgen
data_Co3C10ClO9
_symmetry_space_group_name_H-M   'P 1'
_cell_length_a   8.14261180
_cell_length_b   8.99456868
_cell_length_c   12.54992512
_cell_angle_alpha   86.77054734
_cell_angle_beta   82.60124777
_cell_angle_gamma   67.99222170
_symmetry_Int_Tables_number   1
_chemical_formula_structural   Co3C10ClO9
_chemical_formula_sum   'Co6 C20 Cl2 O18'
_cell_volume   845.04412578
_cell_formula_units_Z   2
loop_
 _symmetry_equiv_pos_site_id
 _symmetry_equiv_pos_as_xyz
  1  'x, y, z'
loop_
 _atom_site_type_symbol
 _atom_site_label
 _atom_site_symmetry_multiplicity
 _atom_site_fract_x
 _atom_site_fract_y
 _atom_site_fract_z
 _atom_site_occupancy
  Co  Co0  1  0.139143  0.372630  0.751375  1
  Co  Co1  1  0.332831  0.085540  0.730699  1
  Co  Co2  1  0.566234  0.730903  0.180133  1
  Co  Co3  1  0.860857  0.627370  0.248625  1
  Co  Co4  1  0.433766  0.269097  0.819867  1
  Co  Co5  1  0.667169  0.914460  0.269301  1
  C  C6  1  0.463914  0.451770  0.825419  1
  C  C7  1  0.662594  0.150992  0.801123  1
  C  C8  1  0.999066  0.636060  0.125845  1
  C  C9  1  0.773480  0.955897  0.371137  1
  C  C10  1  0.536086  0.548230  0.174581  1
  C  C11  1  0.458483  0.067061  0.305251  1
  C  C12  1  0.247143  0.001930  0.849394  1
  C  C13  1  0.000934  0.363940  0.874155  1
  C  C14  1  0.337406  0.849008  0.198877  1
  C  C15  1  0.000447  0.383377  0.652341  1
  C  C16  1  0.635569  0.767171  0.042039  1
  C  C17  1  0.370392  0.272110  0.680001  1
  C  C18  1  0.752857  0.998070  0.150606  1
  C  C19  1  0.629608  0.727890  0.319999  1
  C  C20  1  0.117205  0.575012  0.740223  1
  C  C21  1  0.226520  0.044103  0.628863  1
  C  C22  1  0.882795  0.424988  0.259777  1
  C  C23  1  0.999553  0.616623  0.347659  1
  C  C24  1  0.364431  0.232829  0.957961  1
  C  C25  1  0.541517  0.932939  0.694749  1
  Cl  Cl26  1  0.466787  0.316579  0.559419  1
  Cl  Cl27  1  0.533213  0.683421  0.440581  1
  O  O28  1  0.093856  0.604133  0.412060  1
  O  O29  1  0.908052  0.362779  0.952040  1
  O  O30  1  0.814912  0.079512  0.788123  1
  O  O31  1  0.508512  0.431364  0.170687  1
  O  O32  1  0.906144  0.395867  0.587940  1
  O  O33  1  0.185088  0.920488  0.211877  1
  O  O34  1  0.675590  0.829830  0.669132  1
  O  O35  1  0.322868  0.210315  0.047342  1
  O  O36  1  0.677132  0.789685  0.952658  1
  O  O37  1  0.196954  0.944425  0.924935  1
  O  O38  1  0.161607  0.012603  0.561139  1
  O  O39  1  0.897642  0.292104  0.270216  1
  O  O40  1  0.803046  0.055575  0.075065  1
  O  O41  1  0.838393  0.987397  0.438861  1
  O  O42  1  0.091948  0.637221  0.047960  1
  O  O43  1  0.491488  0.568636  0.829313  1
  O  O44  1  0.102358  0.707896  0.729784  1
  O  O45  1  0.324410  0.170170  0.330868  1
