# generated using pymatgen
data_BaH4O3
_symmetry_space_group_name_H-M   'P 1'
_cell_length_a   7.19083190
_cell_length_b   4.16636834
_cell_length_c   6.42792196
_cell_angle_alpha   90.71590433
_cell_angle_beta   109.32295284
_cell_angle_gamma   89.40556937
_symmetry_Int_Tables_number   1
_chemical_formula_structural   BaH4O3
_chemical_formula_sum   'Ba2 H8 O6'
_cell_volume   181.71192921
_cell_formula_units_Z   2
loop_
 _symmetry_equiv_pos_site_id
 _symmetry_equiv_pos_as_xyz
  1  'x, y, z'
loop_
 _atom_site_type_symbol
 _atom_site_label
 _atom_site_symmetry_multiplicity
 _atom_site_fract_x
 _atom_site_fract_y
 _atom_site_fract_z
 _atom_site_occupancy
  Ba  Ba0  1  0.281970  0.251449  0.134704  1
  Ba  Ba1  1  0.721372  0.745896  0.856899  1
  H  H2  1  0.062167  0.751784  0.350605  1
  H  H3  1  0.935675  0.245723  0.644331  1
  H  H4  1  0.167879  0.750135  0.767422  1
  H  H5  1  0.837244  0.246084  0.224415  1
  H  H6  1  0.661076  0.558985  0.314882  1
  H  H7  1  0.661711  0.944354  0.319375  1
  H  H8  1  0.340668  0.050456  0.658806  1
  H  H9  1  0.344037  0.434372  0.674270  1
  O  O10  1  0.621353  0.752099  0.389500  1
  O  O11  1  0.386537  0.243760  0.597941  1
  O  O12  1  0.063564  0.757750  0.200251  1
  O  O13  1  0.940212  0.235752  0.796617  1
  O  O14  1  0.311258  0.731489  0.818970  1
  O  O15  1  0.693405  0.249208  0.171175  1
