# generated using pymatgen
data_InS
_symmetry_space_group_name_H-M   'P 1'
_cell_length_a   4.08621816
_cell_length_b   4.11725059
_cell_length_c   11.19883426
_cell_angle_alpha   90.00000000
_cell_angle_beta   90.00000000
_cell_angle_gamma   92.33641759
_symmetry_Int_Tables_number   1
_chemical_formula_structural   InS
_chemical_formula_sum   'In4 S4'
_cell_volume   188.25238286
_cell_formula_units_Z   4
loop_
 _symmetry_equiv_pos_site_id
 _symmetry_equiv_pos_as_xyz
  1  'x, y, z'
loop_
 _atom_site_type_symbol
 _atom_site_label
 _atom_site_symmetry_multiplicity
 _atom_site_fract_x
 _atom_site_fract_y
 _atom_site_fract_z
 _atom_site_occupancy
  In  In0  1  0.043755  0.934377  0.876780  1
  In  In1  1  0.543755  0.434377  0.623220  1
  In  In2  1  0.956245  0.065623  0.123220  1
  In  In3  1  0.456245  0.565623  0.376780  1
  S  S4  1  0.003747  0.000547  0.349066  1
  S  S5  1  0.496253  0.499453  0.849066  1
  S  S6  1  0.996253  0.999453  0.650934  1
  S  S7  1  0.503747  0.500547  0.150934  1
