# generated using pymatgen
data_FeS2
_symmetry_space_group_name_H-M   'P 1'
_cell_length_a   5.60840931
_cell_length_b   6.43000498
_cell_length_c   5.69548733
_cell_angle_alpha   90.01452275
_cell_angle_beta   89.99754482
_cell_angle_gamma   89.99978938
_symmetry_Int_Tables_number   1
_chemical_formula_structural   FeS2
_chemical_formula_sum   'Fe4 S8'
_cell_volume   205.39122552
_cell_formula_units_Z   4
loop_
 _symmetry_equiv_pos_site_id
 _symmetry_equiv_pos_as_xyz
  1  'x, y, z'
loop_
 _atom_site_type_symbol
 _atom_site_label
 _atom_site_symmetry_multiplicity
 _atom_site_fract_x
 _atom_site_fract_y
 _atom_site_fract_z
 _atom_site_occupancy
  Fe  Fe0  1  0.000601  0.393163  0.001004  1
  Fe  Fe1  1  0.499432  0.393333  0.500941  1
  Fe  Fe2  1  0.999400  0.606659  0.500832  1
  Fe  Fe3  1  0.500556  0.606826  0.000887  1
  S  S4  1  0.860715  0.733687  0.134417  1
  S  S5  1  0.360412  0.730245  0.366292  1
  S  S6  1  0.639553  0.269901  0.866219  1
  S  S7  1  0.139510  0.730186  0.866311  1
  S  S8  1  0.860390  0.269764  0.366261  1
  S  S9  1  0.139389  0.266275  0.634376  1
  S  S10  1  0.360811  0.266297  0.134459  1
  S  S11  1  0.639230  0.733662  0.634400  1
