# generated using pymatgen
data_Cu3BiSe2IO8
_symmetry_space_group_name_H-M   'P 1'
_cell_length_a   6.46661474
_cell_length_b   7.44800850
_cell_length_c   9.82356831
_cell_angle_alpha   90.00000000
_cell_angle_beta   90.00000000
_cell_angle_gamma   90.00000000
_symmetry_Int_Tables_number   1
_chemical_formula_structural   Cu3BiSe2IO8
_chemical_formula_sum   'Cu6 Bi2 Se4 I2 O16'
_cell_volume   473.13646517
_cell_formula_units_Z   2
loop_
 _symmetry_equiv_pos_site_id
 _symmetry_equiv_pos_as_xyz
  1  'x, y, z'
loop_
 _atom_site_type_symbol
 _atom_site_label
 _atom_site_symmetry_multiplicity
 _atom_site_fract_x
 _atom_site_fract_y
 _atom_site_fract_z
 _atom_site_occupancy
  Cu  Cu0  1  0.250000  0.795221  0.250000  1
  Cu  Cu1  1  0.750000  0.204779  0.750000  1
  Cu  Cu2  1  0.500000  0.000000  0.500000  1
  Cu  Cu3  1  0.000000  0.000000  0.000000  1
  Cu  Cu4  1  0.000000  0.000000  0.500000  1
  Cu  Cu5  1  0.500000  0.000000  0.000000  1
  Bi  Bi6  1  0.250000  0.241265  0.250000  1
  Bi  Bi7  1  0.750000  0.758735  0.750000  1
  Se  Se8  1  0.750000  0.384634  0.443280  1
  Se  Se9  1  0.250000  0.615366  0.556720  1
  Se  Se10  1  0.750000  0.384634  0.056720  1
  Se  Se11  1  0.250000  0.615366  0.943280  1
  I  I12  1  0.250000  0.170828  0.750000  1
  I  I13  1  0.750000  0.829172  0.250000  1
  O  O14  1  0.039422  0.759082  0.914887  1
  O  O15  1  0.960578  0.240918  0.414887  1
  O  O16  1  0.250000  0.991813  0.385730  1
  O  O17  1  0.750000  0.008187  0.885730  1
  O  O18  1  0.750000  0.406927  0.882669  1
  O  O19  1  0.539422  0.240918  0.085113  1
  O  O20  1  0.460578  0.759082  0.914887  1
  O  O21  1  0.250000  0.593073  0.382669  1
  O  O22  1  0.539422  0.240918  0.414887  1
  O  O23  1  0.460578  0.759082  0.585113  1
  O  O24  1  0.750000  0.406927  0.617331  1
  O  O25  1  0.750000  0.008187  0.614270  1
  O  O26  1  0.960578  0.240918  0.085113  1
  O  O27  1  0.250000  0.991813  0.114270  1
  O  O28  1  0.039422  0.759082  0.585113  1
  O  O29  1  0.250000  0.593073  0.117331  1
