# generated using pymatgen
data_ZnBr2
_symmetry_space_group_name_H-M   'P 1'
_cell_length_a   11.83130118
_cell_length_b   11.83130131
_cell_length_c   13.95316163
_cell_angle_alpha   115.08516058
_cell_angle_beta   115.08516083
_cell_angle_gamma   90.00000026
_symmetry_Int_Tables_number   1
_chemical_formula_structural   ZnBr2
_chemical_formula_sum   'Zn16 Br32'
_cell_volume   1563.14686762
_cell_formula_units_Z   16
loop_
 _symmetry_equiv_pos_site_id
 _symmetry_equiv_pos_as_xyz
  1  'x, y, z'
loop_
 _atom_site_type_symbol
 _atom_site_label
 _atom_site_symmetry_multiplicity
 _atom_site_fract_x
 _atom_site_fract_y
 _atom_site_fract_z
 _atom_site_occupancy
  Zn  Zn0  1  0.811986  0.077667  0.873921  1
  Zn  Zn1  1  0.796254  0.561935  0.373921  1
  Zn  Zn2  1  0.311986  0.796254  0.873921  1
  Zn  Zn3  1  0.077667  0.061935  0.373921  1
  Zn  Zn4  1  0.438065  0.422333  0.126079  1
  Zn  Zn5  1  0.203746  0.438065  0.626079  1
  Zn  Zn6  1  0.688014  0.203746  0.126079  1
  Zn  Zn7  1  0.422333  0.688014  0.626079  1
  Zn  Zn8  1  0.061935  0.296254  0.873921  1
  Zn  Zn9  1  0.577667  0.311986  0.373921  1
  Zn  Zn10  1  0.188014  0.922333  0.126079  1
  Zn  Zn11  1  0.703746  0.188014  0.626079  1
  Zn  Zn12  1  0.922333  0.938065  0.626079  1
  Zn  Zn13  1  0.938065  0.703746  0.126079  1
  Zn  Zn14  1  0.296254  0.811986  0.373921  1
  Zn  Zn15  1  0.561935  0.577667  0.873921  1
  Br  Br16  1  0.250000  0.974947  0.000000  1
  Br  Br17  1  0.390114  0.384694  0.751534  1
  Br  Br18  1  0.366839  0.861419  0.251534  1
  Br  Br19  1  0.501993  0.751993  0.003986  1
  Br  Br20  1  0.361419  0.866839  0.751534  1
  Br  Br21  1  0.609886  0.615306  0.248466  1
  Br  Br22  1  0.615306  0.638581  0.748466  1
  Br  Br23  1  0.001993  0.251993  0.003986  1
  Br  Br24  1  0.633161  0.138581  0.748466  1
  Br  Br25  1  0.866839  0.390114  0.251534  1
  Br  Br26  1  0.498007  0.248007  0.996014  1
  Br  Br27  1  0.525053  0.250000  0.500000  1
  Br  Br28  1  0.861419  0.884694  0.751534  1
  Br  Br29  1  0.250000  0.474947  0.000000  1
  Br  Br30  1  0.998007  0.748007  0.996014  1
  Br  Br31  1  0.974947  0.750000  0.500000  1
  Br  Br32  1  0.474947  0.750000  0.500000  1
  Br  Br33  1  0.750000  0.025053  1.000000  1
  Br  Br34  1  0.133161  0.609886  0.748466  1
  Br  Br35  1  0.890114  0.366839  0.751534  1
  Br  Br36  1  0.751993  0.501993  0.503986  1
  Br  Br37  1  0.884694  0.890114  0.251534  1
  Br  Br38  1  0.138581  0.115306  0.248466  1
  Br  Br39  1  0.109886  0.633161  0.248466  1
  Br  Br40  1  0.251993  0.001993  0.503986  1
  Br  Br41  1  0.384694  0.361419  0.251534  1
  Br  Br42  1  0.750000  0.525053  1.000000  1
  Br  Br43  1  0.748007  0.998007  0.496014  1
  Br  Br44  1  0.638581  0.133161  0.248466  1
  Br  Br45  1  0.025053  0.250000  0.500000  1
  Br  Br46  1  0.248007  0.498007  0.496014  1
  Br  Br47  1  0.115306  0.109886  0.748466  1
