# generated using pymatgen
data_PC2S2N3
_symmetry_space_group_name_H-M   'P 1'
_cell_length_a   8.19788839
_cell_length_b   10.51265918
_cell_length_c   11.98840329
_cell_angle_alpha   99.40581476
_cell_angle_beta   97.10780423
_cell_angle_gamma   95.81936767
_symmetry_Int_Tables_number   1
_chemical_formula_structural   PC2S2N3
_chemical_formula_sum   'P6 C12 S12 N18'
_cell_volume   1003.62137274
_cell_formula_units_Z   6
loop_
 _symmetry_equiv_pos_site_id
 _symmetry_equiv_pos_as_xyz
  1  'x, y, z'
loop_
 _atom_site_type_symbol
 _atom_site_label
 _atom_site_symmetry_multiplicity
 _atom_site_fract_x
 _atom_site_fract_y
 _atom_site_fract_z
 _atom_site_occupancy
  P  P0  1  0.818897  0.151812  0.361425  1
  P  P1  1  0.034799  0.747369  0.808713  1
  P  P2  1  0.914433  0.985143  0.182123  1
  P  P3  1  0.181103  0.848188  0.638575  1
  P  P4  1  0.085567  0.014857  0.817877  1
  P  P5  1  0.965201  0.252631  0.191287  1
  C  C6  1  0.801843  0.140149  0.794858  1
  C  C7  1  0.267377  0.407928  0.279724  1
  C  C8  1  0.493047  0.144105  0.416384  1
  C  C9  1  0.993663  0.268779  0.564179  1
  C  C10  1  0.813284  0.420130  0.065933  1
  C  C11  1  0.732623  0.592072  0.720276  1
  C  C12  1  0.186716  0.579870  0.934067  1
  C  C13  1  0.198157  0.859851  0.205142  1
  C  C14  1  0.506953  0.855895  0.583616  1
  C  C15  1  0.666656  0.868744  0.003200  1
  C  C16  1  0.006337  0.731221  0.435821  1
  C  C17  1  0.333344  0.131256  0.996800  1
  S  S18  1  0.421214  0.499067  0.348818  1
  S  S19  1  0.578786  0.500933  0.651182  1
  S  S20  1  0.102487  0.379838  0.651731  1
  S  S21  1  0.375632  0.818424  0.222155  1
  S  S22  1  0.532323  0.831824  0.895302  1
  S  S23  1  0.897513  0.620162  0.348269  1
  S  S24  1  0.467677  0.168176  0.104698  1
  S  S25  1  0.677996  0.868801  0.539071  1
  S  S26  1  0.271859  0.467288  0.977075  1
  S  S27  1  0.322004  0.131199  0.460929  1
  S  S28  1  0.728141  0.532712  0.022925  1
  S  S29  1  0.624368  0.181576  0.777845  1
  N  N30  1  0.622700  0.155282  0.378769  1
  N  N31  1  0.870723  0.270782  0.300293  1
  N  N32  1  0.020039  0.891613  0.869202  1
  N  N33  1  0.847747  0.664456  0.778130  1
  N  N34  1  0.846952  0.010386  0.302228  1
  N  N35  1  0.979961  0.108387  0.130798  1
  N  N36  1  0.231000  0.109754  0.911803  1
  N  N37  1  0.129277  0.729218  0.699707  1
  N  N38  1  0.911132  0.178557  0.496911  1
  N  N39  1  0.878137  0.329289  0.093828  1
  N  N40  1  0.121863  0.670711  0.906172  1
  N  N41  1  0.769000  0.890246  0.088197  1
  N  N42  1  0.153048  0.989614  0.697772  1
  N  N43  1  0.057438  0.886239  0.191680  1
  N  N44  1  0.377300  0.844718  0.621231  1
  N  N45  1  0.942562  0.113761  0.808320  1
  N  N46  1  0.088868  0.821443  0.503089  1
  N  N47  1  0.152253  0.335544  0.221870  1
