# generated using pymatgen
data_Ba2AlH7
_symmetry_space_group_name_H-M   'P 1'
_cell_length_a   9.98500166
_cell_length_b   8.81390020
_cell_length_c   9.98500166
_cell_angle_alpha   90.94799236
_cell_angle_beta   117.63825381
_cell_angle_gamma   126.21385044
_symmetry_Int_Tables_number   1
_chemical_formula_structural   Ba2AlH7
_chemical_formula_sum   'Ba8 Al4 H28'
_cell_volume   573.83015340
_cell_formula_units_Z   4
loop_
 _symmetry_equiv_pos_site_id
 _symmetry_equiv_pos_as_xyz
  1  'x, y, z'
loop_
 _atom_site_type_symbol
 _atom_site_label
 _atom_site_symmetry_multiplicity
 _atom_site_fract_x
 _atom_site_fract_y
 _atom_site_fract_z
 _atom_site_occupancy
  Ba  Ba0  1  0.741961  0.170581  0.259304  1
  Ba  Ba1  1  0.088723  0.329419  0.071380  1
  Ba  Ba2  1  0.258039  0.829419  0.740696  1
  Ba  Ba3  1  0.911277  0.670581  0.928620  1
  Ba  Ba4  1  0.761118  0.695207  0.280621  1
  Ba  Ba5  1  0.585415  0.804793  0.565911  1
  Ba  Ba6  1  0.238882  0.304793  0.719379  1
  Ba  Ba7  1  0.414585  0.195207  0.434089  1
  Al  Al8  1  0.120605  0.652405  0.318208  1
  Al  Al9  1  0.665803  0.847595  0.968200  1
  Al  Al10  1  0.879395  0.347595  0.681792  1
  Al  Al11  1  0.334197  0.152405  0.031800  1
  H  H12  1  0.971230  0.577069  0.390604  1
  H  H13  1  0.813535  0.922931  0.894161  1
  H  H14  1  0.028770  0.422931  0.609396  1
  H  H15  1  0.186465  0.077069  0.105839  1
  H  H16  1  0.158052  0.481845  0.377048  1
  H  H17  1  0.895203  0.018155  0.176207  1
  H  H18  1  0.841948  0.518155  0.622952  1
  H  H19  1  0.104797  0.981845  0.823793  1
  H  H20  1  0.339518  0.856877  0.512003  1
  H  H21  1  0.655126  0.643123  0.982641  1
  H  H22  1  0.660482  0.143123  0.487997  1
  H  H23  1  0.344874  0.356877  0.017359  1
  H  H24  1  0.279485  0.724666  0.253921  1
  H  H25  1  0.529255  0.775334  0.054818  1
  H  H26  1  0.720515  0.275334  0.746079  1
  H  H27  1  0.470745  0.224666  0.945182  1
  H  H28  1  0.067985  0.803784  0.247195  1
  H  H29  1  0.443411  0.696216  0.764201  1
  H  H30  1  0.932015  0.196216  0.752805  1
  H  H31  1  0.556589  0.303784  0.235799  1
  H  H32  1  0.910990  0.449666  0.123593  1
  H  H33  1  0.673927  0.050334  0.961324  1
  H  H34  1  0.089010  0.550334  0.876407  1
  H  H35  1  0.326073  0.949666  0.038676  1
  H  H36  1  0.463817  0.510503  0.337720  1
  H  H37  1  0.827218  0.989497  0.453314  1
  H  H38  1  0.536183  0.489497  0.662280  1
  H  H39  1  0.172782  0.010503  0.546686  1
