# generated using pymatgen
data_CeIn4Pd
_symmetry_space_group_name_H-M   'P 1'
_cell_length_a   4.56238736
_cell_length_b   7.39778817
_cell_length_c   8.85002318
_cell_angle_alpha   90.22894666
_cell_angle_beta   104.89673590
_cell_angle_gamma   89.99362564
_symmetry_Int_Tables_number   1
_chemical_formula_structural   CeIn4Pd
_chemical_formula_sum   'Ce2 In8 Pd2'
_cell_volume   288.66062484
_cell_formula_units_Z   2
loop_
 _symmetry_equiv_pos_site_id
 _symmetry_equiv_pos_as_xyz
  1  'x, y, z'
loop_
 _atom_site_type_symbol
 _atom_site_label
 _atom_site_symmetry_multiplicity
 _atom_site_fract_x
 _atom_site_fract_y
 _atom_site_fract_z
 _atom_site_occupancy
  Ce  Ce0  1  0.618613  0.247395  0.240926  1
  Ce  Ce1  1  0.377690  0.751806  0.760260  1
  In  In2  1  0.000303  0.497946  0.002116  1
  In  In3  1  0.179450  0.544479  0.366421  1
  In  In4  1  0.182548  0.951248  0.366512  1
  In  In5  1  0.564805  0.751877  0.135140  1
  In  In6  1  0.820184  0.046883  0.634130  1
  In  In7  1  0.816470  0.453856  0.635490  1
  In  In8  1  0.996582  0.995602  0.000363  1
  In  In9  1  0.434438  0.247199  0.866655  1
  Pd  Pd10  1  0.723463  0.750235  0.450282  1
  Pd  Pd11  1  0.278838  0.249759  0.552611  1
