# generated using pymatgen
data_H9BrO4
_symmetry_space_group_name_H-M   'P 1'
_cell_length_a   7.18671137
_cell_length_b   11.91965475
_cell_length_c   7.14707541
_cell_angle_alpha   90.00000000
_cell_angle_beta   109.43231887
_cell_angle_gamma   90.00000000
_symmetry_Int_Tables_number   1
_chemical_formula_structural   H9BrO4
_chemical_formula_sum   'H36 Br4 O16'
_cell_volume   577.36456028
_cell_formula_units_Z   4
loop_
 _symmetry_equiv_pos_site_id
 _symmetry_equiv_pos_as_xyz
  1  'x, y, z'
loop_
 _atom_site_type_symbol
 _atom_site_label
 _atom_site_symmetry_multiplicity
 _atom_site_fract_x
 _atom_site_fract_y
 _atom_site_fract_z
 _atom_site_occupancy
  H  H0  1  0.330445  0.331595  0.998357  1
  H  H1  1  0.147596  0.264814  0.017110  1
  H  H2  1  0.852404  0.764814  0.982890  1
  H  H3  1  0.669555  0.831595  0.001643  1
  H  H4  1  0.975966  0.192193  0.170712  1
  H  H5  1  0.843944  0.265982  0.996448  1
  H  H6  1  0.024034  0.692193  0.829288  1
  H  H7  1  0.156056  0.765982  0.003552  1
  H  H8  1  0.547044  0.172001  0.810476  1
  H  H9  1  0.539139  0.303414  0.820564  1
  H  H10  1  0.460861  0.803414  0.179436  1
  H  H11  1  0.452956  0.672001  0.189524  1
  H  H12  1  0.841519  0.243123  0.483804  1
  H  H13  1  0.668219  0.250925  0.582260  1
  H  H14  1  0.616661  0.157566  0.376796  1
  H  H15  1  0.331781  0.750925  0.417740  1
  H  H16  1  0.158481  0.743123  0.516196  1
  H  H17  1  0.383339  0.657566  0.623204  1
  H  H18  1  0.121825  0.159741  0.525157  1
  H  H19  1  0.153648  0.239731  0.718129  1
  H  H20  1  0.846352  0.739731  0.281871  1
  H  H21  1  0.878175  0.659741  0.474843  1
  H  H22  1  0.363046  0.368524  0.374631  1
  H  H23  1  0.202303  0.336968  0.478894  1
  H  H24  1  0.636954  0.868524  0.625369  1
  H  H25  1  0.797697  0.836968  0.521106  1
  H  H26  1  0.507724  0.557407  0.829674  1
  H  H27  1  0.399428  0.504737  0.610567  1
  H  H28  1  0.492276  0.057407  0.170326  1
  H  H29  1  0.600572  0.004737  0.389433  1
  H  H30  1  0.874528  0.505169  0.175810  1
  H  H31  1  0.015045  0.517715  0.033483  1
  H  H32  1  0.115296  0.469041  0.273666  1
  H  H33  1  0.125472  0.005169  0.824190  1
  H  H34  1  0.984955  0.017715  0.966517  1
  H  H35  1  0.884704  0.969041  0.726334  1
  Br  Br36  1  0.985172  0.509665  0.739160  1
  Br  Br37  1  0.014828  0.009665  0.260840  1
  Br  Br38  1  0.567530  0.490981  0.132970  1
  Br  Br39  1  0.432470  0.990981  0.867030  1
  O  O40  1  0.259599  0.260268  0.961018  1
  O  O41  1  0.740401  0.760268  0.038982  1
  O  O42  1  0.969777  0.267135  0.108520  1
  O  O43  1  0.030223  0.767135  0.891480  1
  O  O44  1  0.613408  0.241791  0.789773  1
  O  O45  1  0.386592  0.741791  0.210227  1
  O  O46  1  0.693450  0.244221  0.452575  1
  O  O47  1  0.306550  0.744221  0.547425  1
  O  O48  1  0.094938  0.234946  0.567601  1
  O  O49  1  0.905062  0.734946  0.432399  1
  O  O50  1  0.271302  0.401213  0.435172  1
  O  O51  1  0.728698  0.901213  0.564828  1
  O  O52  1  0.473642  0.570861  0.683658  1
  O  O53  1  0.526358  0.070861  0.316342  1
  O  O54  1  0.014391  0.523914  0.179018  1
  O  O55  1  0.985609  0.023914  0.820982  1
