# generated using pymatgen
data_Tb(GaFe)6
_symmetry_space_group_name_H-M   'P 1'
_cell_length_a   5.14775213
_cell_length_b   6.68487508
_cell_length_c   6.69241147
_cell_angle_alpha   80.39096589
_cell_angle_beta   67.37809252
_cell_angle_gamma   67.34518558
_symmetry_Int_Tables_number   1
_chemical_formula_structural   Tb(GaFe)6
_chemical_formula_sum   'Tb1 Ga6 Fe6'
_cell_volume   196.13134541
_cell_formula_units_Z   1
loop_
 _symmetry_equiv_pos_site_id
 _symmetry_equiv_pos_as_xyz
  1  'x, y, z'
loop_
 _atom_site_type_symbol
 _atom_site_label
 _atom_site_symmetry_multiplicity
 _atom_site_fract_x
 _atom_site_fract_y
 _atom_site_fract_z
 _atom_site_occupancy
  Tb  Tb0  1  0.004480  0.997031  0.998349  1
  Ga  Ga1  1  0.689838  0.808294  0.812375  1
  Ga  Ga2  1  0.348792  0.651183  0.656469  1
  Ga  Ga3  1  0.653416  0.343193  0.345029  1
  Ga  Ga4  1  0.998291  0.333474  0.666650  1
  Ga  Ga5  1  0.316417  0.186080  0.189339  1
  Ga  Ga6  1  0.998315  0.663507  0.330895  1
  Fe  Fe7  1  0.501314  0.754895  0.243238  1
  Fe  Fe8  1  0.505838  0.237752  0.758181  1
  Fe  Fe9  1  0.502716  0.998556  0.502386  1
  Fe  Fe10  1  0.502233  0.496593  0.000280  1
  Fe  Fe11  1  0.005970  0.995104  0.501012  1
  Fe  Fe12  1  0.004478  0.494583  0.999078  1
