# generated using pymatgen
data_Tb14(PbSe8)3
_symmetry_space_group_name_H-M   'P 1'
_cell_length_a   7.64666778
_cell_length_b   7.64666778
_cell_length_c   22.93753128
_cell_angle_alpha   109.35258959
_cell_angle_beta   109.29485889
_cell_angle_gamma   109.77096246
_symmetry_Int_Tables_number   1
_chemical_formula_structural   Tb14(PbSe8)3
_chemical_formula_sum   'Tb14 Pb3 Se24'
_cell_volume   1032.37401668
_cell_formula_units_Z   1
loop_
 _symmetry_equiv_pos_site_id
 _symmetry_equiv_pos_as_xyz
  1  'x, y, z'
loop_
 _atom_site_type_symbol
 _atom_site_label
 _atom_site_symmetry_multiplicity
 _atom_site_fract_x
 _atom_site_fract_y
 _atom_site_fract_z
 _atom_site_occupancy
  Tb  Tb0  1  0.127545  0.755936  0.962508  1
  Tb  Tb1  1  0.248432  0.620110  0.790103  1
  Tb  Tb2  1  0.119564  0.749018  0.621986  1
  Tb  Tb3  1  0.383062  0.253607  0.878014  1
  Tb  Tb4  1  0.239758  0.607727  0.448946  1
  Tb  Tb5  1  0.108121  0.748962  0.288948  1
  Tb  Tb6  1  0.749802  0.878124  0.709897  1
  Tb  Tb7  1  0.368411  0.240019  0.537492  1
  Tb  Tb8  1  0.257178  0.638082  0.127744  1
  Tb  Tb9  1  0.618392  0.370878  0.413159  1
  Tb  Tb10  1  0.754850  0.873946  0.372256  1
  Tb  Tb11  1  0.382117  0.241276  0.211052  1
  Tb  Tb12  1  0.631403  0.378916  0.086841  1
  Tb  Tb13  1  0.760889  0.892920  0.051054  1
  Pb  Pb14  1  0.625268  0.375268  0.750000  1
  Pb  Pb15  1  0.876684  0.125120  0.917720  1
  Pb  Pb16  1  0.871959  0.123523  0.582280  1
  Se  Se17  1  0.014365  0.859662  0.832805  1
  Se  Se18  1  0.019968  0.368208  0.837892  1
  Se  Se19  1  0.000215  0.848431  0.496560  1
  Se  Se20  1  0.997226  0.362616  0.495679  1
  Se  Se21  1  0.139729  0.137754  0.717113  1
  Se  Se22  1  0.354532  0.506292  0.662108  1
  Se  Se23  1  0.638081  0.646238  0.885430  1
  Se  Se24  1  0.003864  0.852329  0.167773  1
  Se  Se25  1  0.495730  0.002780  0.956358  1
  Se  Se26  1  0.489948  0.981791  0.614570  1
  Se  Se27  1  0.489095  0.993489  0.448087  1
  Se  Se28  1  0.486415  0.988390  0.782887  1
  Se  Se29  1  0.006056  0.368529  0.165755  1
  Se  Se30  1  0.151369  0.149055  0.383907  1
  Se  Se31  1  0.371266  0.508792  0.334245  1
  Se  Se32  1  0.633704  0.626654  0.543642  1
  Se  Se33  1  0.488460  0.991623  0.287074  1
  Se  Se34  1  0.861244  0.515947  0.667195  1
  Se  Se35  1  0.149227  0.144833  0.051913  1
  Se  Se36  1  0.375578  0.510189  0.004321  1
  Se  Se37  1  0.630401  0.627238  0.212926  1
  Se  Se38  1  0.849010  0.500545  0.332227  1
  Se  Se39  1  0.497335  0.999649  0.116093  1
  Se  Se40  1  0.858750  0.510534  0.003440  1
