# generated using pymatgen
data_U2InRh2
_symmetry_space_group_name_H-M   'P 1'
_cell_length_a   3.57744410
_cell_length_b   7.63805026
_cell_length_c   7.64108200
_cell_angle_alpha   89.71214373
_cell_angle_beta   89.94438466
_cell_angle_gamma   89.94580216
_symmetry_Int_Tables_number   1
_chemical_formula_structural   U2InRh2
_chemical_formula_sum   'U4 In2 Rh4'
_cell_volume   208.78743101
_cell_formula_units_Z   2
loop_
 _symmetry_equiv_pos_site_id
 _symmetry_equiv_pos_as_xyz
  1  'x, y, z'
loop_
 _atom_site_type_symbol
 _atom_site_label
 _atom_site_symmetry_multiplicity
 _atom_site_fract_x
 _atom_site_fract_y
 _atom_site_fract_z
 _atom_site_occupancy
  U  U0  1  0.500553  0.834573  0.334622  1
  U  U1  1  0.499931  0.665353  0.834419  1
  U  U2  1  0.499743  0.334649  0.165402  1
  U  U3  1  0.499962  0.165593  0.665222  1
  In  In4  1  0.000250  -0.000187  0.999864  1
  In  In5  1  -0.000227  0.500017  0.500072  1
  Rh  Rh6  1  0.000517  0.637843  0.137942  1
  Rh  Rh7  1  -0.000630  0.362148  0.862089  1
  Rh  Rh8  1  -0.000283  0.862071  0.638036  1
  Rh  Rh9  1  0.000184  0.137941  0.362333  1
