# generated using pymatgen
data_ZnFeC5N6O
_symmetry_space_group_name_H-M   'P 1'
_cell_length_a   12.59847583
_cell_length_b   12.59847600
_cell_length_c   12.59847674
_cell_angle_alpha   99.95492201
_cell_angle_beta   99.95492211
_cell_angle_gamma   99.95492060
_symmetry_Int_Tables_number   1
_chemical_formula_structural   ZnFeC5N6O
_chemical_formula_sum   'Zn6 Fe6 C30 N36 O6'
_cell_volume   1897.04725710
_cell_formula_units_Z   6
loop_
 _symmetry_equiv_pos_site_id
 _symmetry_equiv_pos_as_xyz
  1  'x, y, z'
loop_
 _atom_site_type_symbol
 _atom_site_label
 _atom_site_symmetry_multiplicity
 _atom_site_fract_x
 _atom_site_fract_y
 _atom_site_fract_z
 _atom_site_occupancy
  Zn  Zn0  1  0.914792  0.370150  0.218870  1
  Zn  Zn1  1  0.218870  0.914792  0.370150  1
  Zn  Zn2  1  0.781130  0.085208  0.629850  1
  Zn  Zn3  1  0.085208  0.629850  0.781130  1
  Zn  Zn4  1  0.370150  0.218870  0.914792  1
  Zn  Zn5  1  0.629850  0.781130  0.085208  1
  Fe  Fe6  1  0.710058  0.444205  0.839072  1
  Fe  Fe7  1  0.444205  0.839072  0.710058  1
  Fe  Fe8  1  0.839072  0.710058  0.444205  1
  Fe  Fe9  1  0.555795  0.160928  0.289942  1
  Fe  Fe10  1  0.160928  0.289942  0.555795  1
  Fe  Fe11  1  0.289942  0.555795  0.160928  1
  C  C12  1  0.160610  0.145001  0.479749  1
  C  C13  1  0.854999  0.520251  0.839390  1
  C  C14  1  0.425508  0.065300  0.306402  1
  C  C15  1  0.780361  0.747781  0.308060  1
  C  C16  1  0.876116  0.585582  0.362467  1
  C  C17  1  0.747781  0.308060  0.780361  1
  C  C18  1  0.691940  0.219639  0.252219  1
  C  C19  1  0.219639  0.252219  0.691940  1
  C  C20  1  0.308060  0.780361  0.747781  1
  C  C21  1  0.011092  0.212643  0.590708  1
  C  C22  1  0.637533  0.123884  0.414418  1
  C  C23  1  0.145001  0.479749  0.160610  1
  C  C24  1  0.839390  0.854999  0.520251  1
  C  C25  1  0.988908  0.787357  0.409292  1
  C  C26  1  0.590708  0.011092  0.212643  1
  C  C27  1  0.065300  0.306402  0.425508  1
  C  C28  1  0.585582  0.362467  0.876116  1
  C  C29  1  0.934700  0.693598  0.574492  1
  C  C30  1  0.574492  0.934700  0.693598  1
  C  C31  1  0.252219  0.691940  0.219639  1
  C  C32  1  0.479749  0.160610  0.145001  1
  C  C33  1  0.409292  0.988908  0.787357  1
  C  C34  1  0.520251  0.839390  0.854999  1
  C  C35  1  0.362467  0.876116  0.585582  1
  C  C36  1  0.693598  0.574492  0.934700  1
  C  C37  1  0.212643  0.590708  0.011092  1
  C  C38  1  0.306402  0.425508  0.065300  1
  C  C39  1  0.414418  0.637533  0.123884  1
  C  C40  1  0.787357  0.409292  0.988908  1
  C  C41  1  0.123884  0.414418  0.637533  1
  N  N42  1  0.830588  0.385831  0.068514  1
  N  N43  1  0.493331  0.688521  0.106842  1
  N  N44  1  0.737844  0.765732  0.225120  1
  N  N45  1  0.344662  0.012398  0.318132  1
  N  N46  1  0.828240  0.938243  0.568826  1
  N  N47  1  0.431174  0.171760  0.061757  1
  N  N48  1  0.271530  0.347699  0.538951  1
  N  N49  1  0.614169  0.931486  0.169412  1
  N  N50  1  0.538951  0.271530  0.347699  1
  N  N51  1  0.681868  0.655338  0.987602  1
  N  N52  1  0.169412  0.614169  0.931486  1
  N  N53  1  0.061757  0.431174  0.171760  1
  N  N54  1  0.225120  0.737844  0.765732  1
  N  N55  1  0.347699  0.538951  0.271530  1
  N  N56  1  0.311479  0.893158  0.506669  1
  N  N57  1  0.765732  0.225120  0.737844  1
  N  N58  1  0.652301  0.461049  0.728470  1
  N  N59  1  0.568826  0.828240  0.938243  1
  N  N60  1  0.012398  0.318132  0.344662  1
  N  N61  1  0.938243  0.568826  0.828240  1
  N  N62  1  0.318132  0.344662  0.012398  1
  N  N63  1  0.931486  0.169412  0.614169  1
  N  N64  1  0.262156  0.234268  0.774880  1
  N  N65  1  0.688521  0.106842  0.493331  1
  N  N66  1  0.987602  0.681868  0.655338  1
  N  N67  1  0.893158  0.506669  0.311479  1
  N  N68  1  0.728470  0.652301  0.461049  1
  N  N69  1  0.461049  0.728470  0.652301  1
  N  N70  1  0.068514  0.830588  0.385831  1
  N  N71  1  0.234268  0.774880  0.262156  1
  N  N72  1  0.171760  0.061757  0.431174  1
  N  N73  1  0.106842  0.493331  0.688521  1
  N  N74  1  0.774880  0.262156  0.234268  1
  N  N75  1  0.655338  0.987602  0.681868  1
  N  N76  1  0.385831  0.068514  0.830588  1
  N  N77  1  0.506669  0.311479  0.893158  1
  O  O78  1  0.934805  0.113702  0.050957  1
  O  O79  1  0.050957  0.934805  0.113702  1
  O  O80  1  0.113702  0.050957  0.934805  1
  O  O81  1  0.886298  0.949043  0.065195  1
  O  O82  1  0.949043  0.065195  0.886298  1
  O  O83  1  0.065195  0.886298  0.949043  1
