# generated using pymatgen
data_Na7Al11Si13(AgO12)4
_symmetry_space_group_name_H-M   'P 1'
_cell_length_a   12.38065842
_cell_length_b   12.20596551
_cell_length_c   12.45929431
_cell_angle_alpha   89.85749857
_cell_angle_beta   89.51564107
_cell_angle_gamma   88.26245350
_symmetry_Int_Tables_number   1
_chemical_formula_structural   Na7Al11Si13(AgO12)4
_chemical_formula_sum   'Na7 Al11 Si13 Ag4 O48'
_cell_volume   1881.88461870
_cell_formula_units_Z   1
loop_
 _symmetry_equiv_pos_site_id
 _symmetry_equiv_pos_as_xyz
  1  'x, y, z'
loop_
 _atom_site_type_symbol
 _atom_site_label
 _atom_site_symmetry_multiplicity
 _atom_site_fract_x
 _atom_site_fract_y
 _atom_site_fract_z
 _atom_site_occupancy
  Na  Na0  1  0.291575  0.522302  0.999055  1
  Na  Na1  1  0.405753  0.133289  0.383797  1
  Na  Na2  1  0.417415  0.121968  0.626421  1
  Na  Na3  1  0.744391  0.276544  0.959233  1
  Na  Na4  1  0.501441  0.689913  0.002839  1
  Na  Na5  1  0.650976  0.909238  0.230217  1
  Na  Na6  1  0.653624  0.930284  0.791472  1
  Al  Al7  1  0.226262  0.292523  0.999407  1
  Al  Al8  1  0.237883  0.126660  0.818814  1
  Al  Al9  1  0.249301  0.923582  0.004538  1
  Al  Al10  1  0.499974  0.131193  0.179297  1
  Al  Al11  1  0.497416  0.331732  0.000099  1
  Al  Al12  1  0.508260  0.144998  0.829037  1
  Al  Al13  1  0.492544  0.934764  0.006128  1
  Al  Al14  1  0.691216  0.125699  0.373401  1
  Al  Al15  1  0.697790  0.121903  0.629463  1
  Al  Al16  1  0.690680  0.503901  0.001665  1
  Al  Al17  1  0.720691  0.775693  0.997077  1
  Si  Si18  1  0.867696  0.495253  0.187432  1
  Si  Si19  1  0.880613  0.310992  0.373108  1
  Si  Si20  1  0.883341  0.309540  0.625727  1
  Si  Si21  1  0.877492  0.755062  0.186883  1
  Si  Si22  1  0.873171  0.490375  0.816024  1
  Si  Si23  1  0.883403  0.938827  0.368008  1
  Si  Si24  1  0.884691  0.752997  0.809166  1
  Si  Si25  1  0.887882  0.934696  0.624655  1
  Si  Si26  1  0.066528  0.118682  0.621814  1
  Si  Si27  1  0.057850  0.742482  0.999356  1
  Si  Si28  1  0.059760  0.119921  0.367335  1
  Si  Si29  1  0.046395  0.489154  0.002141  1
  Si  Si30  1  0.238196  0.118682  0.181796  1
  Ag  Ag31  1  0.076373  0.935935  0.814516  1
  Ag  Ag32  1  0.646367  0.347398  0.751745  1
  Ag  Ag33  1  0.661131  0.326359  0.213738  1
  Ag  Ag34  1  0.678737  0.050703  0.023113  1
  O  O35  1  0.881355  0.422132  0.297674  1
  O  O36  1  0.882154  0.350550  0.499849  1
  O  O37  1  0.855217  0.626128  0.219012  1
  O  O38  1  0.886350  0.418254  0.704581  1
  O  O39  1  0.894523  0.824916  0.297432  1
  O  O40  1  0.866528  0.622068  0.784967  1
  O  O41  1  0.986976  0.226306  0.646249  1
  O  O42  1  0.981298  0.758629  0.105712  1
  O  O43  1  0.987344  0.232981  0.346903  1
  O  O44  1  0.972393  0.475581  0.110220  1
  O  O45  1  0.993673  0.767954  0.883325  1
  O  O46  1  0.995903  0.006993  0.651853  1
  O  O47  1  0.976748  0.466007  0.892977  1
  O  O48  1  0.986600  0.014354  0.339556  1
  O  O49  1  0.094448  0.114403  0.493873  1
  O  O50  1  0.094709  0.613308  0.993658  1
  O  O51  1  0.172814  0.114925  0.301203  1
  O  O52  1  0.153106  0.417740  0.012793  1
  O  O53  1  0.162163  0.812880  0.004222  1
  O  O54  1  0.177850  0.112836  0.686183  1
  O  O55  1  0.191872  0.221656  0.116340  1
  O  O56  1  0.177715  0.234177  0.885308  1
  O  O57  1  0.231891  0.002042  0.121587  1
  O  O58  1  0.221588  0.998914  0.885814  1
  O  O59  1  0.358803  0.346208  0.999512  1
  O  O60  1  0.374838  0.147361  0.789965  1
  O  O61  1  0.363536  0.141646  0.218637  1
  O  O62  1  0.378147  0.858307  0.999279  1
  O  O63  1  0.551342  0.238548  0.100021  1
  O  O64  1  0.561624  0.264888  0.886742  1
  O  O65  1  0.526682  0.999528  0.128143  1
  O  O66  1  0.537340  0.030133  0.908692  1
  O  O67  1  0.571932  0.131376  0.300001  1
  O  O68  1  0.558625  0.460382  0.008330  1
  O  O69  1  0.597787  0.840351  0.989202  1
  O  O70  1  0.584421  0.117521  0.711732  1
  O  O71  1  0.645029  0.119518  0.503022  1
  O  O72  1  0.693906  0.640901  0.997165  1
  O  O73  1  0.773267  0.244061  0.654501  1
  O  O74  1  0.771532  0.243939  0.347153  1
  O  O75  1  0.763263  0.453100  0.118890  1
  O  O76  1  0.776220  0.813299  0.123151  1
  O  O77  1  0.764343  0.450115  0.881941  1
  O  O78  1  0.785247  0.812059  0.873964  1
  O  O79  1  0.770143  0.003584  0.338406  1
  O  O80  1  0.779934  0.002544  0.662912  1
  O  O81  1  0.902748  0.820037  0.695519  1
  O  O82  1  0.886359  0.904518  0.496507  1
