# generated using pymatgen
data_Sm4Si2S3O7
_symmetry_space_group_name_H-M   'P 1'
_cell_length_a   10.96802996
_cell_length_b   10.96802996
_cell_length_c   10.96802996
_cell_angle_alpha   100.47501067
_cell_angle_beta   114.14810147
_cell_angle_gamma   114.14810150
_symmetry_Int_Tables_number   1
_chemical_formula_structural   Sm4Si2S3O7
_chemical_formula_sum   'Sm16 Si8 S12 O28'
_cell_volume   997.34471364
_cell_formula_units_Z   4
loop_
 _symmetry_equiv_pos_site_id
 _symmetry_equiv_pos_as_xyz
  1  'x, y, z'
loop_
 _atom_site_type_symbol
 _atom_site_label
 _atom_site_symmetry_multiplicity
 _atom_site_fract_x
 _atom_site_fract_y
 _atom_site_fract_z
 _atom_site_occupancy
  O  O0  1  0.250000  0.397636  0.147636  1
  O  O1  1  0.750000  0.147636  0.397636  1
  O  O2  1  0.750000  0.602364  0.852364  1
  O  O3  1  0.250000  0.852364  0.602364  1
  O  O4  1  0.020634  0.825475  0.346109  1
  O  O5  1  0.479366  0.825475  0.804841  1
  O  O6  1  0.479366  0.653891  0.174525  1
  O  O7  1  0.979366  0.804841  0.825475  1
  O  O8  1  0.520634  0.346109  0.825475  1
  O  O9  1  0.520634  0.174525  0.195159  1
  O  O10  1  0.979366  0.174525  0.653891  1
  O  O11  1  0.020634  0.195159  0.174525  1
  O  O12  1  0.770083  0.922055  0.433771  1
  O  O13  1  0.729917  0.163688  0.151972  1
  O  O14  1  0.729917  0.566229  0.077945  1
  O  O15  1  0.988284  0.151972  0.922055  1
  O  O16  1  0.511716  0.433771  0.163688  1
  O  O17  1  0.511716  0.077945  0.848028  1
  O  O18  1  0.988284  0.836312  0.566229  1
  O  O19  1  0.770083  0.848028  0.836312  1
  O  O20  1  0.229917  0.077945  0.566229  1
  O  O21  1  0.270083  0.836312  0.848028  1
  O  O22  1  0.270083  0.433771  0.922055  1
  O  O23  1  0.011716  0.848028  0.077945  1
  O  O24  1  0.488284  0.566229  0.836312  1
  O  O25  1  0.488284  0.922055  0.151972  1
  O  O26  1  0.011716  0.163688  0.433771  1
  O  O27  1  0.229917  0.151972  0.163688  1
  Si  Si28  1  0.374567  0.902896  0.777463  1
  Si  Si29  1  0.125433  0.902896  0.528329  1
  Si  Si30  1  0.125433  0.222537  0.097104  1
  Si  Si31  1  0.625433  0.528329  0.902896  1
  Si  Si32  1  0.874567  0.777463  0.902896  1
  Si  Si33  1  0.874567  0.097104  0.471671  1
  Si  Si34  1  0.625433  0.097104  0.222537  1
  Si  Si35  1  0.374567  0.471671  0.097104  1
  S  S36  1  0.250000  0.125000  0.875000  1
  S  S37  1  0.750000  0.875000  0.125000  1
  S  S38  1  0.750000  0.375000  0.625000  1
  S  S39  1  0.250000  0.625000  0.375000  1
  S  S40  1  0.852227  0.500000  0.352227  1
  S  S41  1  0.852227  0.352227  0.000000  1
  S  S42  1  0.647773  0.647773  0.500000  1
  S  S43  1  0.647773  0.000000  0.647773  1
  S  S44  1  0.147773  0.500000  0.647773  1
  S  S45  1  0.147773  0.647773  0.000000  1
  S  S46  1  0.352227  0.352227  0.500000  1
  S  S47  1  0.352227  0.000000  0.352227  1
  Sm  Sm48  1  0.093455  0.046727  0.296727  1
  Sm  Sm49  1  0.250000  0.296727  0.703273  1
  Sm  Sm50  1  0.250000  0.953273  0.046727  1
  Sm  Sm51  1  0.406545  0.703273  0.953273  1
  Sm  Sm52  1  0.906545  0.953273  0.703273  1
  Sm  Sm53  1  0.750000  0.703273  0.296727  1
  Sm  Sm54  1  0.750000  0.046727  0.953273  1
  Sm  Sm55  1  0.593455  0.296727  0.046727  1
  Sm  Sm56  1  0.013608  0.657370  0.170978  1
  Sm  Sm57  1  0.486392  0.657370  0.643762  1
  Sm  Sm58  1  0.486392  0.829022  0.342630  1
  Sm  Sm59  1  0.986392  0.643762  0.657370  1
  Sm  Sm60  1  0.513608  0.170978  0.657370  1
  Sm  Sm61  1  0.513608  0.342630  0.356238  1
  Sm  Sm62  1  0.986392  0.342630  0.829022  1
  Sm  Sm63  1  0.013608  0.356238  0.342630  1
