# generated using pymatgen
data_GaSe2
_symmetry_space_group_name_H-M   'P 1'
_cell_length_a   19.14660571
_cell_length_b   19.14660610
_cell_length_c   19.14660621
_cell_angle_alpha   109.47122076
_cell_angle_beta   109.47122116
_cell_angle_gamma   109.47121970
_symmetry_Int_Tables_number   1
_chemical_formula_structural   GaSe2
_chemical_formula_sum   'Ga24 Se48'
_cell_volume   5403.23071987
_cell_formula_units_Z   24
loop_
 _symmetry_equiv_pos_site_id
 _symmetry_equiv_pos_as_xyz
  1  'x, y, z'
loop_
 _atom_site_type_symbol
 _atom_site_label
 _atom_site_symmetry_multiplicity
 _atom_site_fract_x
 _atom_site_fract_y
 _atom_site_fract_z
 _atom_site_occupancy
  Ga  Ga0  1  0.743909  0.380769  0.256898  1
  Ga  Ga1  1  0.487011  0.123871  0.743102  1
  Ga  Ga2  1  0.636860  0.512989  0.256091  1
  Ga  Ga3  1  0.743909  0.256898  0.380769  1
  Ga  Ga4  1  0.512989  0.636860  0.256091  1
  Ga  Ga5  1  0.380769  0.743909  0.256898  1
  Ga  Ga6  1  0.363140  0.619231  0.876129  1
  Ga  Ga7  1  0.380769  0.256898  0.743909  1
  Ga  Ga8  1  0.256898  0.380769  0.743909  1
  Ga  Ga9  1  0.256091  0.636860  0.512989  1
  Ga  Ga10  1  0.363140  0.876129  0.619231  1
  Ga  Ga11  1  0.876129  0.363140  0.619231  1
  Ga  Ga12  1  0.256898  0.743909  0.380769  1
  Ga  Ga13  1  0.743102  0.123871  0.487011  1
  Ga  Ga14  1  0.512989  0.256091  0.636860  1
  Ga  Ga15  1  0.123871  0.487011  0.743102  1
  Ga  Ga16  1  0.487011  0.743102  0.123871  1
  Ga  Ga17  1  0.636860  0.256091  0.512989  1
  Ga  Ga18  1  0.256091  0.512989  0.636860  1
  Ga  Ga19  1  0.619231  0.363140  0.876129  1
  Ga  Ga20  1  0.743102  0.487011  0.123871  1
  Ga  Ga21  1  0.619231  0.876129  0.363140  1
  Ga  Ga22  1  0.876129  0.619231  0.363140  1
  Ga  Ga23  1  0.123871  0.743102  0.487011  1
  Se  Se24  1  0.000000  0.750349  0.487697  1
  Se  Se25  1  0.383498  0.620318  0.261513  1
  Se  Se26  1  0.236819  0.878015  0.616502  1
  Se  Se27  1  0.878015  0.236819  0.616502  1
  Se  Se28  1  0.000000  0.487697  0.750349  1
  Se  Se29  1  0.500000  0.120281  0.620281  1
  Se  Se30  1  0.641195  0.763181  0.379682  1
  Se  Se31  1  0.500000  0.879719  0.379719  1
  Se  Se32  1  0.878015  0.616502  0.236819  1
  Se  Se33  1  0.262653  0.512303  0.512303  1
  Se  Se34  1  0.121985  0.738487  0.358805  1
  Se  Se35  1  0.738487  0.358805  0.121985  1
  Se  Se36  1  0.383498  0.261513  0.620318  1
  Se  Se37  1  0.120281  0.620281  0.500000  1
  Se  Se38  1  0.261513  0.620318  0.383498  1
  Se  Se39  1  0.616502  0.236819  0.878015  1
  Se  Se40  1  0.120281  0.500000  0.620281  1
  Se  Se41  1  0.620318  0.261513  0.383498  1
  Se  Se42  1  0.620281  0.120281  0.500000  1
  Se  Se43  1  0.512303  0.512303  0.262653  1
  Se  Se44  1  0.379682  0.763181  0.641195  1
  Se  Se45  1  0.737347  0.249651  0.249651  1
  Se  Se46  1  0.763181  0.641195  0.379682  1
  Se  Se47  1  0.379719  0.500000  0.879719  1
  Se  Se48  1  0.750349  0.000000  0.487697  1
  Se  Se49  1  0.750349  0.487697  1.000000  1
  Se  Se50  1  0.379682  0.641195  0.763181  1
  Se  Se51  1  0.121985  0.358805  0.738487  1
  Se  Se52  1  0.641195  0.379682  0.763181  1
  Se  Se53  1  0.236819  0.616502  0.878015  1
  Se  Se54  1  0.358805  0.121985  0.738487  1
  Se  Se55  1  0.249651  0.737347  0.249651  1
  Se  Se56  1  0.738487  0.121985  0.358805  1
  Se  Se57  1  0.487697  0.000000  0.750349  1
  Se  Se58  1  0.358805  0.738487  0.121985  1
  Se  Se59  1  0.500000  0.620281  0.120281  1
  Se  Se60  1  0.620318  0.383498  0.261513  1
  Se  Se61  1  0.500000  0.379719  0.879719  1
  Se  Se62  1  0.879719  0.500000  0.379719  1
  Se  Se63  1  0.620281  0.500000  0.120281  1
  Se  Se64  1  0.261513  0.383498  0.620318  1
  Se  Se65  1  0.616502  0.878015  0.236819  1
  Se  Se66  1  0.249651  0.249651  0.737347  1
  Se  Se67  1  0.379719  0.879719  0.500000  1
  Se  Se68  1  0.879719  0.379719  0.500000  1
  Se  Se69  1  0.487697  0.750349  1.000000  1
  Se  Se70  1  0.512303  0.262653  0.512303  1
  Se  Se71  1  0.763181  0.379682  0.641195  1
