# generated using pymatgen
data_SrCrBi12(Mo2O17)2
_symmetry_space_group_name_H-M   'P 1'
_cell_length_a   5.87921856
_cell_length_b   11.87989975
_cell_length_c   25.24782367
_cell_angle_alpha   101.82945546
_cell_angle_beta   90.00000000
_cell_angle_gamma   90.00000000
_symmetry_Int_Tables_number   1
_chemical_formula_structural   SrCrBi12(Mo2O17)2
_chemical_formula_sum   'Sr2 Cr2 Bi24 Mo8 O68'
_cell_volume   1725.97096901
_cell_formula_units_Z   2
loop_
 _symmetry_equiv_pos_site_id
 _symmetry_equiv_pos_as_xyz
  1  'x, y, z'
loop_
 _atom_site_type_symbol
 _atom_site_label
 _atom_site_symmetry_multiplicity
 _atom_site_fract_x
 _atom_site_fract_y
 _atom_site_fract_z
 _atom_site_occupancy
  Sr  Sr0  1  0.500000  0.000000  0.500000  1
  Sr  Sr1  1  0.500000  0.000000  0.000000  1
  Cr  Cr2  1  0.016413  0.000000  0.750000  1
  Cr  Cr3  1  0.983587  0.000000  0.250000  1
  Bi  Bi4  1  0.505356  0.230559  0.840740  1
  Bi  Bi5  1  0.987398  0.583167  0.092665  1
  Bi  Bi6  1  0.916130  0.340957  0.754572  1
  Bi  Bi7  1  0.493651  0.861754  0.321262  1
  Bi  Bi8  1  0.418432  0.540469  0.825589  1
  Bi  Bi9  1  0.017557  0.258573  0.600441  1
  Bi  Bi10  1  0.982443  0.258573  0.100441  1
  Bi  Bi11  1  0.982443  0.741427  0.399559  1
  Bi  Bi12  1  0.083870  0.659043  0.245428  1
  Bi  Bi13  1  0.418432  0.459531  0.674411  1
  Bi  Bi14  1  0.494644  0.230559  0.340740  1
  Bi  Bi15  1  0.987398  0.416833  0.407335  1
  Bi  Bi16  1  0.581568  0.540469  0.325589  1
  Bi  Bi17  1  0.494644  0.769441  0.159260  1
  Bi  Bi18  1  0.083870  0.340957  0.254572  1
  Bi  Bi19  1  0.017557  0.741427  0.899559  1
  Bi  Bi20  1  0.581568  0.459531  0.174411  1
  Bi  Bi21  1  0.916130  0.659043  0.745428  1
  Bi  Bi22  1  0.506349  0.138246  0.678738  1
  Bi  Bi23  1  0.493651  0.138246  0.178738  1
  Bi  Bi24  1  0.012602  0.583167  0.592665  1
  Bi  Bi25  1  0.506349  0.861754  0.821262  1
  Bi  Bi26  1  0.505356  0.769441  0.659260  1
  Bi  Bi27  1  0.012602  0.416833  0.907335  1
  Mo  Mo28  1  0.991584  0.073606  0.422510  1
  Mo  Mo29  1  0.008416  0.073606  0.922510  1
  Mo  Mo30  1  0.507377  0.331788  0.512353  1
  Mo  Mo31  1  0.507377  0.668212  0.987647  1
  Mo  Mo32  1  0.492623  0.331788  0.012353  1
  Mo  Mo33  1  0.991584  0.926394  0.077490  1
  Mo  Mo34  1  0.492623  0.668212  0.487647  1
  Mo  Mo35  1  0.008416  0.926394  0.577490  1
  O  O36  1  0.408870  0.757479  0.242466  1
  O  O37  1  0.817207  0.882225  0.240861  1
  O  O38  1  0.851370  0.997990  0.696383  1
  O  O39  1  0.784745  0.035463  0.104834  1
  O  O40  1  0.414959  0.206232  0.536193  1
  O  O41  1  0.267363  0.993244  0.079627  1
  O  O42  1  0.726844  0.727647  0.333308  1
  O  O43  1  0.766311  0.500000  0.250000  1
  O  O44  1  0.929596  0.439503  0.133961  1
  O  O45  1  0.897024  0.122009  0.490547  1
  O  O46  1  0.102976  0.877991  0.509453  1
  O  O47  1  0.247782  0.369755  0.345219  1
  O  O48  1  0.259163  0.637408  0.659139  1
  O  O49  1  0.447462  0.301403  0.939974  1
  O  O50  1  0.242598  0.387408  0.050650  1
  O  O51  1  0.070404  0.560497  0.866039  1
  O  O52  1  0.817207  0.117775  0.259139  1
  O  O53  1  0.897024  0.877991  0.009453  1
  O  O54  1  0.585041  0.793768  0.463807  1
  O  O55  1  0.784745  0.964537  0.395166  1
  O  O56  1  0.752218  0.369755  0.845219  1
  O  O57  1  0.267363  0.006756  0.420373  1
  O  O58  1  0.102976  0.122009  0.990547  1
  O  O59  1  0.851370  0.002010  0.803617  1
  O  O60  1  0.591130  0.757479  0.742466  1
  O  O61  1  0.726238  0.500000  0.750000  1
  O  O62  1  0.280082  0.431442  0.527912  1
  O  O63  1  0.273762  0.500000  0.250000  1
  O  O64  1  0.408870  0.242521  0.257534  1
  O  O65  1  0.231681  0.261493  0.163874  1
  O  O66  1  0.182793  0.882225  0.740861  1
  O  O67  1  0.148630  0.997990  0.196383  1
  O  O68  1  0.740837  0.362592  0.340861  1
  O  O69  1  0.215255  0.035463  0.604834  1
  O  O70  1  0.757402  0.387408  0.550650  1
  O  O71  1  0.231681  0.738507  0.336126  1
  O  O72  1  0.215255  0.964537  0.895166  1
  O  O73  1  0.414959  0.793768  0.963807  1
  O  O74  1  0.233689  0.500000  0.750000  1
  O  O75  1  0.994491  0.196793  0.890910  1
  O  O76  1  0.732637  0.993244  0.579627  1
  O  O77  1  0.259163  0.362592  0.840861  1
  O  O78  1  0.591130  0.242521  0.757534  1
  O  O79  1  0.994491  0.803207  0.609090  1
  O  O80  1  0.757402  0.612592  0.949350  1
  O  O81  1  0.752218  0.630245  0.654781  1
  O  O82  1  0.242598  0.612592  0.449350  1
  O  O83  1  0.552538  0.698597  0.060026  1
  O  O84  1  0.247782  0.630245  0.154781  1
  O  O85  1  0.768319  0.261493  0.663874  1
  O  O86  1  0.768319  0.738507  0.836126  1
  O  O87  1  0.005509  0.196793  0.390910  1
  O  O88  1  0.070404  0.439503  0.633961  1
  O  O89  1  0.732637  0.006756  0.920373  1
  O  O90  1  0.148630  0.002010  0.303617  1
  O  O91  1  0.280082  0.568558  0.972088  1
  O  O92  1  0.273156  0.272353  0.666692  1
  O  O93  1  0.726844  0.272353  0.166692  1
  O  O94  1  0.005509  0.803207  0.109090  1
  O  O95  1  0.740837  0.637408  0.159139  1
  O  O96  1  0.585041  0.206232  0.036193  1
  O  O97  1  0.182793  0.117775  0.759139  1
  O  O98  1  0.273156  0.727647  0.833308  1
  O  O99  1  0.929596  0.560497  0.366039  1
  O  O100  1  0.552538  0.301403  0.439974  1
  O  O101  1  0.719918  0.431442  0.027912  1
  O  O102  1  0.447462  0.698597  0.560026  1
  O  O103  1  0.719918  0.568558  0.472088  1
