# generated using pymatgen
data_Ba(C2N3)2
_symmetry_space_group_name_H-M   'P 1'
_cell_length_a   4.33084161
_cell_length_b   11.59074239
_cell_length_c   16.09384491
_cell_angle_alpha   90.00000000
_cell_angle_beta   90.00000000
_cell_angle_gamma   90.00000000
_symmetry_Int_Tables_number   1
_chemical_formula_structural   Ba(C2N3)2
_chemical_formula_sum   'Ba4 C16 N24'
_cell_volume   807.87350670
_cell_formula_units_Z   4
loop_
 _symmetry_equiv_pos_site_id
 _symmetry_equiv_pos_as_xyz
  1  'x, y, z'
loop_
 _atom_site_type_symbol
 _atom_site_label
 _atom_site_symmetry_multiplicity
 _atom_site_fract_x
 _atom_site_fract_y
 _atom_site_fract_z
 _atom_site_occupancy
  Ba  Ba0  1  0.250000  0.368788  0.214127  1
  Ba  Ba1  1  0.250000  0.131212  0.714127  1
  Ba  Ba2  1  0.750000  0.868788  0.285873  1
  Ba  Ba3  1  0.750000  0.631212  0.785873  1
  C  C4  1  0.250000  0.868679  0.544239  1
  C  C5  1  0.250000  0.373980  0.564970  1
  C  C6  1  0.250000  0.250608  0.437762  1
  C  C7  1  0.750000  0.749392  0.562238  1
  C  C8  1  0.250000  0.126020  0.064970  1
  C  C9  1  0.750000  0.626020  0.435030  1
  C  C10  1  0.250000  0.838190  0.678401  1
  C  C11  1  0.750000  0.873980  0.935030  1
  C  C12  1  0.750000  0.368679  0.955761  1
  C  C13  1  0.750000  0.161810  0.321599  1
  C  C14  1  0.750000  0.750608  0.062238  1
  C  C15  1  0.750000  0.338190  0.821599  1
  C  C16  1  0.750000  0.131321  0.455761  1
  C  C17  1  0.250000  0.249392  0.937762  1
  C  C18  1  0.250000  0.631321  0.044239  1
  C  C19  1  0.250000  0.661810  0.178401  1
  N  N20  1  0.250000  0.583330  0.122024  1
  N  N21  1  0.750000  0.388745  0.030548  1
  N  N22  1  0.750000  0.931363  0.874423  1
  N  N23  1  0.250000  0.431363  0.625577  1
  N  N24  1  0.750000  0.815691  0.002913  1
  N  N25  1  0.250000  0.315691  0.497087  1
  N  N26  1  0.750000  0.684309  0.502913  1
  N  N27  1  0.250000  0.876227  0.393825  1
  N  N28  1  0.750000  0.416670  0.877976  1
  N  N29  1  0.250000  0.184309  0.997087  1
  N  N30  1  0.750000  0.123773  0.606175  1
  N  N31  1  0.750000  0.231523  0.266790  1
  N  N32  1  0.250000  0.888745  0.469452  1
  N  N33  1  0.750000  0.083330  0.377976  1
  N  N34  1  0.250000  0.916670  0.622024  1
  N  N35  1  0.250000  0.731523  0.233210  1
  N  N36  1  0.250000  0.768477  0.733210  1
  N  N37  1  0.750000  0.376227  0.106175  1
  N  N38  1  0.250000  0.611255  0.969452  1
  N  N39  1  0.750000  0.268477  0.766790  1
  N  N40  1  0.250000  0.623773  0.893825  1
  N  N41  1  0.750000  0.568637  0.374423  1
  N  N42  1  0.750000  0.111255  0.530548  1
  N  N43  1  0.250000  0.068637  0.125577  1
