# generated using pymatgen
data_CuAg3S2
_symmetry_space_group_name_H-M   'P 1'
_cell_length_a   8.54906479
_cell_length_b   8.54906465
_cell_length_c   8.54906489
_cell_angle_alpha   92.97003556
_cell_angle_beta   118.30032635
_cell_angle_gamma   118.30031856
_symmetry_Int_Tables_number   1
_chemical_formula_structural   CuAg3S2
_chemical_formula_sum   'Cu4 Ag12 S8'
_cell_volume   452.50822575
_cell_formula_units_Z   4
loop_
 _symmetry_equiv_pos_site_id
 _symmetry_equiv_pos_as_xyz
  1  'x, y, z'
loop_
 _atom_site_type_symbol
 _atom_site_label
 _atom_site_symmetry_multiplicity
 _atom_site_fract_x
 _atom_site_fract_y
 _atom_site_fract_z
 _atom_site_occupancy
  Cu  Cu0  1  0.250000  0.030155  0.780155  1
  Cu  Cu1  1  0.250000  0.719845  0.469845  1
  Cu  Cu2  1  0.750000  0.280155  0.530155  1
  Cu  Cu3  1  0.750000  0.969845  0.219845  1
  Ag  Ag4  1  0.123338  0.259544  0.574172  1
  Ag  Ag5  1  0.376662  0.950834  0.136205  1
  Ag  Ag6  1  0.814628  0.363795  0.240456  1
  Ag  Ag7  1  0.876662  0.740456  0.425828  1
  Ag  Ag8  1  0.185372  0.636205  0.759544  1
  Ag  Ag9  1  0.685372  0.925828  0.549166  1
  Ag  Ag10  1  0.000000  0.500000  0.000000  1
  Ag  Ag11  1  0.623338  0.049166  0.863795  1
  Ag  Ag12  1  0.314628  0.074172  0.450834  1
  Ag  Ag13  1  0.000000  0.000000  0.000000  1
  Ag  Ag14  1  0.500000  0.500000  0.500000  1
  Ag  Ag15  1  0.500000  0.500000  0.000000  1
  S  S16  1  0.011530  0.214139  0.227291  1
  S  S17  1  0.986848  0.272709  0.784239  1
  S  S18  1  0.013152  0.727291  0.215761  1
  S  S19  1  0.486848  0.702609  0.714139  1
  S  S20  1  0.513152  0.297391  0.285861  1
  S  S21  1  0.511530  0.284239  0.797391  1
  S  S22  1  0.488470  0.715761  0.202609  1
  S  S23  1  0.988470  0.785861  0.772709  1
