# generated using pymatgen
data_GeOs2C8(ClO2)4
_symmetry_space_group_name_H-M   'P 1'
_cell_length_a   10.22930749
_cell_length_b   13.64168151
_cell_length_c   21.49145086
_cell_angle_alpha   90.00000000
_cell_angle_beta   90.00000000
_cell_angle_gamma   106.86683001
_symmetry_Int_Tables_number   1
_chemical_formula_structural   GeOs2C8(ClO2)4
_chemical_formula_sum   'Ge6 Os12 C48 Cl24 O48'
_cell_volume   2870.01070195
_cell_formula_units_Z   6
loop_
 _symmetry_equiv_pos_site_id
 _symmetry_equiv_pos_as_xyz
  1  'x, y, z'
loop_
 _atom_site_type_symbol
 _atom_site_label
 _atom_site_symmetry_multiplicity
 _atom_site_fract_x
 _atom_site_fract_y
 _atom_site_fract_z
 _atom_site_occupancy
  Ge  Ge0  1  0.547022  0.175132  0.239496  1
  Ge  Ge1  1  0.758004  0.675564  0.481559  1
  Ge  Ge2  1  0.047022  0.675132  0.760504  1
  Ge  Ge3  1  0.093406  0.687932  0.089442  1
  Ge  Ge4  1  0.258004  0.175564  0.518441  1
  Ge  Ge5  1  0.593406  0.187932  0.910558  1
  Os  Os6  1  0.501836  0.498128  0.078993  1
  Os  Os7  1  0.935152  0.602385  0.439133  1
  Os  Os8  1  0.780983  0.104920  0.914225  1
  Os  Os9  1  0.280983  0.604920  0.085775  1
  Os  Os10  1  0.001836  0.998128  0.921007  1
  Os  Os11  1  0.473562  0.506030  0.746231  1
  Os  Os12  1  0.644830  0.013024  0.616442  1
  Os  Os13  1  0.973562  0.006030  0.253769  1
  Os  Os14  1  0.144830  0.513024  0.383558  1
  Os  Os15  1  0.238207  0.596283  0.761638  1
  Os  Os16  1  0.435152  0.102385  0.560867  1
  Os  Os17  1  0.738207  0.096283  0.238362  1
  C  C18  1  0.784588  0.492766  0.404707  1
  C  C19  1  0.051094  0.058960  0.837317  1
  C  C20  1  0.580908  0.221220  0.532416  1
  C  C21  1  0.042538  0.385216  0.426520  1
  C  C22  1  0.117173  0.477214  0.719628  1
  C  C23  1  0.405156  0.724143  0.126346  1
  C  C24  1  0.745159  0.056365  0.537939  1
  C  C25  1  0.359345  0.384789  0.118019  1
  C  C26  1  0.859345  0.884789  0.881981  1
  C  C27  1  0.148102  0.481059  0.054478  1
  C  C28  1  0.223609  0.651639  0.349169  1
  C  C29  1  0.190043  0.536440  0.840155  1
  C  C30  1  0.920992  0.945676  0.001970  1
  C  C31  1  0.887344  0.964298  0.336396  1
  C  C32  1  0.284588  0.992766  0.595293  1
  C  C33  1  0.067710  0.144242  0.286049  1
  C  C34  1  0.846210  0.881876  0.218062  1
  C  C35  1  0.825668  0.158590  0.994447  1
  C  C36  1  0.147951  0.931584  0.924060  1
  C  C37  1  0.527326  0.559506  0.830300  1
  C  C38  1  0.606257  0.627320  0.039933  1
  C  C39  1  0.245159  0.556365  0.462061  1
  C  C40  1  0.106257  0.127320  0.960067  1
  C  C41  1  0.647951  0.431584  0.075940  1
  C  C42  1  0.285142  0.461724  0.345501  1
  C  C43  1  0.511290  0.980231  0.685997  1
  C  C44  1  0.551094  0.558960  0.162683  1
  C  C45  1  0.080908  0.721220  0.467584  1
  C  C46  1  0.387344  0.464298  0.663604  1
  C  C47  1  0.690043  0.036440  0.159845  1
  C  C48  1  0.361043  0.718877  0.799363  1
  C  C49  1  0.648102  0.981059  0.945522  1
  C  C50  1  0.905156  0.224143  0.873654  1
  C  C51  1  0.027326  0.059506  0.169700  1
  C  C52  1  0.567710  0.644242  0.713951  1
  C  C53  1  0.617173  0.977214  0.280372  1
  C  C54  1  0.011290  0.480231  0.314003  1
  C  C55  1  0.542538  0.885216  0.573480  1
  C  C56  1  0.785142  0.961724  0.654499  1
  C  C57  1  0.346210  0.381876  0.781938  1
  C  C58  1  0.325668  0.658590  0.005553  1
  C  C59  1  0.623803  0.446502  0.732644  1
  C  C60  1  0.123803  0.946502  0.267356  1
  C  C61  1  0.437221  0.027691  0.487430  1
  C  C62  1  0.420992  0.445676  0.998030  1
  C  C63  1  0.861043  0.218877  0.200637  1
  C  C64  1  0.723609  0.151639  0.650831  1
  C  C65  1  0.937221  0.527691  0.512571  1
  Cl  Cl66  1  0.132309  0.082575  0.444352  1
  Cl  Cl67  1  0.421946  0.156517  0.323195  1
  Cl  Cl68  1  0.161182  0.856096  0.103030  1
  Cl  Cl69  1  0.477945  0.174455  0.998530  1
  Cl  Cl70  1  0.294654  0.681138  0.660289  1
  Cl  Cl71  1  0.604145  0.341962  0.225182  1
  Cl  Cl72  1  0.104145  0.841962  0.774818  1
  Cl  Cl73  1  0.977945  0.674455  0.001470  1
  Cl  Cl74  1  0.600452  0.695276  0.416349  1
  Cl  Cl75  1  0.100452  0.195276  0.583651  1
  Cl  Cl76  1  0.228109  0.540250  0.192154  1
  Cl  Cl77  1  0.921946  0.656517  0.676805  1
  Cl  Cl78  1  0.794654  0.181138  0.339711  1
  Cl  Cl79  1  0.429879  0.136863  0.841984  1
  Cl  Cl80  1  0.893451  0.617455  0.834394  1
  Cl  Cl81  1  0.834190  0.826923  0.525647  1
  Cl  Cl82  1  0.431520  0.200566  0.657356  1
  Cl  Cl83  1  0.334190  0.326923  0.474353  1
  Cl  Cl84  1  0.728109  0.040250  0.807846  1
  Cl  Cl85  1  0.393451  0.117455  0.165606  1
  Cl  Cl86  1  0.632309  0.582575  0.555648  1
  Cl  Cl87  1  0.931520  0.700566  0.342644  1
  Cl  Cl88  1  0.661182  0.356096  0.896970  1
  Cl  Cl89  1  0.929879  0.636863  0.158016  1
  O  O90  1  0.159257  0.501308  0.889467  1
  O  O91  1  0.211001  0.910338  0.275965  1
  O  O92  1  0.932830  0.291451  0.177934  1
  O  O93  1  0.975050  0.294494  0.848135  1
  O  O94  1  0.936699  0.480309  0.557741  1
  O  O95  1  0.769989  0.810237  0.196976  1
  O  O96  1  0.872493  0.936267  0.676815  1
  O  O97  1  0.665671  0.292581  0.516033  1
  O  O98  1  0.475050  0.794494  0.151865  1
  O  O99  1  0.165671  0.792581  0.483967  1
  O  O100  1  0.164261  0.203878  0.983147  1
  O  O101  1  0.432830  0.791451  0.822066  1
  O  O102  1  0.432980  0.960738  0.725721  1
  O  O103  1  0.336120  0.438301  0.616478  1
  O  O104  1  0.664261  0.703878  0.016853  1
  O  O105  1  0.711001  0.410338  0.724035  1
  O  O106  1  0.370258  0.414374  0.951536  1
  O  O107  1  0.558790  0.592297  0.879406  1
  O  O108  1  0.058790  0.092297  0.120594  1
  O  O109  1  0.124557  0.225665  0.302346  1
  O  O110  1  0.854452  0.193741  0.043861  1
  O  O111  1  0.080101  0.092241  0.788352  1
  O  O112  1  0.067679  0.408371  0.036411  1
  O  O113  1  0.981446  0.313154  0.452785  1
  O  O114  1  0.775635  0.231977  0.670380  1
  O  O115  1  0.624557  0.725665  0.697654  1
  O  O116  1  0.580101  0.592241  0.211648  1
  O  O117  1  0.043617  0.406860  0.695610  1
  O  O118  1  0.932980  0.460738  0.274279  1
  O  O119  1  0.692373  0.429834  0.385282  1
  O  O120  1  0.870258  0.914374  0.048464  1
  O  O121  1  0.659257  0.001308  0.110533  1
  O  O122  1  0.567679  0.908371  0.963589  1
  O  O123  1  0.275635  0.731977  0.329620  1
  O  O124  1  0.192373  0.929834  0.614718  1
  O  O125  1  0.543617  0.906860  0.304390  1
  O  O126  1  0.774224  0.818379  0.861176  1
  O  O127  1  0.801799  0.080828  0.491688  1
  O  O128  1  0.481446  0.813154  0.547215  1
  O  O129  1  0.301799  0.580828  0.508312  1
  O  O130  1  0.372493  0.436267  0.323185  1
  O  O131  1  0.235481  0.894228  0.926414  1
  O  O132  1  0.269989  0.310237  0.803024  1
  O  O133  1  0.354452  0.693741  0.956139  1
  O  O134  1  0.735481  0.394228  0.073586  1
  O  O135  1  0.836120  0.938301  0.383522  1
  O  O136  1  0.274224  0.318379  0.138824  1
  O  O137  1  0.436699  0.980309  0.442259  1
