# generated using pymatgen
data_Ca3Sc2(SiO4)3
_symmetry_space_group_name_H-M   'P 1'
_cell_length_a   10.71042203
_cell_length_b   10.71042203
_cell_length_c   10.71042203
_cell_angle_alpha   109.47122065
_cell_angle_beta   109.47122065
_cell_angle_gamma   109.47122059
_symmetry_Int_Tables_number   1
_chemical_formula_structural   Ca3Sc2(SiO4)3
_chemical_formula_sum   'Ca12 Sc8 Si12 O48'
_cell_volume   945.79684575
_cell_formula_units_Z   4
loop_
 _symmetry_equiv_pos_site_id
 _symmetry_equiv_pos_as_xyz
  1  'x, y, z'
loop_
 _atom_site_type_symbol
 _atom_site_label
 _atom_site_symmetry_multiplicity
 _atom_site_fract_x
 _atom_site_fract_y
 _atom_site_fract_z
 _atom_site_occupancy
  O  O0  1  0.291672  0.490107  0.381475  1
  O  O1  1  0.009893  0.301565  0.891368  1
  O  O2  1  0.118525  0.608632  0.910197  1
  O  O3  1  0.208328  0.589803  0.198435  1
  O  O4  1  0.208328  0.118525  0.009893  1
  O  O5  1  0.589803  0.198435  0.208328  1
  O  O6  1  0.608632  0.198435  0.490107  1
  O  O7  1  0.198435  0.208328  0.589803  1
  O  O8  1  0.891368  0.381475  0.589803  1
  O  O9  1  0.301565  0.910197  0.291672  1
  O  O10  1  0.910197  0.291672  0.301565  1
  O  O11  1  0.009893  0.208328  0.118525  1
  O  O12  1  0.198435  0.490107  0.608632  1
  O  O13  1  0.589803  0.891368  0.381475  1
  O  O14  1  0.118525  0.009893  0.208328  1
  O  O15  1  0.490107  0.608632  0.198435  1
  O  O16  1  0.381475  0.589803  0.891368  1
  O  O17  1  0.891368  0.009893  0.301565  1
  O  O18  1  0.608632  0.910197  0.118525  1
  O  O19  1  0.108632  0.618525  0.410197  1
  O  O20  1  0.910197  0.118525  0.608632  1
  O  O21  1  0.381475  0.291672  0.490107  1
  O  O22  1  0.301565  0.891368  0.009893  1
  O  O23  1  0.291672  0.301565  0.910197  1
  O  O24  1  0.708328  0.509893  0.618525  1
  O  O25  1  0.990107  0.698435  0.108632  1
  O  O26  1  0.881475  0.391368  0.089803  1
  O  O27  1  0.791672  0.410197  0.801565  1
  O  O28  1  0.791672  0.881475  0.990107  1
  O  O29  1  0.410197  0.801565  0.791672  1
  O  O30  1  0.391368  0.801565  0.509893  1
  O  O31  1  0.801565  0.791672  0.410197  1
  O  O32  1  0.708328  0.698435  0.089803  1
  O  O33  1  0.698435  0.108632  0.990107  1
  O  O34  1  0.618525  0.708328  0.509893  1
  O  O35  1  0.509893  0.618525  0.708328  1
  O  O36  1  0.089803  0.881475  0.391368  1
  O  O37  1  0.391368  0.089803  0.881475  1
  O  O38  1  0.108632  0.990107  0.698435  1
  O  O39  1  0.618525  0.410197  0.108632  1
  O  O40  1  0.509893  0.391368  0.801565  1
  O  O41  1  0.881475  0.990107  0.791672  1
  O  O42  1  0.410197  0.108632  0.618525  1
  O  O43  1  0.801565  0.509893  0.391368  1
  O  O44  1  0.990107  0.791672  0.881475  1
  O  O45  1  0.089803  0.708328  0.698435  1
  O  O46  1  0.698435  0.089803  0.708328  1
  O  O47  1  0.490107  0.381475  0.291672  1
  Si  Si48  1  0.250000  0.125000  0.875000  1
  Si  Si49  1  0.750000  0.875000  0.125000  1
  Si  Si50  1  0.375000  0.250000  0.625000  1
  Si  Si51  1  0.625000  0.375000  0.250000  1
  Si  Si52  1  0.125000  0.750000  0.875000  1
  Si  Si53  1  0.875000  0.125000  0.750000  1
  Si  Si54  1  0.750000  0.375000  0.625000  1
  Si  Si55  1  0.375000  0.625000  0.750000  1
  Si  Si56  1  0.125000  0.875000  0.250000  1
  Si  Si57  1  0.875000  0.250000  0.125000  1
  Si  Si58  1  0.625000  0.750000  0.375000  1
  Si  Si59  1  0.250000  0.625000  0.375000  1
  Ca  Ca60  1  0.375000  0.750000  0.125000  1
  Ca  Ca61  1  0.125000  0.250000  0.375000  1
  Ca  Ca62  1  0.375000  0.125000  0.250000  1
  Ca  Ca63  1  0.125000  0.375000  0.750000  1
  Ca  Ca64  1  0.875000  0.750000  0.625000  1
  Ca  Ca65  1  0.750000  0.125000  0.375000  1
  Ca  Ca66  1  0.750000  0.625000  0.875000  1
  Ca  Ca67  1  0.625000  0.250000  0.875000  1
  Ca  Ca68  1  0.250000  0.875000  0.625000  1
  Ca  Ca69  1  0.875000  0.625000  0.250000  1
  Ca  Ca70  1  0.625000  0.875000  0.750000  1
  Ca  Ca71  1  0.250000  0.375000  0.125000  1
  Sc  Sc72  1  0.000000  0.000000  0.000000  1
  Sc  Sc73  1  0.000000  0.500000  0.000000  1
  Sc  Sc74  1  0.000000  0.000000  0.500000  1
  Sc  Sc75  1  0.000000  0.500000  0.500000  1
  Sc  Sc76  1  0.500000  0.000000  0.500000  1
  Sc  Sc77  1  0.500000  0.500000  0.000000  1
  Sc  Sc78  1  0.500000  0.500000  0.500000  1
  Sc  Sc79  1  0.500000  0.000000  0.000000  1
