# generated using pymatgen
data_Na2CuP2O7
_symmetry_space_group_name_H-M   'P 1'
_cell_length_a   5.83841997
_cell_length_b   7.97348767
_cell_length_c   8.13301248
_cell_angle_alpha   113.03179280
_cell_angle_beta   90.00000000
_cell_angle_gamma   111.47619112
_symmetry_Int_Tables_number   1
_chemical_formula_structural   Na2CuP2O7
_chemical_formula_sum   'Na4 Cu2 P4 O14'
_cell_volume   319.67328276
_cell_formula_units_Z   2
loop_
 _symmetry_equiv_pos_site_id
 _symmetry_equiv_pos_as_xyz
  1  'x, y, z'
loop_
 _atom_site_type_symbol
 _atom_site_label
 _atom_site_symmetry_multiplicity
 _atom_site_fract_x
 _atom_site_fract_y
 _atom_site_fract_z
 _atom_site_occupancy
  O  O0  1  0.476477  0.000000  0.250000  1
  O  O1  1  0.523523  0.000000  0.750000  1
  O  O2  1  0.276779  0.218213  0.200266  1
  O  O3  1  0.058566  0.781787  0.299733  1
  O  O4  1  0.723221  0.781787  0.799733  1
  O  O5  1  0.941434  0.218213  0.700267  1
  O  O6  1  0.699775  0.375148  0.398446  1
  O  O7  1  0.324627  0.624852  0.101554  1
  O  O8  1  0.300225  0.624852  0.601554  1
  O  O9  1  0.675373  0.375148  0.898446  1
  O  O10  1  0.889966  0.203937  0.008530  1
  O  O11  1  0.686029  0.796063  0.491470  1
  O  O12  1  0.110034  0.796063  0.991470  1
  O  O13  1  0.313971  0.203937  0.508530  1
  Na  Na14  1  0.913686  0.543670  0.700517  1
  Na  Na15  1  0.370016  0.456330  0.799483  1
  Na  Na16  1  0.086314  0.456330  0.299483  1
  Na  Na17  1  0.629984  0.543670  0.200517  1
  P  P18  1  0.442890  0.209567  0.343795  1
  P  P19  1  0.233323  0.790432  0.156205  1
  P  P20  1  0.557110  0.790432  0.656205  1
  P  P21  1  0.766677  0.209567  0.843795  1
  Cu  Cu22  1  0.000000  0.000000  0.500000  1
  Cu  Cu23  1  0.000000  0.000000  0.000000  1
