# generated using pymatgen
data_AlHO2
_symmetry_space_group_name_H-M   'P 1'
_cell_length_a   4.42253231
_cell_length_b   9.50517711
_cell_length_c   2.87725847
_cell_angle_alpha   90.00000000
_cell_angle_beta   90.00000000
_cell_angle_gamma   90.00000000
_symmetry_Int_Tables_number   1
_chemical_formula_structural   AlHO2
_chemical_formula_sum   'Al4 H4 O8'
_cell_volume   120.95117873
_cell_formula_units_Z   4
loop_
 _symmetry_equiv_pos_site_id
 _symmetry_equiv_pos_as_xyz
  1  'x, y, z'
loop_
 _atom_site_type_symbol
 _atom_site_label
 _atom_site_symmetry_multiplicity
 _atom_site_fract_x
 _atom_site_fract_y
 _atom_site_fract_z
 _atom_site_occupancy
  Al  Al0  1  0.451291  0.345812  0.250000  1
  Al  Al1  1  0.048709  0.845812  0.250000  1
  Al  Al2  1  0.546507  0.632988  0.750000  1
  Al  Al3  1  0.953493  0.132988  0.750000  1
  H  H4  1  0.085506  0.581517  0.250000  1
  H  H5  1  0.414494  0.081517  0.250000  1
  H  H6  1  0.912800  0.401337  0.750000  1
  H  H7  1  0.587200  0.901337  0.750000  1
  O  O8  1  0.794514  0.686728  0.250000  1
  O  O9  1  0.705486  0.186728  0.250000  1
  O  O10  1  0.205780  0.292237  0.750000  1
  O  O11  1  0.294220  0.792237  0.750000  1
  O  O12  1  0.300925  0.544308  0.250000  1
  O  O13  1  0.199075  0.044308  0.250000  1
  O  O14  1  0.696009  0.435368  0.750000  1
  O  O15  1  0.803991  0.935368  0.750000  1
