# generated using pymatgen
data_Na9CaTa9TiO30
_symmetry_space_group_name_H-M   'P 1'
_cell_length_a   5.74890406
_cell_length_b   5.77465566
_cell_length_c   38.58422746
_cell_angle_alpha   90.00000000
_cell_angle_beta   90.00000000
_cell_angle_gamma   88.47189165
_symmetry_Int_Tables_number   1
_chemical_formula_structural   Na9CaTa9TiO30
_chemical_formula_sum   'Na18 Ca2 Ta18 Ti2 O60'
_cell_volume   1280.46137982
_cell_formula_units_Z   2
loop_
 _symmetry_equiv_pos_site_id
 _symmetry_equiv_pos_as_xyz
  1  'x, y, z'
loop_
 _atom_site_type_symbol
 _atom_site_label
 _atom_site_symmetry_multiplicity
 _atom_site_fract_x
 _atom_site_fract_y
 _atom_site_fract_z
 _atom_site_occupancy
  Na  Na0  1  0.969566  0.043790  0.152188  1
  Na  Na1  1  0.029089  0.030788  0.348104  1
  Na  Na2  1  0.997545  0.038256  0.550000  1
  Na  Na3  1  0.029089  0.030788  0.751896  1
  Na  Na4  1  0.969566  0.043790  0.947812  1
  Na  Na5  1  0.524853  0.521221  0.350093  1
  Na  Na6  1  0.629225  0.428108  0.157287  1
  Na  Na7  1  0.500523  0.539733  0.550000  1
  Na  Na8  1  0.524853  0.521221  0.749907  1
  Na  Na9  1  0.629225  0.428108  0.942713  1
  Na  Na10  1  0.593335  0.421002  0.252620  1
  Na  Na11  1  0.507650  0.541267  0.650588  1
  Na  Na12  1  0.507650  0.541267  0.449412  1
  Na  Na13  1  0.593335  0.421002  0.847380  1
  Na  Na14  1  0.049609  0.068020  0.247813  1
  Na  Na15  1  0.001994  0.039300  0.449620  1
  Na  Na16  1  0.001994  0.039300  0.650380  1
  Na  Na17  1  0.049609  0.068020  0.852187  1
  Ca  Ca18  1  0.674413  0.545688  0.050000  1
  Ca  Ca19  1  0.032268  0.958866  0.050000  1
  Ta  Ta20  1  0.114662  0.586759  0.196770  1
  Ta  Ta21  1  0.000151  0.525048  0.499903  1
  Ta  Ta22  1  0.010481  0.520883  0.701021  1
  Ta  Ta23  1  0.046216  0.500649  0.801468  1
  Ta  Ta24  1  0.114662  0.586759  0.903230  1
  Ta  Ta25  1  0.495120  0.965198  0.101761  1
  Ta  Ta26  1  0.495120  0.965198  0.998239  1
  Ta  Ta27  1  0.546770  -0.020984  0.298311  1
  Ta  Ta28  1  0.552286  0.928558  0.199657  1
  Ta  Ta29  1  0.500040  0.025225  0.499890  1
  Ta  Ta30  1  0.500040  0.025225  0.600110  1
  Ta  Ta31  1  0.552286  0.928558  0.900343  1
  Ta  Ta32  1  0.505029  0.022694  0.400057  1
  Ta  Ta33  1  0.505029  0.022694  0.699943  1
  Ta  Ta34  1  0.546770  -0.020984  0.801689  1
  Ta  Ta35  1  0.046216  0.500649  0.298532  1
  Ta  Ta36  1  0.000151  0.525048  0.600097  1
  Ta  Ta37  1  0.010481  0.520883  0.398979  1
  Ti  Ti38  1  0.209183  0.416697  0.099558  1
  Ti  Ti39  1  0.209183  0.416697  0.000442  1
  O  O40  1  0.095181  0.461594  0.050000  1
  O  O41  1  0.039695  0.498730  0.245394  1
  O  O42  1  0.048579  0.473197  0.449764  1
  O  O43  1  0.048579  0.473197  0.650236  1
  O  O44  1  0.039695  0.498730  0.854606  1
  O  O45  1  0.106587  0.424407  0.152687  1
  O  O46  1  0.236667  0.227088  0.394990  1
  O  O47  1  0.241681  0.238797  0.594132  1
  O  O48  1  0.141775  0.111350  0.101678  1
  O  O49  1  0.286801  0.260149  0.300742  1
  O  O50  1  0.286801  0.260149  0.799258  1
  O  O51  1  0.141775  0.111350  0.998322  1
  O  O52  1  0.236667  0.227088  0.705010  1
  O  O53  1  0.241681  0.238797  0.505868  1
  O  O54  1  0.106587  0.424407  0.947313  1
  O  O55  1  0.328972  0.696582  0.113103  1
  O  O56  1  0.199527  0.915134  0.193563  1
  O  O57  1  0.239536  0.752163  0.304705  1
  O  O58  1  0.255692  0.729237  0.394624  1
  O  O59  1  0.239784  0.740624  0.594661  1
  O  O60  1  0.199527  0.915134  0.906437  1
  O  O61  1  0.255692  0.729237  0.705376  1
  O  O62  1  0.239536  0.752163  0.795295  1
  O  O63  1  0.239784  0.740624  0.505339  1
  O  O64  1  0.328972  0.696582  0.986897  1
  O  O65  1  0.421803  0.910821  0.050000  1
  O  O66  1  0.461589  -0.033651  0.249483  1
  O  O67  1  0.440624  -0.022349  0.650062  1
  O  O68  1  0.440624  -0.022349  0.449938  1
  O  O69  1  0.461589  -0.033651  0.850517  1
  O  O70  1  0.541262  0.980202  0.349435  1
  O  O71  1  0.543597  0.039862  0.150050  1
  O  O72  1  0.549579  0.972078  0.550000  1
  O  O73  1  0.541262  0.980202  0.750565  1
  O  O74  1  0.543597  0.039862  0.949950  1
  O  O75  1  0.522579  0.312404  0.008395  1
  O  O76  1  0.522579  0.312404  0.091605  1
  O  O77  1  0.792109  0.191152  0.294399  1
  O  O78  1  0.746318  0.173306  0.207132  1
  O  O79  1  0.735577  0.244596  0.605318  1
  O  O80  1  0.728454  0.255444  0.404545  1
  O  O81  1  0.735577  0.244596  0.494682  1
  O  O82  1  0.728454  0.255444  0.695455  1
  O  O83  1  0.792109  0.191152  0.805601  1
  O  O84  1  0.746318  0.173306  0.892868  1
  O  O85  1  0.781797  0.813406  0.091948  1
  O  O86  1  0.781797  0.813406  0.008052  1
  O  O87  1  0.807331  0.725741  0.186646  1
  O  O88  1  0.761039  0.750406  0.695850  1
  O  O89  1  0.739166  0.699066  0.296100  1
  O  O90  1  0.746185  0.743641  0.493596  1
  O  O91  1  0.761039  0.750406  0.404150  1
  O  O92  1  0.746185  0.743641  0.606404  1
  O  O93  1  0.807331  0.725741  0.913354  1
  O  O94  1  0.739166  0.699066  0.803900  1
  O  O95  1  0.436420  0.568188  0.205655  1
  O  O96  1  0.962617  0.470866  0.348469  1
  O  O97  1  0.934243  0.485047  0.550000  1
  O  O98  1  0.962617  0.470866  0.751531  1
  O  O99  1  0.436420  0.568188  0.894345  1
