# generated using pymatgen
data_ZnCuHg4As7S12
_symmetry_space_group_name_H-M   'P 1'
_cell_length_a   9.34624916
_cell_length_b   9.55218628
_cell_length_c   28.27492536
_cell_angle_alpha   111.97955117
_cell_angle_beta   107.33106225
_cell_angle_gamma   107.80081425
_symmetry_Int_Tables_number   1
_chemical_formula_structural   ZnCuHg4As7S12
_chemical_formula_sum   'Zn3 Cu3 Hg12 As21 S36'
_cell_volume   1970.81784218
_cell_formula_units_Z   3
loop_
 _symmetry_equiv_pos_site_id
 _symmetry_equiv_pos_as_xyz
  1  'x, y, z'
loop_
 _atom_site_type_symbol
 _atom_site_label
 _atom_site_symmetry_multiplicity
 _atom_site_fract_x
 _atom_site_fract_y
 _atom_site_fract_z
 _atom_site_occupancy
  Zn  Zn0  1  0.229972  0.731847  0.832934  1
  Zn  Zn1  1  0.250638  0.750708  0.500014  1
  Zn  Zn2  1  0.223018  0.733991  0.162209  1
  Cu  Cu3  1  0.769082  0.510719  0.757803  1
  Cu  Cu4  1  0.768484  0.508462  0.416873  1
  Cu  Cu5  1  0.742875  0.492435  0.081583  1
  Hg  Hg6  1  0.226530  0.473274  0.913831  1
  Hg  Hg7  1  0.508256  0.759885  0.754148  1
  Hg  Hg8  1  0.252726  0.510829  0.587014  1
  Hg  Hg9  1  0.515582  0.304253  0.923830  1
  Hg  Hg10  1  0.755952  0.238994  0.832278  1
  Hg  Hg11  1  0.503079  0.726025  0.407842  1
  Hg  Hg12  1  0.246711  0.549856  0.252705  1
  Hg  Hg13  1  0.515337  0.260821  0.588460  1
  Hg  Hg14  1  0.765868  0.251707  0.498168  1
  Hg  Hg15  1  0.492833  0.741496  0.099768  1
  Hg  Hg16  1  0.512159  0.264382  0.251015  1
  Hg  Hg17  1  0.749988  0.253021  0.163973  1
  As  As18  1  0.995652  0.876792  0.690126  1
  As  As19  1  0.008550  0.981228  0.833006  1
  As  As20  1  0.001848  0.467128  0.671264  1
  As  As21  1  0.990070  0.930888  0.379814  1
  As  As22  1  0.166273  0.174052  0.717394  1
  As  As23  1  0.539924  0.533819  0.845435  1
  As  As24  1  0.014853  0.000268  0.493306  1
  As  As25  1  0.007703  0.477073  0.335887  1
  As  As26  1  0.165749  0.198230  0.384795  1
  As  As27  1  0.466720  0.011940  0.670198  1
  As  As28  1  0.549609  0.544516  0.514338  1
  As  As29  1  0.990759  0.964842  0.157510  1
  As  As30  1  0.998523  0.489229  0.004091  1
  As  As31  1  0.020834  0.945287  0.615924  1
  As  As32  1  0.177088  0.017265  0.296863  1
  As  As33  1  0.459704  0.001454  0.328833  1
  As  As34  1  0.500311  0.509838  0.168388  1
  As  As35  1  0.855268  0.034999  0.663377  1
  As  As36  1  0.492010  0.031197  0.009585  1
  As  As37  1  0.845046  0.050345  0.334541  1
  As  As38  1  0.698460  0.885066  0.950606  1
  S  S39  1  0.998873  0.545206  0.931903  1
  S  S40  1  0.226899  0.213254  0.926062  1
  S  S41  1  0.995547  0.533276  0.599209  1
  S  S42  1  0.221185  0.742355  0.750844  1
  S  S43  1  0.998762  0.756868  0.496374  1
  S  S44  1  0.265849  0.497340  0.831563  1
  S  S45  1  0.519992  0.499200  0.758648  1
  S  S46  1  0.222620  0.227815  0.586358  1
  S  S47  1  0.469753  0.241699  0.824323  1
  S  S48  1  0.971918  0.733631  0.165941  1
  S  S49  1  0.230891  0.744757  0.411489  1
  S  S50  1  0.983876  0.534477  0.260293  1
  S  S51  1  0.793589  0.005591  0.854882  1
  S  S52  1  0.269786  0.502865  0.495805  1
  S  S53  1  0.512485  0.989036  0.923780  1
  S  S54  1  0.532373  0.794510  0.670815  1
  S  S55  1  0.497657  0.981314  0.587919  1
  S  S56  1  0.522813  0.479777  0.424773  1
  S  S57  1  0.200502  0.182673  0.254846  1
  S  S58  1  0.001370  0.756113  0.846530  1
  S  S59  1  0.488134  0.267111  0.494843  1
  S  S60  1  0.217802  0.763152  0.080182  1
  S  S61  1  0.224066  0.470864  0.148074  1
  S  S62  1  0.783784  0.519877  0.679287  1
  S  S63  1  0.740923  0.240343  0.741050  1
  S  S64  1  0.544092  0.699128  0.322157  1
  S  S65  1  0.446935  0.237157  0.150654  1
  S  S66  1  0.481171  0.455999  0.078897  1
  S  S67  1  0.782079  0.526129  0.338809  1
  S  S68  1  0.781745  0.996478  0.505961  1
  S  S69  1  0.743928  0.236489  0.397471  1
  S  S70  1  0.477949  0.974002  0.247416  1
  S  S71  1  0.557092  0.805716  0.999660  1
  S  S72  1  0.775952  0.998617  0.178665  1
  S  S73  1  0.783961  0.551719  0.011990  1
  S  S74  1  0.759602  0.247302  0.072800  1
