# generated using pymatgen
data_RbH5C7SO5
_symmetry_space_group_name_H-M   'P 1'
_cell_length_a   7.23597870
_cell_length_b   10.53901473
_cell_length_c   25.93309737
_cell_angle_alpha   90.00000000
_cell_angle_beta   90.00000000
_cell_angle_gamma   90.00000000
_symmetry_Int_Tables_number   1
_chemical_formula_structural   RbH5C7SO5
_chemical_formula_sum   'Rb8 H40 C56 S8 O40'
_cell_volume   1977.66023841
_cell_formula_units_Z   8
loop_
 _symmetry_equiv_pos_site_id
 _symmetry_equiv_pos_as_xyz
  1  'x, y, z'
loop_
 _atom_site_type_symbol
 _atom_site_label
 _atom_site_symmetry_multiplicity
 _atom_site_fract_x
 _atom_site_fract_y
 _atom_site_fract_z
 _atom_site_occupancy
  Rb  Rb0  1  0.187363  0.877338  0.527269  1
  Rb  Rb1  1  0.312637  0.377338  0.472731  1
  Rb  Rb2  1  0.812637  0.622662  0.027269  1
  Rb  Rb3  1  0.312637  0.877338  0.027269  1
  Rb  Rb4  1  0.812637  0.122662  0.472731  1
  Rb  Rb5  1  0.187363  0.377338  0.972731  1
  Rb  Rb6  1  0.687363  0.622662  0.527269  1
  Rb  Rb7  1  0.687363  0.122662  0.972731  1
  H  H8  1  0.869491  0.757541  0.747540  1
  H  H9  1  0.987912  0.671110  0.389027  1
  H  H10  1  0.411774  0.434635  0.231805  1
  H  H11  1  0.688883  0.763920  0.666060  1
  H  H12  1  0.378562  0.114561  0.207705  1
  H  H13  1  0.588226  0.565365  0.768195  1
  H  H14  1  0.411774  0.934635  0.268195  1
  H  H15  1  0.088226  0.434635  0.731805  1
  H  H16  1  0.487912  0.328890  0.110973  1
  H  H17  1  0.130509  0.742459  0.247540  1
  H  H18  1  0.369491  0.742459  0.747540  1
  H  H19  1  0.987912  0.171110  0.110973  1
  H  H20  1  0.369491  0.242459  0.752460  1
  H  H21  1  0.088226  0.934635  0.768195  1
  H  H22  1  0.621438  0.385439  0.707705  1
  H  H23  1  0.311117  0.736080  0.166060  1
  H  H24  1  0.487912  0.828890  0.389027  1
  H  H25  1  0.311117  0.236080  0.333940  1
  H  H26  1  0.911774  0.065365  0.231805  1
  H  H27  1  0.878562  0.885439  0.292295  1
  H  H28  1  0.911774  0.565365  0.268195  1
  H  H29  1  0.512088  0.171110  0.610973  1
  H  H30  1  0.878562  0.385439  0.207705  1
  H  H31  1  0.121438  0.114561  0.707705  1
  H  H32  1  0.130509  0.242459  0.252460  1
  H  H33  1  0.630509  0.257541  0.252460  1
  H  H34  1  0.188883  0.736080  0.666060  1
  H  H35  1  0.811117  0.263920  0.333940  1
  H  H36  1  0.588226  0.065365  0.731805  1
  H  H37  1  0.869491  0.257541  0.752460  1
  H  H38  1  0.630509  0.757541  0.247540  1
  H  H39  1  0.012088  0.328890  0.610973  1
  H  H40  1  0.811117  0.763920  0.166060  1
  H  H41  1  0.688883  0.263920  0.833940  1
  H  H42  1  0.188883  0.236080  0.833940  1
  H  H43  1  0.621438  0.885439  0.792295  1
  H  H44  1  0.012088  0.828890  0.889027  1
  H  H45  1  0.378562  0.614561  0.292295  1
  H  H46  1  0.512088  0.671110  0.889027  1
  H  H47  1  0.121438  0.614561  0.792295  1
  C  C48  1  0.113488  0.162960  0.279070  1
  C  C49  1  0.427958  0.458218  0.651817  1
  C  C50  1  0.025634  0.353214  0.114471  1
  C  C51  1  0.508063  0.064206  0.767448  1
  C  C52  1  0.974366  0.646786  0.885529  1
  C  C53  1  0.785346  0.340187  0.824890  1
  C  C54  1  0.285346  0.159813  0.824890  1
  C  C55  1  0.386512  0.162960  0.779070  1
  C  C56  1  0.214654  0.159813  0.324890  1
  C  C57  1  0.473439  0.537569  0.301557  1
  C  C58  1  0.194323  0.558889  0.140488  1
  C  C59  1  0.113488  0.662960  0.220930  1
  C  C60  1  0.572042  0.041782  0.151817  1
  C  C61  1  0.427958  0.958218  0.848183  1
  C  C62  1  0.474366  0.853214  0.885529  1
  C  C63  1  0.974366  0.146786  0.614471  1
  C  C64  1  0.973439  0.462431  0.198443  1
  C  C65  1  0.491937  0.435794  0.267448  1
  C  C66  1  0.474366  0.353214  0.614471  1
  C  C67  1  0.613488  0.837040  0.220930  1
  C  C68  1  0.526561  0.962431  0.801557  1
  C  C69  1  0.508063  0.564206  0.732552  1
  C  C70  1  0.008063  0.935794  0.732552  1
  C  C71  1  0.072042  0.958218  0.348183  1
  C  C72  1  0.714654  0.840187  0.175110  1
  C  C73  1  0.991937  0.564206  0.232552  1
  C  C74  1  0.886512  0.837040  0.720930  1
  C  C75  1  0.008063  0.435794  0.767448  1
  C  C76  1  0.025634  0.853214  0.385529  1
  C  C77  1  0.526561  0.462431  0.698443  1
  C  C78  1  0.026561  0.537569  0.801557  1
  C  C79  1  0.694323  0.941111  0.140488  1
  C  C80  1  0.694323  0.441111  0.359512  1
  C  C81  1  0.525634  0.646786  0.385529  1
  C  C82  1  0.805677  0.941111  0.640488  1
  C  C83  1  0.305677  0.058889  0.859512  1
  C  C84  1  0.072042  0.458218  0.151817  1
  C  C85  1  0.026561  0.037569  0.698443  1
  C  C86  1  0.613488  0.337040  0.279070  1
  C  C87  1  0.214654  0.659813  0.175110  1
  C  C88  1  0.785346  0.840187  0.675110  1
  C  C89  1  0.714654  0.340187  0.324890  1
  C  C90  1  0.927958  0.541782  0.848183  1
  C  C91  1  0.473439  0.037569  0.198443  1
  C  C92  1  0.572042  0.541782  0.348183  1
  C  C93  1  0.194323  0.058889  0.359512  1
  C  C94  1  0.973439  0.962431  0.301557  1
  C  C95  1  0.491937  0.935794  0.232552  1
  C  C96  1  0.386512  0.662960  0.720930  1
  C  C97  1  0.991937  0.064206  0.267448  1
  C  C98  1  0.305677  0.558889  0.640488  1
  C  C99  1  0.805677  0.441111  0.859512  1
  C  C100  1  0.525634  0.146786  0.114471  1
  C  C101  1  0.886512  0.337040  0.779070  1
  C  C102  1  0.285346  0.659813  0.675110  1
  C  C103  1  0.927958  0.041782  0.651817  1
  S  S104  1  0.165920  0.563698  0.582814  1
  S  S105  1  0.334080  0.563698  0.082814  1
  S  S106  1  0.665920  0.436302  0.917186  1
  S  S107  1  0.334080  0.063698  0.417186  1
  S  S108  1  0.834080  0.936302  0.082814  1
  S  S109  1  0.165920  0.063698  0.917186  1
  S  S110  1  0.665920  0.936302  0.582814  1
  S  S111  1  0.834080  0.436302  0.417186  1
  O  O112  1  0.985209  0.347455  0.406808  1
  O  O113  1  0.537885  0.261714  0.135778  1
  O  O114  1  0.472521  0.126486  0.070223  1
  O  O115  1  0.972521  0.873514  0.429777  1
  O  O116  1  0.527479  0.373514  0.570223  1
  O  O117  1  0.400334  0.932262  0.426093  1
  O  O118  1  0.286166  0.105492  0.959502  1
  O  O119  1  0.485209  0.652545  0.093192  1
  O  O120  1  0.286166  0.605492  0.540498  1
  O  O121  1  0.599666  0.067738  0.573907  1
  O  O122  1  0.514791  0.347455  0.906808  1
  O  O123  1  0.713834  0.894508  0.040498  1
  O  O124  1  0.027479  0.626486  0.929777  1
  O  O125  1  0.514791  0.847455  0.593192  1
  O  O126  1  0.962115  0.261714  0.635778  1
  O  O127  1  0.027479  0.126486  0.570223  1
  O  O128  1  0.462115  0.238286  0.635778  1
  O  O129  1  0.713834  0.394508  0.459502  1
  O  O130  1  0.786166  0.894508  0.540498  1
  O  O131  1  0.014791  0.152545  0.906808  1
  O  O132  1  0.985209  0.847455  0.093192  1
  O  O133  1  0.099666  0.932262  0.926093  1
  O  O134  1  0.213834  0.105492  0.459502  1
  O  O135  1  0.527479  0.873514  0.929777  1
  O  O136  1  0.537885  0.761714  0.364222  1
  O  O137  1  0.037885  0.238286  0.135778  1
  O  O138  1  0.900334  0.067738  0.073907  1
  O  O139  1  0.786166  0.394508  0.959502  1
  O  O140  1  0.037885  0.738286  0.364222  1
  O  O141  1  0.485209  0.152545  0.406808  1
  O  O142  1  0.462115  0.738286  0.864222  1
  O  O143  1  0.014791  0.652545  0.593192  1
  O  O144  1  0.962115  0.761714  0.864222  1
  O  O145  1  0.472521  0.626486  0.429777  1
  O  O146  1  0.900334  0.567738  0.426093  1
  O  O147  1  0.400334  0.432262  0.073907  1
  O  O148  1  0.599666  0.567738  0.926093  1
  O  O149  1  0.213834  0.605492  0.040498  1
  O  O150  1  0.099666  0.432262  0.573907  1
  O  O151  1  0.972521  0.373514  0.070223  1
