# generated using pymatgen
data_LuTa6Br13O3
_symmetry_space_group_name_H-M   'P 1'
_cell_length_a   9.51236456
_cell_length_b   9.51236450
_cell_length_c   28.45486199
_cell_angle_alpha   99.62205987
_cell_angle_beta   99.62205980
_cell_angle_gamma   89.99999833
_symmetry_Int_Tables_number   1
_chemical_formula_structural   LuTa6Br13O3
_chemical_formula_sum   'Lu4 Ta24 Br52 O12'
_cell_volume   2501.77188975
_cell_formula_units_Z   4
loop_
 _symmetry_equiv_pos_site_id
 _symmetry_equiv_pos_as_xyz
  1  'x, y, z'
loop_
 _atom_site_type_symbol
 _atom_site_label
 _atom_site_symmetry_multiplicity
 _atom_site_fract_x
 _atom_site_fract_y
 _atom_site_fract_z
 _atom_site_occupancy
  Lu  Lu0  1  0.154555  0.654555  0.309111  1
  Lu  Lu1  1  0.345445  0.845445  0.690889  1
  Lu  Lu2  1  0.595445  0.595445  0.190889  1
  Lu  Lu3  1  0.404555  0.404555  0.809111  1
  Ta  Ta4  1  0.421510  0.363876  0.570731  1
  Ta  Ta5  1  0.500172  0.800108  0.372665  1
  Ta  Ta6  1  0.877507  0.449892  0.127335  1
  Ta  Ta7  1  0.180505  0.470649  0.179540  1
  Ta  Ta8  1  0.322557  0.750172  0.872664  1
  Ta  Ta9  1  0.427443  0.127507  0.627336  1
  Ta  Ta10  1  0.872493  0.572557  0.372665  1
  Ta  Ta11  1  0.199892  0.499828  0.627336  1
  Ta  Ta12  1  0.149221  0.206855  0.570731  1
  Ta  Ta13  1  0.328490  0.043145  0.929269  1
  Ta  Ta14  1  0.793145  0.850779  0.429269  1
  Ta  Ta15  1  0.458891  0.430505  0.679540  1
  Ta  Ta16  1  0.636124  0.578490  0.429269  1
  Ta  Ta17  1  0.529351  0.819495  0.820460  1
  Ta  Ta18  1  0.956855  0.671510  0.070731  1
  Ta  Ta19  1  0.750965  0.779351  0.320460  1
  Ta  Ta20  1  0.249828  0.677443  0.127335  1
  Ta  Ta21  1  0.999035  0.708891  0.179540  1
  Ta  Ta22  1  0.291109  0.000965  0.820460  1
  Ta  Ta23  1  0.113876  0.399221  0.070731  1
  Ta  Ta24  1  0.550108  0.122493  0.872664  1
  Ta  Ta25  1  0.220649  0.249035  0.679540  1
  Ta  Ta26  1  0.600779  0.886124  0.929269  1
  Ta  Ta27  1  0.569495  0.541109  0.320460  1
  Br  Br28  1  0.113256  0.132462  0.874067  1
  Br  Br29  1  0.123950  0.433015  0.357946  1
  Br  Br30  1  0.996733  0.496733  0.993465  1
  Br  Br31  1  0.233996  0.924930  0.357946  1
  Br  Br32  1  0.828675  0.828675  1.000000  1
  Br  Br33  1  0.674930  0.373950  0.857946  1
  Br  Br34  1  0.895221  0.222614  0.063433  1
  Br  Br35  1  0.043262  0.741334  0.441197  1
  Br  Br36  1  0.882462  0.010811  0.374067  1
  Br  Br37  1  0.258395  0.239189  0.125933  1
  Br  Br38  1  0.048825  0.465509  0.695800  1
  Br  Br39  1  0.183015  0.483996  0.857946  1
  Br  Br40  1  0.111549  0.125000  0.750000  1
  Br  Br41  1  0.449863  0.293262  0.941197  1
  Br  Br42  1  0.769709  0.353024  0.304200  1
  Br  Br43  1  0.352065  0.508666  0.058803  1
  Br  Br44  1  0.159181  0.831787  0.936567  1
  Br  Br45  1  0.503267  0.003267  0.006535  1
  Br  Br46  1  0.867538  0.886744  0.125933  1
  Br  Br47  1  0.168213  0.840819  0.063433  1
  Br  Br48  1  0.989189  0.117538  0.625933  1
  Br  Br49  1  0.626050  0.325070  0.142054  1
  Br  Br50  1  0.706738  0.550137  0.058803  1
  Br  Br51  1  0.300137  0.602065  0.558803  1
  Br  Br52  1  0.875000  0.888451  0.250000  1
  Br  Br53  1  0.590819  0.145221  0.563433  1
  Br  Br54  1  0.171325  0.171325  0.000000  1
  Br  Br55  1  0.534491  0.951175  0.304200  1
  Br  Br56  1  0.258666  0.956738  0.558803  1
  Br  Br57  1  0.921325  0.078675  0.500000  1
  Br  Br58  1  0.375000  0.361549  0.250000  1
  Br  Br59  1  0.638451  0.625000  0.750000  1
  Br  Br60  1  0.516004  0.816985  0.142054  1
  Br  Br61  1  0.701175  0.019709  0.804200  1
  Br  Br62  1  0.646976  0.230291  0.695800  1
  Br  Br63  1  0.246733  0.246733  0.493465  1
  Br  Br64  1  0.581787  0.027386  0.436567  1
  Br  Br65  1  0.491334  0.647935  0.941197  1
  Br  Br66  1  0.980291  0.298825  0.195800  1
  Br  Br67  1  0.491605  0.363256  0.374067  1
  Br  Br68  1  0.777386  0.104779  0.936567  1
  Br  Br69  1  0.636744  0.508395  0.625933  1
  Br  Br70  1  0.972614  0.418213  0.563433  1
  Br  Br71  1  0.397935  0.699863  0.441197  1
  Br  Br72  1  0.854779  0.409181  0.436567  1
  Br  Br73  1  0.578675  0.421325  0.500000  1
  Br  Br74  1  0.753267  0.753267  0.506535  1
  Br  Br75  1  0.103024  0.784491  0.804200  1
  Br  Br76  1  0.215509  0.896976  0.195800  1
  Br  Br77  1  0.075070  0.766004  0.642054  1
  Br  Br78  1  0.566985  0.876050  0.642054  1
  Br  Br79  1  0.760811  0.741605  0.874067  1
  O  O80  1  0.398507  0.184408  0.823193  1
  O  O81  1  0.366357  0.366357  0.732714  1
  O  O82  1  0.351493  0.611215  0.676807  1
  O  O83  1  0.633643  0.633643  0.267286  1
  O  O84  1  0.383643  0.883643  0.767286  1
  O  O85  1  0.388785  0.648507  0.323193  1
  O  O86  1  0.815592  0.601493  0.176807  1
  O  O87  1  0.424687  0.638785  0.823193  1
  O  O88  1  0.325313  0.065592  0.676807  1
  O  O89  1  0.361215  0.575313  0.176807  1
  O  O90  1  0.934408  0.674687  0.323193  1
  O  O91  1  0.116357  0.616357  0.232714  1
