# generated using pymatgen
data_Cs2V5O13
_symmetry_space_group_name_H-M   'P 1'
_cell_length_a   7.87943240
_cell_length_b   7.87943293
_cell_length_c   8.28120686
_cell_angle_alpha   118.40765814
_cell_angle_beta   118.40766060
_cell_angle_gamma   90.00000378
_symmetry_Int_Tables_number   1
_chemical_formula_structural   Cs2V5O13
_chemical_formula_sum   'Cs2 V5 O13'
_cell_volume   380.37494947
_cell_formula_units_Z   1
loop_
 _symmetry_equiv_pos_site_id
 _symmetry_equiv_pos_as_xyz
  1  'x, y, z'
loop_
 _atom_site_type_symbol
 _atom_site_label
 _atom_site_symmetry_multiplicity
 _atom_site_fract_x
 _atom_site_fract_y
 _atom_site_fract_z
 _atom_site_occupancy
  Cs  Cs0  1  0.255150  0.755150  0.510300  1
  Cs  Cs1  1  0.755150  0.255150  0.510300  1
  V  V2  1  0.224859  0.224859  0.999032  1
  V  V3  1  0.774174  0.224859  0.999032  1
  V  V4  1  0.646096  0.646096  0.292193  1
  V  V5  1  0.774174  0.774174  0.999032  1
  V  V6  1  0.224859  0.774174  0.999032  1
  O  O7  1  0.011740  0.281368  0.023480  1
  O  O8  1  0.011740  0.742111  0.023480  1
  O  O9  1  0.281368  0.011740  0.023480  1
  O  O10  1  0.586313  0.177096  0.763409  1
  O  O11  1  0.777318  0.777318  0.210963  1
  O  O12  1  0.777318  0.433645  0.210963  1
  O  O13  1  0.177096  0.586313  0.763409  1
  O  O14  1  0.586313  0.586313  0.763409  1
  O  O15  1  0.433645  0.777318  0.210963  1
  O  O16  1  0.433645  0.433645  0.210963  1
  O  O17  1  0.177096  0.177096  0.763409  1
  O  O18  1  0.742111  0.011740  0.023480  1
  O  O19  1  0.780038  0.780038  0.560075  1
