# generated using pymatgen
data_K2VH4C4O9
_symmetry_space_group_name_H-M   'P 1'
_cell_length_a   6.98034057
_cell_length_b   15.06526254
_cell_length_c   20.71351046
_cell_angle_alpha   90.00000000
_cell_angle_beta   90.00000000
_cell_angle_gamma   90.00000000
_symmetry_Int_Tables_number   1
_chemical_formula_structural   K2VH4C4O9
_chemical_formula_sum   'K16 V8 H32 C32 O72'
_cell_volume   2178.24649936
_cell_formula_units_Z   8
loop_
 _symmetry_equiv_pos_site_id
 _symmetry_equiv_pos_as_xyz
  1  'x, y, z'
loop_
 _atom_site_type_symbol
 _atom_site_label
 _atom_site_symmetry_multiplicity
 _atom_site_fract_x
 _atom_site_fract_y
 _atom_site_fract_z
 _atom_site_occupancy
  K  K0  1  0.260451  0.470433  0.942990  1
  K  K1  1  0.393977  0.603661  0.193357  1
  K  K2  1  0.760451  0.029567  0.057010  1
  K  K3  1  0.739549  0.529567  0.057010  1
  K  K4  1  0.760451  0.470433  0.557010  1
  K  K5  1  0.393977  0.896339  0.693357  1
  K  K6  1  0.260451  0.029567  0.442990  1
  K  K7  1  0.106023  0.396339  0.693357  1
  K  K8  1  0.239549  0.970433  0.942990  1
  K  K9  1  0.606023  0.396339  0.806643  1
  K  K10  1  0.606023  0.103661  0.306643  1
  K  K11  1  0.239549  0.529567  0.442990  1
  K  K12  1  0.106023  0.103661  0.193357  1
  K  K13  1  0.893977  0.603661  0.306643  1
  K  K14  1  0.893977  0.896339  0.806643  1
  K  K15  1  0.739549  0.970433  0.557010  1
  V  V16  1  0.558784  0.698433  0.611753  1
  V  V17  1  0.058784  0.801567  0.388247  1
  V  V18  1  0.941216  0.198433  0.611753  1
  V  V19  1  0.558784  0.801567  0.111753  1
  V  V20  1  0.441216  0.198433  0.888247  1
  V  V21  1  0.058784  0.698433  0.888247  1
  V  V22  1  0.941216  0.301567  0.111753  1
  V  V23  1  0.441216  0.301567  0.388247  1
  H  H24  1  0.716119  0.591586  0.853046  1
  H  H25  1  0.216119  0.591586  0.646954  1
  H  H26  1  0.029992  0.224551  0.841005  1
  H  H27  1  0.305491  0.235929  0.532077  1
  H  H28  1  0.783881  0.091586  0.853046  1
  H  H29  1  0.376687  0.107830  0.758532  1
  H  H30  1  0.470008  0.724551  0.841005  1
  H  H31  1  0.623313  0.892170  0.241468  1
  H  H32  1  0.805491  0.264071  0.467923  1
  H  H33  1  0.194509  0.764071  0.032077  1
  H  H34  1  0.805491  0.235929  0.967923  1
  H  H35  1  0.623313  0.607830  0.741468  1
  H  H36  1  0.305491  0.264071  0.032077  1
  H  H37  1  0.694509  0.764071  0.467923  1
  H  H38  1  0.376687  0.392170  0.258532  1
  H  H39  1  0.970008  0.724551  0.658995  1
  H  H40  1  0.716119  0.908414  0.353046  1
  H  H41  1  0.283881  0.408414  0.146954  1
  H  H42  1  0.529992  0.224551  0.658995  1
  H  H43  1  0.123313  0.892170  0.258532  1
  H  H44  1  0.123313  0.607830  0.758532  1
  H  H45  1  0.283881  0.091586  0.646954  1
  H  H46  1  0.783881  0.408414  0.353046  1
  H  H47  1  0.694509  0.735929  0.967923  1
  H  H48  1  0.529992  0.275449  0.158995  1
  H  H49  1  0.216119  0.908414  0.146954  1
  H  H50  1  0.876687  0.107830  0.741468  1
  H  H51  1  0.029992  0.275449  0.341005  1
  H  H52  1  0.470008  0.775449  0.341005  1
  H  H53  1  0.876687  0.392170  0.241468  1
  H  H54  1  0.194509  0.735929  0.532077  1
  H  H55  1  0.970008  0.775449  0.158995  1
  C  C56  1  0.083630  0.293533  0.846171  1
  C  C57  1  0.702762  0.211682  0.482292  1
  C  C58  1  0.416370  0.706467  0.346171  1
  C  C59  1  0.249015  0.436563  0.098814  1
  C  C60  1  0.916370  0.706467  0.153829  1
  C  C61  1  0.702762  0.288318  0.982292  1
  C  C62  1  0.297238  0.788318  0.517708  1
  C  C63  1  0.723346  0.926807  0.208605  1
  C  C64  1  0.750985  0.936563  0.401186  1
  C  C65  1  0.797238  0.711682  0.482292  1
  C  C66  1  0.202762  0.288318  0.517708  1
  C  C67  1  0.776654  0.426807  0.208605  1
  C  C68  1  0.583630  0.206467  0.153829  1
  C  C69  1  0.223346  0.573193  0.791395  1
  C  C70  1  0.749015  0.063437  0.901186  1
  C  C71  1  0.249015  0.063437  0.598814  1
  C  C72  1  0.723346  0.573193  0.708605  1
  C  C73  1  0.583630  0.293533  0.653829  1
  C  C74  1  0.223346  0.926807  0.291395  1
  C  C75  1  0.276654  0.426807  0.291395  1
  C  C76  1  0.776654  0.073193  0.708605  1
  C  C77  1  0.250985  0.936563  0.098814  1
  C  C78  1  0.276654  0.073193  0.791395  1
  C  C79  1  0.083630  0.206467  0.346171  1
  C  C80  1  0.250985  0.563437  0.598814  1
  C  C81  1  0.297238  0.711682  0.017708  1
  C  C82  1  0.749015  0.436563  0.401186  1
  C  C83  1  0.750985  0.563437  0.901186  1
  C  C84  1  0.916370  0.793533  0.653829  1
  C  C85  1  0.416370  0.793533  0.846171  1
  C  C86  1  0.797238  0.788318  0.982292  1
  C  C87  1  0.202762  0.211682  0.017708  1
  O  O88  1  0.418371  0.714505  0.674671  1
  O  O89  1  0.244278  0.699368  0.369610  1
  O  O90  1  0.347192  0.498143  0.075917  1
  O  O91  1  0.016777  0.858283  0.669438  1
  O  O92  1  0.321184  0.509215  0.771664  1
  O  O93  1  0.103239  0.099079  0.569556  1
  O  O94  1  0.347192  0.001857  0.575917  1
  O  O95  1  0.755648  0.837093  0.029481  1
  O  O96  1  0.896761  0.599079  0.930444  1
  O  O97  1  0.516777  0.858283  0.830562  1
  O  O98  1  0.729865  0.896929  0.149963  1
  O  O99  1  0.046777  0.205245  0.049849  1
  O  O100  1  0.229865  0.603071  0.850037  1
  O  O101  1  0.152808  0.501857  0.575917  1
  O  O102  1  0.953223  0.794755  0.950151  1
  O  O103  1  0.770135  0.396929  0.149963  1
  O  O104  1  0.953223  0.705245  0.450151  1
  O  O105  1  0.081629  0.285495  0.174671  1
  O  O106  1  0.755722  0.199368  0.130390  1
  O  O107  1  0.847192  0.498143  0.424083  1
  O  O108  1  0.483223  0.141717  0.169438  1
  O  O109  1  0.744352  0.337093  0.029481  1
  O  O110  1  0.581629  0.214505  0.825329  1
  O  O111  1  0.755648  0.662907  0.529481  1
  O  O112  1  0.603239  0.099079  0.930444  1
  O  O113  1  0.729865  0.603071  0.649963  1
  O  O114  1  0.744278  0.800632  0.630390  1
  O  O115  1  0.152808  0.998143  0.075917  1
  O  O116  1  0.016777  0.641717  0.169438  1
  O  O117  1  0.546777  0.205245  0.450151  1
  O  O118  1  0.418371  0.785495  0.174671  1
  O  O119  1  0.678816  0.009215  0.728336  1
  O  O120  1  0.255722  0.199368  0.369610  1
  O  O121  1  0.396761  0.900921  0.069556  1
  O  O122  1  0.178816  0.490785  0.271664  1
  O  O123  1  0.821184  0.509215  0.728336  1
  O  O124  1  0.244278  0.800632  0.869610  1
  O  O125  1  0.103239  0.400921  0.069556  1
  O  O126  1  0.744278  0.699368  0.130390  1
  O  O127  1  0.755722  0.300632  0.630390  1
  O  O128  1  0.178816  0.009215  0.771664  1
  O  O129  1  0.744352  0.162907  0.529481  1
  O  O130  1  0.847192  0.001857  0.924083  1
  O  O131  1  0.270135  0.103071  0.850037  1
  O  O132  1  0.046777  0.294755  0.549849  1
  O  O133  1  0.652808  0.998143  0.424083  1
  O  O134  1  0.983223  0.358283  0.830562  1
  O  O135  1  0.270135  0.396929  0.350037  1
  O  O136  1  0.255648  0.837093  0.470519  1
  O  O137  1  0.516777  0.641717  0.330562  1
  O  O138  1  0.546777  0.294755  0.950151  1
  O  O139  1  0.453223  0.794755  0.549849  1
  O  O140  1  0.581629  0.285495  0.325329  1
  O  O141  1  0.770135  0.103071  0.649963  1
  O  O142  1  0.678816  0.490785  0.228336  1
  O  O143  1  0.603239  0.400921  0.430444  1
  O  O144  1  0.652808  0.501857  0.924083  1
  O  O145  1  0.244352  0.337093  0.470519  1
  O  O146  1  0.453223  0.705245  0.049849  1
  O  O147  1  0.229865  0.896929  0.350037  1
  O  O148  1  0.255722  0.300632  0.869610  1
  O  O149  1  0.321184  0.990785  0.271664  1
  O  O150  1  0.918371  0.785495  0.325329  1
  O  O151  1  0.483223  0.358283  0.669438  1
  O  O152  1  0.081629  0.214505  0.674671  1
  O  O153  1  0.983223  0.141717  0.330562  1
  O  O154  1  0.244352  0.162907  0.970519  1
  O  O155  1  0.918371  0.714505  0.825329  1
  O  O156  1  0.821184  0.990785  0.228336  1
  O  O157  1  0.255648  0.662907  0.970519  1
  O  O158  1  0.896761  0.900921  0.430444  1
  O  O159  1  0.396761  0.599079  0.569556  1
