# generated using pymatgen
data_Ag3SeNO3
_symmetry_space_group_name_H-M   'P 1'
_cell_length_a   6.36342638
_cell_length_b   6.36342638
_cell_length_c   6.36342637
_cell_angle_alpha   85.35028325
_cell_angle_beta   85.35028329
_cell_angle_gamma   85.35028327
_symmetry_Int_Tables_number   1
_chemical_formula_structural   Ag3SeNO3
_chemical_formula_sum   'Ag6 Se2 N2 O6'
_cell_volume   255.26151184
_cell_formula_units_Z   2
loop_
 _symmetry_equiv_pos_site_id
 _symmetry_equiv_pos_as_xyz
  1  'x, y, z'
loop_
 _atom_site_type_symbol
 _atom_site_label
 _atom_site_symmetry_multiplicity
 _atom_site_fract_x
 _atom_site_fract_y
 _atom_site_fract_z
 _atom_site_occupancy
  N  N0  1  0.429886  0.429886  0.429886  1
  N  N1  1  0.929886  0.929886  0.929886  1
  O  O2  1  0.664374  0.583608  0.933911  1
  O  O3  1  0.583608  0.933911  0.664374  1
  O  O4  1  0.933911  0.664374  0.583608  1
  O  O5  1  0.433911  0.083608  0.164374  1
  O  O6  1  0.083608  0.164374  0.433911  1
  O  O7  1  0.164374  0.433911  0.083608  1
  Se  Se8  1  0.281086  0.281086  0.281086  1
  Se  Se9  1  0.781086  0.781086  0.781086  1
  Ag  Ag10  1  0.803333  0.256632  0.928870  1
  Ag  Ag11  1  0.928870  0.803333  0.256632  1
  Ag  Ag12  1  0.256632  0.928870  0.803333  1
  Ag  Ag13  1  0.303333  0.428870  0.756632  1
  Ag  Ag14  1  0.428870  0.756632  0.303333  1
  Ag  Ag15  1  0.756632  0.303333  0.428870  1
