# generated using pymatgen
data_SNClO
_symmetry_space_group_name_H-M   'P 1'
_cell_length_a   5.83108812
_cell_length_b   11.61682170
_cell_length_c   13.65552444
_cell_angle_alpha   90.00000000
_cell_angle_beta   95.90941985
_cell_angle_gamma   90.00000000
_symmetry_Int_Tables_number   1
_chemical_formula_structural   SNClO
_chemical_formula_sum   'S12 N12 Cl12 O12'
_cell_volume   920.09204379
_cell_formula_units_Z   12
loop_
 _symmetry_equiv_pos_site_id
 _symmetry_equiv_pos_as_xyz
  1  'x, y, z'
loop_
 _atom_site_type_symbol
 _atom_site_label
 _atom_site_symmetry_multiplicity
 _atom_site_fract_x
 _atom_site_fract_y
 _atom_site_fract_z
 _atom_site_occupancy
  S  S0  1  0.862430  0.523988  0.144381  1
  S  S1  1  0.637570  0.023988  0.355619  1
  S  S2  1  0.137570  0.476012  0.855619  1
  S  S3  1  0.630916  0.901261  0.180526  1
  S  S4  1  0.615328  0.787147  0.357621  1
  S  S5  1  0.115328  0.712853  0.857621  1
  S  S6  1  0.884672  0.287147  0.142379  1
  S  S7  1  0.869084  0.401261  0.319474  1
  S  S8  1  0.384672  0.212853  0.642379  1
  S  S9  1  0.369084  0.098739  0.819474  1
  S  S10  1  0.362430  0.976012  0.644381  1
  S  S11  1  0.130916  0.598739  0.680526  1
  N  N12  1  0.721493  0.005898  0.249356  1
  N  N13  1  0.945617  0.407630  0.097484  1
  N  N14  1  0.445617  0.092370  0.597484  1
  N  N15  1  0.278507  0.994102  0.750644  1
  N  N16  1  0.095244  0.713611  0.740762  1
  N  N17  1  0.554383  0.907630  0.402516  1
  N  N18  1  0.054383  0.592370  0.902516  1
  N  N19  1  0.404756  0.213611  0.759238  1
  N  N20  1  0.778507  0.505898  0.250644  1
  N  N21  1  0.904756  0.286389  0.259238  1
  N  N22  1  0.595244  0.786389  0.240762  1
  N  N23  1  0.221493  0.494102  0.749356  1
  Cl  Cl24  1  0.042875  0.243516  0.598151  1
  Cl  Cl25  1  0.957125  0.756484  0.401849  1
  Cl  Cl26  1  0.159188  0.616668  0.161510  1
  Cl  Cl27  1  0.340812  0.116668  0.338490  1
  Cl  Cl28  1  0.693050  0.059615  0.881460  1
  Cl  Cl29  1  0.193050  0.440385  0.381460  1
  Cl  Cl30  1  0.840812  0.383332  0.838490  1
  Cl  Cl31  1  0.306950  0.940385  0.118540  1
  Cl  Cl32  1  0.659188  0.883332  0.661510  1
  Cl  Cl33  1  0.542875  0.256484  0.098151  1
  Cl  Cl34  1  0.806950  0.559615  0.618540  1
  Cl  Cl35  1  0.457125  0.743516  0.901849  1
  O  O36  1  0.487994  0.695570  0.396145  1
  O  O37  1  0.802480  0.089265  0.417283  1
  O  O38  1  0.729193  0.386174  0.397948  1
  O  O39  1  0.012006  0.195570  0.103855  1
  O  O40  1  0.229193  0.113826  0.897948  1
  O  O41  1  0.770807  0.886174  0.102052  1
  O  O42  1  0.697520  0.589265  0.082717  1
  O  O43  1  0.987994  0.804430  0.896145  1
  O  O44  1  0.302480  0.410735  0.917283  1
  O  O45  1  0.270807  0.613826  0.602052  1
  O  O46  1  0.197520  0.910735  0.582717  1
  O  O47  1  0.512006  0.304430  0.603855  1
