# generated using pymatgen
data_Co8C24(SO7)3
_symmetry_space_group_name_H-M   'P 1'
_cell_length_a   9.18286457
_cell_length_b   9.18286410
_cell_length_c   25.43050187
_cell_angle_alpha   93.18998460
_cell_angle_beta   93.18998442
_cell_angle_gamma   119.62543082
_symmetry_Int_Tables_number   1
_chemical_formula_structural   Co8C24(SO7)3
_chemical_formula_sum   'Co16 C48 S6 O42'
_cell_volume   1852.64774058
_cell_formula_units_Z   2
loop_
 _symmetry_equiv_pos_site_id
 _symmetry_equiv_pos_as_xyz
  1  'x, y, z'
loop_
 _atom_site_type_symbol
 _atom_site_label
 _atom_site_symmetry_multiplicity
 _atom_site_fract_x
 _atom_site_fract_y
 _atom_site_fract_z
 _atom_site_occupancy
  Co  Co0  1  0.710921  0.912758  0.055804  1
  Co  Co1  1  0.743838  0.159988  0.011933  1
  Co  Co2  1  0.638248  0.563628  0.394443  1
  Co  Co3  1  0.054556  0.941825  0.498762  1
  Co  Co4  1  0.087060  0.295585  0.746486  1
  Co  Co5  1  0.912758  0.710921  0.555804  1
  Co  Co6  1  0.295585  0.087060  0.246486  1
  Co  Co7  1  0.563628  0.638248  0.894443  1
  Co  Co8  1  0.159988  0.743838  0.511933  1
  Co  Co9  1  0.941825  0.054556  0.998762  1
  Co  Co10  1  0.370105  0.745192  0.904876  1
  Co  Co11  1  0.392559  0.504371  0.738995  1
  Co  Co12  1  0.195913  0.606726  0.750042  1
  Co  Co13  1  0.745192  0.370105  0.404876  1
  Co  Co14  1  0.504371  0.392559  0.238995  1
  Co  Co15  1  0.606726  0.195913  0.250042  1
  C  C16  1  0.258314  0.628890  0.955411  1
  C  C17  1  0.827683  0.324448  0.254089  1
  C  C18  1  0.582898  0.000731  0.226934  1
  C  C19  1  0.702303  0.944126  0.981855  1
  C  C20  1  0.714208  0.723020  0.060922  1
  C  C21  1  0.255784  0.895038  0.271691  1
  C  C22  1  0.455544  0.240102  0.303515  1
  C  C23  1  0.902068  0.312346  0.407268  1
  C  C24  1  0.565837  0.280767  0.188504  1
  C  C25  1  0.890611  0.989179  0.495806  1
  C  C26  1  0.944126  0.702303  0.481855  1
  C  C27  1  0.240102  0.455544  0.803515  1
  C  C28  1  0.008133  0.219344  0.677981  1
  C  C29  1  0.207187  0.115630  0.544395  1
  C  C30  1  0.767670  0.263542  0.954219  1
  C  C31  1  0.033843  0.830688  0.616298  1
  C  C32  1  0.628890  0.258314  0.455411  1
  C  C33  1  0.121871  0.540126  0.522530  1
  C  C34  1  0.219344  0.008133  0.177981  1
  C  C35  1  0.503545  0.835177  0.073279  1
  C  C36  1  0.540126  0.121871  0.022530  1
  C  C37  1  0.842757  0.602540  0.435247  1
  C  C38  1  0.102907  0.120199  0.765678  1
  C  C39  1  0.830688  0.033843  0.116298  1
  C  C40  1  0.835177  0.503545  0.573279  1
  C  C41  1  0.895038  0.255784  0.771691  1
  C  C42  1  0.115630  0.207187  0.044395  1
  C  C43  1  0.431477  0.358811  0.702843  1
  C  C44  1  0.133985  0.006819  0.437713  1
  C  C45  1  0.723020  0.714208  0.560922  1
  C  C46  1  0.006819  0.133985  0.937713  1
  C  C47  1  0.657903  0.759732  0.381766  1
  C  C48  1  0.358811  0.431477  0.202843  1
  C  C49  1  0.120199  0.102907  0.265678  1
  C  C50  1  0.492239  0.491295  0.941342  1
  C  C51  1  0.312346  0.902068  0.907268  1
  C  C52  1  0.000731  0.582898  0.726934  1
  C  C53  1  0.584436  0.690942  0.736283  1
  C  C54  1  0.491295  0.492239  0.441342  1
  C  C55  1  0.871709  0.333219  0.062431  1
  C  C56  1  0.333219  0.871709  0.562431  1
  C  C57  1  0.759732  0.657903  0.881766  1
  C  C58  1  0.989179  0.890611  0.995806  1
  C  C59  1  0.602540  0.842757  0.935247  1
  C  C60  1  0.280767  0.565837  0.688504  1
  C  C61  1  0.690942  0.584436  0.236283  1
  C  C62  1  0.263542  0.767670  0.454219  1
  C  C63  1  0.324448  0.827683  0.754089  1
  S  S64  1  0.567986  0.166865  0.339807  1
  S  S65  1  0.604769  0.876389  0.868330  1
  S  S66  1  0.166865  0.567986  0.839807  1
  S  S67  1  0.876389  0.604769  0.368330  1
  S  S68  1  0.412498  0.436973  0.825464  1
  S  S69  1  0.436973  0.412498  0.325464  1
  O  O70  1  0.565121  0.871332  0.211210  1
  O  O71  1  0.405602  0.094848  0.028850  1
  O  O72  1  0.776892  0.329614  0.915996  1
  O  O73  1  0.887930  0.677144  0.870231  1
  O  O74  1  0.444331  0.952598  0.594013  1
  O  O75  1  0.231572  0.306830  0.071556  1
  O  O76  1  0.306830  0.231572  0.571556  1
  O  O77  1  0.785534  0.024323  0.494238  1
  O  O78  1  0.579975  0.274507  0.142474  1
  O  O79  1  0.677144  0.887930  0.370231  1
  O  O80  1  0.006783  0.276808  0.408265  1
  O  O81  1  0.274507  0.579975  0.642474  1
  O  O82  1  0.049205  0.185079  0.897338  1
  O  O83  1  0.410454  0.972250  0.756322  1
  O  O84  1  0.094848  0.405602  0.528850  1
  O  O85  1  0.907459  0.110056  0.155600  1
  O  O86  1  0.597605  0.711920  0.566358  1
  O  O87  1  0.185079  0.049205  0.397338  1
  O  O88  1  0.264669  0.458655  0.179423  1
  O  O89  1  0.002632  0.101328  0.280343  1
  O  O90  1  0.952598  0.444331  0.094013  1
  O  O91  1  0.972250  0.410454  0.256322  1
  O  O92  1  0.024323  0.785534  0.994238  1
  O  O93  1  0.393605  0.445565  0.472311  1
  O  O94  1  0.101328  0.002632  0.780343  1
  O  O95  1  0.183411  0.554041  0.989058  1
  O  O96  1  0.227211  0.770190  0.288475  1
  O  O97  1  0.110056  0.907459  0.655600  1
  O  O98  1  0.370812  0.786920  0.087162  1
  O  O99  1  0.706346  0.816862  0.732313  1
  O  O100  1  0.770190  0.227211  0.788475  1
  O  O101  1  0.871332  0.565121  0.711210  1
  O  O102  1  0.276808  0.006783  0.908265  1
  O  O103  1  0.165919  0.956478  0.134623  1
  O  O104  1  0.956478  0.165919  0.634623  1
  O  O105  1  0.329614  0.776892  0.415996  1
  O  O106  1  0.458655  0.264669  0.679423  1
  O  O107  1  0.445565  0.393605  0.972311  1
  O  O108  1  0.711920  0.597605  0.066358  1
  O  O109  1  0.816862  0.706346  0.232313  1
  O  O110  1  0.786920  0.370812  0.587162  1
  O  O111  1  0.554041  0.183411  0.489058  1
