# generated using pymatgen
data_Pb13(Br3O5)2
_symmetry_space_group_name_H-M   'P 1'
_cell_length_a   7.37254868
_cell_length_b   9.17021437
_cell_length_c   24.50915050
_cell_angle_alpha   97.99151819
_cell_angle_beta   90.00778295
_cell_angle_gamma   113.68590947
_symmetry_Int_Tables_number   1
_chemical_formula_structural   Pb13(Br3O5)2
_chemical_formula_sum   'Pb26 Br12 O20'
_cell_volume   1499.82419646
_cell_formula_units_Z   2
loop_
 _symmetry_equiv_pos_site_id
 _symmetry_equiv_pos_as_xyz
  1  'x, y, z'
loop_
 _atom_site_type_symbol
 _atom_site_label
 _atom_site_symmetry_multiplicity
 _atom_site_fract_x
 _atom_site_fract_y
 _atom_site_fract_z
 _atom_site_occupancy
  Pb  Pb0  1  0.837948  0.467431  0.438713  1
  Pb  Pb1  1  0.155113  0.166269  0.632100  1
  Pb  Pb2  1  0.609739  0.352713  0.150215  1
  Pb  Pb3  1  0.777073  0.002402  0.749685  1
  Pb  Pb4  1  0.011182  0.163758  0.132263  1
  Pb  Pb5  1  0.680636  0.790718  0.207264  1
  Pb  Pb6  1  0.810810  0.096708  0.511383  1
  Pb  Pb7  1  0.845348  0.834863  0.367908  1
  Pb  Pb8  1  0.789185  0.732425  0.582252  1
  Pb  Pb9  1  0.322075  0.208860  0.792814  1
  Pb  Pb10  1  0.388787  0.646361  0.850313  1
  Pb  Pb11  1  0.742723  0.354037  0.649658  1
  Pb  Pb12  1  0.631301  0.469938  0.938253  1
  Pb  Pb13  1  0.887974  0.206386  0.292807  1
  Pb  Pb14  1  0.109592  0.792361  0.707140  1
  Pb  Pb15  1  0.190217  0.903667  0.488651  1
  Pb  Pb16  1  0.211224  0.270071  0.418040  1
  Pb  Pb17  1  0.224295  0.999549  0.249481  1
  Pb  Pb18  1  0.160697  0.533139  0.562080  1
  Pb  Pb19  1  0.988279  0.837568  0.867933  1
  Pb  Pb20  1  0.287657  0.097364  0.011465  1
  Pb  Pb21  1  0.714143  0.904312  0.989418  1
  Pb  Pb22  1  0.060083  0.270713  0.917583  1
  Pb  Pb23  1  0.254152  0.645409  0.350227  1
  Pb  Pb24  1  0.942710  0.730569  0.083004  1
  Pb  Pb25  1  0.371656  0.531784  0.061771  1
  Br  Br26  1  0.444263  0.937855  0.632156  1
  Br  Br27  1  0.003924  0.373411  0.752611  1
  Br  Br28  1  0.504649  0.060729  0.867009  1
  Br  Br29  1  0.364065  0.371229  0.252595  1
  Br  Br30  1  0.493471  0.937917  0.132394  1
  Br  Br31  1  0.497679  0.677654  0.459804  1
  Br  Br32  1  0.178109  0.680355  0.959866  1
  Br  Br33  1  0.823822  0.321569  0.040945  1
  Br  Br34  1  0.500347  0.323048  0.539597  1
  Br  Br35  1  0.553274  0.061126  0.366864  1
  Br  Br36  1  0.634415  0.631455  0.747030  1
  Br  Br37  1  0.992766  0.630190  0.247721  1
  O  O38  1  0.673860  0.656854  0.018924  1
  O  O39  1  0.329097  0.344712  0.981295  1
  O  O40  1  0.657382  0.608016  0.135470  1
  O  O41  1  0.018799  0.047752  0.816428  1
  O  O42  1  0.344800  0.391377  0.864608  1
  O  O43  1  0.026577  0.042876  0.316004  1
  O  O44  1  0.983220  0.980092  0.058398  1
  O  O45  1  0.982172  0.951480  0.182391  1
  O  O46  1  0.328842  0.282615  0.098621  1
  O  O47  1  0.950246  0.610082  0.635114  1
  O  O48  1  0.047301  0.389330  0.364732  1
  O  O49  1  0.043850  0.716261  0.401715  1
  O  O50  1  0.983755  0.657128  0.518632  1
  O  O51  1  0.972170  0.956043  0.682814  1
  O  O52  1  0.016497  0.343695  0.481820  1
  O  O53  1  0.670666  0.718473  0.901750  1
  O  O54  1  0.000586  0.981922  0.558210  1
  O  O55  1  0.954515  0.283508  0.598811  1
  O  O56  1  0.001053  0.019700  0.441590  1
  O  O57  1  0.018172  0.021440  0.941884  1
