# generated using pymatgen
data_Os3C10SO10
_symmetry_space_group_name_H-M   'P 1'
_cell_length_a   6.98725104
_cell_length_b   9.65831058
_cell_length_c   13.42037135
_cell_angle_alpha   82.60378761
_cell_angle_beta   87.62905203
_cell_angle_gamma   72.35856113
_symmetry_Int_Tables_number   1
_chemical_formula_structural   Os3C10SO10
_chemical_formula_sum   'Os6 C20 S2 O20'
_cell_volume   855.89822826
_cell_formula_units_Z   2
loop_
 _symmetry_equiv_pos_site_id
 _symmetry_equiv_pos_as_xyz
  1  'x, y, z'
loop_
 _atom_site_type_symbol
 _atom_site_label
 _atom_site_symmetry_multiplicity
 _atom_site_fract_x
 _atom_site_fract_y
 _atom_site_fract_z
 _atom_site_occupancy
  Os  Os0  1  0.168728  0.236746  0.360820  1
  Os  Os1  1  0.831272  0.763254  0.639180  1
  Os  Os2  1  0.355215  0.182198  0.165498  1
  Os  Os3  1  0.238288  0.474694  0.224109  1
  Os  Os4  1  0.644785  0.817802  0.834502  1
  Os  Os5  1  0.761712  0.525306  0.775891  1
  C  C6  1  0.336294  0.246380  0.024599  1
  C  C7  1  0.240184  0.572030  0.090788  1
  C  C8  1  0.968395  0.372910  0.722217  1
  C  C9  1  0.701990  -0.000662  0.835616  1
  C  C10  1  0.049889  0.646755  0.566370  1
  C  C11  1  0.439373  0.552783  0.265449  1
  C  C12  1  0.550395  0.731786  0.705124  1
  C  C13  1  0.663706  0.753620  0.975401  1
  C  C14  1  0.909886  0.938574  0.621632  1
  C  C15  1  0.638627  0.088775  0.156728  1
  C  C16  1  0.449605  0.268214  0.294876  1
  C  C17  1  0.298010  0.000662  0.164384  1
  C  C18  1  0.665287  0.819834  0.521439  1
  C  C19  1  0.334713  0.180166  0.478561  1
  C  C20  1  0.090114  0.061426  0.378368  1
  C  C21  1  0.950111  0.353245  0.433630  1
  C  C22  1  0.759816  0.427970  0.909212  1
  C  C23  1  0.361373  0.911225  0.843272  1
  C  C24  1  0.031605  0.627090  0.277783  1
  C  C25  1  0.560627  0.447217  0.734551  1
  S  S26  1  0.982210  0.668529  0.802162  1
  S  S27  1  0.017790  0.331471  0.197838  1
  O  O28  1  0.317913  0.285999  0.938999  1
  O  O29  1  0.734484  0.109888  0.837710  1
  O  O30  1  0.265516  0.890112  0.162290  1
  O  O31  1  0.815825  0.422203  0.477413  1
  O  O32  1  0.184175  0.577797  0.522587  1
  O  O33  1  0.442406  0.399021  0.706953  1
  O  O34  1  0.561092  0.849409  0.451968  1
  O  O35  1  0.613707  0.243753  0.331217  1
  O  O36  1  0.045476  0.954082  0.387448  1
  O  O37  1  0.810341  0.034132  0.150149  1
  O  O38  1  0.438908  0.150591  0.548032  1
  O  O39  1  0.682087  0.714001  0.061001  1
  O  O40  1  0.386293  0.756247  0.668783  1
  O  O41  1  0.189659  0.965868  0.849851  1
  O  O42  1  0.905409  0.721395  0.307415  1
  O  O43  1  0.094591  0.278605  0.692585  1
  O  O44  1  0.557594  0.600979  0.293047  1
  O  O45  1  0.756108  0.366947  0.989474  1
  O  O46  1  0.954524  0.045918  0.612552  1
  O  O47  1  0.243892  0.633053  0.010526  1
