# generated using pymatgen
data_La7P12Pd17
_symmetry_space_group_name_H-M   'P 1'
_cell_length_a   4.11513558
_cell_length_b   12.51473915
_cell_length_c   13.76485852
_cell_angle_alpha   111.70874044
_cell_angle_beta   89.98567541
_cell_angle_gamma   99.48405091
_symmetry_Int_Tables_number   1
_chemical_formula_structural   La7P12Pd17
_chemical_formula_sum   'La7 P12 Pd17'
_cell_volume   648.18226024
_cell_formula_units_Z   1
loop_
 _symmetry_equiv_pos_site_id
 _symmetry_equiv_pos_as_xyz
  1  'x, y, z'
loop_
 _atom_site_type_symbol
 _atom_site_label
 _atom_site_symmetry_multiplicity
 _atom_site_fract_x
 _atom_site_fract_y
 _atom_site_fract_z
 _atom_site_occupancy
  La  La0  1  0.582572  0.166571  0.262716  1
  La  La1  1  0.765811  0.532574  0.313209  1
  La  La2  1  0.364722  0.732536  0.000166  1
  La  La3  1  0.417194  0.835287  0.737140  1
  La  La4  1  0.497994  0.999222  0.499698  1
  La  La5  1  0.635885  0.270763  0.999112  1
  La  La6  1  0.232878  0.467904  0.686250  1
  P  P7  1  0.231310  0.468367  0.116507  1
  P  P8  1  0.012173  0.022901  0.328300  1
  P  P9  1  0.942206  0.880462  0.926092  1
  P  P10  1  0.990473  0.979197  0.672363  1
  P  P11  1  0.185911  0.377300  0.380799  1
  P  P12  1  0.764990  0.533868  0.882388  1
  P  P13  1  0.063712  0.121663  0.073588  1
  P  P14  1  0.634628  0.272429  0.580277  1
  P  P15  1  0.364796  0.728092  0.419623  1
  P  P16  1  0.115529  0.227962  0.827051  1
  P  P17  1  0.886416  0.774935  0.172943  1
  P  P18  1  0.809910  0.623805  0.618427  1
  Pd  Pd19  1  0.668044  0.331534  0.776277  1
  Pd  Pd20  1  0.890672  0.781729  0.542349  1
  Pd  Pd21  1  0.294510  0.593982  0.512311  1
  Pd  Pd22  1  0.837569  0.678957  0.806569  1
  Pd  Pd23  1  0.454241  0.906302  0.254425  1
  Pd  Pd24  1  0.106045  0.220815  0.458165  1
  Pd  Pd25  1  0.333899  0.669693  0.224093  1
  Pd  Pd26  1  0.549482  0.094904  0.745408  1
  Pd  Pd27  1  0.907290  0.813998  0.355581  1
  Pd  Pd28  1  0.094637  0.185731  0.643350  1
  Pd  Pd29  1  0.976900  0.949711  0.126413  1
  Pd  Pd30  1  0.781795  0.566109  0.071228  1
  Pd  Pd31  1  0.028966  0.052822  0.874567  1
  Pd  Pd32  1  0.503367  0.001072  0.000060  1
  Pd  Pd33  1  0.698966  0.406766  0.487431  1
  Pd  Pd34  1  0.220034  0.438189  0.927968  1
  Pd  Pd35  1  0.161299  0.323045  0.192772  1
