# generated using pymatgen
data_H5ClO6
_symmetry_space_group_name_H-M   'P 1'
_cell_length_a   6.11124389
_cell_length_b   10.80715756
_cell_length_c   7.25468437
_cell_angle_alpha   90.00000000
_cell_angle_beta   90.00000000
_cell_angle_gamma   90.00000000
_symmetry_Int_Tables_number   1
_chemical_formula_structural   H5ClO6
_chemical_formula_sum   'H20 Cl4 O24'
_cell_volume   479.13690319
_cell_formula_units_Z   4
loop_
 _symmetry_equiv_pos_site_id
 _symmetry_equiv_pos_as_xyz
  1  'x, y, z'
loop_
 _atom_site_type_symbol
 _atom_site_label
 _atom_site_symmetry_multiplicity
 _atom_site_fract_x
 _atom_site_fract_y
 _atom_site_fract_z
 _atom_site_occupancy
  H  H0  1  0.518018  0.104596  0.207721  1
  H  H1  1  0.497993  0.958917  0.252974  1
  H  H2  1  0.497637  0.001795  0.009962  1
  H  H3  1  0.997993  0.541083  0.247026  1
  H  H4  1  0.018018  0.395404  0.292279  1
  H  H5  1  0.997637  0.498205  0.490038  1
  H  H6  1  0.481982  0.604596  0.792279  1
  H  H7  1  0.502363  0.501795  0.990038  1
  H  H8  1  0.502007  0.458917  0.747026  1
  H  H9  1  0.002363  0.998205  0.509962  1
  H  H10  1  0.981982  0.895404  0.707721  1
  H  H11  1  0.002007  0.041083  0.752974  1
  H  H12  1  0.486896  0.897096  0.802241  1
  H  H13  1  0.504694  0.041399  0.757603  1
  H  H14  1  0.004694  0.458601  0.742397  1
  H  H15  1  0.986896  0.602904  0.697759  1
  H  H16  1  0.513104  0.397096  0.197759  1
  H  H17  1  0.495306  0.541399  0.242396  1
  H  H18  1  0.013104  0.102904  0.302241  1
  H  H19  1  0.995306  0.958601  0.257603  1
  Cl  Cl20  1  0.577806  0.249265  0.500415  1
  Cl  Cl21  1  0.077806  0.250735  0.999585  1
  Cl  Cl22  1  0.422194  0.749265  0.499585  1
  Cl  Cl23  1  0.922194  0.750735  0.000415  1
  O  O24  1  0.594894  0.248478  0.295004  1
  O  O25  1  0.094894  0.251522  0.204996  1
  O  O26  1  0.405106  0.748479  0.704996  1
  O  O27  1  0.905106  0.751521  0.795004  1
  O  O28  1  0.794484  0.248782  0.579911  1
  O  O29  1  0.294484  0.251218  0.920089  1
  O  O30  1  0.205516  0.748782  0.420089  1
  O  O31  1  0.705516  0.751218  0.079911  1
  O  O32  1  0.455625  0.139178  0.555097  1
  O  O33  1  0.955625  0.360822  0.944903  1
  O  O34  1  0.544375  0.639178  0.444903  1
  O  O35  1  0.044375  0.860822  0.055097  1
  O  O36  1  0.541693  0.861064  0.447841  1
  O  O37  1  0.041693  0.638936  0.052159  1
  O  O38  1  0.458307  0.361064  0.552159  1
  O  O39  1  0.958307  0.138936  0.947841  1
  O  O40  1  0.454063  0.024538  0.164495  1
  O  O41  1  0.954063  0.475462  0.335505  1
  O  O42  1  0.545937  0.524538  0.835505  1
  O  O43  1  0.045937  0.975462  0.664495  1
  O  O44  1  0.546715  0.976716  0.847503  1
  O  O45  1  0.046715  0.523284  0.652497  1
  O  O46  1  0.453285  0.476716  0.152497  1
  O  O47  1  0.953285  0.023284  0.347503  1
