# generated using pymatgen
data_Ba3HoUFeO9
_symmetry_space_group_name_H-M   'P 1'
_cell_length_a   5.99373635
_cell_length_b   5.99373650
_cell_length_c   20.19857413
_cell_angle_alpha   63.56957122
_cell_angle_beta   63.56957009
_cell_angle_gamma   60.00000244
_symmetry_Int_Tables_number   1
_chemical_formula_structural   Ba3HoUFeO9
_chemical_formula_sum   'Ba6 Ho2 U2 Fe2 O18'
_cell_volume   539.05974022
_cell_formula_units_Z   2
loop_
 _symmetry_equiv_pos_site_id
 _symmetry_equiv_pos_as_xyz
  1  'x, y, z'
loop_
 _atom_site_type_symbol
 _atom_site_label
 _atom_site_symmetry_multiplicity
 _atom_site_fract_x
 _atom_site_fract_y
 _atom_site_fract_z
 _atom_site_occupancy
  Ba  Ba0  1  0.281487  0.281487  0.051846  1
  Ba  Ba1  1  0.220552  0.220552  0.446115  1
  Ba  Ba2  1  0.484762  0.484762  0.181905  1
  Ba  Ba3  1  0.695858  0.695858  0.304142  1
  Ba  Ba4  1  0.518005  0.518005  0.815328  1
  Ba  Ba5  1  0.722043  0.722043  0.944624  1
  Ho  Ho6  1  0.341963  0.341963  0.658037  1
  Ho  Ho7  1  0.718467  0.718467  0.614866  1
  U  U8  1  0.001221  0.001221  0.998779  1
  U  U9  1  0.971030  0.971030  0.362303  1
  Fe  Fe10  1  0.020903  0.020903  0.645764  1
  Fe  Fe11  1  0.502509  0.502509  0.497491  1
  O  O12  1  0.262668  0.767207  0.067640  1
  O  O13  1  0.199516  0.199516  0.295339  1
  O  O14  1  0.199516  0.714952  0.295339  1
  O  O15  1  0.767207  0.262668  0.067640  1
  O  O16  1  0.272353  0.272353  0.573517  1
  O  O17  1  0.246454  0.730292  0.430987  1
  O  O18  1  0.767207  0.767207  0.067640  1
  O  O19  1  0.714952  0.199516  0.295339  1
  O  O20  1  0.272353  0.734742  0.573517  1
  O  O21  1  0.730292  0.246454  0.430987  1
  O  O22  1  0.234621  0.234621  0.930587  1
  O  O23  1  0.314794  0.800309  0.694862  1
  O  O24  1  0.734742  0.272353  0.573517  1
  O  O25  1  0.730292  0.730292  0.430987  1
  O  O26  1  0.234621  0.738995  0.930587  1
  O  O27  1  0.800309  0.314794  0.694862  1
  O  O28  1  0.738995  0.234621  0.930587  1
  O  O29  1  0.800309  0.800309  0.694862  1
