# generated using pymatgen
data_Al2Se3
_symmetry_space_group_name_H-M   'P 1'
_cell_length_a   7.52182063
_cell_length_b   22.56412738
_cell_length_c   19.89398390
_cell_angle_alpha   19.11333710
_cell_angle_beta   55.43880958
_cell_angle_gamma   59.96667568
_symmetry_Int_Tables_number   1
_chemical_formula_structural   Al2Se3
_chemical_formula_sum   'Al16 Se24'
_cell_volume   902.54337716
_cell_formula_units_Z   8
loop_
 _symmetry_equiv_pos_site_id
 _symmetry_equiv_pos_as_xyz
  1  'x, y, z'
loop_
 _atom_site_type_symbol
 _atom_site_label
 _atom_site_symmetry_multiplicity
 _atom_site_fract_x
 _atom_site_fract_y
 _atom_site_fract_z
 _atom_site_occupancy
  Al  Al0  1  0.988376  0.997992  0.009414  1
  Al  Al1  1  0.009727  0.335378  0.990950  1
  Al  Al2  1  0.238026  0.245111  0.261886  1
  Al  Al3  1  0.621273  0.100708  0.151608  1
  Al  Al4  1  0.095805  0.123587  0.629134  1
  Al  Al5  1  0.259194  0.586416  0.240298  1
  Al  Al6  1  0.627611  0.483257  0.097109  1
  Al  Al7  1  0.152937  0.461984  0.619230  1
  Al  Al8  1  0.643701  0.124390  0.628148  1
  Al  Al9  1  0.623605  0.292494  0.624753  1
  Al  Al10  1  0.624194  0.793321  0.123435  1
  Al  Al11  1  0.604670  0.461959  0.619132  1
  Al  Al12  1  0.123310  0.790930  0.625773  1
  Al  Al13  1  0.618557  0.648679  0.604289  1
  Al  Al14  1  0.623963  0.790700  0.625698  1
  Al  Al15  1  0.626484  0.934883  0.646042  1
  Se  Se16  1  0.375865  0.032841  0.382246  1
  Se  Se17  1  0.383408  0.204132  0.386593  1
  Se  Se18  1  0.384651  0.358117  0.384442  1
  Se  Se19  1  0.870802  0.030933  0.387299  1
  Se  Se20  1  0.841967  0.203919  0.386587  1
  Se  Se21  1  0.384765  0.044042  0.871476  1
  Se  Se22  1  0.381045  0.542331  0.376014  1
  Se  Se23  1  0.389470  0.706521  0.367225  1
  Se  Se24  1  0.859008  0.360736  0.399363  1
  Se  Se25  1  0.389006  0.224694  0.849543  1
  Se  Se26  1  0.867334  0.043483  0.872069  1
  Se  Se27  1  0.862861  0.541919  0.376480  1
  Se  Se28  1  0.405804  0.379535  0.863460  1
  Se  Se29  1  0.368350  0.871655  0.388149  1
  Se  Se30  1  0.863302  0.685360  0.405689  1
  Se  Se31  1  0.375268  0.550569  0.864903  1
  Se  Se32  1  0.864280  0.227347  0.863338  1
  Se  Se33  1  0.864248  0.379148  0.863717  1
  Se  Se34  1  0.849933  0.869937  0.389727  1
  Se  Se35  1  0.397457  0.712625  0.860665  1
  Se  Se36  1  0.384446  0.899084  0.843714  1
  Se  Se37  1  0.871896  0.549011  0.868805  1
  Se  Se38  1  0.878507  0.712479  0.861050  1
  Se  Se39  1  0.858819  0.879901  0.880045  1
