# generated using pymatgen
data_KCa10(PO4)7
_symmetry_space_group_name_H-M   'P 1'
_cell_length_a   13.94147189
_cell_length_b   13.94147189
_cell_length_c   13.94147189
_cell_angle_alpha   44.71720567
_cell_angle_beta   44.71720566
_cell_angle_gamma   44.71720567
_symmetry_Int_Tables_number   1
_chemical_formula_structural   KCa10(PO4)7
_chemical_formula_sum   'K2 Ca20 P14 O56'
_cell_volume   1220.26825251
_cell_formula_units_Z   2
loop_
 _symmetry_equiv_pos_site_id
 _symmetry_equiv_pos_as_xyz
  1  'x, y, z'
loop_
 _atom_site_type_symbol
 _atom_site_label
 _atom_site_symmetry_multiplicity
 _atom_site_fract_x
 _atom_site_fract_y
 _atom_site_fract_z
 _atom_site_occupancy
  O  O0  1  0.960403  0.268489  0.505693  1
  O  O1  1  0.268489  0.505693  0.960403  1
  O  O2  1  0.505693  0.960403  0.268489  1
  O  O3  1  0.005693  0.768489  0.460403  1
  O  O4  1  0.768489  0.460403  0.005693  1
  O  O5  1  0.460403  0.005693  0.768489  1
  O  O6  1  0.219567  0.039611  0.492686  1
  O  O7  1  0.039611  0.492686  0.219567  1
  O  O8  1  0.492686  0.219567  0.039611  1
  O  O9  1  0.992686  0.539611  0.719567  1
  O  O10  1  0.539611  0.719567  0.992686  1
  O  O11  1  0.719567  0.992686  0.539611  1
  O  O12  1  0.030957  0.058194  0.487135  1
  O  O13  1  0.058194  0.487135  0.030957  1
  O  O14  1  0.487135  0.030957  0.058194  1
  O  O15  1  0.987135  0.558194  0.530957  1
  O  O16  1  0.558194  0.530957  0.987135  1
  O  O17  1  0.530957  0.987135  0.558194  1
  O  O18  1  0.984685  0.016340  0.727267  1
  O  O19  1  0.016340  0.727267  0.984685  1
  O  O20  1  0.727267  0.984685  0.016340  1
  O  O21  1  0.227267  0.516340  0.484685  1
  O  O22  1  0.700598  0.259214  0.507787  1
  O  O23  1  0.516340  0.484685  0.227267  1
  O  O24  1  0.731139  0.012991  0.735415  1
  O  O25  1  0.012991  0.735415  0.731139  1
  O  O26  1  0.735415  0.731139  0.012991  1
  O  O27  1  0.235415  0.512991  0.231139  1
  O  O28  1  0.512991  0.231139  0.235415  1
  O  O29  1  0.231139  0.235415  0.512991  1
  O  O30  1  0.471335  0.207219  0.763952  1
  O  O31  1  0.207219  0.763952  0.471335  1
  O  O32  1  0.763952  0.471335  0.207219  1
  O  O33  1  0.263952  0.707219  0.971335  1
  O  O34  1  0.707219  0.971335  0.263952  1
  O  O35  1  0.971335  0.263952  0.707219  1
  O  O36  1  0.175906  0.175906  0.175906  1
  O  O37  1  0.675906  0.675906  0.675906  1
  O  O38  1  0.127022  0.257525  0.978730  1
  O  O39  1  0.978730  0.127022  0.257525  1
  O  O40  1  0.257525  0.978730  0.127022  1
  O  O41  1  0.757525  0.627022  0.478730  1
  O  O42  1  0.478730  0.757525  0.627022  1
  O  O43  1  0.627022  0.478730  0.757525  1
  O  O44  1  0.133940  0.234631  0.755335  1
  O  O45  1  0.755335  0.133940  0.234631  1
  O  O46  1  0.234631  0.755335  0.133940  1
  O  O47  1  0.734631  0.633940  0.255335  1
  O  O48  1  0.255335  0.734631  0.633940  1
  O  O49  1  0.633940  0.255335  0.734631  1
  O  O50  1  0.200598  0.007787  0.759214  1
  O  O51  1  0.759214  0.200598  0.007787  1
  O  O52  1  0.007787  0.759214  0.200598  1
  O  O53  1  0.507787  0.700598  0.259214  1
  O  O54  1  0.259214  0.507787  0.700598  1
  O  O55  1  0.484685  0.227267  0.516340  1
  P  P56  1  0.049596  0.096556  0.552558  1
  P  P57  1  0.096556  0.552558  0.049596  1
  P  P58  1  0.552558  0.049596  0.096556  1
  P  P59  1  0.052558  0.596556  0.549596  1
  P  P60  1  0.596556  0.549596  0.052558  1
  P  P61  1  0.549596  0.052558  0.596556  1
  P  P62  1  0.636108  0.187413  0.680660  1
  P  P63  1  0.187413  0.680660  0.636108  1
  P  P64  1  0.680660  0.636108  0.187413  1
  P  P65  1  0.180660  0.687413  0.136108  1
  P  P66  1  0.687413  0.136108  0.180660  1
  P  P67  1  0.136108  0.180660  0.687413  1
  P  P68  1  0.634401  0.634401  0.634401  1
  P  P69  1  0.134401  0.134401  0.134401  1
  K  K70  1  0.548691  0.548691  0.548691  1
  K  K71  1  0.048691  0.048691  0.048691  1
  Ca  Ca72  1  0.867078  0.867078  0.867078  1
  Ca  Ca73  1  0.367078  0.367078  0.367078  1
  Ca  Ca74  1  0.775543  0.213001  0.813429  1
  Ca  Ca75  1  0.213001  0.813429  0.775543  1
  Ca  Ca76  1  0.813429  0.775543  0.213001  1
  Ca  Ca77  1  0.313429  0.713001  0.275543  1
  Ca  Ca78  1  0.713001  0.275543  0.313429  1
  Ca  Ca79  1  0.275543  0.313429  0.713001  1
  Ca  Ca80  1  0.024629  0.440359  0.431451  1
  Ca  Ca81  1  0.440359  0.431451  0.024629  1
  Ca  Ca82  1  0.431451  0.024629  0.440359  1
  Ca  Ca83  1  0.931451  0.940359  0.524629  1
  Ca  Ca84  1  0.940359  0.524629  0.931451  1
  Ca  Ca85  1  0.524629  0.931451  0.940359  1
  Ca  Ca86  1  0.932619  0.340749  0.307688  1
  Ca  Ca87  1  0.340749  0.307688  0.932619  1
  Ca  Ca88  1  0.307688  0.932619  0.340749  1
  Ca  Ca89  1  0.807688  0.840749  0.432619  1
  Ca  Ca90  1  0.840749  0.432619  0.807688  1
  Ca  Ca91  1  0.432619  0.807688  0.840749  1
