# generated using pymatgen
data_ReC4IO4
_symmetry_space_group_name_H-M   'P 1'
_cell_length_a   10.18446527
_cell_length_b   12.38941513
_cell_length_c   13.27742955
_cell_angle_alpha   90.00000000
_cell_angle_beta   107.82365069
_cell_angle_gamma   90.00000000
_symmetry_Int_Tables_number   1
_chemical_formula_structural   ReC4IO4
_chemical_formula_sum   'Re8 C32 I8 O32'
_cell_volume   1594.92922770
_cell_formula_units_Z   8
loop_
 _symmetry_equiv_pos_site_id
 _symmetry_equiv_pos_as_xyz
  1  'x, y, z'
loop_
 _atom_site_type_symbol
 _atom_site_label
 _atom_site_symmetry_multiplicity
 _atom_site_fract_x
 _atom_site_fract_y
 _atom_site_fract_z
 _atom_site_occupancy
  Re  Re0  1  0.390073  0.871719  0.683438  1
  Re  Re1  1  0.164671  0.130407  0.210174  1
  Re  Re2  1  0.835329  0.869593  0.789826  1
  Re  Re3  1  0.609927  0.128281  0.316562  1
  Re  Re4  1  0.609927  0.371719  0.816562  1
  Re  Re5  1  0.390073  0.628281  0.183438  1
  Re  Re6  1  0.164671  0.369593  0.710174  1
  Re  Re7  1  0.835329  0.630407  0.289826  1
  C  C8  1  0.602066  0.035727  0.190584  1
  C  C9  1  0.750634  0.216269  0.289639  1
  C  C10  1  0.026225  0.218637  0.113453  1
  C  C11  1  0.602066  0.464273  0.690584  1
  C  C12  1  0.250958  0.537247  0.090381  1
  C  C13  1  0.607459  0.275750  0.937342  1
  C  C14  1  0.027223  0.460377  0.739483  1
  C  C15  1  0.392541  0.724250  0.062658  1
  C  C16  1  0.973775  0.718637  0.386547  1
  C  C17  1  0.972777  0.539623  0.260517  1
  C  C18  1  0.026225  0.281363  0.613453  1
  C  C19  1  0.249366  0.716269  0.210361  1
  C  C20  1  0.397934  0.964273  0.809416  1
  C  C21  1  0.166477  0.226811  0.331984  1
  C  C22  1  0.392541  0.775750  0.562658  1
  C  C23  1  0.177404  0.033636  0.092521  1
  C  C24  1  0.166477  0.273189  0.831984  1
  C  C25  1  0.607459  0.224250  0.437342  1
  C  C26  1  0.249366  0.783731  0.710361  1
  C  C27  1  0.750634  0.283731  0.789639  1
  C  C28  1  0.822596  0.533636  0.407479  1
  C  C29  1  0.822596  0.966364  0.907479  1
  C  C30  1  0.250958  0.962753  0.590381  1
  C  C31  1  0.973775  0.781363  0.886547  1
  C  C32  1  0.972777  0.960377  0.760517  1
  C  C33  1  0.749042  0.037247  0.409619  1
  C  C34  1  0.027223  0.039623  0.239483  1
  C  C35  1  0.177404  0.466364  0.592521  1
  C  C36  1  0.833523  0.726811  0.168016  1
  C  C37  1  0.749042  0.462753  0.909619  1
  C  C38  1  0.397934  0.535727  0.309416  1
  C  C39  1  0.833523  0.773189  0.668016  1
  I  I40  1  0.615066  0.991507  0.650747  1
  I  I41  1  0.611875  0.746764  0.819936  1
  I  I42  1  0.388125  0.253236  0.180064  1
  I  I43  1  0.384934  0.008493  0.349253  1
  I  I44  1  0.611875  0.753236  0.319936  1
  I  I45  1  0.384934  0.491507  0.849253  1
  I  I46  1  0.615066  0.508493  0.150747  1
  I  I47  1  0.388125  0.246764  0.680064  1
  O  O48  1  0.942389  0.271100  0.054164  1
  O  O49  1  0.610313  0.220001  0.007987  1
  O  O50  1  0.834382  0.983315  0.465716  1
  O  O51  1  0.836468  0.229752  0.774337  1
  O  O52  1  0.055412  0.015446  0.741908  1
  O  O53  1  0.163532  0.729752  0.725663  1
  O  O54  1  0.598287  0.985628  0.116191  1
  O  O55  1  0.389687  0.720001  0.492013  1
  O  O56  1  0.165618  0.483315  0.034284  1
  O  O57  1  0.610313  0.279999  0.507987  1
  O  O58  1  0.834382  0.516685  0.965716  1
  O  O59  1  0.057611  0.728900  0.945836  1
  O  O60  1  0.832592  0.718295  0.597084  1
  O  O61  1  0.832592  0.781705  0.097084  1
  O  O62  1  0.182959  0.522848  0.524521  1
  O  O63  1  0.167408  0.218295  0.902916  1
  O  O64  1  0.057611  0.771100  0.445836  1
  O  O65  1  0.598287  0.514372  0.616191  1
  O  O66  1  0.836468  0.270248  0.274337  1
  O  O67  1  0.055412  0.484554  0.241907  1
  O  O68  1  0.163532  0.770248  0.225663  1
  O  O69  1  0.182959  0.977152  0.024521  1
  O  O70  1  0.167408  0.281705  0.402916  1
  O  O71  1  0.389687  0.779999  0.992013  1
  O  O72  1  0.401713  0.014372  0.883809  1
  O  O73  1  0.944588  0.984554  0.258093  1
  O  O74  1  0.401713  0.485628  0.383809  1
  O  O75  1  0.817041  0.022848  0.975479  1
  O  O76  1  0.165618  0.016685  0.534284  1
  O  O77  1  0.944588  0.515446  0.758092  1
  O  O78  1  0.817041  0.477152  0.475479  1
  O  O79  1  0.942389  0.228900  0.554164  1
