# generated using pymatgen
data_Gd2MnS4
_symmetry_space_group_name_H-M   'P 1'
_cell_length_a   7.22764798
_cell_length_b   7.22764872
_cell_length_c   7.22764804
_cell_angle_alpha   111.01794299
_cell_angle_beta   106.42018204
_cell_angle_gamma   111.01794630
_symmetry_Int_Tables_number   1
_chemical_formula_structural   Gd2MnS4
_chemical_formula_sum   'Gd4 Mn2 S8'
_cell_volume   290.03525901
_cell_formula_units_Z   2
loop_
 _symmetry_equiv_pos_site_id
 _symmetry_equiv_pos_as_xyz
  1  'x, y, z'
loop_
 _atom_site_type_symbol
 _atom_site_label
 _atom_site_symmetry_multiplicity
 _atom_site_fract_x
 _atom_site_fract_y
 _atom_site_fract_z
 _atom_site_occupancy
  Gd  Gd0  1  0.250000  0.631699  0.381699  1
  Gd  Gd1  1  0.618301  0.368301  0.250000  1
  Gd  Gd2  1  0.750000  0.868301  0.118301  1
  Gd  Gd3  1  0.881699  0.131699  0.750000  1
  Mn  Mn4  1  0.125000  0.750000  0.875000  1
  Mn  Mn5  1  0.375000  0.250000  0.625000  1
  S  S6  1  0.486073  0.982530  0.867714  1
  S  S7  1  0.132286  0.118359  0.114816  1
  S  S8  1  0.367714  0.482530  0.986073  1
  S  S9  1  0.614816  0.618359  0.632286  1
  S  S10  1  0.503543  0.017470  0.385184  1
  S  S11  1  0.013927  0.881641  0.496457  1
  S  S12  1  0.885184  0.517470  0.003543  1
  S  S13  1  0.996457  0.381642  0.513927  1
