# generated using pymatgen
data_Li3Mo2P3O14
_symmetry_space_group_name_H-M   'P 1'
_cell_length_a   8.21922278
_cell_length_b   15.36403207
_cell_length_c   18.24780462
_cell_angle_alpha   102.98718025
_cell_angle_beta   90.00000000
_cell_angle_gamma   90.00000000
_symmetry_Int_Tables_number   1
_chemical_formula_structural   Li3Mo2P3O14
_chemical_formula_sum   'Li24 Mo16 P24 O112'
_cell_volume   2245.39594878
_cell_formula_units_Z   8
loop_
 _symmetry_equiv_pos_site_id
 _symmetry_equiv_pos_as_xyz
  1  'x, y, z'
loop_
 _atom_site_type_symbol
 _atom_site_label
 _atom_site_symmetry_multiplicity
 _atom_site_fract_x
 _atom_site_fract_y
 _atom_site_fract_z
 _atom_site_occupancy
  Li  Li0  1  0.230665  0.116384  0.286758  1
  Li  Li1  1  0.025078  0.370868  0.658328  1
  Li  Li2  1  0.131133  0.762037  0.080302  1
  Li  Li3  1  0.631133  0.237963  0.419698  1
  Li  Li4  1  0.368867  0.762037  0.580302  1
  Li  Li5  1  0.055014  0.432126  0.856750  1
  Li  Li6  1  0.525078  0.629132  0.841672  1
  Li  Li7  1  0.974922  0.629132  0.341672  1
  Li  Li8  1  0.730665  0.883616  0.213242  1
  Li  Li9  1  0.568236  0.271566  0.267868  1
  Li  Li10  1  0.828413  0.166074  0.646199  1
  Li  Li11  1  0.555014  0.567874  0.643250  1
  Li  Li12  1  0.868867  0.237963  0.919698  1
  Li  Li13  1  0.474922  0.370868  0.158328  1
  Li  Li14  1  0.931764  0.271566  0.767868  1
  Li  Li15  1  0.328413  0.833926  0.853801  1
  Li  Li16  1  0.671587  0.166074  0.146199  1
  Li  Li17  1  0.944986  0.567874  0.143250  1
  Li  Li18  1  0.068236  0.728434  0.232132  1
  Li  Li19  1  0.269335  0.116384  0.786758  1
  Li  Li20  1  0.171587  0.833926  0.353801  1
  Li  Li21  1  0.769335  0.883616  0.713242  1
  Li  Li22  1  0.431764  0.728434  0.732132  1
  Li  Li23  1  0.444986  0.432126  0.356750  1
  Mo  Mo24  1  0.987635  0.325019  0.082717  1
  Mo  Mo25  1  0.516847  0.844771  0.043097  1
  Mo  Mo26  1  0.514153  0.577535  0.144814  1
  Mo  Mo27  1  0.512365  0.325019  0.582717  1
  Mo  Mo28  1  0.485847  0.422465  0.855186  1
  Mo  Mo29  1  0.014153  0.422465  0.355186  1
  Mo  Mo30  1  0.953397  0.977205  0.849696  1
  Mo  Mo31  1  0.546603  0.977205  0.349696  1
  Mo  Mo32  1  0.016847  0.155229  0.456903  1
  Mo  Mo33  1  0.012365  0.674981  0.917283  1
  Mo  Mo34  1  0.487635  0.674981  0.417283  1
  Mo  Mo35  1  0.483153  0.155229  0.956903  1
  Mo  Mo36  1  0.985847  0.577535  0.644814  1
  Mo  Mo37  1  0.983153  0.844771  0.543097  1
  Mo  Mo38  1  0.046603  0.022795  0.150304  1
  Mo  Mo39  1  0.453397  0.022795  0.650304  1
  P  P40  1  0.303736  0.293571  0.412362  1
  P  P41  1  0.729043  0.467392  0.250077  1
  P  P42  1  0.696264  0.706429  0.587638  1
  P  P43  1  0.152844  0.890679  0.981131  1
  P  P44  1  0.139380  0.622641  0.487490  1
  P  P45  1  0.847156  0.109321  0.018869  1
  P  P46  1  0.701358  0.797470  0.871689  1
  P  P47  1  0.803736  0.706429  0.087638  1
  P  P48  1  0.360620  0.622641  0.987490  1
  P  P49  1  0.310558  0.885239  0.205822  1
  P  P50  1  0.639380  0.377359  0.012510  1
  P  P51  1  0.810558  0.114761  0.294178  1
  P  P52  1  0.229043  0.532608  0.249923  1
  P  P53  1  0.652844  0.109321  0.518869  1
  P  P54  1  0.196264  0.293571  0.912362  1
  P  P55  1  0.270957  0.532608  0.749923  1
  P  P56  1  0.770957  0.467392  0.750077  1
  P  P57  1  0.298642  0.202530  0.128311  1
  P  P58  1  0.689442  0.114761  0.794178  1
  P  P59  1  0.860620  0.377359  0.512510  1
  P  P60  1  0.347156  0.890679  0.481131  1
  P  P61  1  0.798642  0.797470  0.371689  1
  P  P62  1  0.189442  0.885239  0.705822  1
  P  P63  1  0.201358  0.202530  0.628311  1
  O  O64  1  0.454812  0.243446  0.167723  1
  O  O65  1  0.957757  0.718919  0.136585  1
  O  O66  1  0.669562  0.553291  0.226605  1
  O  O67  1  0.110308  0.568785  0.548399  1
  O  O68  1  0.465623  0.707216  0.998895  1
  O  O69  1  0.582041  0.937858  0.660162  1
  O  O70  1  0.672408  0.839674  0.955740  1
  O  O71  1  0.001252  0.559669  0.880766  1
  O  O72  1  0.610308  0.431215  0.951601  1
  O  O73  1  0.983035  0.098024  0.257424  1
  O  O74  1  0.950565  0.953150  0.587944  1
  O  O75  1  0.337088  0.865586  0.969999  1
  O  O76  1  0.830438  0.553291  0.726605  1
  O  O77  1  0.363925  0.973891  0.545492  1
  O  O78  1  0.542243  0.718919  0.636585  1
  O  O79  1  0.636075  0.026109  0.454508  1
  O  O80  1  0.322845  0.651547  0.497906  1
  O  O81  1  0.016965  0.901976  0.742576  1
  O  O82  1  0.427431  0.672116  0.196172  1
  O  O83  1  0.863925  0.026109  0.954508  1
  O  O84  1  0.845513  0.504364  0.318041  1
  O  O85  1  0.278561  0.134069  0.667973  1
  O  O86  1  0.927431  0.327884  0.303828  1
  O  O87  1  0.136075  0.973891  0.045492  1
  O  O88  1  0.719512  0.622098  0.105273  1
  O  O89  1  0.154275  0.319290  0.996394  1
  O  O90  1  0.827592  0.839674  0.455740  1
  O  O91  1  0.191665  0.209813  0.392386  1
  O  O92  1  0.198135  0.835232  0.247821  1
  O  O93  1  0.457757  0.281081  0.363415  1
  O  O94  1  0.501252  0.440331  0.619234  1
  O  O95  1  0.325615  0.282000  0.632656  1
  O  O96  1  0.166187  0.707972  0.863610  1
  O  O97  1  0.833813  0.292028  0.136390  1
  O  O98  1  0.889692  0.431215  0.451601  1
  O  O99  1  0.831590  0.168846  0.377764  1
  O  O100  1  0.545188  0.756554  0.832277  1
  O  O101  1  0.345725  0.319290  0.496394  1
  O  O102  1  0.808335  0.790187  0.607614  1
  O  O103  1  0.174385  0.282000  0.132656  1
  O  O104  1  0.450565  0.046850  0.912056  1
  O  O105  1  0.327592  0.160326  0.044260  1
  O  O106  1  0.593452  0.404273  0.264926  1
  O  O107  1  0.049435  0.046850  0.412056  1
  O  O108  1  0.677155  0.348453  0.502094  1
  O  O109  1  0.219512  0.377902  0.394727  1
  O  O110  1  0.045188  0.243446  0.667723  1
  O  O111  1  0.654275  0.680710  0.503606  1
  O  O112  1  0.238331  0.979377  0.204955  1
  O  O113  1  0.104130  0.563695  0.408805  1
  O  O114  1  0.110266  0.907349  0.902057  1
  O  O115  1  0.572569  0.327884  0.803828  1
  O  O116  1  0.917959  0.937858  0.160162  1
  O  O117  1  0.822845  0.348453  0.002094  1
  O  O118  1  0.308335  0.209813  0.892386  1
  O  O119  1  0.604130  0.436305  0.091195  1
  O  O120  1  0.837088  0.134414  0.530001  1
  O  O121  1  0.034377  0.707216  0.498895  1
  O  O122  1  0.417959  0.062143  0.339838  1
  O  O123  1  0.483035  0.901976  0.242576  1
  O  O124  1  0.949684  0.186476  0.003004  1
  O  O125  1  0.738331  0.020623  0.295045  1
  O  O126  1  0.998748  0.440331  0.119234  1
  O  O127  1  0.674385  0.718000  0.367344  1
  O  O128  1  0.610266  0.092651  0.597943  1
  O  O129  1  0.301865  0.835232  0.747821  1
  O  O130  1  0.516965  0.098024  0.757424  1
  O  O131  1  0.549435  0.953150  0.087944  1
  O  O132  1  0.093452  0.595727  0.235074  1
  O  O133  1  0.691665  0.790187  0.107614  1
  O  O134  1  0.906548  0.404273  0.764926  1
  O  O135  1  0.698135  0.164768  0.252179  1
  O  O136  1  0.333813  0.707972  0.363610  1
  O  O137  1  0.895870  0.436305  0.591195  1
  O  O138  1  0.162912  0.865586  0.469999  1
  O  O139  1  0.395870  0.563695  0.908805  1
  O  O140  1  0.534377  0.292784  0.001105  1
  O  O141  1  0.662912  0.134414  0.030001  1
  O  O142  1  0.042243  0.281081  0.863415  1
  O  O143  1  0.666187  0.292028  0.636390  1
  O  O144  1  0.172408  0.160326  0.544260  1
  O  O145  1  0.331590  0.831154  0.122236  1
  O  O146  1  0.550316  0.186476  0.503004  1
  O  O147  1  0.654487  0.504364  0.818041  1
  O  O148  1  0.221439  0.134069  0.167973  1
  O  O149  1  0.825615  0.718000  0.867344  1
  O  O150  1  0.721439  0.865931  0.332027  1
  O  O151  1  0.177155  0.651547  0.997906  1
  O  O152  1  0.801865  0.164768  0.752179  1
  O  O153  1  0.072569  0.672116  0.696172  1
  O  O154  1  0.389734  0.907349  0.402057  1
  O  O155  1  0.449684  0.813524  0.496995  1
  O  O156  1  0.345513  0.495636  0.181959  1
  O  O157  1  0.965623  0.292784  0.501105  1
  O  O158  1  0.082041  0.062143  0.839838  1
  O  O159  1  0.498748  0.559669  0.380766  1
  O  O160  1  0.406548  0.595727  0.735074  1
  O  O161  1  0.780488  0.622098  0.605273  1
  O  O162  1  0.889734  0.092651  0.097943  1
  O  O163  1  0.668410  0.168846  0.877764  1
  O  O164  1  0.845725  0.680710  0.003606  1
  O  O165  1  0.330438  0.446709  0.773395  1
  O  O166  1  0.778561  0.865931  0.832027  1
  O  O167  1  0.168410  0.831154  0.622236  1
  O  O168  1  0.389692  0.568785  0.048399  1
  O  O169  1  0.169562  0.446709  0.273395  1
  O  O170  1  0.050316  0.813524  0.996996  1
  O  O171  1  0.261669  0.979377  0.704955  1
  O  O172  1  0.280488  0.377902  0.894727  1
  O  O173  1  0.154487  0.495636  0.681959  1
  O  O174  1  0.954812  0.756554  0.332277  1
  O  O175  1  0.761669  0.020623  0.795045  1
