# generated using pymatgen
data_CeInPt
_symmetry_space_group_name_H-M   'P 1'
_cell_length_a   7.63070091
_cell_length_b   7.63438332
_cell_length_c   4.07303362
_cell_angle_alpha   90.00514545
_cell_angle_beta   89.99591328
_cell_angle_gamma   120.01346404
_symmetry_Int_Tables_number   1
_chemical_formula_structural   CeInPt
_chemical_formula_sum   'Ce3 In3 Pt3'
_cell_volume   205.46037686
_cell_formula_units_Z   3
loop_
 _symmetry_equiv_pos_site_id
 _symmetry_equiv_pos_as_xyz
  1  'x, y, z'
loop_
 _atom_site_type_symbol
 _atom_site_label
 _atom_site_symmetry_multiplicity
 _atom_site_fract_x
 _atom_site_fract_y
 _atom_site_fract_z
 _atom_site_occupancy
  Ce  Ce0  1  0.412392  0.999991  0.999962  1
  Ce  Ce1  1  0.587546  0.587521  0.999974  1
  Ce  Ce2  1  -0.000046  0.412325  0.000013  1
  In  In3  1  0.000215  0.748468  0.500047  1
  In  In4  1  0.748871  0.000492  0.499967  1
  In  In5  1  0.250993  0.251204  0.499992  1
  Pt  Pt6  1  0.000130  0.000248  0.000021  1
  Pt  Pt7  1  0.666995  0.333217  0.499968  1
  Pt  Pt8  1  0.332905  0.666533  0.500056  1
