# generated using pymatgen
data_Na3V2P2O8F3
_symmetry_space_group_name_H-M   'P 1'
_cell_length_a   9.16654869
_cell_length_b   9.19762603
_cell_length_c   10.92377894
_cell_angle_alpha   90.00000000
_cell_angle_beta   90.00000000
_cell_angle_gamma   90.00000000
_symmetry_Int_Tables_number   1
_chemical_formula_structural   Na3V2P2O8F3
_chemical_formula_sum   'Na12 V8 P8 O32 F12'
_cell_volume   920.98912052
_cell_formula_units_Z   4
loop_
 _symmetry_equiv_pos_site_id
 _symmetry_equiv_pos_as_xyz
  1  'x, y, z'
loop_
 _atom_site_type_symbol
 _atom_site_label
 _atom_site_symmetry_multiplicity
 _atom_site_fract_x
 _atom_site_fract_y
 _atom_site_fract_z
 _atom_site_occupancy
  Na  Na0  1  0.030064  0.277589  0.500000  1
  Na  Na1  1  0.048490  0.806574  0.000000  1
  Na  Na2  1  0.240013  0.517303  0.000000  1
  Na  Na3  1  0.259987  0.017303  0.500000  1
  Na  Na4  1  0.451510  0.306574  0.500000  1
  Na  Na5  1  0.469936  0.777589  0.000000  1
  Na  Na6  1  0.530064  0.222411  0.000000  1
  Na  Na7  1  0.548490  0.693426  0.500000  1
  Na  Na8  1  0.740013  0.982697  0.500000  1
  Na  Na9  1  0.759987  0.482697  0.000000  1
  Na  Na10  1  0.951510  0.193426  0.000000  1
  Na  Na11  1  0.969936  0.722411  0.500000  1
  V  V12  1  0.248794  0.245028  0.185305  1
  V  V13  1  0.248794  0.245028  0.814695  1
  V  V14  1  0.251206  0.745028  0.314695  1
  V  V15  1  0.251206  0.745028  0.685305  1
  V  V16  1  0.748794  0.254972  0.314695  1
  V  V17  1  0.748794  0.254972  0.685305  1
  V  V18  1  0.751206  0.754972  0.185305  1
  V  V19  1  0.751206  0.754972  0.814695  1
  P  P20  1  0.000000  0.000000  0.742755  1
  P  P21  1  0.000000  0.000000  0.257245  1
  P  P22  1  0.500000  0.500000  0.757245  1
  P  P23  1  0.500000  0.500000  0.242755  1
  P  P24  1  0.500000  0.000000  0.748108  1
  P  P25  1  0.500000  0.000000  0.251891  1
  P  P26  1  0.000000  0.500000  0.751892  1
  P  P27  1  0.000000  0.500000  0.248109  1
  O  O28  1  0.092593  0.597630  0.332969  1
  O  O29  1  0.092593  0.597630  0.667031  1
  O  O30  1  0.091729  0.096629  0.169644  1
  O  O31  1  0.091729  0.096629  0.830356  1
  O  O32  1  0.096663  0.405312  0.162569  1
  O  O33  1  0.096899  0.905541  0.658413  1
  O  O34  1  0.096663  0.405312  0.837431  1
  O  O35  1  0.096899  0.905541  0.341587  1
  O  O36  1  0.403337  0.905312  0.662569  1
  O  O37  1  0.403337  0.905312  0.337431  1
  O  O38  1  0.403101  0.405541  0.158413  1
  O  O39  1  0.403101  0.405541  0.841587  1
  O  O40  1  0.408271  0.596629  0.330356  1
  O  O41  1  0.408271  0.596629  0.669644  1
  O  O42  1  0.407407  0.097630  0.167031  1
  O  O43  1  0.407407  0.097630  0.832969  1
  O  O44  1  0.592593  0.902370  0.167031  1
  O  O45  1  0.592593  0.902370  0.832969  1
  O  O46  1  0.591729  0.403371  0.330356  1
  O  O47  1  0.591729  0.403371  0.669644  1
  O  O48  1  0.596899  0.594459  0.158413  1
  O  O49  1  0.596899  0.594459  0.841587  1
  O  O50  1  0.596663  0.094688  0.662569  1
  O  O51  1  0.596663  0.094688  0.337431  1
  O  O52  1  0.903337  0.594688  0.162569  1
  O  O53  1  0.903337  0.594688  0.837431  1
  O  O54  1  0.903101  0.094459  0.658413  1
  O  O55  1  0.903101  0.094459  0.341587  1
  O  O56  1  0.908271  0.903371  0.169644  1
  O  O57  1  0.908271  0.903371  0.830356  1
  O  O58  1  0.907407  0.402370  0.332969  1
  O  O59  1  0.907407  0.402370  0.667031  1
  F  F60  1  0.249080  0.238698  0.370410  1
  F  F61  1  0.249080  0.238698  0.629590  1
  F  F62  1  0.246198  0.248725  0.000000  1
  F  F63  1  0.253802  0.748725  0.500000  1
  F  F64  1  0.250920  0.738698  0.129590  1
  F  F65  1  0.250920  0.738698  0.870410  1
  F  F66  1  0.749080  0.261302  0.129590  1
  F  F67  1  0.749080  0.261302  0.870410  1
  F  F68  1  0.746198  0.251275  0.500000  1
  F  F69  1  0.753802  0.751275  0.000000  1
  F  F70  1  0.750920  0.761302  0.370410  1
  F  F71  1  0.750920  0.761302  0.629590  1
