# generated using pymatgen
data_Ga2CuO4
_symmetry_space_group_name_H-M   'P 1'
_cell_length_a   5.92784240
_cell_length_b   5.92784318
_cell_length_c   35.22072873
_cell_angle_alpha   60.33700359
_cell_angle_beta   60.33699930
_cell_angle_gamma   60.57186679
_symmetry_Int_Tables_number   1
_chemical_formula_structural   Ga2CuO4
_chemical_formula_sum   'Ga24 Cu12 O48'
_cell_volume   883.34666846
_cell_formula_units_Z   12
loop_
 _symmetry_equiv_pos_site_id
 _symmetry_equiv_pos_as_xyz
  1  'x, y, z'
loop_
 _atom_site_type_symbol
 _atom_site_label
 _atom_site_symmetry_multiplicity
 _atom_site_fract_x
 _atom_site_fract_y
 _atom_site_fract_z
 _atom_site_occupancy
  Ga  Ga0  1  0.002847  0.002847  0.000801  1
  Ga  Ga1  1  0.003883  0.003883  0.166703  1
  Ga  Ga2  1  0.130470  0.621647  0.103868  1
  Ga  Ga3  1  0.621647  0.130470  0.103868  1
  Ga  Ga4  1  0.621532  0.621532  0.021972  1
  Ga  Ga5  1  0.007801  0.007801  0.331422  1
  Ga  Ga6  1  0.126028  0.623055  0.270970  1
  Ga  Ga7  1  0.623055  0.126028  0.270970  1
  Ga  Ga8  1  0.621263  0.621263  0.188890  1
  Ga  Ga9  1  0.242995  0.242995  0.376482  1
  Ga  Ga10  1  0.006766  0.006766  0.498797  1
  Ga  Ga11  1  0.125405  0.625529  0.437274  1
  Ga  Ga12  1  0.625529  0.125405  0.437274  1
  Ga  Ga13  1  0.243394  0.243394  0.542735  1
  Ga  Ga14  1  0.006776  0.006776  0.665542  1
  Ga  Ga15  1  0.124984  0.624953  0.604177  1
  Ga  Ga16  1  0.624953  0.124984  0.604177  1
  Ga  Ga17  1  0.243347  0.243347  0.709460  1
  Ga  Ga18  1  0.006280  0.006280  0.832364  1
  Ga  Ga19  1  0.125014  0.624852  0.770833  1
  Ga  Ga20  1  0.624852  0.125014  0.770833  1
  Ga  Ga21  1  0.244988  0.244988  0.875226  1
  Ga  Ga22  1  0.130478  0.624096  0.936767  1
  Ga  Ga23  1  0.624096  0.130478  0.936767  1
  Cu  Cu24  1  0.246799  0.246799  0.041523  1
  Cu  Cu25  1  0.246147  0.246147  0.208660  1
  Cu  Cu26  1  0.620981  0.620981  0.103686  1
  Cu  Cu27  1  0.622430  0.622430  0.270698  1
  Cu  Cu28  1  0.625471  0.625471  0.353940  1
  Cu  Cu29  1  0.625224  0.625224  0.437372  1
  Cu  Cu30  1  0.625117  0.625117  0.520744  1
  Cu  Cu31  1  0.624944  0.624944  0.604165  1
  Cu  Cu32  1  0.624887  0.624887  0.687520  1
  Cu  Cu33  1  0.624885  0.624885  0.770916  1
  Cu  Cu34  1  0.625040  0.625040  0.854123  1
  Cu  Cu35  1  0.624468  0.624468  0.936807  1
  O  O36  1  0.386079  0.386079  0.064148  1
  O  O37  1  0.381313  0.843012  0.063659  1
  O  O38  1  0.380899  0.380899  0.140846  1
  O  O39  1  0.843012  0.381313  0.063659  1
  O  O40  1  0.385987  0.385987  0.231976  1
  O  O41  1  0.396853  0.873125  0.145397  1
  O  O42  1  0.872392  0.872392  0.066386  1
  O  O43  1  0.873125  0.396853  0.145397  1
  O  O44  1  0.382791  0.839403  0.230907  1
  O  O45  1  0.371551  0.371551  0.311560  1
  O  O46  1  0.839403  0.382791  0.230907  1
  O  O47  1  0.868589  0.868589  0.144617  1
  O  O48  1  0.373469  0.373469  0.399137  1
  O  O49  1  0.394420  0.879024  0.310303  1
  O  O50  1  0.875115  0.875115  0.232126  1
  O  O51  1  0.879024  0.394420  0.310303  1
  O  O52  1  0.369142  0.855621  0.398170  1
  O  O53  1  0.373833  0.373833  0.476672  1
  O  O54  1  0.855621  0.369142  0.398170  1
  O  O55  1  0.876577  0.876577  0.309316  1
  O  O56  1  0.373955  0.373955  0.565408  1
  O  O57  1  0.394020  0.880018  0.477187  1
  O  O58  1  0.876579  0.876579  0.398210  1
  O  O59  1  0.880018  0.394020  0.477187  1
  O  O60  1  0.373850  0.373850  0.643226  1
  O  O61  1  0.369896  0.856068  0.564550  1
  O  O62  1  0.875650  0.875650  0.476357  1
  O  O63  1  0.856068  0.369896  0.564550  1
  O  O64  1  0.373813  0.373813  0.732036  1
  O  O65  1  0.393843  0.880297  0.643815  1
  O  O66  1  0.880297  0.393843  0.643815  1
  O  O67  1  0.876138  0.876138  0.565081  1
  O  O68  1  0.374636  0.374636  0.809365  1
  O  O69  1  0.369979  0.856097  0.731114  1
  O  O70  1  0.856097  0.369979  0.731114  1
  O  O71  1  0.876284  0.876284  0.642905  1
  O  O72  1  0.371994  0.371994  0.898125  1
  O  O73  1  0.392785  0.881121  0.810473  1
  O  O74  1  0.876281  0.876281  0.731792  1
  O  O75  1  0.881121  0.392785  0.810473  1
  O  O76  1  0.385786  0.385786  0.971564  1
  O  O77  1  0.367551  0.861348  0.897175  1
  O  O78  1  0.876773  0.876773  0.809514  1
  O  O79  1  0.861348  0.367551  0.897175  1
  O  O80  1  0.394869  0.875240  0.979142  1
  O  O81  1  0.875240  0.394869  0.979142  1
  O  O82  1  0.873291  0.873291  0.899229  1
  O  O83  1  0.867867  0.867867  0.978290  1
