# generated using pymatgen
data_H(CO)2
_symmetry_space_group_name_H-M   'P 1'
_cell_length_a   5.19360120
_cell_length_b   5.19360130
_cell_length_c   5.19461415
_cell_angle_alpha   106.83888101
_cell_angle_beta   106.79196929
_cell_angle_gamma   114.91720440
_symmetry_Int_Tables_number   1
_chemical_formula_structural   H(CO)2
_chemical_formula_sum   'H2 C4 O4'
_cell_volume   107.13264924
_cell_formula_units_Z   2
loop_
 _symmetry_equiv_pos_site_id
 _symmetry_equiv_pos_as_xyz
  1  'x, y, z'
loop_
 _atom_site_type_symbol
 _atom_site_label
 _atom_site_symmetry_multiplicity
 _atom_site_fract_x
 _atom_site_fract_y
 _atom_site_fract_z
 _atom_site_occupancy
  H  H0  1  0.481752  0.025759  0.507511  1
  H  H1  1  0.974390  0.477249  0.451638  1
  C  C2  1  0.338671  0.558423  0.897094  1
  C  C3  1  0.444484  0.346986  0.791470  1
  C  C4  1  0.557077  0.662723  0.219799  1
  C  C5  1  0.653983  0.445886  0.099870  1
  O  O6  1  0.148705  0.626150  0.774856  1
  O  O7  1  0.630830  0.850194  0.481024  1
  O  O8  1  0.365798  0.154643  0.520442  1
  O  O9  1  0.844410  0.362887  0.207297  1
