# generated using pymatgen
data_U(PbO2)3
_symmetry_space_group_name_H-M   'P 1'
_cell_length_a   8.32780229
_cell_length_b   12.55993915
_cell_length_c   13.90176774
_cell_angle_alpha   90.00000000
_cell_angle_beta   90.00000000
_cell_angle_gamma   90.00000000
_symmetry_Int_Tables_number   1
_chemical_formula_structural   U(PbO2)3
_chemical_formula_sum   'U8 Pb24 O48'
_cell_volume   1454.07889097
_cell_formula_units_Z   8
loop_
 _symmetry_equiv_pos_site_id
 _symmetry_equiv_pos_as_xyz
  1  'x, y, z'
loop_
 _atom_site_type_symbol
 _atom_site_label
 _atom_site_symmetry_multiplicity
 _atom_site_fract_x
 _atom_site_fract_y
 _atom_site_fract_z
 _atom_site_occupancy
  U  U0  1  0.502074  0.759684  0.913731  1
  U  U1  1  0.997926  0.740316  0.413731  1
  U  U2  1  0.002074  0.259684  0.586269  1
  U  U3  1  0.497926  0.259684  0.586269  1
  U  U4  1  0.997926  0.759684  0.913731  1
  U  U5  1  0.502074  0.740316  0.413731  1
  U  U6  1  0.002074  0.240316  0.086269  1
  U  U7  1  0.497926  0.240316  0.086269  1
  Pb  Pb8  1  0.531879  0.504756  0.768319  1
  Pb  Pb9  1  0.750000  0.231164  0.851853  1
  Pb  Pb10  1  0.250000  0.984613  0.496361  1
  Pb  Pb11  1  0.968121  0.995244  0.268319  1
  Pb  Pb12  1  0.250000  0.237901  0.317310  1
  Pb  Pb13  1  0.468121  0.495244  0.231681  1
  Pb  Pb14  1  0.250000  0.768836  0.148147  1
  Pb  Pb15  1  0.750000  0.268836  0.351853  1
  Pb  Pb16  1  0.750000  0.528595  0.533185  1
  Pb  Pb17  1  0.031879  0.004756  0.731681  1
  Pb  Pb18  1  0.531879  0.995244  0.268319  1
  Pb  Pb19  1  0.968121  0.504756  0.768319  1
  Pb  Pb20  1  0.250000  0.028595  0.966815  1
  Pb  Pb21  1  0.250000  0.262099  0.817310  1
  Pb  Pb22  1  0.468121  0.004756  0.731681  1
  Pb  Pb23  1  0.250000  0.471405  0.466815  1
  Pb  Pb24  1  0.750000  0.971405  0.033185  1
  Pb  Pb25  1  0.031879  0.495244  0.231681  1
  Pb  Pb26  1  0.750000  0.015387  0.503639  1
  Pb  Pb27  1  0.750000  0.737901  0.182690  1
  Pb  Pb28  1  0.250000  0.515387  0.996361  1
  Pb  Pb29  1  0.250000  0.731164  0.648147  1
  Pb  Pb30  1  0.750000  0.484613  0.003639  1
  Pb  Pb31  1  0.750000  0.762099  0.682690  1
  O  O32  1  0.538357  0.226476  0.728747  1
  O  O33  1  0.461643  0.726476  0.771253  1
  O  O34  1  0.942181  0.705848  0.551797  1
  O  O35  1  0.250000  0.415501  0.299000  1
  O  O36  1  0.551793  0.418474  0.608489  1
  O  O37  1  0.961643  0.226476  0.728747  1
  O  O38  1  0.250000  0.725083  0.961132  1
  O  O39  1  0.049644  0.099105  0.567857  1
  O  O40  1  0.750000  0.791725  0.870512  1
  O  O41  1  0.948207  0.418474  0.608489  1
  O  O42  1  0.057819  0.205848  0.948203  1
  O  O43  1  0.448207  0.918474  0.891511  1
  O  O44  1  0.950356  0.599105  0.932143  1
  O  O45  1  0.442181  0.205848  0.948203  1
  O  O46  1  0.750000  0.225083  0.538868  1
  O  O47  1  0.557819  0.705848  0.551797  1
  O  O48  1  0.450356  0.099105  0.567857  1
  O  O49  1  0.549644  0.599105  0.932143  1
  O  O50  1  0.038357  0.773524  0.271253  1
  O  O51  1  0.750000  0.085455  0.346753  1
  O  O52  1  0.051793  0.918474  0.891511  1
  O  O53  1  0.461643  0.773524  0.271253  1
  O  O54  1  0.442181  0.294152  0.448203  1
  O  O55  1  0.948207  0.081526  0.108489  1
  O  O56  1  0.250000  0.084499  0.799000  1
  O  O57  1  0.250000  0.914545  0.653247  1
  O  O58  1  0.250000  0.774917  0.461132  1
  O  O59  1  0.538357  0.273524  0.228747  1
  O  O60  1  0.250000  0.291725  0.629488  1
  O  O61  1  0.750000  0.274917  0.038868  1
  O  O62  1  0.057819  0.294152  0.448203  1
  O  O63  1  0.750000  0.414545  0.846753  1
  O  O64  1  0.049644  0.400895  0.067857  1
  O  O65  1  0.557819  0.794152  0.051797  1
  O  O66  1  0.750000  0.584499  0.701000  1
  O  O67  1  0.250000  0.208275  0.129488  1
  O  O68  1  0.448207  0.581526  0.391511  1
  O  O69  1  0.750000  0.708275  0.370512  1
  O  O70  1  0.961643  0.273524  0.228747  1
  O  O71  1  0.750000  0.915501  0.201000  1
  O  O72  1  0.038357  0.726476  0.771253  1
  O  O73  1  0.551793  0.081526  0.108489  1
  O  O74  1  0.450356  0.400895  0.067857  1
  O  O75  1  0.942181  0.794152  0.051797  1
  O  O76  1  0.950356  0.900895  0.432143  1
  O  O77  1  0.051793  0.581526  0.391511  1
  O  O78  1  0.250000  0.585455  0.153247  1
  O  O79  1  0.549644  0.900895  0.432143  1
