# generated using pymatgen
data_MoSCl7O
_symmetry_space_group_name_H-M   'P 1'
_cell_length_a   9.55338150
_cell_length_b   10.02823190
_cell_length_c   12.54135284
_cell_angle_alpha   111.65292434
_cell_angle_beta   90.00000000
_cell_angle_gamma   90.00000000
_symmetry_Int_Tables_number   1
_chemical_formula_structural   MoSCl7O
_chemical_formula_sum   'Mo4 S4 Cl28 O4'
_cell_volume   1116.72281768
_cell_formula_units_Z   4
loop_
 _symmetry_equiv_pos_site_id
 _symmetry_equiv_pos_as_xyz
  1  'x, y, z'
loop_
 _atom_site_type_symbol
 _atom_site_label
 _atom_site_symmetry_multiplicity
 _atom_site_fract_x
 _atom_site_fract_y
 _atom_site_fract_z
 _atom_site_occupancy
  Mo  Mo0  1  0.161498  0.845567  0.501610  1
  Mo  Mo1  1  0.338502  0.345567  0.001610  1
  Mo  Mo2  1  0.838502  0.154433  0.498390  1
  Mo  Mo3  1  0.661498  0.654433  0.998390  1
  S  S4  1  0.262027  0.295146  0.513165  1
  S  S5  1  0.737973  0.704854  0.486835  1
  S  S6  1  0.762027  0.204854  0.986835  1
  S  S7  1  0.237973  0.795146  0.013165  1
  Cl  Cl8  1  0.045028  0.147737  0.614366  1
  Cl  Cl9  1  0.581269  0.697388  0.377786  1
  Cl  Cl10  1  0.499744  0.303878  0.136506  1
  Cl  Cl11  1  0.637198  0.672487  0.617494  1
  Cl  Cl12  1  0.678873  0.066150  0.346927  1
  Cl  Cl13  1  0.000256  0.803878  0.636506  1
  Cl  Cl14  1  0.545028  0.352263  0.885634  1
  Cl  Cl15  1  0.999744  0.196122  0.363494  1
  Cl  Cl16  1  0.418731  0.302612  0.622214  1
  Cl  Cl17  1  0.821127  0.566150  0.846927  1
  Cl  Cl18  1  0.918731  0.197388  0.877786  1
  Cl  Cl19  1  0.500256  0.696122  0.863494  1
  Cl  Cl20  1  0.321127  0.933850  0.653073  1
  Cl  Cl21  1  0.791910  0.535721  0.100079  1
  Cl  Cl22  1  0.137198  0.827513  0.882506  1
  Cl  Cl23  1  0.862802  0.172487  0.117494  1
  Cl  Cl24  1  0.171784  0.489110  0.594420  1
  Cl  Cl25  1  0.081269  0.802612  0.122214  1
  Cl  Cl26  1  0.671784  0.010890  0.905580  1
  Cl  Cl27  1  0.454972  0.647737  0.114366  1
  Cl  Cl28  1  0.954972  0.852263  0.385634  1
  Cl  Cl29  1  0.178873  0.433850  0.153073  1
  Cl  Cl30  1  0.362802  0.327513  0.382506  1
  Cl  Cl31  1  0.328216  0.989110  0.094420  1
  Cl  Cl32  1  0.828216  0.510890  0.405580  1
  Cl  Cl33  1  0.708090  0.035721  0.600079  1
  Cl  Cl34  1  0.291910  0.964279  0.399921  1
  Cl  Cl35  1  0.208090  0.464279  0.899921  1
  O  O36  1  0.784746  0.325511  0.569954  1
  O  O37  1  0.215254  0.674489  0.430046  1
  O  O38  1  0.284746  0.174489  0.930046  1
  O  O39  1  0.715254  0.825511  0.069954  1
