# generated using pymatgen
data_Nb8P15O56
_symmetry_space_group_name_H-M   'P 1'
_cell_length_a   16.84922453
_cell_length_b   11.95326098
_cell_length_c   11.87190326
_cell_angle_alpha   60.22418458
_cell_angle_beta   45.18745064
_cell_angle_gamma   44.81584425
_symmetry_Int_Tables_number   1
_chemical_formula_structural   Nb8P15O56
_chemical_formula_sum   'Nb8 P15 O56'
_cell_volume   1195.53624598
_cell_formula_units_Z   1
loop_
 _symmetry_equiv_pos_site_id
 _symmetry_equiv_pos_as_xyz
  1  'x, y, z'
loop_
 _atom_site_type_symbol
 _atom_site_label
 _atom_site_symmetry_multiplicity
 _atom_site_fract_x
 _atom_site_fract_y
 _atom_site_fract_z
 _atom_site_occupancy
  Nb  Nb0  1  0.013713  0.982854  0.993901  1
  Nb  Nb1  1  0.001841  0.498782  0.495139  1
  Nb  Nb2  1  0.495417  0.005759  0.001748  1
  Nb  Nb3  1  0.499868  0.998692  0.500082  1
  Nb  Nb4  1  0.490381  0.505855  0.996990  1
  Nb  Nb5  1  0.491982  0.504452  0.517052  1
  Nb  Nb6  1  0.999331  0.001031  0.499909  1
  Nb  Nb7  1  0.003577  0.496755  0.001056  1
  P  P8  1  0.085242  0.111214  0.608362  1
  P  P9  1  0.198759  0.398938  0.101653  1
  P  P10  1  0.195346  0.108249  0.891829  1
  P  P11  1  0.303400  0.391230  0.392483  1
  P  P12  1  0.194308  0.608775  0.610467  1
  P  P13  1  0.304500  0.891596  0.109459  1
  P  P14  1  0.587175  0.107927  0.608467  1
  P  P15  1  0.695116  0.389948  0.109009  1
  P  P16  1  0.411881  0.891757  0.390814  1
  P  P17  1  0.695029  0.108166  0.891667  1
  P  P18  1  0.805128  0.391853  0.389477  1
  P  P19  1  0.696008  0.607496  0.609584  1
  P  P20  1  0.804880  0.889846  0.108062  1
  P  P21  1  0.803217  0.608662  0.892301  1
  P  P22  1  0.913620  0.889810  0.391585  1
  O  O23  1  0.249157  0.000980  0.001231  1
  O  O24  1  0.039674  0.083909  0.555414  1
  O  O25  1  0.116248  0.414458  0.066391  1
  O  O26  1  0.037941  0.062282  0.778235  1
  O  O27  1  0.098451  0.433113  0.286664  1
  O  O28  1  0.319005  0.214610  0.082791  1
  O  O29  1  0.038673  0.282219  0.580644  1
  O  O30  1  0.248659  0.006171  0.495235  1
  O  O31  1  0.246977  0.500323  0.001949  1
  O  O32  1  0.095744  0.086742  0.942559  1
  O  O33  1  0.179512  0.417600  0.441485  1
  O  O34  1  0.377955  0.441743  0.224397  1
  O  O35  1  0.321009  0.057997  0.719945  1
  O  O36  1  0.399562  0.218835  0.421199  1
  O  O37  1  0.124328  0.279181  0.917266  1
  O  O38  1  0.243694  0.498416  0.508079  1
  O  O39  1  0.751927  0.991208  0.998054  1
  O  O40  1  0.379779  0.720775  0.084258  1
  O  O41  1  0.097478  0.780107  0.581515  1
  O  O42  1  0.119250  0.560847  0.782638  1
  O  O43  1  0.178358  0.944198  0.280835  1
  O  O44  1  0.622207  0.420787  0.055479  1
  O  O45  1  0.540078  0.080296  0.558090  1
  O  O46  1  0.398993  0.923113  0.059314  1
  O  O47  1  0.320431  0.579046  0.556118  1
  O  O48  1  0.539645  0.056810  0.780377  1
  O  O49  1  0.600237  0.443284  0.278030  1
  O  O50  1  0.824189  0.222996  0.074126  1
  O  O51  1  0.542978  0.276524  0.579370  1
  O  O52  1  0.750279  0.993516  0.503975  1
  O  O53  1  0.748051  0.506243  0.996406  1
  O  O54  1  0.170025  0.800082  0.916393  1
  O  O55  1  0.457755  0.722869  0.415139  1
  O  O56  1  0.414327  0.554835  0.699753  1
  O  O57  1  0.459354  0.944321  0.219059  1
  O  O58  1  0.598707  0.081010  0.939422  1
  O  O59  1  0.682206  0.421563  0.435540  1
  O  O60  1  0.386076  0.581961  0.945846  1
  O  O61  1  0.458706  0.919053  0.441866  1
  O  O62  1  0.820081  0.058680  0.719515  1
  O  O63  1  0.881230  0.441339  0.218872  1
  O  O64  1  0.623154  0.275708  0.922431  1
  O  O65  1  0.901726  0.219637  0.417295  1
  O  O66  1  0.754298  0.497664  0.497829  1
  O  O67  1  0.599703  0.779060  0.579668  1
  O  O68  1  0.880108  0.717355  0.081438  1
  O  O69  1  0.625017  0.556363  0.778916  1
  O  O70  1  0.678957  0.939115  0.279934  1
  O  O71  1  0.820505  0.583419  0.556220  1
  O  O72  1  0.897720  0.921671  0.059380  1
  O  O73  1  0.678753  0.784079  0.921001  1
  O  O74  1  0.961930  0.718106  0.417451  1
  O  O75  1  0.900163  0.561924  0.717106  1
  O  O76  1  0.957266  0.943834  0.222825  1
  O  O77  1  0.958117  0.918291  0.444931  1
  O  O78  1  0.881879  0.578093  0.939950  1
