# generated using pymatgen
data_LiH2SNO3
_symmetry_space_group_name_H-M   'P 1'
_cell_length_a   16.84417691
_cell_length_b   5.18119984
_cell_length_c   8.58794015
_cell_angle_alpha   89.99619488
_cell_angle_beta   89.98462353
_cell_angle_gamma   89.99153054
_symmetry_Int_Tables_number   1
_chemical_formula_structural   LiH2SNO3
_chemical_formula_sum   'Li8 H16 S8 N8 O24'
_cell_volume   749.49566475
_cell_formula_units_Z   8
loop_
 _symmetry_equiv_pos_site_id
 _symmetry_equiv_pos_as_xyz
  1  'x, y, z'
loop_
 _atom_site_type_symbol
 _atom_site_label
 _atom_site_symmetry_multiplicity
 _atom_site_fract_x
 _atom_site_fract_y
 _atom_site_fract_z
 _atom_site_occupancy
  Li  Li0  1  0.904012  0.949201  0.275795  1
  Li  Li1  1  0.096000  0.050762  0.775732  1
  Li  Li2  1  0.595996  0.949191  0.775696  1
  Li  Li3  1  0.403981  0.050741  0.275703  1
  Li  Li4  1  0.847931  0.458089  0.469805  1
  Li  Li5  1  0.152047  0.541986  0.969861  1
  Li  Li6  1  0.652061  0.457945  0.970012  1
  Li  Li7  1  0.347938  0.542002  0.469825  1
  H  H8  1  0.881740  0.711139  0.934548  1
  H  H9  1  0.118268  0.288816  0.434627  1
  H  H10  1  0.618342  0.711251  0.434504  1
  H  H11  1  0.381672  0.288760  0.934609  1
  H  H12  1  0.795894  0.991337  0.724231  1
  H  H13  1  0.204103  0.008413  0.224220  1
  H  H14  1  0.704126  0.991546  0.224300  1
  H  H15  1  0.295879  0.008522  0.724211  1
  H  H16  1  0.014824  0.360092  0.068219  1
  H  H17  1  0.985186  0.639794  0.568298  1
  H  H18  1  0.485149  0.360091  0.568240  1
  H  H19  1  0.514861  0.640077  0.068477  1
  H  H20  1  0.886411  0.395847  0.891642  1
  H  H21  1  0.113644  0.604117  0.391674  1
  H  H22  1  0.613655  0.395939  0.391674  1
  H  H23  1  0.386358  0.604065  0.891680  1
  S  S24  1  0.914419  0.986941  0.638467  1
  S  S25  1  0.085570  0.013046  0.138488  1
  S  S26  1  0.585608  0.987018  0.138522  1
  S  S27  1  0.414409  0.012994  0.638416  1
  S  S28  1  0.831153  0.452471  0.120285  1
  S  S29  1  0.168850  0.547629  0.620304  1
  S  S30  1  0.668877  0.452457  0.620274  1
  S  S31  1  0.331082  0.547554  0.120315  1
  N  N32  1  0.852702  0.999256  0.767367  1
  N  N33  1  0.147287  0.000610  0.267369  1
  N  N34  1  0.647296  0.999607  0.267451  1
  N  N35  1  0.352700  0.000616  0.767314  1
  N  N36  1  0.894637  0.529144  0.979450  1
  N  N37  1  0.105397  0.470818  0.479510  1
  N  N38  1  0.605428  0.529317  0.479441  1
  N  N39  1  0.394560  0.470735  0.979500  1
  O  O40  1  0.928426  0.677556  0.587971  1
  O  O41  1  0.071569  0.322455  0.088098  1
  O  O42  1  0.571606  0.677658  0.088249  1
  O  O43  1  0.428396  0.322374  0.587930  1
  O  O44  1  0.992076  0.067483  0.693854  1
  O  O45  1  0.007926  0.932401  0.193902  1
  O  O46  1  0.507914  0.067781  0.193948  1
  O  O47  1  0.492081  0.932413  0.693812  1
  O  O48  1  0.892029  0.104437  0.486537  1
  O  O49  1  0.107985  0.895659  0.986518  1
  O  O50  1  0.608008  0.104355  0.986535  1
  O  O51  1  0.392047  0.895526  0.486471  1
  O  O52  1  0.844203  0.176900  0.147657  1
  O  O53  1  0.155834  0.823068  0.647570  1
  O  O54  1  0.655836  0.176866  0.647497  1
  O  O55  1  0.344153  0.823099  0.147624  1
  O  O56  1  0.855538  0.609773  0.256774  1
  O  O57  1  0.144425  0.390310  0.756837  1
  O  O58  1  0.644404  0.609570  0.756861  1
  O  O59  1  0.355506  0.390259  0.256843  1
  O  O60  1  0.749862  0.512098  0.074370  1
  O  O61  1  0.250165  0.487786  0.574376  1
  O  O62  1  0.750155  0.512251  0.574426  1
  O  O63  1  0.249805  0.487985  0.074488  1
