# generated using pymatgen
data_CaCdPb
_symmetry_space_group_name_H-M   'P 1'
_cell_length_a   7.87230419
_cell_length_b   7.87233348
_cell_length_c   4.79124385
_cell_angle_alpha   90.00003109
_cell_angle_beta   90.00004579
_cell_angle_gamma   120.00008516
_symmetry_Int_Tables_number   1
_chemical_formula_structural   CaCdPb
_chemical_formula_sum   'Ca3 Cd3 Pb3'
_cell_volume   257.14843401
_cell_formula_units_Z   3
loop_
 _symmetry_equiv_pos_site_id
 _symmetry_equiv_pos_as_xyz
  1  'x, y, z'
loop_
 _atom_site_type_symbol
 _atom_site_label
 _atom_site_symmetry_multiplicity
 _atom_site_fract_x
 _atom_site_fract_y
 _atom_site_fract_z
 _atom_site_occupancy
  Ca  Ca0  1  0.000001  0.575935  0.500000  1
  Ca  Ca1  1  0.575929  0.999999  0.500000  1
  Ca  Ca2  1  0.424069  0.424068  0.499998  1
  Cd  Cd3  1  0.251015  0.000004  0.000001  1
  Cd  Cd4  1  0.748984  0.748985  0.000001  1
  Cd  Cd5  1  0.000003  0.251013  0.000001  1
  Pb  Pb6  1  0.999999  -0.000000  0.500000  1
  Pb  Pb7  1  0.666666  0.333335  0.999999  1
  Pb  Pb8  1  0.333333  0.666662  1.000000  1
