# generated using pymatgen
data_WC4(BrO2)2
_symmetry_space_group_name_H-M   'P 1'
_cell_length_a   8.68236662
_cell_length_b   8.65234871
_cell_length_c   9.03576869
_cell_angle_alpha   95.92534298
_cell_angle_beta   115.19853426
_cell_angle_gamma   116.72560786
_symmetry_Int_Tables_number   1
_chemical_formula_structural   WC4(BrO2)2
_chemical_formula_sum   'W2 C8 Br4 O8'
_cell_volume   510.80967995
_cell_formula_units_Z   2
loop_
 _symmetry_equiv_pos_site_id
 _symmetry_equiv_pos_as_xyz
  1  'x, y, z'
loop_
 _atom_site_type_symbol
 _atom_site_label
 _atom_site_symmetry_multiplicity
 _atom_site_fract_x
 _atom_site_fract_y
 _atom_site_fract_z
 _atom_site_occupancy
  W  W0  1  0.182617  0.590436  0.771637  1
  W  W1  1  0.818425  0.411630  0.228030  1
  C  C2  1  0.017716  0.717277  0.732890  1
  C  C3  1  0.723845  0.263034  0.983838  1
  C  C4  1  0.129258  0.406005  0.898011  1
  C  C5  1  0.872559  0.595755  0.101282  1
  C  C6  1  0.982894  0.284424  0.266626  1
  C  C7  1  0.278092  0.739185  0.016289  1
  C  C8  1  0.508377  0.229603  0.099691  1
  C  C9  1  0.492990  0.770952  0.898628  1
  Br  Br10  1  0.202017  0.704218  0.500392  1
  Br  Br11  1  0.797338  0.299226  0.499432  1
  Br  Br12  1  0.670264  0.611342  0.280367  1
  Br  Br13  1  0.327359  0.388667  0.716182  1
  O  O14  1  0.929186  0.788152  0.715188  1
  O  O15  1  0.069987  0.212445  0.282733  1
  O  O16  1  0.099353  0.301302  0.968113  1
  O  O17  1  0.340987  0.820593  0.161054  1
  O  O18  1  0.660808  0.181187  0.838971  1
  O  O19  1  0.667392  0.871102  0.968723  1
  O  O20  1  0.902731  0.699785  0.030707  1
  O  O21  1  0.334079  0.128012  0.028210  1
