# generated using pymatgen
data_Cu2Se
_symmetry_space_group_name_H-M   'P 1'
_cell_length_a   4.21107423
_cell_length_b   4.20435356
_cell_length_c   16.45042346
_cell_angle_alpha   59.25924724
_cell_angle_beta   60.19424195
_cell_angle_gamma   60.05278397
_symmetry_Int_Tables_number   1
_chemical_formula_structural   Cu2Se
_chemical_formula_sum   'Cu8 Se4'
_cell_volume   205.14541732
_cell_formula_units_Z   4
loop_
 _symmetry_equiv_pos_site_id
 _symmetry_equiv_pos_as_xyz
  1  'x, y, z'
loop_
 _atom_site_type_symbol
 _atom_site_label
 _atom_site_symmetry_multiplicity
 _atom_site_fract_x
 _atom_site_fract_y
 _atom_site_fract_z
 _atom_site_occupancy
  Cu  Cu0  1  0.261931  0.261353  0.053841  1
  Cu  Cu1  1  0.273320  0.240958  0.311191  1
  Cu  Cu2  1  0.261372  0.234087  0.567614  1
  Cu  Cu3  1  0.026708  0.661696  0.162475  1
  Cu  Cu4  1  0.270277  0.234732  0.815065  1
  Cu  Cu5  1  0.023561  0.657014  0.415602  1
  Cu  Cu6  1  0.505327  0.504444  0.871446  1
  Cu  Cu7  1  0.994461  0.664274  0.669248  1
  Se  Se8  1  0.980061  0.014889  0.997540  1
  Se  Se9  1  0.964382  0.015198  0.251305  1
  Se  Se10  1  0.954036  0.017493  0.502744  1
  Se  Se11  1  0.984264  0.993961  0.756954  1
