# generated using pymatgen
data_TaO2
_symmetry_space_group_name_H-M   'P 1'
_cell_length_a   5.97989906
_cell_length_b   11.24188250
_cell_length_c   11.24188268
_cell_angle_alpha   85.94365037
_cell_angle_beta   74.57569071
_cell_angle_gamma   74.57568597
_symmetry_Int_Tables_number   1
_chemical_formula_structural   TaO2
_chemical_formula_sum   'Ta16 O32'
_cell_volume   702.28010799
_cell_formula_units_Z   16
loop_
 _symmetry_equiv_pos_site_id
 _symmetry_equiv_pos_as_xyz
  1  'x, y, z'
loop_
 _atom_site_type_symbol
 _atom_site_label
 _atom_site_symmetry_multiplicity
 _atom_site_fract_x
 _atom_site_fract_y
 _atom_site_fract_z
 _atom_site_occupancy
  Ta  Ta0  1  0.287036  0.702263  0.961204  1
  Ta  Ta1  1  0.489299  0.961204  0.797737  1
  Ta  Ta2  1  0.510701  0.038796  0.202263  1
  Ta  Ta3  1  0.829766  0.686644  0.927503  1
  Ta  Ta4  1  0.242732  0.427503  0.313356  1
  Ta  Ta5  1  0.170234  0.313356  0.072497  1
  Ta  Ta6  1  0.757268  0.572497  0.686644  1
  Ta  Ta7  1  0.751761  0.461204  0.297737  1
  Ta  Ta8  1  0.016410  0.927503  0.813356  1
  Ta  Ta9  1  0.556087  0.186644  0.427503  1
  Ta  Ta10  1  0.248240  0.538796  0.702263  1
  Ta  Ta11  1  0.049498  0.202263  0.461204  1
  Ta  Ta12  1  0.983590  0.072497  0.186644  1
  Ta  Ta13  1  0.712964  0.297737  0.038796  1
  Ta  Ta14  1  0.443913  0.813356  0.572497  1
  Ta  Ta15  1  0.950502  0.797737  0.538796  1
  O  O16  1  0.712708  0.054255  0.796560  1
  O  O17  1  0.761089  0.117826  0.064151  1
  O  O18  1  0.984649  0.696347  0.063297  1
  O  O19  1  0.266963  0.796560  0.445745  1
  O  O20  1  0.509268  0.703440  0.054255  1
  O  O21  1  0.174760  0.564151  0.882174  1
  O  O22  1  0.378697  0.405927  0.136666  1
  O  O23  1  0.436477  0.554255  0.296560  1
  O  O24  1  0.490732  0.296560  0.945745  1
  O  O25  1  0.515364  0.363334  0.405927  1
  O  O26  1  0.825240  0.435849  0.117826  1
  O  O27  1  0.621303  0.594073  0.863334  1
  O  O28  1  0.047946  0.436703  0.696347  1
  O  O29  1  0.255706  0.196347  0.563297  1
  O  O30  1  0.484636  0.636666  0.594073  1
  O  O31  1  0.015351  0.303653  0.936703  1
  O  O32  1  0.180996  0.063297  0.803653  1
  O  O33  1  0.952054  0.563297  0.303653  1
  O  O34  1  0.733037  0.203440  0.554255  1
  O  O35  1  0.563523  0.445745  0.703440  1
  O  O36  1  0.921290  0.094073  0.363334  1
  O  O37  1  0.744294  0.803653  0.436703  1
  O  O38  1  0.715376  0.863334  0.905927  1
  O  O39  1  0.819004  0.936703  0.196347  1
  O  O40  1  0.078710  0.905927  0.636666  1
  O  O41  1  0.287292  0.945745  0.203440  1
  O  O42  1  0.056934  0.617826  0.564151  1
  O  O43  1  0.621085  0.935849  0.617826  1
  O  O44  1  0.378915  0.064151  0.382174  1
  O  O45  1  0.238911  0.882174  0.935849  1
  O  O46  1  0.284624  0.136666  0.094073  1
  O  O47  1  0.943066  0.382174  0.435849  1
