# generated using pymatgen
data_Mo3H24C8S13N2
_symmetry_space_group_name_H-M   'P 1'
_cell_length_a   11.62788011
_cell_length_b   11.62788001
_cell_length_c   6.59328898
_cell_angle_alpha   90.00000000
_cell_angle_beta   90.00000000
_cell_angle_gamma   120.00000031
_symmetry_Int_Tables_number   1
_chemical_formula_structural   Mo3H24C8S13N2
_chemical_formula_sum   'Mo3 H24 C8 S13 N2'
_cell_volume   772.02938054
_cell_formula_units_Z   1
loop_
 _symmetry_equiv_pos_site_id
 _symmetry_equiv_pos_as_xyz
  1  'x, y, z'
loop_
 _atom_site_type_symbol
 _atom_site_label
 _atom_site_symmetry_multiplicity
 _atom_site_fract_x
 _atom_site_fract_y
 _atom_site_fract_z
 _atom_site_occupancy
  C  C0  1  0.546921  0.337669  0.539183  1
  C  C1  1  0.209252  0.662331  0.539183  1
  C  C2  1  0.333333  0.666667  0.235917  1
  C  C3  1  0.453079  0.790748  0.539183  1
  C  C4  1  0.662331  0.209252  0.539183  1
  C  C5  1  0.666667  0.333333  0.235917  1
  C  C6  1  0.790748  0.453079  0.539183  1
  C  C7  1  0.337669  0.546921  0.539183  1
  H  H8  1  0.457898  0.248852  0.483552  1
  H  H9  1  0.209047  0.751148  0.483552  1
  H  H10  1  0.552432  0.428075  0.478588  1
  H  H11  1  0.124358  0.571925  0.478588  1
  H  H12  1  0.208123  0.659627  0.705246  1
  H  H13  1  0.548496  0.340373  0.705246  1
  H  H14  1  0.328709  0.753994  0.184304  1
  H  H15  1  0.246006  0.574715  0.184304  1
  H  H16  1  0.447568  0.875642  0.478588  1
  H  H17  1  0.571925  0.124358  0.478588  1
  H  H18  1  0.451504  0.791877  0.705246  1
  H  H19  1  0.659627  0.208123  0.705246  1
  H  H20  1  0.425285  0.671291  0.184304  1
  H  H21  1  0.542102  0.790953  0.483552  1
  H  H22  1  0.751148  0.209047  0.483552  1
  H  H23  1  0.574715  0.246006  0.184304  1
  H  H24  1  0.671291  0.425285  0.184304  1
  H  H25  1  0.790953  0.542102  0.483552  1
  H  H26  1  0.248852  0.457898  0.483552  1
  H  H27  1  0.791877  0.451504  0.705246  1
  H  H28  1  0.340373  0.548496  0.705246  1
  H  H29  1  0.753994  0.328709  0.184304  1
  H  H30  1  0.875642  0.447568  0.478588  1
  H  H31  1  0.428075  0.552432  0.478588  1
  Mo  Mo32  1  1.000000  0.169897  0.018536  1
  Mo  Mo33  1  0.830103  0.830103  0.018536  1
  Mo  Mo34  1  0.169897  0.000000  0.018536  1
  N  N35  1  0.333333  0.666667  0.464362  1
  N  N36  1  0.666667  0.333333  0.464362  1
  S  S37  1  1.000000  0.833545  0.775382  1
  S  S38  1  0.166455  0.166455  0.775382  1
  S  S39  1  1.000000  0.744384  0.043618  1
  S  S40  1  0.255616  0.255616  0.043618  1
  S  S41  1  0.000000  0.379717  0.941055  1
  S  S42  1  0.620283  0.620283  0.941055  1
  S  S43  1  0.000000  0.333022  0.246712  1
  S  S44  1  0.666978  0.666978  0.246712  1
  S  S45  1  0.000000  0.000000  0.249793  1
  S  S46  1  0.333022  0.000000  0.246712  1
  S  S47  1  0.379717  0.000000  0.941055  1
  S  S48  1  0.744384  0.000000  0.043618  1
  S  S49  1  0.833545  0.000000  0.775382  1
