# generated using pymatgen
data_Li3Cr2(PO4)3
_symmetry_space_group_name_H-M   'P 1'
_cell_length_a   8.70558741
_cell_length_b   8.68491363
_cell_length_c   8.70558715
_cell_angle_alpha   60.11979177
_cell_angle_beta   120.43943629
_cell_angle_gamma   119.88020912
_symmetry_Int_Tables_number   1
_chemical_formula_structural   Li3Cr2(PO4)3
_chemical_formula_sum   'Li6 Cr4 P6 O24'
_cell_volume   464.68900036
_cell_formula_units_Z   2
loop_
 _symmetry_equiv_pos_site_id
 _symmetry_equiv_pos_as_xyz
  1  'x, y, z'
loop_
 _atom_site_type_symbol
 _atom_site_label
 _atom_site_symmetry_multiplicity
 _atom_site_fract_x
 _atom_site_fract_y
 _atom_site_fract_z
 _atom_site_occupancy
  Li  Li0  1  0.888433  0.827744  0.257605  1
  Li  Li1  1  0.351078  0.563394  0.963956  1
  Li  Li2  1  0.742395  0.327744  0.111567  1
  Li  Li3  1  0.617308  0.730653  0.634761  1
  Li  Li4  1  0.365239  0.230653  0.382692  1
  Li  Li5  1  0.036044  0.063394  0.648922  1
  Cr  Cr6  1  0.646960  0.938669  0.847376  1
  Cr  Cr7  1  0.152624  0.438669  0.353040  1
  Cr  Cr8  1  0.354218  0.068593  0.147175  1
  Cr  Cr9  1  0.852825  0.568593  0.645782  1
  P  P10  1  0.952995  0.751189  0.955631  1
  P  P11  1  0.044369  0.251189  0.047005  1
  P  P12  1  0.249504  0.761292  0.527309  1
  P  P13  1  0.752831  0.241152  0.471379  1
  P  P14  1  0.472691  0.261292  0.750496  1
  P  P15  1  0.528621  0.741152  0.247169  1
  O  O16  1  0.751728  0.388006  0.517043  1
  O  O17  1  0.592874  0.238929  0.277893  1
  O  O18  1  0.241876  0.266075  0.070959  1
  O  O19  1  0.403522  0.759980  0.724464  1
  O  O20  1  0.472646  0.212112  0.946224  1
  O  O21  1  0.283247  0.960330  0.376273  1
  O  O22  1  0.275536  0.259980  0.596478  1
  O  O23  1  0.518648  0.121832  0.735078  1
  O  O24  1  0.482957  0.888006  0.248272  1
  O  O25  1  0.012235  0.430511  0.883834  1
  O  O26  1  0.373619  0.544352  0.273703  1
  O  O27  1  0.552248  0.780910  0.065239  1
  O  O28  1  0.053776  0.712112  0.527354  1
  O  O29  1  0.722107  0.738929  0.407126  1
  O  O30  1  0.116166  0.930511  0.987765  1
  O  O31  1  0.764601  0.743930  0.942105  1
  O  O32  1  0.057895  0.243930  0.235399  1
  O  O33  1  0.887906  0.065804  0.019471  1
  O  O34  1  0.264922  0.621832  0.481352  1
  O  O35  1  0.623727  0.460330  0.716753  1
  O  O36  1  0.726297  0.044352  0.626381  1
  O  O37  1  0.980529  0.565804  0.112094  1
  O  O38  1  0.934761  0.280910  0.447752  1
  O  O39  1  0.929041  0.766075  0.758124  1
