# generated using pymatgen
data_H22RuN7(ClO2)4
_symmetry_space_group_name_H-M   'P 1'
_cell_length_a   10.71000650
_cell_length_b   10.71000649
_cell_length_c   10.76549321
_cell_angle_alpha   41.19546644
_cell_angle_beta   41.19546650
_cell_angle_gamma   39.65826445
_symmetry_Int_Tables_number   1
_chemical_formula_structural   H22RuN7(ClO2)4
_chemical_formula_sum   'H22 Ru1 N7 Cl4 O8'
_cell_volume   472.96457206
_cell_formula_units_Z   1
loop_
 _symmetry_equiv_pos_site_id
 _symmetry_equiv_pos_as_xyz
  1  'x, y, z'
loop_
 _atom_site_type_symbol
 _atom_site_label
 _atom_site_symmetry_multiplicity
 _atom_site_fract_x
 _atom_site_fract_y
 _atom_site_fract_z
 _atom_site_occupancy
  H  H0  1  0.357404  0.538738  0.553735  1
  H  H1  1  0.538738  0.357404  0.553735  1
  H  H2  1  0.457892  0.661977  0.406184  1
  H  H3  1  0.661977  0.457892  0.406184  1
  H  H4  1  0.192487  0.585742  0.972624  1
  H  H5  1  0.214077  0.983853  0.643999  1
  H  H6  1  0.585742  0.192487  0.972624  1
  H  H7  1  0.532165  0.111110  0.209143  1
  H  H8  1  0.111110  0.532165  0.209143  1
  H  H9  1  0.983853  0.214077  0.643999  1
  H  H10  1  0.497780  0.785110  0.787746  1
  H  H11  1  0.298765  0.807777  0.013225  1
  H  H12  1  0.309489  0.026867  0.785096  1
  H  H13  1  0.479526  0.878790  0.884102  1
  H  H14  1  0.789967  0.789967  0.495558  1
  H  H15  1  0.785110  0.497780  0.787746  1
  H  H16  1  0.807777  0.298765  0.013225  1
  H  H17  1  0.792389  0.025160  0.312567  1
  H  H18  1  0.025160  0.792389  0.312567  1
  H  H19  1  0.026867  0.309489  0.785096  1
  H  H20  1  0.878790  0.479526  0.884102  1
  H  H21  1  0.882013  0.882013  0.485299  1
  Ru  Ru22  1  0.937617  0.937617  0.016315  1
  N  N23  1  0.128913  0.646908  0.059948  1
  N  N24  1  0.081529  0.081529  0.721769  1
  N  N25  1  0.646908  0.128913  0.059948  1
  N  N26  1  0.501682  0.501682  0.526882  1
  N  N27  1  0.397416  0.875172  0.869496  1
  N  N28  1  0.875172  0.397416  0.869496  1
  N  N29  1  0.873373  0.873373  0.402867  1
  Cl  Cl30  1  0.164653  0.164653  0.202284  1
  Cl  Cl31  1  0.387877  0.387877  0.406728  1
  Cl  Cl32  1  0.654067  0.654067  0.603871  1
  Cl  Cl33  1  0.825773  0.825773  0.794615  1
  O  O34  1  0.115413  0.115413  0.151583  1
  O  O35  1  0.022985  0.694413  0.672154  1
  O  O36  1  0.703358  0.703358  0.984206  1
  O  O37  1  0.694413  0.022985  0.672154  1
  O  O38  1  0.284838  0.284838  0.012008  1
  O  O39  1  0.292690  0.964434  0.325364  1
  O  O40  1  0.964434  0.292690  0.325364  1
  O  O41  1  0.874610  0.874610  0.842049  1
