# generated using pymatgen
data_H3ClO5
_symmetry_space_group_name_H-M   'P 1'
_cell_length_a   8.70457447
_cell_length_b   6.32079753
_cell_length_c   7.53478666
_cell_angle_alpha   90.00000000
_cell_angle_beta   90.00000000
_cell_angle_gamma   90.00000000
_symmetry_Int_Tables_number   1
_chemical_formula_structural   H3ClO5
_chemical_formula_sum   'H12 Cl4 O20'
_cell_volume   414.56285299
_cell_formula_units_Z   4
loop_
 _symmetry_equiv_pos_site_id
 _symmetry_equiv_pos_as_xyz
  1  'x, y, z'
loop_
 _atom_site_type_symbol
 _atom_site_label
 _atom_site_symmetry_multiplicity
 _atom_site_fract_x
 _atom_site_fract_y
 _atom_site_fract_z
 _atom_site_occupancy
  H  H0  1  0.181575  0.250000  0.537466  1
  H  H1  1  0.681575  0.250000  0.962534  1
  H  H2  1  0.818425  0.750000  0.462534  1
  H  H3  1  0.318425  0.750000  0.037466  1
  H  H4  1  0.758021  0.250000  0.737172  1
  H  H5  1  0.878380  0.250000  0.907849  1
  H  H6  1  0.258021  0.250000  0.762828  1
  H  H7  1  0.378380  0.250000  0.592151  1
  H  H8  1  0.121620  0.750000  0.092151  1
  H  H9  1  0.241979  0.750000  0.262828  1
  H  H10  1  0.621620  0.750000  0.407849  1
  H  H11  1  0.741979  0.750000  0.237172  1
  Cl  Cl12  1  0.948392  0.250000  0.312130  1
  Cl  Cl13  1  0.448392  0.250000  0.187870  1
  Cl  Cl14  1  0.051608  0.750000  0.687870  1
  Cl  Cl15  1  0.551608  0.750000  0.812130  1
  O  O16  1  0.844613  0.250000  0.462378  1
  O  O17  1  0.344613  0.250000  0.037622  1
  O  O18  1  0.155387  0.750000  0.537622  1
  O  O19  1  0.655387  0.750000  0.962378  1
  O  O20  1  0.111068  0.250000  0.375477  1
  O  O21  1  0.611068  0.250000  0.124523  1
  O  O22  1  0.888932  0.750000  0.624523  1
  O  O23  1  0.388932  0.750000  0.875477  1
  O  O24  1  0.928574  0.062053  0.203381  1
  O  O25  1  0.428574  0.437947  0.296619  1
  O  O26  1  0.071426  0.562053  0.796619  1
  O  O27  1  0.571426  0.937947  0.703381  1
  O  O28  1  0.071426  0.937947  0.796619  1
  O  O29  1  0.571426  0.562053  0.703381  1
  O  O30  1  0.928574  0.437947  0.203381  1
  O  O31  1  0.428574  0.062053  0.296619  1
  O  O32  1  0.772498  0.250000  0.865018  1
  O  O33  1  0.272498  0.250000  0.634982  1
  O  O34  1  0.227502  0.750000  0.134982  1
  O  O35  1  0.727502  0.750000  0.365018  1
