# generated using pymatgen
data_ZnAg2C4(SN)4
_symmetry_space_group_name_H-M   'P 1'
_cell_length_a   7.80249100
_cell_length_b   7.93791550
_cell_length_c   10.70457520
_cell_angle_alpha   96.03149317
_cell_angle_beta   111.37352969
_cell_angle_gamma   90.00000069
_symmetry_Int_Tables_number   1
_chemical_formula_structural   ZnAg2C4(SN)4
_chemical_formula_sum   'Zn2 Ag4 C8 S8 N8'
_cell_volume   613.45264879
_cell_formula_units_Z   2
loop_
 _symmetry_equiv_pos_site_id
 _symmetry_equiv_pos_as_xyz
  1  'x, y, z'
loop_
 _atom_site_type_symbol
 _atom_site_label
 _atom_site_symmetry_multiplicity
 _atom_site_fract_x
 _atom_site_fract_y
 _atom_site_fract_z
 _atom_site_occupancy
  Zn  Zn0  1  0.540737  0.512970  0.410147  1
  Zn  Zn1  1  0.869410  0.012970  0.410147  1
  Ag  Ag2  1  0.508297  0.027161  0.819537  1
  Ag  Ag3  1  0.908190  0.499559  0.000008  1
  Ag  Ag4  1  0.311240  0.527161  0.819537  1
  Ag  Ag5  1  0.091818  0.999559  0.000008  1
  C  C6  1  0.541609  0.095940  0.153233  1
  C  C7  1  0.795553  0.914801  0.661619  1
  C  C8  1  0.866066  0.414801  0.661619  1
  C  C9  1  0.060536  0.797407  0.245340  1
  C  C10  1  0.184803  0.297407  0.245340  1
  C  C11  1  0.231320  0.223137  0.571872  1
  C  C12  1  0.611624  0.595940  0.153233  1
  C  C13  1  0.340552  0.723137  0.571872  1
  S  S14  1  0.792931  0.872259  0.807692  1
  S  S15  1  0.976195  0.233507  0.144424  1
  S  S16  1  0.438599  0.287334  0.675103  1
  S  S17  1  0.236505  0.787334  0.675103  1
  S  S18  1  0.611779  0.645428  0.007964  1
  S  S19  1  0.396186  0.145428  0.007964  1
  S  S20  1  0.014761  0.372259  0.807692  1
  S  S21  1  0.168229  0.733507  0.144424  1
  N  N22  1  0.983235  0.842494  0.318222  1
  N  N23  1  0.080381  0.180600  0.498276  1
  N  N24  1  0.613053  0.569106  0.259592  1
  N  N25  1  0.334987  0.342494  0.318222  1
  N  N26  1  0.756705  0.439797  0.556370  1
  N  N27  1  0.417896  0.680601  0.498276  1
  N  N28  1  0.646538  0.069106  0.259592  1
  N  N29  1  0.799665  0.939797  0.556370  1
