# generated using pymatgen
data_PH12C2N6O3F
_symmetry_space_group_name_H-M   'P 1'
_cell_length_a   7.62017014
_cell_length_b   7.62017014
_cell_length_c   11.86778710
_cell_angle_alpha   64.20401723
_cell_angle_beta   115.79598277
_cell_angle_gamma   122.28904368
_symmetry_Int_Tables_number   1
_chemical_formula_structural   PH12C2N6O3F
_chemical_formula_sum   'P2 H24 C4 N12 O6 F2'
_cell_volume   505.56666578
_cell_formula_units_Z   2
loop_
 _symmetry_equiv_pos_site_id
 _symmetry_equiv_pos_as_xyz
  1  'x, y, z'
loop_
 _atom_site_type_symbol
 _atom_site_label
 _atom_site_symmetry_multiplicity
 _atom_site_fract_x
 _atom_site_fract_y
 _atom_site_fract_z
 _atom_site_occupancy
  P  P0  1  0.198434  0.801566  0.127053  1
  P  P1  1  0.725339  0.274661  0.695344  1
  H  H2  1  0.697700  0.861151  0.869292  1
  H  H3  1  0.138849  0.302300  0.869292  1
  H  H4  1  0.704104  0.629304  0.990704  1
  H  H5  1  0.370696  0.295896  0.990704  1
  H  H6  1  0.138071  0.622657  0.712764  1
  H  H7  1  0.377343  0.861929  0.712764  1
  H  H8  1  0.860741  0.378073  0.153766  1
  H  H9  1  0.621927  0.139259  0.153766  1
  H  H10  1  0.165670  0.152469  0.147222  1
  H  H11  1  0.847531  0.834330  0.147222  1
  H  H12  1  0.171608  0.387356  0.147147  1
  H  H13  1  0.612644  0.828392  0.147147  1
  H  H14  1  0.976353  0.533813  0.345248  1
  H  H15  1  0.466187  0.023647  0.345248  1
  H  H16  1  0.947152  0.485531  0.498607  1
  H  H17  1  0.514469  0.052848  0.498607  1
  H  H18  1  0.225083  0.442016  0.340533  1
  H  H19  1  0.557984  0.774917  0.340533  1
  H  H20  1  0.323442  0.274429  0.485012  1
  H  H21  1  0.725571  0.676558  0.485012  1
  H  H22  1  0.083094  0.249184  0.682244  1
  H  H23  1  0.750816  0.916906  0.682244  1
  H  H24  1  0.273655  0.200333  0.669272  1
  H  H25  1  0.799667  0.726345  0.669272  1
  C  C26  1  0.404951  0.595049  0.859360  1
  C  C27  1  0.880499  0.119501  0.150463  1
  C  C28  1  0.130916  0.362087  0.500797  1
  C  C29  1  0.637913  0.869084  0.500797  1
  N  N30  1  0.615778  0.701093  0.911294  1
  N  N31  1  0.298907  0.384222  0.911294  1
  N  N32  1  0.299095  0.700905  0.755425  1
  N  N33  1  0.781091  0.218909  0.152820  1
  N  N34  1  0.088288  0.226609  0.150164  1
  N  N35  1  0.773391  0.911712  0.150164  1
  N  N36  1  0.002555  0.463516  0.443110  1
  N  N37  1  0.536484  0.997445  0.443110  1
  N  N38  1  0.214949  0.341640  0.431421  1
  N  N39  1  0.658360  0.785051  0.431421  1
  N  N40  1  0.176774  0.277586  0.629985  1
  N  N41  1  0.722414  0.823226  0.629985  1
  O  O42  1  0.329511  0.670489  0.183324  1
  O  O43  1  0.328572  0.022447  0.155341  1
  O  O44  1  0.977553  0.671428  0.155341  1
  O  O45  1  0.857475  0.142525  0.771825  1
  O  O46  1  0.849424  0.501186  0.618730  1
  O  O47  1  0.498814  0.150576  0.618730  1
  F  F48  1  0.143334  0.856666  0.970737  1
  F  F49  1  0.686014  0.313986  0.804343  1
