# generated using pymatgen
data_Os3C8SO8
_symmetry_space_group_name_H-M   'P 1'
_cell_length_a   10.23551794
_cell_length_b   12.75830705
_cell_length_c   21.58022542
_cell_angle_alpha   90.00000000
_cell_angle_beta   91.50843378
_cell_angle_gamma   90.00000000
_symmetry_Int_Tables_number   1
_chemical_formula_structural   Os3C8SO8
_chemical_formula_sum   'Os24 C64 S8 O64'
_cell_volume   2817.13931595
_cell_formula_units_Z   8
loop_
 _symmetry_equiv_pos_site_id
 _symmetry_equiv_pos_as_xyz
  1  'x, y, z'
loop_
 _atom_site_type_symbol
 _atom_site_label
 _atom_site_symmetry_multiplicity
 _atom_site_fract_x
 _atom_site_fract_y
 _atom_site_fract_z
 _atom_site_occupancy
  Os  Os0  1  0.558746  0.186783  0.505778  1
  Os  Os1  1  0.558746  0.313217  0.005778  1
  Os  Os2  1  0.032690  0.848268  0.107482  1
  Os  Os3  1  0.261855  0.931564  0.173452  1
  Os  Os4  1  0.187675  0.783854  0.690727  1
  Os  Os5  1  0.441254  0.813217  0.494222  1
  Os  Os6  1  0.587118  0.263924  0.382068  1
  Os  Os7  1  0.812325  0.283854  0.809273  1
  Os  Os8  1  0.187675  0.716146  0.190727  1
  Os  Os9  1  0.738145  0.431564  0.326548  1
  Os  Os10  1  0.194300  0.693178  0.055386  1
  Os  Os11  1  0.194300  0.806822  0.555386  1
  Os  Os12  1  0.967310  0.348268  0.392518  1
  Os  Os13  1  0.412882  0.736076  0.617932  1
  Os  Os14  1  0.441254  0.686783  0.994222  1
  Os  Os15  1  0.805700  0.306822  0.944614  1
  Os  Os16  1  0.261855  0.568436  0.673452  1
  Os  Os17  1  0.738145  0.068436  0.826548  1
  Os  Os18  1  0.412882  0.763924  0.117932  1
  Os  Os19  1  0.805700  0.193178  0.444614  1
  Os  Os20  1  0.812325  0.216146  0.309273  1
  Os  Os21  1  0.587118  0.236076  0.882068  1
  Os  Os22  1  0.967310  0.151732  0.892518  1
  Os  Os23  1  0.032690  0.651732  0.607482  1
  C  C24  1  0.104275  0.252873  0.375827  1
  C  C25  1  0.622568  0.662113  0.987069  1
  C  C26  1  0.448217  0.815465  0.947621  1
  C  C27  1  0.828783  0.040937  0.752247  1
  C  C28  1  0.734965  0.924076  0.851300  1
  C  C29  1  0.377432  0.162113  0.512931  1
  C  C30  1  0.609029  0.396506  0.074970  1
  C  C31  1  0.034309  0.773373  0.738419  1
  C  C32  1  0.477397  0.217161  0.315567  1
  C  C33  1  0.965691  0.226627  0.261581  1
  C  C34  1  0.609029  0.103494  0.574970  1
  C  C35  1  0.951746  0.879521  0.029566  1
  C  C36  1  0.441686  0.341428  0.412146  1
  C  C37  1  0.706533  0.226571  0.236490  1
  C  C38  1  0.265035  0.424076  0.648700  1
  C  C39  1  0.570680  0.443535  0.288447  1
  C  C40  1  0.265035  0.075924  0.148700  1
  C  C41  1  0.558314  0.841428  0.087854  1
  C  C42  1  0.141036  0.792403  0.470246  1
  C  C43  1  0.895725  0.747127  0.624173  1
  C  C44  1  0.930196  0.416544  0.936776  1
  C  C45  1  0.551783  0.184535  0.052379  1
  C  C46  1  0.895725  0.752873  0.124173  1
  C  C47  1  0.522603  0.717161  0.184433  1
  C  C48  1  0.622568  0.837887  0.487069  1
  C  C49  1  0.955761  0.966636  0.146365  1
  C  C50  1  0.828783  0.459063  0.252247  1
  C  C51  1  0.044239  0.466636  0.353635  1
  C  C52  1  0.390971  0.896506  0.425030  1
  C  C53  1  0.377432  0.337887  0.012931  1
  C  C54  1  0.955761  0.533364  0.646365  1
  C  C55  1  0.171217  0.959063  0.247753  1
  C  C56  1  0.189067  0.566026  0.191451  1
  C  C57  1  0.141036  0.707597  0.970246  1
  C  C58  1  0.390971  0.603494  0.925030  1
  C  C59  1  0.558314  0.658572  0.587854  1
  C  C60  1  0.048254  0.120479  0.970434  1
  C  C61  1  0.048254  0.379521  0.470434  1
  C  C62  1  0.293467  0.773429  0.763510  1
  C  C63  1  0.293467  0.726571  0.263510  1
  C  C64  1  0.522603  0.782839  0.684433  1
  C  C65  1  0.477397  0.282839  0.815567  1
  C  C66  1  0.570680  0.056465  0.788447  1
  C  C67  1  0.069804  0.583456  0.063224  1
  C  C68  1  0.448217  0.684535  0.447621  1
  C  C69  1  0.189067  0.933974  0.691451  1
  C  C70  1  0.069804  0.916544  0.563224  1
  C  C71  1  0.734965  0.575924  0.351300  1
  C  C72  1  0.930196  0.083456  0.436776  1
  C  C73  1  0.034309  0.726627  0.238419  1
  C  C74  1  0.858964  0.207597  0.529754  1
  C  C75  1  0.429320  0.943535  0.211553  1
  C  C76  1  0.551783  0.315465  0.552379  1
  C  C77  1  0.441686  0.158572  0.912146  1
  C  C78  1  0.858964  0.292403  0.029754  1
  C  C79  1  0.044239  0.033364  0.853635  1
  C  C80  1  0.951746  0.620479  0.529566  1
  C  C81  1  0.810933  0.066026  0.308549  1
  C  C82  1  0.965691  0.273373  0.761581  1
  C  C83  1  0.810933  0.433974  0.808549  1
  C  C84  1  0.706533  0.273429  0.736490  1
  C  C85  1  0.171217  0.540937  0.747753  1
  C  C86  1  0.104275  0.247127  0.875827  1
  C  C87  1  0.429320  0.556465  0.711553  1
  S  S88  1  0.619281  0.091531  0.420424  1
  S  S89  1  0.380719  0.908469  0.579576  1
  S  S90  1  0.619281  0.408469  0.920424  1
  S  S91  1  0.750720  0.379936  0.435845  1
  S  S92  1  0.380719  0.591531  0.079576  1
  S  S93  1  0.750720  0.120064  0.935845  1
  S  S94  1  0.249280  0.879936  0.064155  1
  S  S95  1  0.249280  0.620064  0.564155  1
  O  O96  1  0.267096  0.163119  0.133542  1
  O  O97  1  0.810751  0.693644  0.130378  1
  O  O98  1  0.008031  0.482054  0.931245  1
  O  O99  1  0.008031  0.017946  0.431245  1
  O  O100  1  0.102009  0.779015  0.419647  1
  O  O101  1  0.355229  0.731480  0.309438  1
  O  O102  1  0.547240  0.104595  0.077812  1
  O  O103  1  0.810751  0.806356  0.630378  1
  O  O104  1  0.409108  0.187760  0.275247  1
  O  O105  1  0.265887  0.353584  0.017241  1
  O  O106  1  0.644771  0.268520  0.690562  1
  O  O107  1  0.644771  0.231480  0.190562  1
  O  O108  1  0.102009  0.720985  0.919647  1
  O  O109  1  0.357531  0.947920  0.383083  1
  O  O110  1  0.945504  0.733195  0.270766  1
  O  O111  1  0.642469  0.052080  0.616917  1
  O  O112  1  0.098141  0.536923  0.331379  1
  O  O113  1  0.189249  0.193644  0.369622  1
  O  O114  1  0.357531  0.552080  0.883083  1
  O  O115  1  0.547240  0.395405  0.577812  1
  O  O116  1  0.097263  0.396055  0.518635  1
  O  O117  1  0.897991  0.220985  0.580353  1
  O  O118  1  0.732904  0.836881  0.866458  1
  O  O119  1  0.991969  0.982054  0.568755  1
  O  O120  1  0.116502  0.524490  0.793212  1
  O  O121  1  0.734113  0.646416  0.982759  1
  O  O122  1  0.267096  0.336881  0.633542  1
  O  O123  1  0.897991  0.279015  0.080353  1
  O  O124  1  0.352164  0.391125  0.427139  1
  O  O125  1  0.054496  0.233195  0.229234  1
  O  O126  1  0.355229  0.768520  0.809438  1
  O  O127  1  0.590892  0.687760  0.224753  1
  O  O128  1  0.590892  0.812240  0.724753  1
  O  O129  1  0.945504  0.766805  0.770766  1
  O  O130  1  0.097263  0.103945  0.018635  1
  O  O131  1  0.647836  0.608875  0.572861  1
  O  O132  1  0.647836  0.891125  0.072861  1
  O  O133  1  0.098141  0.963077  0.831379  1
  O  O134  1  0.901859  0.036923  0.168621  1
  O  O135  1  0.902737  0.896055  0.981365  1
  O  O136  1  0.991969  0.517946  0.068755  1
  O  O137  1  0.883498  0.475510  0.206788  1
  O  O138  1  0.529002  0.543353  0.737605  1
  O  O139  1  0.470998  0.043353  0.762395  1
  O  O140  1  0.734113  0.853584  0.482759  1
  O  O141  1  0.409108  0.312240  0.775247  1
  O  O142  1  0.810723  0.975067  0.306171  1
  O  O143  1  0.265887  0.146416  0.517241  1
  O  O144  1  0.642469  0.447920  0.116917  1
  O  O145  1  0.116502  0.975510  0.293212  1
  O  O146  1  0.883498  0.024490  0.706788  1
  O  O147  1  0.189277  0.475067  0.193829  1
  O  O148  1  0.901859  0.463077  0.668621  1
  O  O149  1  0.189249  0.306356  0.869622  1
  O  O150  1  0.529002  0.956647  0.237605  1
  O  O151  1  0.902737  0.603945  0.481365  1
  O  O152  1  0.732904  0.663119  0.366458  1
  O  O153  1  0.452760  0.604595  0.422188  1
  O  O154  1  0.189277  0.024933  0.693829  1
  O  O155  1  0.054496  0.266805  0.729234  1
  O  O156  1  0.352164  0.108875  0.927139  1
  O  O157  1  0.470998  0.456647  0.262395  1
  O  O158  1  0.452760  0.895405  0.922188  1
  O  O159  1  0.810723  0.524933  0.806171  1
