# generated using pymatgen
data_BaNd2Ti3O10
_symmetry_space_group_name_H-M   'P 1'
_cell_length_a   3.92799284
_cell_length_b   7.69400400
_cell_length_c   14.38031107
_cell_angle_alpha   90.00000000
_cell_angle_beta   97.84972619
_cell_angle_gamma   90.00000000
_symmetry_Int_Tables_number   1
_chemical_formula_structural   BaNd2Ti3O10
_chemical_formula_sum   'Ba2 Nd4 Ti6 O20'
_cell_volume   430.52929889
_cell_formula_units_Z   2
loop_
 _symmetry_equiv_pos_site_id
 _symmetry_equiv_pos_as_xyz
  1  'x, y, z'
loop_
 _atom_site_type_symbol
 _atom_site_label
 _atom_site_symmetry_multiplicity
 _atom_site_fract_x
 _atom_site_fract_y
 _atom_site_fract_z
 _atom_site_occupancy
  O  O0  1  0.369570  0.507365  0.739140  1
  O  O1  1  0.630430  0.492635  0.260860  1
  O  O2  1  0.630430  0.007365  0.260860  1
  O  O3  1  0.369570  0.992635  0.739140  1
  O  O4  1  0.793065  0.547201  0.586131  1
  O  O5  1  0.206935  0.452799  0.413869  1
  O  O6  1  0.206935  0.047201  0.413869  1
  O  O7  1  0.793065  0.952799  0.586131  1
  O  O8  1  0.933619  0.444518  0.867237  1
  O  O9  1  0.066381  0.555482  0.132763  1
  O  O10  1  0.066381  0.944518  0.132763  1
  O  O11  1  0.933619  0.055482  0.867237  1
  O  O12  1  0.500000  0.000000  0.000000  1
  O  O13  1  0.500000  0.500000  0.000000  1
  O  O14  1  0.017593  0.250000  0.035186  1
  O  O15  1  0.982407  0.750000  0.964814  1
  O  O16  1  0.122321  0.250000  0.244641  1
  O  O17  1  0.877679  0.750000  0.755359  1
  O  O18  1  0.853199  0.250000  0.706399  1
  O  O19  1  0.146801  0.750000  0.293601  1
  Ti  Ti20  1  0.854206  0.505061  0.708411  1
  Ti  Ti21  1  0.145794  0.494939  0.291589  1
  Ti  Ti22  1  0.145794  0.005061  0.291589  1
  Ti  Ti23  1  0.854206  0.994939  0.708411  1
  Ti  Ti24  1  0.000000  0.500000  0.000000  1
  Ti  Ti25  1  0.000000  0.000000  0.000000  1
  Ba  Ba26  1  0.742979  0.250000  0.485958  1
  Ba  Ba27  1  0.257021  0.750000  0.514042  1
  Nd  Nd28  1  0.580197  0.750000  0.160394  1
  Nd  Nd29  1  0.419803  0.250000  0.839606  1
  Nd  Nd30  1  0.572716  0.250000  0.145432  1
  Nd  Nd31  1  0.427284  0.750000  0.854568  1
