# generated using pymatgen
data_VSb2NCl14
_symmetry_space_group_name_H-M   'P 1'
_cell_length_a   6.43426169
_cell_length_b   13.09297118
_cell_length_c   24.67665937
_cell_angle_alpha   102.81437335
_cell_angle_beta   90.00000000
_cell_angle_gamma   90.00000000
_symmetry_Int_Tables_number   1
_chemical_formula_structural   VSb2NCl14
_chemical_formula_sum   'V4 Sb8 N4 Cl56'
_cell_volume   2027.07430799
_cell_formula_units_Z   4
loop_
 _symmetry_equiv_pos_site_id
 _symmetry_equiv_pos_as_xyz
  1  'x, y, z'
loop_
 _atom_site_type_symbol
 _atom_site_label
 _atom_site_symmetry_multiplicity
 _atom_site_fract_x
 _atom_site_fract_y
 _atom_site_fract_z
 _atom_site_occupancy
  V  V0  1  0.551107  0.510554  0.638124  1
  V  V1  1  0.948893  0.010554  0.138124  1
  V  V2  1  0.448893  0.489446  0.361876  1
  V  V3  1  0.051107  0.989446  0.861876  1
  Sb  Sb4  1  0.070997  0.261819  0.966037  1
  Sb  Sb5  1  0.899409  0.010194  0.712190  1
  Sb  Sb6  1  0.399409  0.489806  0.787810  1
  Sb  Sb7  1  0.100591  0.989806  0.287810  1
  Sb  Sb8  1  0.600591  0.510194  0.212190  1
  Sb  Sb9  1  0.570997  0.238181  0.533963  1
  Sb  Sb10  1  0.929003  0.738181  0.033963  1
  Sb  Sb11  1  0.429003  0.761819  0.466037  1
  N  N12  1  0.083410  0.121502  0.146266  1
  N  N13  1  0.416590  0.621502  0.646266  1
  N  N14  1  0.916590  0.878498  0.853734  1
  N  N15  1  0.583410  0.378498  0.353734  1
  Cl  Cl16  1  0.209072  0.961442  0.770251  1
  Cl  Cl17  1  0.782446  0.775497  0.846806  1
  Cl  Cl18  1  0.722810  0.322569  0.625820  1
  Cl  Cl19  1  0.079577  0.943822  0.628167  1
  Cl  Cl20  1  0.660069  0.059959  0.104844  1
  Cl  Cl21  1  0.241957  0.917607  0.475069  1
  Cl  Cl22  1  0.335073  0.176465  0.007113  1
  Cl  Cl23  1  0.882071  0.071117  0.942588  1
  Cl  Cl24  1  0.420423  0.443822  0.128167  1
  Cl  Cl25  1  0.664927  0.823535  0.992887  1
  Cl  Cl26  1  0.118292  0.699587  0.949956  1
  Cl  Cl27  1  0.090935  0.439465  0.824758  1
  Cl  Cl28  1  0.920423  0.056178  0.371833  1
  Cl  Cl29  1  0.712337  0.815053  0.417734  1
  Cl  Cl30  1  0.282446  0.724503  0.653194  1
  Cl  Cl31  1  0.618292  0.800413  0.550044  1
  Cl  Cl32  1  0.787663  0.315053  0.917734  1
  Cl  Cl33  1  0.741957  0.582393  0.024931  1
  Cl  Cl34  1  0.730659  0.569045  0.310806  1
  Cl  Cl35  1  0.277190  0.677431  0.374180  1
  Cl  Cl36  1  0.258043  0.417607  0.975069  1
  Cl  Cl37  1  0.771789  0.839209  0.712965  1
  Cl  Cl38  1  0.381708  0.199587  0.449956  1
  Cl  Cl39  1  0.835073  0.323535  0.492887  1
  Cl  Cl40  1  0.709072  0.538558  0.729749  1
  Cl  Cl41  1  0.790928  0.038558  0.229749  1
  Cl  Cl42  1  0.839931  0.559959  0.604844  1
  Cl  Cl43  1  0.758043  0.082393  0.524931  1
  Cl  Cl44  1  0.881708  0.300413  0.050044  1
  Cl  Cl45  1  0.441822  0.676093  0.222808  1
  Cl  Cl46  1  0.717554  0.275497  0.346806  1
  Cl  Cl47  1  0.941822  0.823907  0.277192  1
  Cl  Cl48  1  0.777190  0.822569  0.125820  1
  Cl  Cl49  1  0.212337  0.684947  0.082266  1
  Cl  Cl50  1  0.058178  0.176093  0.722808  1
  Cl  Cl51  1  0.222810  0.177431  0.874180  1
  Cl  Cl52  1  0.287663  0.184947  0.582266  1
  Cl  Cl53  1  0.382071  0.428883  0.557412  1
  Cl  Cl54  1  0.590935  0.060535  0.675242  1
  Cl  Cl55  1  0.579577  0.556178  0.871833  1
  Cl  Cl56  1  0.909065  0.560535  0.175242  1
  Cl  Cl57  1  0.160069  0.440041  0.395156  1
  Cl  Cl58  1  0.271789  0.660791  0.787035  1
  Cl  Cl59  1  0.117929  0.928883  0.057412  1
  Cl  Cl60  1  0.290928  0.461442  0.270251  1
  Cl  Cl61  1  0.339931  0.940041  0.895156  1
  Cl  Cl62  1  0.269341  0.430955  0.689194  1
  Cl  Cl63  1  0.558178  0.323907  0.777192  1
  Cl  Cl64  1  0.164927  0.676465  0.507113  1
  Cl  Cl65  1  0.217554  0.224503  0.153194  1
  Cl  Cl66  1  0.230659  0.930955  0.189194  1
  Cl  Cl67  1  0.769341  0.069045  0.810806  1
  Cl  Cl68  1  0.228211  0.160791  0.287035  1
  Cl  Cl69  1  0.409065  0.939465  0.324758  1
  Cl  Cl70  1  0.728211  0.339209  0.212965  1
  Cl  Cl71  1  0.617929  0.571117  0.442588  1
