# generated using pymatgen
data_SiO2
_symmetry_space_group_name_H-M   'P 1'
_cell_length_a   9.06576014
_cell_length_b   19.52057708
_cell_length_c   10.45633260
_cell_angle_alpha   90.00000000
_cell_angle_beta   90.00000000
_cell_angle_gamma   90.00000000
_symmetry_Int_Tables_number   1
_chemical_formula_structural   SiO2
_chemical_formula_sum   'Si32 O64'
_cell_volume   1850.44536040
_cell_formula_units_Z   32
loop_
 _symmetry_equiv_pos_site_id
 _symmetry_equiv_pos_as_xyz
  1  'x, y, z'
loop_
 _atom_site_type_symbol
 _atom_site_label
 _atom_site_symmetry_multiplicity
 _atom_site_fract_x
 _atom_site_fract_y
 _atom_site_fract_z
 _atom_site_occupancy
  Si  Si0  1  0.176156  0.455158  0.383829  1
  Si  Si1  1  0.176156  0.544842  0.616171  1
  Si  Si2  1  0.323844  0.455158  0.116171  1
  Si  Si3  1  0.323844  0.544842  0.883829  1
  Si  Si4  1  0.823844  0.544842  0.616171  1
  Si  Si5  1  0.823844  0.455158  0.383829  1
  Si  Si6  1  0.676156  0.544842  0.883829  1
  Si  Si7  1  0.676156  0.455158  0.116171  1
  Si  Si8  1  0.676156  0.955158  0.383829  1
  Si  Si9  1  0.676156  0.044842  0.616171  1
  Si  Si10  1  0.823844  0.955158  0.116171  1
  Si  Si11  1  0.823844  0.044842  0.883829  1
  Si  Si12  1  0.323844  0.044842  0.616171  1
  Si  Si13  1  0.323844  0.955158  0.383829  1
  Si  Si14  1  0.176156  0.044842  0.883829  1
  Si  Si15  1  0.176156  0.955158  0.116171  1
  Si  Si16  1  0.323595  0.293465  0.115144  1
  Si  Si17  1  0.323595  0.706535  0.884856  1
  Si  Si18  1  0.176405  0.293465  0.384856  1
  Si  Si19  1  0.176405  0.706535  0.615144  1
  Si  Si20  1  0.676405  0.706535  0.884856  1
  Si  Si21  1  0.676405  0.293465  0.115144  1
  Si  Si22  1  0.823595  0.706535  0.615144  1
  Si  Si23  1  0.823595  0.293465  0.384856  1
  Si  Si24  1  0.823595  0.793465  0.115144  1
  Si  Si25  1  0.823595  0.206535  0.884856  1
  Si  Si26  1  0.676405  0.793465  0.384856  1
  Si  Si27  1  0.676405  0.206535  0.615144  1
  Si  Si28  1  0.176405  0.206535  0.884856  1
  Si  Si29  1  0.176405  0.793465  0.115144  1
  Si  Si30  1  0.323595  0.206535  0.615144  1
  Si  Si31  1  0.323595  0.793465  0.384856  1
  O  O32  1  0.246563  0.500000  0.500000  1
  O  O33  1  0.253437  0.500000  0.000000  1
  O  O34  1  0.753437  0.500000  0.500000  1
  O  O35  1  0.746563  0.500000  0.000000  1
  O  O36  1  0.746563  0.000000  0.500000  1
  O  O37  1  0.753437  0.000000  0.000000  1
  O  O38  1  0.253437  0.000000  0.500000  1
  O  O39  1  0.246563  0.000000  0.000000  1
  O  O40  1  0.250000  0.479486  0.250000  1
  O  O41  1  0.250000  0.520514  0.750000  1
  O  O42  1  0.750000  0.520514  0.750000  1
  O  O43  1  0.750000  0.479486  0.250000  1
  O  O44  1  0.750000  0.979486  0.250000  1
  O  O45  1  0.750000  0.020514  0.750000  1
  O  O46  1  0.250000  0.020514  0.750000  1
  O  O47  1  0.250000  0.979486  0.250000  1
  O  O48  1  0.207809  0.374358  0.408823  1
  O  O49  1  0.207809  0.625642  0.591177  1
  O  O50  1  0.292191  0.374358  0.091177  1
  O  O51  1  0.292191  0.625642  0.908823  1
  O  O52  1  0.792191  0.625642  0.591177  1
  O  O53  1  0.792191  0.374358  0.408823  1
  O  O54  1  0.707809  0.625642  0.908823  1
  O  O55  1  0.707809  0.374358  0.091177  1
  O  O56  1  0.707809  0.874358  0.408823  1
  O  O57  1  0.707809  0.125642  0.591177  1
  O  O58  1  0.792191  0.874358  0.091177  1
  O  O59  1  0.792191  0.125642  0.908823  1
  O  O60  1  0.292191  0.125642  0.591177  1
  O  O61  1  0.292191  0.874358  0.408823  1
  O  O62  1  0.207809  0.125642  0.908823  1
  O  O63  1  0.207809  0.874358  0.091177  1
  O  O64  1  0.000000  0.469372  0.376413  1
  O  O65  1  0.000000  0.530628  0.623587  1
  O  O66  1  0.500000  0.469372  0.123587  1
  O  O67  1  0.500000  0.530628  0.876413  1
  O  O68  1  0.500000  0.969372  0.376413  1
  O  O69  1  0.500000  0.030628  0.623587  1
  O  O70  1  0.000000  0.969372  0.123587  1
  O  O71  1  0.000000  0.030628  0.876413  1
  O  O72  1  0.250000  0.269843  0.250000  1
  O  O73  1  0.250000  0.730157  0.750000  1
  O  O74  1  0.750000  0.730157  0.750000  1
  O  O75  1  0.750000  0.269843  0.250000  1
  O  O76  1  0.750000  0.769843  0.250000  1
  O  O77  1  0.750000  0.230157  0.750000  1
  O  O78  1  0.250000  0.230157  0.750000  1
  O  O79  1  0.250000  0.769843  0.250000  1
  O  O80  1  0.250000  0.250000  0.000000  1
  O  O81  1  0.250000  0.750000  0.000000  1
  O  O82  1  0.250000  0.250000  0.500000  1
  O  O83  1  0.250000  0.750000  0.500000  1
  O  O84  1  0.750000  0.750000  0.000000  1
  O  O85  1  0.750000  0.250000  0.000000  1
  O  O86  1  0.750000  0.750000  0.500000  1
  O  O87  1  0.750000  0.250000  0.500000  1
  O  O88  1  0.500000  0.278772  0.119598  1
  O  O89  1  0.500000  0.721228  0.880402  1
  O  O90  1  0.000000  0.278772  0.380402  1
  O  O91  1  0.000000  0.721228  0.619598  1
  O  O92  1  0.000000  0.778772  0.119598  1
  O  O93  1  0.000000  0.221228  0.880402  1
  O  O94  1  0.500000  0.778772  0.380402  1
  O  O95  1  0.500000  0.221228  0.619598  1
