# generated using pymatgen
data_MnH10CNCl3O2
_symmetry_space_group_name_H-M   'P 1'
_cell_length_a   7.95029249
_cell_length_b   9.13617295
_cell_length_c   11.59397640
_cell_angle_alpha   90.00000000
_cell_angle_beta   91.95735507
_cell_angle_gamma   90.00000000
_symmetry_Int_Tables_number   1
_chemical_formula_structural   MnH10CNCl3O2
_chemical_formula_sum   'Mn4 H40 C4 N4 Cl12 O8'
_cell_volume   841.63997889
_cell_formula_units_Z   4
loop_
 _symmetry_equiv_pos_site_id
 _symmetry_equiv_pos_as_xyz
  1  'x, y, z'
loop_
 _atom_site_type_symbol
 _atom_site_label
 _atom_site_symmetry_multiplicity
 _atom_site_fract_x
 _atom_site_fract_y
 _atom_site_fract_z
 _atom_site_occupancy
  Mn  Mn0  1  0.037261  0.502121  0.750562  1
  Mn  Mn1  1  0.962739  0.002121  0.749438  1
  Mn  Mn2  1  0.037261  0.997879  0.250562  1
  Mn  Mn3  1  0.962739  0.497879  0.249438  1
  H  H4  1  0.165567  0.474205  0.052256  1
  H  H5  1  0.814496  0.825432  0.377882  1
  H  H6  1  0.620382  0.084995  0.352772  1
  H  H7  1  0.189032  0.988000  0.945526  1
  H  H8  1  0.810968  0.488000  0.554474  1
  H  H9  1  0.556011  0.322426  0.433082  1
  H  H10  1  0.364424  0.279966  0.914260  1
  H  H11  1  0.645859  0.208848  0.250290  1
  H  H12  1  0.635576  0.720034  0.085740  1
  H  H13  1  0.620382  0.415005  0.852772  1
  H  H14  1  0.185504  0.325432  0.122118  1
  H  H15  1  0.833342  0.172572  0.103048  1
  H  H16  1  0.166658  0.827428  0.896952  1
  H  H17  1  0.185504  0.174568  0.622118  1
  H  H18  1  0.529789  0.607610  0.253009  1
  H  H19  1  0.635576  0.779966  0.585740  1
  H  H20  1  0.379618  0.915005  0.647228  1
  H  H21  1  0.354141  0.791152  0.749710  1
  H  H22  1  0.833342  0.327428  0.603048  1
  H  H23  1  0.583518  0.855720  0.189270  1
  H  H24  1  0.645859  0.291152  0.750290  1
  H  H25  1  0.416482  0.144280  0.810730  1
  H  H26  1  0.443989  0.677574  0.566918  1
  H  H27  1  0.379618  0.584995  0.147228  1
  H  H28  1  0.443989  0.822426  0.066918  1
  H  H29  1  0.416482  0.355720  0.310730  1
  H  H30  1  0.364424  0.220034  0.414260  1
  H  H31  1  0.834433  0.974205  0.447744  1
  H  H32  1  0.470211  0.392390  0.746991  1
  H  H33  1  0.165567  0.025795  0.552256  1
  H  H34  1  0.354141  0.708848  0.249710  1
  H  H35  1  0.810968  0.012000  0.054474  1
  H  H36  1  0.834433  0.525795  0.947744  1
  H  H37  1  0.166658  0.672572  0.396952  1
  H  H38  1  0.583518  0.644280  0.689270  1
  H  H39  1  0.470211  0.107610  0.246991  1
  H  H40  1  0.814496  0.674568  0.877882  1
  H  H41  1  0.529789  0.892390  0.753009  1
  H  H42  1  0.189032  0.512000  0.445526  1
  H  H43  1  0.556011  0.177574  0.933082  1
  C  C44  1  0.467765  0.227151  0.870389  1
  C  C45  1  0.532235  0.727151  0.629611  1
  C  C46  1  0.467765  0.272849  0.370389  1
  C  C47  1  0.532235  0.772849  0.129611  1
  N  N48  1  0.443089  0.660956  0.198352  1
  N  N49  1  0.556911  0.339044  0.801648  1
  N  N50  1  0.556911  0.160956  0.301648  1
  N  N51  1  0.443089  0.839044  0.698352  1
  Cl  Cl52  1  0.746060  0.903854  0.884689  1
  Cl  Cl53  1  0.987581  0.249047  0.344459  1
  Cl  Cl54  1  0.012419  0.750953  0.655541  1
  Cl  Cl55  1  0.736160  0.411266  0.106797  1
  Cl  Cl56  1  0.012419  0.749047  0.155541  1
  Cl  Cl57  1  0.746060  0.596146  0.384689  1
  Cl  Cl58  1  0.253940  0.096146  0.115311  1
  Cl  Cl59  1  0.987581  0.250953  0.844459  1
  Cl  Cl60  1  0.263840  0.911266  0.393203  1
  Cl  Cl61  1  0.253940  0.403854  0.615311  1
  Cl  Cl62  1  0.263840  0.588734  0.893203  1
  Cl  Cl63  1  0.736160  0.088734  0.606797  1
  O  O64  1  0.830645  0.932633  0.369067  1
  O  O65  1  0.169355  0.432633  0.130933  1
  O  O66  1  0.169355  0.067367  0.630933  1
  O  O67  1  0.171921  0.931161  0.873609  1
  O  O68  1  0.171921  0.568839  0.373609  1
  O  O69  1  0.830645  0.567367  0.869067  1
  O  O70  1  0.828079  0.431161  0.626391  1
  O  O71  1  0.828079  0.068839  0.126391  1
