# generated using pymatgen
data_K3Cu(CN)4
_symmetry_space_group_name_H-M   'P 1'
_cell_length_a   8.07742567
_cell_length_b   8.07742566
_cell_length_c   8.07742566
_cell_angle_alpha   75.58064928
_cell_angle_beta   75.58064934
_cell_angle_gamma   75.58064930
_symmetry_Int_Tables_number   1
_chemical_formula_structural   K3Cu(CN)4
_chemical_formula_sum   'K6 Cu2 C8 N8'
_cell_volume   484.40637740
_cell_formula_units_Z   2
loop_
 _symmetry_equiv_pos_site_id
 _symmetry_equiv_pos_as_xyz
  1  'x, y, z'
loop_
 _atom_site_type_symbol
 _atom_site_label
 _atom_site_symmetry_multiplicity
 _atom_site_fract_x
 _atom_site_fract_y
 _atom_site_fract_z
 _atom_site_occupancy
  C  C0  1  0.508371  0.365070  0.733719  1
  C  C1  1  0.733719  0.508371  0.365070  1
  C  C2  1  0.884233  0.884233  0.884233  1
  C  C3  1  0.384233  0.384233  0.384233  1
  C  C4  1  0.365070  0.733719  0.508371  1
  C  C5  1  0.865070  0.008371  0.233719  1
  C  C6  1  0.008371  0.233719  0.865070  1
  C  C7  1  0.233719  0.865070  0.008371  1
  N  N8  1  0.781862  0.006842  0.376885  1
  N  N9  1  0.281862  0.876885  0.506842  1
  N  N10  1  0.506842  0.281862  0.876885  1
  N  N11  1  0.876885  0.506842  0.281862  1
  N  N12  1  0.815136  0.815136  0.815136  1
  N  N13  1  0.315136  0.315136  0.315136  1
  N  N14  1  0.376885  0.781862  0.006842  1
  N  N15  1  0.006842  0.376885  0.781862  1
  K  K16  1  0.500657  0.009103  0.666618  1
  K  K17  1  0.009103  0.666618  0.500657  1
  K  K18  1  0.666618  0.500657  0.009103  1
  K  K19  1  0.166618  0.509103  0.000657  1
  K  K20  1  0.509103  0.000657  0.166618  1
  K  K21  1  0.000657  0.166618  0.509103  1
  Cu  Cu22  1  0.498704  0.498704  0.498704  1
  Cu  Cu23  1  0.998704  0.998704  0.998704  1
