# generated using pymatgen
data_TlInS2
_symmetry_space_group_name_H-M   'P 1'
_cell_length_a   16.11214054
_cell_length_b   4.14053220
_cell_length_c   9.74872750
_cell_angle_alpha   133.49104161
_cell_angle_beta   163.28504074
_cell_angle_gamma   41.28919554
_symmetry_Int_Tables_number   1
_chemical_formula_structural   TlInS2
_chemical_formula_sum   'Tl1 In1 S2'
_cell_volume   121.72704787
_cell_formula_units_Z   1
loop_
 _symmetry_equiv_pos_site_id
 _symmetry_equiv_pos_as_xyz
  1  'x, y, z'
loop_
 _atom_site_type_symbol
 _atom_site_label
 _atom_site_symmetry_multiplicity
 _atom_site_fract_x
 _atom_site_fract_y
 _atom_site_fract_z
 _atom_site_occupancy
  Tl  Tl0  1  0.065542  0.712343  0.860799  1
  In  In1  1  0.010312  0.972149  0.227435  1
  S  S2  1  0.309669  0.592422  -0.148616  1
  S  S3  1  0.614477  0.223086  0.060382  1
