# generated using pymatgen
data_Ag8GeTe6
_symmetry_space_group_name_H-M   'P 1'
_cell_length_a   8.38436656
_cell_length_b   8.36228307
_cell_length_c   16.83328067
_cell_angle_alpha   60.00385177
_cell_angle_beta   60.35929473
_cell_angle_gamma   60.39533652
_symmetry_Int_Tables_number   1
_chemical_formula_structural   Ag8GeTe6
_chemical_formula_sum   'Ag16 Ge2 Te12'
_cell_volume   839.29574217
_cell_formula_units_Z   2
loop_
 _symmetry_equiv_pos_site_id
 _symmetry_equiv_pos_as_xyz
  1  'x, y, z'
loop_
 _atom_site_type_symbol
 _atom_site_label
 _atom_site_symmetry_multiplicity
 _atom_site_fract_x
 _atom_site_fract_y
 _atom_site_fract_z
 _atom_site_occupancy
  Ag  Ag0  1  0.472090  0.387485  0.092083  1
  Ag  Ag1  1  0.324404  0.026254  0.502652  1
  Ag  Ag2  1  0.230660  0.853810  0.336828  1
  Ag  Ag3  1  0.866647  0.233986  0.101940  1
  Ag  Ag4  1  0.605706  0.247036  0.459822  1
  Ag  Ag5  1  0.589036  0.952245  0.147534  1
  Ag  Ag6  1  0.363501  0.413742  0.684985  1
  Ag  Ag7  1  0.939574  0.235765  0.298973  1
  Ag  Ag8  1  0.935051  0.613452  0.136124  1
  Ag  Ag9  1  0.247348  0.580070  0.961511  1
  Ag  Ag10  1  0.247856  0.927065  0.792097  1
  Ag  Ag11  1  0.924687  0.226063  0.604965  1
  Ag  Ag12  1  0.598026  0.191081  0.954492  1
  Ag  Ag13  1  0.617698  0.909963  0.630728  1
  Ag  Ag14  1  0.922720  0.270402  0.793670  1
  Ag  Ag15  1  0.970718  0.620179  0.581274  1
  Ge  Ge16  1  0.795455  0.753138  0.367765  1
  Ge  Ge17  1  0.768998  0.757227  0.872921  1
  Te  Te18  1  0.967607  0.999359  0.996314  1
  Te  Te19  1  0.219853  0.220975  0.119409  1
  Te  Te20  1  0.990873  0.008880  0.494683  1
  Te  Te21  1  0.160511  0.610653  0.300795  1
  Te  Te22  1  0.632346  0.639175  0.062426  1
  Te  Te23  1  0.253258  0.253724  0.616963  1
  Te  Te24  1  0.621161  0.133023  0.313058  1
  Te  Te25  1  0.629699  0.628561  0.320843  1
  Te  Te26  1  0.144315  0.629205  0.810129  1
  Te  Te27  1  0.629317  0.641734  0.559564  1
  Te  Te28  1  0.637839  0.138389  0.792432  1
  Te  Te29  1  0.627045  0.627360  0.817021  1
