# generated using pymatgen
data_HIO4
_symmetry_space_group_name_H-M   'P 1'
_cell_length_a   5.10492466
_cell_length_b   11.43220744
_cell_length_c   9.52930012
_cell_angle_alpha   33.53499390
_cell_angle_beta   83.91559694
_cell_angle_gamma   84.93127236
_symmetry_Int_Tables_number   1
_chemical_formula_structural   HIO4
_chemical_formula_sum   'H4 I4 O16'
_cell_volume   305.50410315
_cell_formula_units_Z   4
loop_
 _symmetry_equiv_pos_site_id
 _symmetry_equiv_pos_as_xyz
  1  'x, y, z'
loop_
 _atom_site_type_symbol
 _atom_site_label
 _atom_site_symmetry_multiplicity
 _atom_site_fract_x
 _atom_site_fract_y
 _atom_site_fract_z
 _atom_site_occupancy
  H  H0  1  0.022464  0.269275  0.949398  1
  H  H1  1  0.522464  0.230725  0.487948  1
  H  H2  1  0.477536  0.769275  0.512052  1
  H  H3  1  0.977536  0.730725  0.050602  1
  I  I4  1  0.253026  0.142441  0.853219  1
  I  I5  1  0.246974  0.642441  0.861898  1
  I  I6  1  0.753026  0.357559  0.138102  1
  I  I7  1  0.746974  0.857559  0.146781  1
  O  O8  1  0.047677  0.401681  0.207463  1
  O  O9  1  0.054572  0.911361  0.198178  1
  O  O10  1  0.104312  0.341615  0.787176  1
  O  O11  1  0.117240  0.835815  0.793371  1
  O  O12  1  0.382760  0.335815  0.534998  1
  O  O13  1  0.547677  0.098319  0.010825  1
  O  O14  1  0.395688  0.841615  0.529594  1
  O  O15  1  0.554572  0.588639  0.020900  1
  O  O16  1  0.445428  0.411361  0.979100  1
  O  O17  1  0.604312  0.158385  0.470406  1
  O  O18  1  0.452323  0.901681  0.989175  1
  O  O19  1  0.617240  0.664185  0.465002  1
  O  O20  1  0.882760  0.164185  0.206629  1
  O  O21  1  0.895688  0.658385  0.212824  1
  O  O22  1  0.945428  0.088639  0.801822  1
  O  O23  1  0.952323  0.598319  0.792537  1
