# generated using pymatgen
data_Fe21O32
_symmetry_space_group_name_H-M   'P 1'
_cell_length_a   8.29208650
_cell_length_b   8.29208650
_cell_length_c   8.29208650
_cell_angle_alpha   90.60781775
_cell_angle_beta   90.60781775
_cell_angle_gamma   89.39218225
_symmetry_Int_Tables_number   1
_chemical_formula_structural   Fe21O32
_chemical_formula_sum   'Fe21 O32'
_cell_volume   570.05750633
_cell_formula_units_Z   1
loop_
 _symmetry_equiv_pos_site_id
 _symmetry_equiv_pos_as_xyz
  1  'x, y, z'
loop_
 _atom_site_type_symbol
 _atom_site_label
 _atom_site_symmetry_multiplicity
 _atom_site_fract_x
 _atom_site_fract_y
 _atom_site_fract_z
 _atom_site_occupancy
  Fe  Fe0  1  0.001813  0.509986  0.501157  1
  Fe  Fe1  1  0.123897  0.626058  0.125953  1
  Fe  Fe2  1  0.126058  0.374047  0.876103  1
  Fe  Fe3  1  0.132250  0.117750  0.625000  1
  Fe  Fe4  1  0.248836  0.748836  0.751164  1
  Fe  Fe5  1  0.251157  0.240014  0.251813  1
  Fe  Fe6  1  0.371088  0.878912  0.125000  1
  Fe  Fe7  1  0.375000  0.632250  0.382250  1
  Fe  Fe8  1  0.378912  0.375000  0.628912  1
  Fe  Fe9  1  0.498843  0.501813  0.990014  1
  Fe  Fe10  1  0.501164  0.001164  0.498836  1
  Fe  Fe11  1  0.617750  0.875000  0.867750  1
  Fe  Fe12  1  0.623942  0.126103  0.124047  1
  Fe  Fe13  1  0.626103  0.375953  0.376058  1
  Fe  Fe14  1  0.748187  0.751157  0.259986  1
  Fe  Fe15  1  0.740014  0.248187  0.748843  1
  Fe  Fe16  1  0.874047  0.623897  0.873942  1
  Fe  Fe17  1  0.875000  0.375000  0.125000  1
  Fe  Fe18  1  0.875000  0.871088  0.621088  1
  Fe  Fe19  1  0.875953  0.123942  0.373897  1
  Fe  Fe20  1  0.009986  0.998843  0.998187  1
  O  O21  1  0.109839  0.881804  0.638869  1
  O  O22  1  0.110769  0.610769  0.889231  1
  O  O23  1  0.104996  0.144729  0.385766  1
  O  O24  1  0.105271  0.145004  0.864234  1
  O  O25  1  0.118750  0.382713  0.112714  1
  O  O26  1  0.138852  0.369184  0.639647  1
  O  O27  1  0.137748  0.859617  0.116795  1
  O  O28  1  0.135766  0.605271  0.354996  1
  O  O29  1  0.359617  0.383205  0.862252  1
  O  O30  1  0.368196  0.140161  0.611131  1
  O  O31  1  0.360353  0.638852  0.130816  1
  O  O32  1  0.361131  0.609839  0.618196  1
  O  O33  1  0.388869  0.868196  0.359839  1
  O  O34  1  0.389647  0.380816  0.388852  1
  O  O35  1  0.381804  0.861131  0.890161  1
  O  O36  1  0.390383  0.112252  0.133205  1
  O  O37  1  0.614234  0.604996  0.355271  1
  O  O38  1  0.612252  0.366795  0.609617  1
  O  O39  1  0.611148  0.889647  0.119184  1
  O  O40  1  0.631250  0.362714  0.132713  1
  O  O41  1  0.644729  0.114234  0.895004  1
  O  O42  1  0.639231  0.139231  0.360769  1
  O  O43  1  0.645004  0.635766  0.894729  1
  O  O44  1  0.640161  0.888869  0.631804  1
  O  O45  1  0.867287  0.131250  0.137286  1
  O  O46  1  0.862714  0.367287  0.368750  1
  O  O47  1  0.869184  0.860353  0.861148  1
  O  O48  1  0.866795  0.890383  0.387748  1
  O  O49  1  0.883205  0.637748  0.640383  1
  O  O50  1  0.887286  0.618750  0.117287  1
  O  O51  1  0.880816  0.111148  0.610353  1
  O  O52  1  0.882713  0.387286  0.881250  1
