# generated using pymatgen
data_Sr22Nb10O47
_symmetry_space_group_name_H-M   'P 1'
_cell_length_a   6.00792711
_cell_length_b   6.52284143
_cell_length_c   50.17583712
_cell_angle_alpha   54.69572739
_cell_angle_beta   62.96240165
_cell_angle_gamma   60.21875885
_symmetry_Int_Tables_number   1
_chemical_formula_structural   Sr22Nb10O47
_chemical_formula_sum   'Sr22 Nb10 O47'
_cell_volume   1353.25568156
_cell_formula_units_Z   1
loop_
 _symmetry_equiv_pos_site_id
 _symmetry_equiv_pos_as_xyz
  1  'x, y, z'
loop_
 _atom_site_type_symbol
 _atom_site_label
 _atom_site_symmetry_multiplicity
 _atom_site_fract_x
 _atom_site_fract_y
 _atom_site_fract_z
 _atom_site_occupancy
  Sr  Sr0  1  0.152384  0.234976  0.028006  1
  Sr  Sr1  1  0.516079  0.579700  0.058024  1
  Sr  Sr2  1  0.160268  0.280845  0.157099  1
  Sr  Sr3  1  0.495286  0.569997  0.193762  1
  Sr  Sr4  1  0.118240  0.260664  0.304240  1
  Sr  Sr5  1  0.711652  0.809581  0.092799  1
  Sr  Sr6  1  0.119573  0.273338  0.406936  1
  Sr  Sr7  1  0.410883  0.605044  0.318790  1
  Sr  Sr8  1  0.610644  0.833470  0.229900  1
  Sr  Sr9  1  0.392161  0.482787  0.447503  1
  Sr  Sr10  1  0.588461  0.772429  0.361449  1
  Sr  Sr11  1  0.249226  0.246060  0.541448  1
  Sr  Sr12  1  0.702586  0.712703  0.473695  1
  Sr  Sr13  1  0.198541  0.290536  0.649665  1
  Sr  Sr14  1  0.704897  0.763033  0.600884  1
  Sr  Sr15  1  0.120849  0.288138  0.798969  1
  Sr  Sr16  1  0.385452  0.606377  0.818956  1
  Sr  Sr17  1  0.812679  0.852504  0.715391  1
  Sr  Sr18  1  0.125566  0.341211  0.909007  1
  Sr  Sr19  1  0.376761  0.649215  0.949941  1
  Sr  Sr20  1  0.610615  0.793911  0.859901  1
  Sr  Sr21  1  0.669310  0.886104  0.964172  1
  Nb  Nb22  1  0.868636  0.023719  0.006199  1
  Nb  Nb23  1  0.822090  0.056182  0.131404  1
  Nb  Nb24  1  0.829693  0.047200  0.258852  1
  Nb  Nb25  1  0.855930  0.013064  0.384249  1
  Nb  Nb26  1  0.962062  0.942380  0.497939  1
  Nb  Nb27  1  0.868849  0.070654  0.629288  1
  Nb  Nb28  1  0.566562  0.529262  0.563977  1
  Nb  Nb29  1  0.858704  0.076508  0.760491  1
  Nb  Nb30  1  0.611070  0.579827  0.694989  1
  Nb  Nb31  1  0.890056  0.057649  0.879305  1
  O  O32  1  0.543519  0.967239  0.049142  1
  O  O33  1  0.812514  0.378666  0.996210  1
  O  O34  1  0.080992  0.836268  0.042206  1
  O  O35  1  0.877514  0.682210  0.012396  1
  O  O36  1  0.846597  0.146116  0.086250  1
  O  O37  1  0.556954  0.966139  0.177670  1
  O  O38  1  0.569869  0.415533  0.121812  1
  O  O39  1  0.131909  0.025888  0.137175  1
  O  O40  1  0.834460  0.697482  0.143467  1
  O  O41  1  0.840447  0.146914  0.211120  1
  O  O42  1  0.581152  0.420627  0.246119  1
  O  O43  1  0.593975  0.970552  0.302239  1
  O  O44  1  0.157276  0.017437  0.260694  1
  O  O45  1  0.172524  0.798825  0.355614  1
  O  O46  1  0.848135  0.696900  0.268604  1
  O  O47  1  0.669247  0.170012  0.347661  1
  O  O48  1  0.561372  0.193942  0.410500  1
  O  O49  1  0.999543  0.344610  0.351697  1
  O  O50  1  0.108183  0.864114  0.411317  1
  O  O51  1  0.282849  0.702237  0.481794  1
  O  O52  1  0.742001  0.689133  0.409425  1
  O  O53  1  0.771339  0.102961  0.465902  1
  O  O54  1  0.718358  0.951811  0.539166  1
  O  O55  1  0.080329  0.228795  0.481404  1
  O  O56  1  0.274416  0.755886  0.581011  1
  O  O57  1  0.405674  0.508659  0.542169  1
  O  O58  1  0.220737  0.905117  0.627500  1
  O  O59  1  0.849462  0.591261  0.521646  1
  O  O60  1  0.573427  0.178426  0.604809  1
  O  O61  1  0.554748  0.947337  0.680146  1
  O  O62  1  0.898126  0.385115  0.584716  1
  O  O63  1  0.798389  0.277805  0.648989  1
  O  O64  1  0.284594  0.583413  0.701740  1
  O  O65  1  0.838142  0.690075  0.647946  1
  O  O66  1  0.889397  0.211488  0.708656  1
  O  O67  1  0.590406  0.065988  0.798919  1
  O  O68  1  0.647920  0.486648  0.738952  1
  O  O69  1  0.149651  0.012707  0.771936  1
  O  O70  1  0.204827  0.813708  0.855688  1
  O  O71  1  0.864563  0.751259  0.767580  1
  O  O72  1  0.720518  0.204350  0.841660  1
  O  O73  1  0.585512  0.253188  0.902529  1
  O  O74  1  0.051225  0.367882  0.847848  1
  O  O75  1  0.091195  0.907665  0.913166  1
  O  O76  1  0.185709  0.002261  0.967982  1
  O  O77  1  0.579080  0.196698  0.981039  1
  O  O78  1  0.746459  0.742985  0.905635  1
