# generated using pymatgen
data_H4N2O3
_symmetry_space_group_name_H-M   'P 1'
_cell_length_a   4.95782543
_cell_length_b   4.72729305
_cell_length_c   4.72729305
_cell_angle_alpha   82.05946104
_cell_angle_beta   91.39034850
_cell_angle_gamma   88.60965150
_symmetry_Int_Tables_number   1
_chemical_formula_structural   H4N2O3
_chemical_formula_sum   'H4 N2 O3'
_cell_volume   109.65673060
_cell_formula_units_Z   1
loop_
 _symmetry_equiv_pos_site_id
 _symmetry_equiv_pos_as_xyz
  1  'x, y, z'
loop_
 _atom_site_type_symbol
 _atom_site_label
 _atom_site_symmetry_multiplicity
 _atom_site_fract_x
 _atom_site_fract_y
 _atom_site_fract_z
 _atom_site_occupancy
  H  H0  1  0.020442  0.388642  0.638754  1
  H  H1  1  0.979558  0.638754  0.388642  1
  H  H2  1  0.846905  0.156841  0.060792  1
  H  H3  1  0.153095  0.060792  0.156841  1
  N  N4  1  0.000000  0.016874  0.016874  1
  N  N5  1  0.500000  0.670377  0.670377  1
  O  O6  1  0.000000  0.431436  0.431436  1
  O  O7  1  0.527756  0.558740  0.916837  1
  O  O8  1  0.472244  0.916837  0.558740  1
