# generated using pymatgen
data_NaHO
_symmetry_space_group_name_H-M   'P 1'
_cell_length_a   5.90814617
_cell_length_b   3.40987941
_cell_length_c   5.97700399
_cell_angle_alpha   90.00000000
_cell_angle_beta   33.78667737
_cell_angle_gamma   90.00000000
_symmetry_Int_Tables_number   1
_chemical_formula_structural   NaHO
_chemical_formula_sum   'Na2 H2 O2'
_cell_volume   66.96202041
_cell_formula_units_Z   2
loop_
 _symmetry_equiv_pos_site_id
 _symmetry_equiv_pos_as_xyz
  1  'x, y, z'
loop_
 _atom_site_type_symbol
 _atom_site_label
 _atom_site_symmetry_multiplicity
 _atom_site_fract_x
 _atom_site_fract_y
 _atom_site_fract_z
 _atom_site_occupancy
  Na  Na0  1  0.155360  0.179648  0.170411  1
  Na  Na1  1  0.844640  0.679648  0.829589  1
  H  H2  1  0.448828  0.112491  0.446737  1
  H  H3  1  0.551172  0.612491  0.553263  1
  O  O4  1  0.384872  0.207900  0.349556  1
  O  O5  1  0.615128  0.707900  0.650444  1
