# generated using pymatgen
data_La2PbF8
_symmetry_space_group_name_H-M   'P 1'
_cell_length_a   4.12180617
_cell_length_b   12.76742879
_cell_length_c   7.23983631
_cell_angle_alpha   31.41689588
_cell_angle_beta   55.69856089
_cell_angle_gamma   61.46697949
_symmetry_Int_Tables_number   1
_chemical_formula_structural   La2PbF8
_chemical_formula_sum   'La2 Pb1 F8'
_cell_volume   164.05408752
_cell_formula_units_Z   1
loop_
 _symmetry_equiv_pos_site_id
 _symmetry_equiv_pos_as_xyz
  1  'x, y, z'
loop_
 _atom_site_type_symbol
 _atom_site_label
 _atom_site_symmetry_multiplicity
 _atom_site_fract_x
 _atom_site_fract_y
 _atom_site_fract_z
 _atom_site_occupancy
  La  La0  1  0.030791  0.325693  0.000002  1
  La  La1  1  0.009081  0.657139  0.001908  1
  Pb  Pb2  1  0.996181  0.011464  0.967123  1
  F  F3  1  0.427338  0.145562  0.375364  1
  F  F4  1  0.264567  0.630228  0.303399  1
  F  F5  1  0.688115  0.336323  0.378151  1
  F  F6  1  0.237711  0.018059  0.247751  1
  F  F7  1  0.410840  0.537123  0.801211  1
  F  F8  1  0.826229  0.347679  0.684367  1
  F  F9  1  0.695892  0.739746  0.693887  1
  F  F10  1  0.749253  0.917650  0.882837  1
