# generated using pymatgen
data_VH4(CO3)2
_symmetry_space_group_name_H-M   'P 1'
_cell_length_a   7.52714943
_cell_length_b   8.49113414
_cell_length_c   8.62610674
_cell_angle_alpha   90.00000000
_cell_angle_beta   90.00000000
_cell_angle_gamma   90.00000000
_symmetry_Int_Tables_number   1
_chemical_formula_structural   VH4(CO3)2
_chemical_formula_sum   'V4 H16 C8 O24'
_cell_volume   551.32929242
_cell_formula_units_Z   4
loop_
 _symmetry_equiv_pos_site_id
 _symmetry_equiv_pos_as_xyz
  1  'x, y, z'
loop_
 _atom_site_type_symbol
 _atom_site_label
 _atom_site_symmetry_multiplicity
 _atom_site_fract_x
 _atom_site_fract_y
 _atom_site_fract_z
 _atom_site_occupancy
  V  V0  1  0.228147  0.500000  0.750000  1
  V  V1  1  0.771853  0.500000  0.250000  1
  V  V2  1  0.771853  0.000000  0.750000  1
  V  V3  1  0.228147  0.000000  0.250000  1
  H  H4  1  0.824322  0.169891  0.427214  1
  H  H5  1  0.598901  0.072447  0.191364  1
  H  H6  1  0.401099  0.427553  0.191364  1
  H  H7  1  0.598901  0.927553  0.308636  1
  H  H8  1  0.175678  0.830109  0.572786  1
  H  H9  1  0.598901  0.427553  0.691364  1
  H  H10  1  0.824322  0.330109  0.927214  1
  H  H11  1  0.401099  0.572447  0.308636  1
  H  H12  1  0.175678  0.669891  0.072786  1
  H  H13  1  0.824322  0.830109  0.072786  1
  H  H14  1  0.401099  0.927553  0.808636  1
  H  H15  1  0.175678  0.169891  0.927214  1
  H  H16  1  0.824322  0.669891  0.572786  1
  H  H17  1  0.175678  0.330109  0.427214  1
  H  H18  1  0.401099  0.072447  0.691364  1
  H  H19  1  0.598901  0.572447  0.808636  1
  C  C20  1  0.235745  0.244271  0.507553  1
  C  C21  1  0.764255  0.755729  0.492447  1
  C  C22  1  0.235745  0.255729  0.007553  1
  C  C23  1  0.764255  0.744271  0.992447  1
  C  C24  1  0.235745  0.744271  0.492447  1
  C  C25  1  0.764255  0.244271  0.007553  1
  C  C26  1  0.235745  0.755729  0.992447  1
  C  C27  1  0.764255  0.255729  0.507553  1
  O  O28  1  0.477262  0.500000  0.250000  1
  O  O29  1  0.477262  0.000000  0.750000  1
  O  O30  1  0.011198  0.500000  0.750000  1
  O  O31  1  0.267743  0.395141  0.962595  1
  O  O32  1  0.725409  0.213882  0.645597  1
  O  O33  1  0.725409  0.786118  0.854403  1
  O  O34  1  0.725409  0.286118  0.145597  1
  O  O35  1  0.732257  0.104859  0.962595  1
  O  O36  1  0.274591  0.786118  0.354403  1
  O  O37  1  0.274591  0.713882  0.854403  1
  O  O38  1  0.267743  0.104859  0.462595  1
  O  O39  1  0.732257  0.395141  0.462595  1
  O  O40  1  0.274591  0.286118  0.645597  1
  O  O41  1  0.011198  0.000000  0.250000  1
  O  O42  1  0.725409  0.713882  0.354403  1
  O  O43  1  0.267743  0.604859  0.537405  1
  O  O44  1  0.732257  0.895141  0.537405  1
  O  O45  1  0.988802  0.000000  0.750000  1
  O  O46  1  0.522738  0.500000  0.750000  1
  O  O47  1  0.988802  0.500000  0.250000  1
  O  O48  1  0.267743  0.895141  0.037405  1
  O  O49  1  0.274591  0.213882  0.145597  1
  O  O50  1  0.732257  0.604859  0.037405  1
  O  O51  1  0.522738  0.000000  0.250000  1
