# generated using pymatgen
data_Nd12Si5Se28
_symmetry_space_group_name_H-M   'P 1'
_cell_length_a   10.59130599
_cell_length_b   10.59128247
_cell_length_c   24.38051743
_cell_angle_alpha   89.99997366
_cell_angle_beta   89.99986658
_cell_angle_gamma   120.00012449
_symmetry_Int_Tables_number   1
_chemical_formula_structural   Nd12Si5Se28
_chemical_formula_sum   'Nd24 Si10 Se56'
_cell_volume   2368.48736027
_cell_formula_units_Z   2
loop_
 _symmetry_equiv_pos_site_id
 _symmetry_equiv_pos_as_xyz
  1  'x, y, z'
loop_
 _atom_site_type_symbol
 _atom_site_label
 _atom_site_symmetry_multiplicity
 _atom_site_fract_x
 _atom_site_fract_y
 _atom_site_fract_z
 _atom_site_occupancy
  Nd  Nd0  1  0.127172  0.775664  0.428891  1
  Nd  Nd1  1  0.132807  0.783198  0.187827  1
  Nd  Nd2  1  0.127812  0.763855  0.672706  1
  Nd  Nd3  1  0.132738  0.774464  0.927609  1
  Nd  Nd4  1  0.216804  0.349613  0.187827  1
  Nd  Nd5  1  0.224334  0.351506  0.428891  1
  Nd  Nd6  1  0.236145  0.363957  0.672707  1
  Nd  Nd7  1  0.225535  0.358272  0.927608  1
  Nd  Nd8  1  0.650388  0.867193  0.187828  1
  Nd  Nd9  1  0.648493  0.872829  0.428892  1
  Nd  Nd10  1  0.636038  0.872178  0.672706  1
  Nd  Nd11  1  0.641726  0.867262  0.927608  1
  Nd  Nd12  1  0.367387  0.137637  0.060568  1
  Nd  Nd13  1  0.352539  0.130902  0.307113  1
  Nd  Nd14  1  0.344430  0.121965  0.546169  1
  Nd  Nd15  1  0.360312  0.132160  0.804576  1
  Nd  Nd16  1  0.770251  0.632616  0.060568  1
  Nd  Nd17  1  0.778362  0.647461  0.307112  1
  Nd  Nd18  1  0.777538  0.655572  0.546167  1
  Nd  Nd19  1  0.771848  0.639688  0.804576  1
  Nd  Nd20  1  0.862365  0.229750  0.060569  1
  Nd  Nd21  1  0.869098  0.221638  0.307114  1
  Nd  Nd22  1  0.878032  0.222462  0.546167  1
  Nd  Nd23  1  0.867840  0.228152  0.804576  1
  Si  Si24  1  0.333333  0.666667  0.076060  1
  Si  Si25  1  0.333333  0.666666  0.326651  1
  Si  Si26  1  0.333334  0.666663  0.572935  1
  Si  Si27  1  0.333334  0.666666  0.822187  1
  Si  Si28  1  0.666667  0.333334  0.205032  1
  Si  Si29  1  0.666667  0.333333  0.450123  1
  Si  Si30  1  0.666666  0.333332  0.698643  1
  Si  Si31  1  0.666668  0.333339  0.952928  1
  Si  Si32  1  -0.000001  0.000000  0.733524  1
  Si  Si33  1  -0.000001  0.000000  -0.012704  1
  Se  Se34  1  0.087608  0.859235  0.039228  1
  Se  Se35  1  0.095030  0.838722  0.300966  1
  Se  Se36  1  0.086645  0.852773  0.792633  1
  Se  Se37  1  0.090445  0.831148  0.552161  1
  Se  Se38  1  0.105208  0.522169  0.363662  1
  Se  Se39  1  0.104952  0.526185  0.112121  1
  Se  Se40  1  0.104080  0.515641  0.610845  1
  Se  Se41  1  0.105511  0.521924  0.859859  1
  Se  Se42  1  0.421232  0.895048  0.112121  1
  Se  Se43  1  0.416960  0.894791  0.363661  1
  Se  Se44  1  0.416412  0.894488  0.859859  1
  Se  Se45  1  0.411562  0.895917  0.610844  1
  Se  Se46  1  0.333333  0.666667  0.233086  1
  Se  Se47  1  0.333334  0.666666  0.480972  1
  Se  Se48  1  0.333332  0.666665  0.729878  1
  Se  Se49  1  0.333333  0.666666  0.981798  1
  Se  Se50  1  0.140767  0.228373  0.039228  1
  Se  Se51  1  0.161284  0.256314  0.300967  1
  Se  Se52  1  0.168851  0.259295  0.552161  1
  Se  Se53  1  0.147227  0.233872  0.792634  1
  Se  Se54  1  0.477831  0.583039  0.363661  1
  Se  Se55  1  0.473815  0.578768  0.112121  1
  Se  Se56  1  0.478076  0.583587  0.859859  1
  Se  Se57  1  0.484359  0.588435  0.610845  1
  Se  Se58  1  0.258601  0.098014  0.172033  1
  Se  Se59  1  0.257035  0.092508  0.426144  1
  Se  Se60  1  0.232082  0.080986  0.683128  1
  Se  Se61  1  0.246952  0.090535  0.925225  1
  Se  Se62  1  0.771626  0.912393  0.039228  1
  Se  Se63  1  0.743687  0.904971  0.300967  1
  Se  Se64  1  0.740701  0.909554  0.552161  1
  Se  Se65  1  0.766127  0.913354  0.792633  1
  Se  Se66  1  0.522701  0.419059  0.239822  1
  Se  Se67  1  0.521493  0.416279  0.487489  1
  Se  Se68  1  0.521472  0.415970  0.737163  1
  Se  Se69  1  0.520494  0.416989  0.988382  1
  Se  Se70  1  0.839411  0.741399  0.172033  1
  Se  Se71  1  0.835472  0.742965  0.426144  1
  Se  Se72  1  0.848903  0.767917  0.683128  1
  Se  Se73  1  0.843586  0.753053  0.925226  1
  Se  Se74  1  0.666667  0.333334  0.110377  1
  Se  Se75  1  0.666667  0.333334  0.357433  1
  Se  Se76  1  0.666667  0.333335  0.859347  1
  Se  Se77  1  0.666667  0.333333  0.606766  1
  Se  Se78  1  0.583720  0.105213  0.487488  1
  Se  Se79  1  0.584031  0.105502  0.737163  1
  Se  Se80  1  0.580940  0.103642  0.239822  1
  Se  Se81  1  0.583020  0.103517  0.988383  1
  Se  Se82  1  0.896358  0.477298  0.239822  1
  Se  Se83  1  0.894786  0.478507  0.487488  1
  Se  Se84  1  0.894497  0.478528  0.737163  1
  Se  Se85  1  0.896494  0.479511  0.988383  1
  Se  Se86  1  0.901987  0.160587  0.172034  1
  Se  Se87  1  0.909468  0.156413  0.925226  1
  Se  Se88  1  0.907493  0.164526  0.426144  1
  Se  Se89  1  0.919014  0.151093  0.683130  1
