# generated using pymatgen
data_Sr6La2Ta3Al5O24
_symmetry_space_group_name_H-M   'P 1'
_cell_length_a   5.51595451
_cell_length_b   5.51593123
_cell_length_c   22.09691696
_cell_angle_alpha   89.99790480
_cell_angle_beta   119.95239746
_cell_angle_gamma   120.00124988
_symmetry_Int_Tables_number   1
_chemical_formula_structural   Sr6La2Ta3Al5O24
_chemical_formula_sum   'Sr6 La2 Ta3 Al5 O24'
_cell_volume   475.73821102
_cell_formula_units_Z   1
loop_
 _symmetry_equiv_pos_site_id
 _symmetry_equiv_pos_as_xyz
  1  'x, y, z'
loop_
 _atom_site_type_symbol
 _atom_site_label
 _atom_site_symmetry_multiplicity
 _atom_site_fract_x
 _atom_site_fract_y
 _atom_site_fract_z
 _atom_site_occupancy
  Sr  Sr0  1  0.501656  0.750822  0.563125  1
  Sr  Sr1  1  0.518387  0.259167  0.694414  1
  Sr  Sr2  1  0.499951  0.749975  0.312490  1
  Sr  Sr3  1  0.500011  0.250013  0.437506  1
  Sr  Sr4  1  0.481536  0.740751  0.055583  1
  Sr  Sr5  1  0.498311  0.249146  0.186871  1
  La  La6  1  0.518050  0.759175  0.819148  1
  La  La7  1  0.482637  0.241500  0.930856  1
  Ta  Ta8  1  0.002066  0.501045  0.625763  1
  Ta  Ta9  1  0.000005  0.500006  0.375001  1
  Ta  Ta10  1  0.997995  0.499020  0.124231  1
  Al  Al11  1  0.999947  0.499948  0.875000  1
  Al  Al12  1  0.008742  0.004374  0.753268  1
  Al  Al13  1  0.001607  0.000807  0.500600  1
  Al  Al14  1  -0.001588  -0.000789  0.249402  1
  Al  Al15  1  0.991285  0.995650  0.996733  1
  O  O16  1  0.988981  0.748453  0.934352  1
  O  O17  1  0.010738  0.759764  0.815758  1
  O  O18  1  0.007901  0.756928  0.691207  1
  O  O19  1  0.010973  0.251513  0.815643  1
  O  O20  1  0.496714  0.747253  0.934320  1
  O  O21  1  0.000900  0.754911  0.561818  1
  O  O22  1  0.000174  0.754740  0.438732  1
  O  O23  1  0.503051  0.250888  0.815544  1
  O  O24  1  0.000648  0.246222  0.561714  1
  O  O25  1  0.513913  0.756672  0.691117  1
  O  O26  1  0.000148  0.755026  0.311374  1
  O  O27  1  0.987957  0.240549  0.934379  1
  O  O28  1  -0.000639  0.753797  0.188286  1
  O  O29  1  0.492416  0.246021  0.561610  1
  O  O30  1  -0.000191  0.245242  0.311266  1
  O  O31  1  0.509531  0.754341  0.438705  1
  O  O32  1  0.992886  0.749799  0.058976  1
  O  O33  1  0.008013  0.251400  0.691303  1
  O  O34  1  0.490456  0.245112  0.311148  1
  O  O35  1  0.507660  0.753334  0.188266  1
  O  O36  1  0.999896  0.245552  0.438770  1
  O  O37  1  0.486202  0.243116  0.058610  1
  O  O38  1  -0.001038  0.245670  0.188312  1
  O  O39  1  0.992112  0.243084  0.058797  1
