# generated using pymatgen
data_K6InP3
_symmetry_space_group_name_H-M   'P 1'
_cell_length_a   8.88982397
_cell_length_b   9.10820397
_cell_length_c   10.09301168
_cell_angle_alpha   80.86043350
_cell_angle_beta   72.87211612
_cell_angle_gamma   59.56166450
_symmetry_Int_Tables_number   1
_chemical_formula_structural   K6InP3
_chemical_formula_sum   'K12 In2 P6'
_cell_volume   673.30386135
_cell_formula_units_Z   2
loop_
 _symmetry_equiv_pos_site_id
 _symmetry_equiv_pos_as_xyz
  1  'x, y, z'
loop_
 _atom_site_type_symbol
 _atom_site_label
 _atom_site_symmetry_multiplicity
 _atom_site_fract_x
 _atom_site_fract_y
 _atom_site_fract_z
 _atom_site_occupancy
  K  K0  1  0.145194  0.488989  0.138183  1
  K  K1  1  0.262811  0.145517  0.608169  1
  K  K2  1  0.243409  0.124350  0.993900  1
  K  K3  1  0.021368  0.809944  0.611068  1
  K  K4  1  0.382383  0.450085  0.396056  1
  K  K5  1  0.732249  0.227436  0.105676  1
  K  K6  1  0.267751  0.772564  0.894324  1
  K  K7  1  0.617617  0.549915  0.603944  1
  K  K8  1  0.978632  0.190056  0.388932  1
  K  K9  1  0.756591  0.875650  0.006100  1
  K  K10  1  0.737189  0.854483  0.391831  1
  K  K11  1  0.854806  0.511011  0.861817  1
  In  In12  1  0.584273  0.177618  0.749816  1
  In  In13  1  0.415727  0.822382  0.250184  1
  P  P14  1  0.401882  0.112655  0.257826  1
  P  P15  1  0.129357  0.830145  0.237701  1
  P  P16  1  0.281737  0.449667  0.758195  1
  P  P17  1  0.718263  0.550333  0.241805  1
  P  P18  1  0.870643  0.169855  0.762299  1
  P  P19  1  0.598118  0.887345  0.742174  1
