# generated using pymatgen
data_NaCoP2HO7
_symmetry_space_group_name_H-M   'P 1'
_cell_length_a   6.58094180
_cell_length_b   6.58973098
_cell_length_c   20.21387026
_cell_angle_alpha   84.30571846
_cell_angle_beta   66.96917422
_cell_angle_gamma   88.01031978
_symmetry_Int_Tables_number   1
_chemical_formula_structural   NaCoP2HO7
_chemical_formula_sum   'Na6 Co6 P12 H6 O42'
_cell_volume   802.74821248
_cell_formula_units_Z   6
loop_
 _symmetry_equiv_pos_site_id
 _symmetry_equiv_pos_as_xyz
  1  'x, y, z'
loop_
 _atom_site_type_symbol
 _atom_site_label
 _atom_site_symmetry_multiplicity
 _atom_site_fract_x
 _atom_site_fract_y
 _atom_site_fract_z
 _atom_site_occupancy
  Na  Na0  1  0.226701  0.612971  0.085743  1
  Na  Na1  1  0.226852  0.612948  0.418968  1
  Na  Na2  1  0.694377  0.343580  0.253932  1
  Na  Na3  1  0.303782  0.655713  0.746658  1
  Na  Na4  1  0.694048  0.343107  0.587280  1
  Na  Na5  1  0.696114  0.344597  0.920141  1
  Co  Co6  1  0.285105  0.143772  0.205198  1
  Co  Co7  1  0.709682  0.855384  0.127842  1
  Co  Co8  1  0.284157  0.145203  0.538978  1
  Co  Co9  1  0.709835  0.854789  0.460626  1
  Co  Co10  1  0.285044  0.145052  0.871808  1
  Co  Co11  1  0.714265  0.854620  0.795135  1
  P  P12  1  0.162302  0.117004  0.045299  1
  P  P13  1  0.259753  0.641997  0.239507  1
  P  P14  1  0.162885  0.117598  0.378400  1
  P  P15  1  0.740385  0.357533  0.093321  1
  P  P16  1  0.260146  0.642754  0.573017  1
  P  P17  1  0.161992  0.119488  0.711840  1
  P  P18  1  0.838301  0.881169  0.288177  1
  P  P19  1  0.740093  0.357139  0.426646  1
  P  P20  1  0.259953  0.641320  0.906413  1
  P  P21  1  0.837752  0.880372  0.621474  1
  P  P22  1  0.740189  0.358507  0.760079  1
  P  P23  1  0.837287  0.880900  0.955146  1
  H  H24  1  0.428183  0.282497  0.066870  1
  H  H25  1  0.428235  0.282372  0.400282  1
  H  H26  1  0.574447  0.717007  0.267087  1
  H  H27  1  0.425162  0.283615  0.733855  1
  H  H28  1  0.575147  0.716451  0.599374  1
  H  H29  1  0.574285  0.717071  0.933892  1
  O  O30  1  0.042752  0.921282  0.084118  1
  O  O31  1  0.016753  0.712905  0.292687  1
  O  O32  1  0.270388  0.206310  0.094066  1
  O  O33  1  0.226274  0.463724  0.202192  1
  O  O34  1  0.042622  0.920992  0.417543  1
  O  O35  1  0.363027  0.828907  0.184420  1
  O  O36  1  0.332297  0.113861  0.302333  1
  O  O37  1  0.615371  0.404828  0.043686  1
  O  O38  1  0.382727  0.591460  0.289731  1
  O  O39  1  0.669956  0.888717  0.031023  1
  O  O40  1  0.017117  0.713262  0.625971  1
  O  O41  1  0.270127  0.206220  0.427557  1
  O  O42  1  0.635007  0.173445  0.149820  1
  O  O43  1  0.226441  0.464268  0.535799  1
  O  O44  1  0.044743  0.921286  0.750485  1
  O  O45  1  0.778650  0.536108  0.129884  1
  O  O46  1  0.364210  0.829484  0.517922  1
  O  O47  1  0.727631  0.795368  0.239531  1
  O  O48  1  0.983843  0.286445  0.040648  1
  O  O49  1  0.332096  0.114750  0.635621  1
  O  O50  1  0.615223  0.404885  0.377100  1
  O  O51  1  0.384565  0.592637  0.622836  1
  O  O52  1  0.670022  0.889221  0.364542  1
  O  O53  1  0.016741  0.712738  0.959309  1
  O  O54  1  0.271440  0.203972  0.760987  1
  O  O55  1  0.634478  0.172905  0.483067  1
  O  O56  1  0.228003  0.463612  0.868570  1
  O  O57  1  0.955465  0.078439  0.249053  1
  O  O58  1  0.778680  0.535360  0.463326  1
  O  O59  1  0.364621  0.827410  0.850641  1
  O  O60  1  0.728976  0.795182  0.572280  1
  O  O61  1  0.983775  0.286171  0.374022  1
  O  O62  1  0.332444  0.113728  0.968747  1
  O  O63  1  0.615937  0.406536  0.710136  1
  O  O64  1  0.382277  0.592182  0.956716  1
  O  O65  1  0.667798  0.885726  0.697789  1
  O  O66  1  0.635849  0.172315  0.815854  1
  O  O67  1  0.954417  0.078732  0.582907  1
  O  O68  1  0.771998  0.536539  0.797656  1
  O  O69  1  0.727522  0.795463  0.906256  1
  O  O70  1  0.983273  0.287091  0.707312  1
  O  O71  1  0.956005  0.078604  0.915537  1
