# generated using pymatgen
data_Sm(BO2)3
_symmetry_space_group_name_H-M   'P 1'
_cell_length_a   7.50689909
_cell_length_b   12.47845433
_cell_length_c   16.24352344
_cell_angle_alpha   90.00000000
_cell_angle_beta   90.00000000
_cell_angle_gamma   90.00000000
_symmetry_Int_Tables_number   1
_chemical_formula_structural   Sm(BO2)3
_chemical_formula_sum   'Sm16 B48 O96'
_cell_volume   1521.60389513
_cell_formula_units_Z   16
loop_
 _symmetry_equiv_pos_site_id
 _symmetry_equiv_pos_as_xyz
  1  'x, y, z'
loop_
 _atom_site_type_symbol
 _atom_site_label
 _atom_site_symmetry_multiplicity
 _atom_site_fract_x
 _atom_site_fract_y
 _atom_site_fract_z
 _atom_site_occupancy
  Sm  Sm0  1  0.750000  0.493563  0.620061  1
  Sm  Sm1  1  0.250000  0.931368  0.170973  1
  Sm  Sm2  1  0.250000  0.586039  0.048034  1
  Sm  Sm3  1  0.250000  0.273838  0.873160  1
  Sm  Sm4  1  0.250000  0.506437  0.379939  1
  Sm  Sm5  1  0.750000  0.068632  0.829027  1
  Sm  Sm6  1  0.750000  0.773838  0.626840  1
  Sm  Sm7  1  0.250000  0.913961  0.548034  1
  Sm  Sm8  1  0.250000  0.226162  0.373160  1
  Sm  Sm9  1  0.750000  0.413961  0.951966  1
  Sm  Sm10  1  0.750000  0.086039  0.451966  1
  Sm  Sm11  1  0.250000  0.568632  0.670973  1
  Sm  Sm12  1  0.250000  0.993563  0.879939  1
  Sm  Sm13  1  0.750000  0.726162  0.126840  1
  Sm  Sm14  1  0.750000  0.431368  0.329027  1
  Sm  Sm15  1  0.750000  0.006437  0.120061  1
  B  B16  1  0.929049  0.687219  0.783089  1
  B  B17  1  0.924414  0.481237  0.154555  1
  B  B18  1  0.922572  0.855487  0.889981  1
  B  B19  1  0.424414  0.518763  0.845445  1
  B  B20  1  0.572805  0.844650  0.441551  1
  B  B21  1  0.568560  0.128985  0.256558  1
  B  B22  1  0.061700  0.820170  0.029499  1
  B  B23  1  0.072805  0.344650  0.058449  1
  B  B24  1  0.077428  0.144513  0.110019  1
  B  B25  1  0.427195  0.344650  0.058449  1
  B  B26  1  0.077428  0.355487  0.610019  1
  B  B27  1  0.561700  0.320170  0.470501  1
  B  B28  1  0.075586  0.981237  0.345445  1
  B  B29  1  0.429049  0.187219  0.716911  1
  B  B30  1  0.070951  0.187219  0.716911  1
  B  B31  1  0.068560  0.871015  0.743442  1
  B  B32  1  0.929049  0.812781  0.283089  1
  B  B33  1  0.070951  0.312781  0.216911  1
  B  B34  1  0.927195  0.844650  0.441551  1
  B  B35  1  0.438300  0.679830  0.529499  1
  B  B36  1  0.938300  0.320170  0.470501  1
  B  B37  1  0.568560  0.371015  0.756558  1
  B  B38  1  0.922572  0.644513  0.389981  1
  B  B39  1  0.927195  0.655350  0.941551  1
  B  B40  1  0.561700  0.179830  0.970501  1
  B  B41  1  0.572805  0.655350  0.941551  1
  B  B42  1  0.422572  0.144513  0.110019  1
  B  B43  1  0.931440  0.371015  0.756558  1
  B  B44  1  0.575586  0.018763  0.654555  1
  B  B45  1  0.577428  0.855487  0.889981  1
  B  B46  1  0.577428  0.644513  0.389981  1
  B  B47  1  0.924414  0.018763  0.654555  1
  B  B48  1  0.931440  0.128985  0.256558  1
  B  B49  1  0.424414  0.981237  0.345445  1
  B  B50  1  0.061700  0.679830  0.529499  1
  B  B51  1  0.072805  0.155350  0.558449  1
  B  B52  1  0.427195  0.155350  0.558449  1
  B  B53  1  0.938300  0.179830  0.970501  1
  B  B54  1  0.068560  0.628985  0.243442  1
  B  B55  1  0.429049  0.312781  0.216911  1
  B  B56  1  0.575586  0.481237  0.154555  1
  B  B57  1  0.431440  0.871015  0.743442  1
  B  B58  1  0.570951  0.812781  0.283089  1
  B  B59  1  0.438300  0.820170  0.029499  1
  B  B60  1  0.570951  0.687219  0.783089  1
  B  B61  1  0.422572  0.355487  0.610019  1
  B  B62  1  0.075586  0.518763  0.845445  1
  B  B63  1  0.431440  0.628985  0.243442  1
  O  O64  1  0.572879  0.765321  0.370620  1
  O  O65  1  0.250000  0.392999  0.047306  1
  O  O66  1  0.437687  0.875956  0.950842  1
  O  O67  1  0.072879  0.234679  0.629380  1
  O  O68  1  0.250000  0.465018  0.839199  1
  O  O69  1  0.516702  0.730813  0.225047  1
  O  O70  1  0.250000  0.034982  0.339199  1
  O  O71  1  0.947537  0.067073  0.572168  1
  O  O72  1  0.750000  0.608658  0.421252  1
  O  O73  1  0.560225  0.434006  0.833475  1
  O  O74  1  0.572879  0.734679  0.870620  1
  O  O75  1  0.534592  0.920428  0.815460  1
  O  O76  1  0.562313  0.375956  0.549158  1
  O  O77  1  0.461616  0.373585  0.405902  1
  O  O78  1  0.983298  0.769187  0.725047  1
  O  O79  1  0.250000  0.391342  0.578748  1
  O  O80  1  0.038384  0.126415  0.905902  1
  O  O81  1  0.483298  0.269187  0.774953  1
  O  O82  1  0.750000  0.137283  0.224948  1
  O  O83  1  0.559458  0.398360  0.218239  1
  O  O84  1  0.250000  0.351754  0.244328  1
  O  O85  1  0.427121  0.234679  0.629380  1
  O  O86  1  0.440542  0.898360  0.281761  1
  O  O87  1  0.062313  0.624044  0.450842  1
  O  O88  1  0.516257  0.708316  0.018824  1
  O  O89  1  0.560225  0.065994  0.333475  1
  O  O90  1  0.437687  0.624044  0.450842  1
  O  O91  1  0.750000  0.534982  0.160801  1
  O  O92  1  0.016702  0.230813  0.274953  1
  O  O93  1  0.927121  0.734679  0.870620  1
  O  O94  1  0.250000  0.108658  0.078748  1
  O  O95  1  0.059458  0.898360  0.281761  1
  O  O96  1  0.538384  0.873585  0.094098  1
  O  O97  1  0.060225  0.565994  0.166525  1
  O  O98  1  0.016702  0.269187  0.774953  1
  O  O99  1  0.750000  0.965018  0.660801  1
  O  O100  1  0.062313  0.875956  0.950842  1
  O  O101  1  0.750000  0.362717  0.724948  1
  O  O102  1  0.250000  0.107001  0.547306  1
  O  O103  1  0.250000  0.862717  0.775052  1
  O  O104  1  0.439775  0.934006  0.666525  1
  O  O105  1  0.250000  0.148246  0.744328  1
  O  O106  1  0.750000  0.302641  0.438460  1
  O  O107  1  0.034592  0.420428  0.684540  1
  O  O108  1  0.440542  0.601640  0.781761  1
  O  O109  1  0.534592  0.579572  0.315460  1
  O  O110  1  0.461616  0.126415  0.905902  1
  O  O111  1  0.939775  0.434006  0.833475  1
  O  O112  1  0.072879  0.265321  0.129380  1
  O  O113  1  0.250000  0.637283  0.275052  1
  O  O114  1  0.750000  0.851754  0.255672  1
  O  O115  1  0.034592  0.079572  0.184540  1
  O  O116  1  0.016257  0.208316  0.481176  1
  O  O117  1  0.961616  0.873585  0.094098  1
  O  O118  1  0.060225  0.934006  0.666525  1
  O  O119  1  0.940542  0.398360  0.218239  1
  O  O120  1  0.052463  0.932927  0.427832  1
  O  O121  1  0.483743  0.291684  0.981176  1
  O  O122  1  0.250000  0.802641  0.061540  1
  O  O123  1  0.483298  0.230813  0.274953  1
  O  O124  1  0.750000  0.892999  0.452694  1
  O  O125  1  0.465408  0.079572  0.184540  1
  O  O126  1  0.965408  0.920428  0.815460  1
  O  O127  1  0.940542  0.101640  0.718239  1
  O  O128  1  0.750000  0.648246  0.755672  1
  O  O129  1  0.983743  0.708316  0.018824  1
  O  O130  1  0.516257  0.791684  0.518824  1
  O  O131  1  0.516702  0.769187  0.725047  1
  O  O132  1  0.937687  0.124044  0.049158  1
  O  O133  1  0.427121  0.265321  0.129380  1
  O  O134  1  0.961616  0.626415  0.594098  1
  O  O135  1  0.016257  0.291684  0.981176  1
  O  O136  1  0.465408  0.420428  0.684540  1
  O  O137  1  0.059458  0.601640  0.781761  1
  O  O138  1  0.447537  0.932927  0.427832  1
  O  O139  1  0.939775  0.065994  0.333475  1
  O  O140  1  0.983298  0.730813  0.225047  1
  O  O141  1  0.983743  0.791684  0.518824  1
  O  O142  1  0.750000  0.197359  0.938460  1
  O  O143  1  0.250000  0.697359  0.561540  1
  O  O144  1  0.483743  0.208316  0.481176  1
  O  O145  1  0.562313  0.124044  0.049158  1
  O  O146  1  0.750000  0.891342  0.921252  1
  O  O147  1  0.927121  0.765321  0.370620  1
  O  O148  1  0.750000  0.607001  0.952694  1
  O  O149  1  0.559458  0.101640  0.718239  1
  O  O150  1  0.538384  0.626415  0.594098  1
  O  O151  1  0.439775  0.565994  0.166525  1
  O  O152  1  0.447537  0.567073  0.927832  1
  O  O153  1  0.552463  0.432927  0.072168  1
  O  O154  1  0.038384  0.373585  0.405902  1
  O  O155  1  0.965408  0.579572  0.315460  1
  O  O156  1  0.052463  0.567073  0.927832  1
  O  O157  1  0.937687  0.375956  0.549158  1
  O  O158  1  0.552463  0.067073  0.572168  1
  O  O159  1  0.947537  0.432927  0.072168  1
