# generated using pymatgen
data_Ho2Se3
_symmetry_space_group_name_H-M   'P 1'
_cell_length_a   22.51547962
_cell_length_b   8.67368364
_cell_length_c   8.67368337
_cell_angle_alpha   90.00000000
_cell_angle_beta   54.70067507
_cell_angle_gamma   54.70067605
_symmetry_Int_Tables_number   1
_chemical_formula_structural   Ho2Se3
_chemical_formula_sum   'Ho16 Se24'
_cell_volume   976.28651609
_cell_formula_units_Z   8
loop_
 _symmetry_equiv_pos_site_id
 _symmetry_equiv_pos_as_xyz
  1  'x, y, z'
loop_
 _atom_site_type_symbol
 _atom_site_label
 _atom_site_symmetry_multiplicity
 _atom_site_fract_x
 _atom_site_fract_y
 _atom_site_fract_z
 _atom_site_occupancy
  Ho  Ho0  1  0.996046  0.390347  0.246589  1
  Ho  Ho1  1  0.996046  0.121515  0.765273  1
  Ho  Ho2  1  0.080989  0.628516  0.378516  1
  Ho  Ho3  1  0.166667  0.250000  0.632787  1
  Ho  Ho4  1  0.252344  0.871484  0.121484  1
  Ho  Ho5  1  0.337287  0.378485  0.253411  1
  Ho  Ho6  1  0.337287  0.109653  0.734727  1
  Ho  Ho7  1  0.166667  0.750000  0.867213  1
  Ho  Ho8  1  0.496046  0.265273  0.621515  1
  Ho  Ho9  1  0.580989  0.878516  0.128516  1
  Ho  Ho10  1  0.666667  0.367213  0.250000  1
  Ho  Ho11  1  0.666667  0.132787  0.750000  1
  Ho  Ho12  1  0.496046  0.746589  0.890347  1
  Ho  Ho13  1  0.752344  0.621484  0.371484  1
  Ho  Ho14  1  0.837287  0.234727  0.609653  1
  Ho  Ho15  1  0.837287  0.753411  0.878485  1
  Se  Se16  1  0.047191  0.999344  0.363805  1
  Se  Se17  1  0.126564  0.490927  0.993943  1
  Se  Se18  1  0.047191  0.359082  0.494620  1
  Se  Se19  1  0.286142  0.140918  0.136195  1
  Se  Se20  1  0.286142  0.500656  0.005380  1
  Se  Se21  1  0.206769  0.009073  0.873635  1
  Se  Se22  1  0.126564  0.629381  0.626365  1
  Se  Se23  1  0.381233  0.001682  0.348995  1
  Se  Se24  1  0.206769  0.870619  0.506057  1
  Se  Se25  1  0.452101  0.492692  0.998318  1
  Se  Se26  1  0.381233  0.354620  0.507308  1
  Se  Se27  1  0.626564  0.126365  0.129381  1
  Se  Se28  1  0.626564  0.493943  0.990927  1
  Se  Se29  1  0.547191  0.994620  0.859082  1
  Se  Se30  1  0.452101  0.651005  0.645380  1
  Se  Se31  1  0.706769  0.006057  0.370619  1
  Se  Se32  1  0.547191  0.863805  0.499344  1
  Se  Se33  1  0.786142  0.505380  0.000656  1
  Se  Se34  1  0.706769  0.373635  0.509073  1
  Se  Se35  1  0.952101  0.145380  0.151005  1
  Se  Se36  1  0.952101  0.498318  0.992692  1
  Se  Se37  1  0.881233  0.007308  0.854620  1
  Se  Se38  1  0.786142  0.636195  0.640918  1
  Se  Se39  1  0.881233  0.848995  0.501682  1
