# generated using pymatgen
data_SiO2
_symmetry_space_group_name_H-M   'P 1'
_cell_length_a   12.66724352
_cell_length_b   11.74067366
_cell_length_c   22.11924042
_cell_angle_alpha   90.00000000
_cell_angle_beta   90.00000000
_cell_angle_gamma   90.00000000
_symmetry_Int_Tables_number   1
_chemical_formula_structural   SiO2
_chemical_formula_sum   'Si56 O112'
_cell_volume   3289.61706193
_cell_formula_units_Z   56
loop_
 _symmetry_equiv_pos_site_id
 _symmetry_equiv_pos_as_xyz
  1  'x, y, z'
loop_
 _atom_site_type_symbol
 _atom_site_label
 _atom_site_symmetry_multiplicity
 _atom_site_fract_x
 _atom_site_fract_y
 _atom_site_fract_z
 _atom_site_occupancy
  Si  Si0  1  0.500000  0.368329  0.859769  1
  Si  Si1  1  0.500000  0.631671  0.859769  1
  Si  Si2  1  0.500000  0.868329  0.359769  1
  Si  Si3  1  0.500000  0.131671  0.359769  1
  Si  Si4  1  0.878584  0.366771  0.695582  1
  Si  Si5  1  0.121416  0.633229  0.695582  1
  Si  Si6  1  0.121416  0.366771  0.695582  1
  Si  Si7  1  0.878584  0.633229  0.695582  1
  Si  Si8  1  0.878584  0.866771  0.195582  1
  Si  Si9  1  0.121416  0.133229  0.195582  1
  Si  Si10  1  0.121416  0.866771  0.195582  1
  Si  Si11  1  0.878584  0.133229  0.195582  1
  Si  Si12  1  0.684271  0.249303  0.638551  1
  Si  Si13  1  0.315729  0.750697  0.638551  1
  Si  Si14  1  0.315729  0.249303  0.638551  1
  Si  Si15  1  0.684271  0.750697  0.638551  1
  Si  Si16  1  0.684271  0.749303  0.138551  1
  Si  Si17  1  0.315729  0.250697  0.138551  1
  Si  Si18  1  0.315729  0.749303  0.138551  1
  Si  Si19  1  0.684271  0.250697  0.138551  1
  Si  Si20  1  0.500000  0.368001  0.713448  1
  Si  Si21  1  0.500000  0.631999  0.713448  1
  Si  Si22  1  0.500000  0.868001  0.213448  1
  Si  Si23  1  0.500000  0.131999  0.213448  1
  Si  Si24  1  0.874999  0.368688  0.835667  1
  Si  Si25  1  0.125001  0.631312  0.835667  1
  Si  Si26  1  0.125001  0.368688  0.835667  1
  Si  Si27  1  0.874999  0.631312  0.835667  1
  Si  Si28  1  0.874999  0.868688  0.335667  1
  Si  Si29  1  0.125001  0.131312  0.335667  1
  Si  Si30  1  0.125001  0.868688  0.335667  1
  Si  Si31  1  0.874999  0.131312  0.335667  1
  Si  Si32  1  0.699338  0.285016  0.390798  1
  Si  Si33  1  0.300662  0.714984  0.390798  1
  Si  Si34  1  0.300662  0.285016  0.390798  1
  Si  Si35  1  0.699338  0.714984  0.390798  1
  Si  Si36  1  0.699338  0.785016  0.890798  1
  Si  Si37  1  0.300662  0.214984  0.890798  1
  Si  Si38  1  0.300662  0.785016  0.890798  1
  Si  Si39  1  0.699338  0.214984  0.890798  1
  Si  Si40  1  0.622551  0.368339  0.514594  1
  Si  Si41  1  0.377449  0.631661  0.514594  1
  Si  Si42  1  0.377449  0.368339  0.514594  1
  Si  Si43  1  0.622551  0.631661  0.514594  1
  Si  Si44  1  0.622551  0.868339  0.014594  1
  Si  Si45  1  0.377449  0.131661  0.014594  1
  Si  Si46  1  0.377449  0.868339  0.014594  1
  Si  Si47  1  0.622551  0.131661  0.014594  1
  Si  Si48  1  0.622607  0.500000  0.170793  1
  Si  Si49  1  0.377393  0.500000  0.170793  1
  Si  Si50  1  0.622607  0.000000  0.670793  1
  Si  Si51  1  0.377393  0.000000  0.670793  1
  Si  Si52  1  0.623028  0.500000  0.317084  1
  Si  Si53  1  0.376972  0.500000  0.317084  1
  Si  Si54  1  0.623028  0.000000  0.817084  1
  Si  Si55  1  0.376972  0.000000  0.817084  1
  O  O56  1  0.682763  0.387042  0.341962  1
  O  O57  1  0.317237  0.612958  0.341962  1
  O  O58  1  0.317237  0.387042  0.341962  1
  O  O59  1  0.682763  0.612958  0.341962  1
  O  O60  1  0.682763  0.887042  0.841962  1
  O  O61  1  0.317237  0.112958  0.841962  1
  O  O62  1  0.317237  0.887042  0.841962  1
  O  O63  1  0.682763  0.112958  0.841962  1
  O  O64  1  0.640997  0.500000  0.535483  1
  O  O65  1  0.359003  0.500000  0.535483  1
  O  O66  1  0.640997  0.000000  0.035483  1
  O  O67  1  0.359003  0.000000  0.035483  1
  O  O68  1  0.701173  0.338507  0.458657  1
  O  O69  1  0.298827  0.661493  0.458657  1
  O  O70  1  0.298827  0.338507  0.458657  1
  O  O71  1  0.701173  0.661493  0.458657  1
  O  O72  1  0.701173  0.838507  0.958657  1
  O  O73  1  0.298827  0.161493  0.958657  1
  O  O74  1  0.298827  0.838507  0.958657  1
  O  O75  1  0.701173  0.161493  0.958657  1
  O  O76  1  0.604938  0.305256  0.688330  1
  O  O77  1  0.395062  0.694744  0.688330  1
  O  O78  1  0.395062  0.305256  0.688330  1
  O  O79  1  0.604938  0.694744  0.688330  1
  O  O80  1  0.604938  0.805256  0.188330  1
  O  O81  1  0.395062  0.194744  0.188330  1
  O  O82  1  0.395062  0.805256  0.188330  1
  O  O83  1  0.604938  0.194744  0.188330  1
  O  O84  1  0.852211  0.500000  0.856485  1
  O  O85  1  0.147789  0.500000  0.856485  1
  O  O86  1  0.852211  0.000000  0.356485  1
  O  O87  1  0.147789  0.000000  0.356485  1
  O  O88  1  0.000000  0.340748  0.842134  1
  O  O89  1  0.000000  0.659252  0.842134  1
  O  O90  1  0.000000  0.840748  0.342134  1
  O  O91  1  0.000000  0.159252  0.342134  1
  O  O92  1  0.647749  0.284604  0.570837  1
  O  O93  1  0.352251  0.715396  0.570837  1
  O  O94  1  0.352251  0.284604  0.570837  1
  O  O95  1  0.647749  0.715396  0.570837  1
  O  O96  1  0.647749  0.784604  0.070837  1
  O  O97  1  0.352251  0.215396  0.070837  1
  O  O98  1  0.352251  0.784604  0.070837  1
  O  O99  1  0.647749  0.215396  0.070837  1
  O  O100  1  0.804174  0.293122  0.650987  1
  O  O101  1  0.195826  0.706878  0.650987  1
  O  O102  1  0.195826  0.293122  0.650987  1
  O  O103  1  0.804174  0.706878  0.650987  1
  O  O104  1  0.804174  0.793122  0.150987  1
  O  O105  1  0.195826  0.206878  0.150987  1
  O  O106  1  0.195826  0.793122  0.150987  1
  O  O107  1  0.804174  0.206878  0.150987  1
  O  O108  1  0.682020  0.111871  0.644551  1
  O  O109  1  0.317980  0.888129  0.644551  1
  O  O110  1  0.317980  0.111871  0.644551  1
  O  O111  1  0.682020  0.888129  0.644551  1
  O  O112  1  0.682020  0.611871  0.144551  1
  O  O113  1  0.317980  0.388129  0.144551  1
  O  O114  1  0.317980  0.611871  0.144551  1
  O  O115  1  0.682020  0.388129  0.144551  1
  O  O116  1  0.838494  0.352611  0.765343  1
  O  O117  1  0.161506  0.647389  0.765343  1
  O  O118  1  0.161506  0.352611  0.765343  1
  O  O119  1  0.838494  0.647389  0.765343  1
  O  O120  1  0.838494  0.852611  0.265343  1
  O  O121  1  0.161506  0.147389  0.265343  1
  O  O122  1  0.161506  0.852611  0.265343  1
  O  O123  1  0.838494  0.147389  0.265343  1
  O  O124  1  0.500000  0.351305  0.493249  1
  O  O125  1  0.500000  0.648695  0.493249  1
  O  O126  1  0.500000  0.851305  0.993249  1
  O  O127  1  0.500000  0.148695  0.993249  1
  O  O128  1  0.810228  0.219618  0.377881  1
  O  O129  1  0.189772  0.780382  0.377881  1
  O  O130  1  0.189772  0.219618  0.377881  1
  O  O131  1  0.810228  0.780382  0.377881  1
  O  O132  1  0.810228  0.719618  0.877881  1
  O  O133  1  0.189772  0.280382  0.877881  1
  O  O134  1  0.189772  0.719618  0.877881  1
  O  O135  1  0.810228  0.280382  0.877881  1
  O  O136  1  0.500000  0.500000  0.881890  1
  O  O137  1  0.500000  0.000000  0.381890  1
  O  O138  1  0.000000  0.322415  0.689721  1
  O  O139  1  0.000000  0.677585  0.689721  1
  O  O140  1  0.000000  0.822415  0.189721  1
  O  O141  1  0.000000  0.177585  0.189721  1
  O  O142  1  0.395920  0.306591  0.886152  1
  O  O143  1  0.604080  0.693409  0.886152  1
  O  O144  1  0.604080  0.306591  0.886152  1
  O  O145  1  0.395920  0.693409  0.886152  1
  O  O146  1  0.395920  0.806591  0.386152  1
  O  O147  1  0.604080  0.193409  0.386152  1
  O  O148  1  0.604080  0.806591  0.386152  1
  O  O149  1  0.395920  0.193409  0.386152  1
  O  O150  1  0.627247  0.500000  0.244215  1
  O  O151  1  0.372753  0.500000  0.244215  1
  O  O152  1  0.627247  0.000000  0.744215  1
  O  O153  1  0.372753  0.000000  0.744215  1
  O  O154  1  0.500000  0.500000  0.690911  1
  O  O155  1  0.500000  0.000000  0.190911  1
  O  O156  1  0.500000  0.362110  0.786399  1
  O  O157  1  0.500000  0.637890  0.786399  1
  O  O158  1  0.500000  0.862110  0.286399  1
  O  O159  1  0.500000  0.137890  0.286399  1
  O  O160  1  0.872156  0.500000  0.675768  1
  O  O161  1  0.127844  0.500000  0.675768  1
  O  O162  1  0.872156  0.000000  0.175768  1
  O  O163  1  0.127844  0.000000  0.175768  1
  O  O164  1  0.500000  0.500000  0.148560  1
  O  O165  1  0.500000  0.000000  0.648560  1
  O  O166  1  0.500000  0.500000  0.339880  1
  O  O167  1  0.500000  0.000000  0.839880  1
