# generated using pymatgen
data_NdNO4
_symmetry_space_group_name_H-M   'P 1'
_cell_length_a   5.44331992
_cell_length_b   7.07707771
_cell_length_c   9.60386769
_cell_angle_alpha   90.00000000
_cell_angle_beta   90.00000000
_cell_angle_gamma   90.00000000
_symmetry_Int_Tables_number   1
_chemical_formula_structural   NdNO4
_chemical_formula_sum   'Nd4 N4 O16'
_cell_volume   369.96785575
_cell_formula_units_Z   4
loop_
 _symmetry_equiv_pos_site_id
 _symmetry_equiv_pos_as_xyz
  1  'x, y, z'
loop_
 _atom_site_type_symbol
 _atom_site_label
 _atom_site_symmetry_multiplicity
 _atom_site_fract_x
 _atom_site_fract_y
 _atom_site_fract_z
 _atom_site_occupancy
  Nd  Nd0  1  0.750000  0.188900  0.346756  1
  Nd  Nd1  1  0.250000  0.811100  0.653244  1
  Nd  Nd2  1  0.250000  0.311100  0.846756  1
  Nd  Nd3  1  0.750000  0.688900  0.153244  1
  N  N4  1  0.750000  0.705675  0.836519  1
  N  N5  1  0.250000  0.794325  0.336519  1
  N  N6  1  0.250000  0.294325  0.163481  1
  N  N7  1  0.750000  0.205675  0.663481  1
  O  O8  1  0.750000  0.487247  0.322773  1
  O  O9  1  0.250000  0.012753  0.822773  1
  O  O10  1  0.548704  0.172040  0.601098  1
  O  O11  1  0.451296  0.827960  0.398902  1
  O  O12  1  0.750000  0.774675  0.714035  1
  O  O13  1  0.451296  0.327960  0.101098  1
  O  O14  1  0.951296  0.672040  0.898902  1
  O  O15  1  0.750000  0.274675  0.785965  1
  O  O16  1  0.048704  0.327960  0.101098  1
  O  O17  1  0.250000  0.512753  0.677227  1
  O  O18  1  0.048704  0.827960  0.398902  1
  O  O19  1  0.951296  0.172040  0.601098  1
  O  O20  1  0.750000  0.987247  0.177227  1
  O  O21  1  0.250000  0.725325  0.214035  1
  O  O22  1  0.548704  0.672040  0.898902  1
  O  O23  1  0.250000  0.225325  0.285965  1
