# generated using pymatgen
data_Ba2Ca2Tl2Cu3O10
_symmetry_space_group_name_H-M   'P 1'
_cell_length_a   3.90046807
_cell_length_b   3.90571035
_cell_length_c   18.68960389
_cell_angle_alpha   95.70902972
_cell_angle_beta   95.85439264
_cell_angle_gamma   89.91412462
_symmetry_Int_Tables_number   1
_chemical_formula_structural   Ba2Ca2Tl2Cu3O10
_chemical_formula_sum   'Ba2 Ca2 Tl2 Cu3 O10'
_cell_volume   281.81863889
_cell_formula_units_Z   1
loop_
 _symmetry_equiv_pos_site_id
 _symmetry_equiv_pos_as_xyz
  1  'x, y, z'
loop_
 _atom_site_type_symbol
 _atom_site_label
 _atom_site_symmetry_multiplicity
 _atom_site_fract_x
 _atom_site_fract_y
 _atom_site_fract_z
 _atom_site_occupancy
  Ba  Ba0  1  0.103932  0.175448  0.284153  1
  Ba  Ba1  1  0.796494  0.815349  0.714399  1
  Ca  Ca2  1  0.864914  0.921724  0.908687  1
  Ca  Ca3  1  0.985709  0.077535  0.089223  1
  Tl  Tl4  1  0.648914  0.724164  0.437620  1
  Tl  Tl5  1  0.205911  0.267250  0.561598  1
  Cu  Cu6  1  0.334797  0.371467  0.823935  1
  Cu  Cu7  1  0.538912  0.622861  0.173021  1
  Cu  Cu8  1  0.414341  0.515412  0.000127  1
  O  O9  1  0.335352  0.868994  0.819140  1
  O  O10  1  0.294887  0.295302  0.673119  1
  O  O11  1  0.838674  0.377552  0.831253  1
  O  O12  1  0.826705  0.765146  0.550969  1
  O  O13  1  0.917037  0.532152  0.008478  1
  O  O14  1  0.042749  0.627559  0.180860  1
  O  O15  1  0.634359  0.695683  0.326668  1
  O  O16  1  0.531620  0.120544  0.167023  1
  O  O17  1  0.281393  0.231095  0.448932  1
  O  O18  1  0.404388  0.012725  0.991758  1
