# generated using pymatgen
data_Ca28(Yb5S16)3
_symmetry_space_group_name_H-M   'P 1'
_cell_length_a   8.03901971
_cell_length_b   8.04920567
_cell_length_c   48.34194136
_cell_angle_alpha   60.00046211
_cell_angle_beta   59.94723472
_cell_angle_gamma   59.92692937
_symmetry_Int_Tables_number   1
_chemical_formula_structural   Ca28(Yb5S16)3
_chemical_formula_sum   'Ca28 Yb15 S48'
_cell_volume   2209.80027097
_cell_formula_units_Z   1
loop_
 _symmetry_equiv_pos_site_id
 _symmetry_equiv_pos_as_xyz
  1  'x, y, z'
loop_
 _atom_site_type_symbol
 _atom_site_label
 _atom_site_symmetry_multiplicity
 _atom_site_fract_x
 _atom_site_fract_y
 _atom_site_fract_z
 _atom_site_occupancy
  Yb  Yb0  1  0.250094  0.254800  0.125098  1
  Yb  Yb1  1  0.249905  0.249775  0.291637  1
  Yb  Yb2  1  0.250887  0.749976  0.208182  1
  Yb  Yb3  1  0.758369  0.752943  0.122624  1
  Yb  Yb4  1  0.250389  0.750154  0.374885  1
  Yb  Yb5  1  0.249845  0.249861  0.458355  1
  Yb  Yb6  1  0.750011  0.750044  0.291650  1
  Yb  Yb7  1  0.249910  0.249899  0.625024  1
  Yb  Yb8  1  0.249443  0.750141  0.541715  1
  Yb  Yb9  1  0.750084  0.750099  0.458286  1
  Yb  Yb10  1  0.248402  0.750865  0.708363  1
  Yb  Yb11  1  0.749987  0.749992  0.625000  1
  Yb  Yb12  1  0.249258  0.750025  0.875114  1
  Yb  Yb13  1  0.747423  0.747396  0.792966  1
  Yb  Yb14  1  0.744152  0.748932  0.959668  1
  Ca  Ca15  1  0.250894  0.249588  0.041700  1
  Ca  Ca16  1  0.748928  0.250955  0.041751  1
  Ca  Ca17  1  0.250305  0.743846  0.125030  1
  Ca  Ca18  1  0.748896  0.749269  0.041873  1
  Ca  Ca19  1  0.740669  0.246880  0.127604  1
  Ca  Ca20  1  0.750715  0.250935  0.208190  1
  Ca  Ca21  1  0.249872  0.750387  0.291664  1
  Ca  Ca22  1  0.750369  0.249773  0.291678  1
  Ca  Ca23  1  0.750731  0.749178  0.208189  1
  Ca  Ca24  1  0.750111  0.250317  0.374917  1
  Ca  Ca25  1  0.249855  0.750177  0.458351  1
  Ca  Ca26  1  0.750094  0.750059  0.374922  1
  Ca  Ca27  1  0.750145  0.249882  0.458350  1
  Ca  Ca28  1  0.750156  0.249510  0.541693  1
  Ca  Ca29  1  0.249899  0.750027  0.625039  1
  Ca  Ca30  1  0.250626  0.250587  0.790281  1
  Ca  Ca31  1  0.750027  0.249905  0.625037  1
  Ca  Ca32  1  0.750152  0.750180  0.541692  1
  Ca  Ca33  1  0.750763  0.248390  0.708371  1
  Ca  Ca34  1  0.250613  0.757123  0.790286  1
  Ca  Ca35  1  0.250164  0.249788  0.875046  1
  Ca  Ca36  1  0.249684  0.243188  0.959729  1
  Ca  Ca37  1  0.750832  0.750972  0.708251  1
  Ca  Ca38  1  0.757501  0.250682  0.790195  1
  Ca  Ca39  1  0.750094  0.249202  0.875072  1
  Ca  Ca40  1  0.249704  0.748791  0.959706  1
  Ca  Ca41  1  0.750097  0.750264  0.875072  1
  Ca  Ca42  1  0.752581  0.251996  0.957234  1
  S  S43  1  0.991378  0.006944  0.999075  1
  S  S44  1  0.003695  0.998554  0.166833  1
  S  S45  1  0.507778  0.491406  0.084532  1
  S  S46  1  0.001464  0.999952  0.333371  1
  S  S47  1  0.497479  0.001308  0.083663  1
  S  S48  1  0.506950  0.511837  0.165621  1
  S  S49  1  0.993574  0.488794  0.084837  1
  S  S50  1  0.498388  0.499898  0.250061  1
  S  S51  1  0.001567  0.999983  0.500008  1
  S  S52  1  0.505824  0.988637  0.165446  1
  S  S53  1  0.992306  0.009965  0.084595  1
  S  S54  1  0.991663  0.507307  0.165313  1
  S  S55  1  0.506204  0.993710  0.251442  1
  S  S56  1  0.505756  0.507933  0.332364  1
  S  S57  1  0.995146  0.507000  0.251260  1
  S  S58  1  0.498513  0.500034  0.416652  1
  S  S59  1  0.002113  0.000481  0.666474  1
  S  S60  1  0.504585  0.993361  0.332184  1
  S  S61  1  0.993941  0.991260  0.251098  1
  S  S62  1  0.994273  0.505760  0.331987  1
  S  S63  1  0.505830  0.993986  0.418086  1
  S  S64  1  0.506005  0.508344  0.498964  1
  S  S65  1  0.498680  0.500157  0.583265  1
  S  S66  1  0.995211  0.506860  0.417876  1
  S  S67  1  0.000623  0.999100  0.833535  1
  S  S68  1  0.504802  0.993102  0.498792  1
  S  S69  1  0.994009  0.991703  0.417700  1
  S  S70  1  0.994073  0.506094  0.498576  1
  S  S71  1  0.505811  0.994221  0.584668  1
  S  S72  1  0.506379  0.508663  0.665522  1
  S  S73  1  0.995450  0.506785  0.584463  1
  S  S74  1  0.499433  0.501062  0.749797  1
  S  S75  1  0.505115  0.993371  0.665279  1
  S  S76  1  0.994298  0.991988  0.584289  1
  S  S77  1  0.994312  0.506330  0.665081  1
  S  S78  1  0.509505  0.991806  0.751106  1
  S  S79  1  0.498337  0.499890  0.833620  1
  S  S80  1  0.992943  0.510475  0.750903  1
  S  S81  1  0.497462  0.502022  0.916408  1
  S  S82  1  0.498310  0.000081  0.833620  1
  S  S83  1  0.992984  0.990991  0.750971  1
  S  S84  1  0.000883  0.498982  0.833519  1
  S  S85  1  0.500961  0.998868  0.916892  1
  S  S86  1  0.508491  0.491817  0.998895  1
  S  S87  1  0.001560  0.502730  0.916566  1
  S  S88  1  0.508567  0.006087  0.998972  1
  S  S89  1  -0.000200  0.500662  0.999869  1
  S  S90  1  0.001536  0.996346  0.916560  1
