# generated using pymatgen
data_BaYbAl2SiN5O2
_symmetry_space_group_name_H-M   'P 1'
_cell_length_a   6.31914605
_cell_length_b   6.55192981
_cell_length_c   8.92239802
_cell_angle_alpha   84.98767584
_cell_angle_beta   100.43832925
_cell_angle_gamma   118.83150685
_symmetry_Int_Tables_number   1
_chemical_formula_structural   BaYbAl2SiN5O2
_chemical_formula_sum   'Ba2 Yb2 Al4 Si2 N10 O4'
_cell_volume   318.26323144
_cell_formula_units_Z   2
loop_
 _symmetry_equiv_pos_site_id
 _symmetry_equiv_pos_as_xyz
  1  'x, y, z'
loop_
 _atom_site_type_symbol
 _atom_site_label
 _atom_site_symmetry_multiplicity
 _atom_site_fract_x
 _atom_site_fract_y
 _atom_site_fract_z
 _atom_site_occupancy
  Yb  Yb0  1  0.290078  0.578494  0.793084  1
  Yb  Yb1  1  0.711585  0.421506  0.293084  1
  Ba  Ba2  1  0.397381  0.729483  0.179781  1
  Ba  Ba3  1  0.667899  0.270517  0.679781  1
  Al  Al4  1  0.164881  0.816272  0.474561  1
  Al  Al5  1  0.141567  0.340243  0.433105  1
  Al  Al6  1  0.348609  0.183728  0.974561  1
  Al  Al7  1  0.801323  0.659757  0.933105  1
  Si  Si8  1  0.635086  0.763784  0.543608  1
  Si  Si9  1  0.871302  0.236216  0.043608  1
  N  N10  1  0.007706  0.009528  0.034904  1
  N  N11  1  0.989403  0.500171  0.947715  1
  N  N12  1  0.564017  0.068147  0.991456  1
  N  N13  1  0.519347  0.494149  0.015433  1
  N  N14  1  0.489232  0.499829  0.447715  1
  N  N15  1  0.913810  0.899348  0.168342  1
  N  N16  1  0.495870  0.931853  0.491456  1
  N  N17  1  0.998178  0.990472  0.534904  1
  N  N18  1  0.025198  0.505851  0.515433  1
  N  N19  1  0.014462  0.100652  0.668342  1
  O  O20  1  0.054478  0.813835  0.262784  1
  O  O21  1  0.979340  0.300736  0.233727  1
  O  O22  1  0.240643  0.186165  0.762784  1
  O  O23  1  0.678604  0.699264  0.733727  1
