# generated using pymatgen
data_SiO2
_symmetry_space_group_name_H-M   'P 1'
_cell_length_a   14.82843935
_cell_length_b   27.84312389
_cell_length_c   8.39526266
_cell_angle_alpha   90.00000000
_cell_angle_beta   90.00000000
_cell_angle_gamma   90.00000000
_symmetry_Int_Tables_number   1
_chemical_formula_structural   SiO2
_chemical_formula_sum   'Si64 O128'
_cell_volume   3466.15271499
_cell_formula_units_Z   64
loop_
 _symmetry_equiv_pos_site_id
 _symmetry_equiv_pos_as_xyz
  1  'x, y, z'
loop_
 _atom_site_type_symbol
 _atom_site_label
 _atom_site_symmetry_multiplicity
 _atom_site_fract_x
 _atom_site_fract_y
 _atom_site_fract_z
 _atom_site_occupancy
  Si  Si0  1  0.904616  0.775970  0.685891  1
  Si  Si1  1  0.904616  0.224030  0.814109  1
  Si  Si2  1  0.095384  0.775970  0.814109  1
  Si  Si3  1  0.095384  0.224030  0.685891  1
  Si  Si4  1  0.095384  0.224030  0.314109  1
  Si  Si5  1  0.095384  0.775970  0.185891  1
  Si  Si6  1  0.904616  0.224030  0.185891  1
  Si  Si7  1  0.904616  0.775970  0.314109  1
  Si  Si8  1  0.404616  0.275970  0.185891  1
  Si  Si9  1  0.404616  0.724030  0.314109  1
  Si  Si10  1  0.595384  0.275970  0.314109  1
  Si  Si11  1  0.595384  0.724030  0.185891  1
  Si  Si12  1  0.595384  0.724030  0.814109  1
  Si  Si13  1  0.595384  0.275970  0.685891  1
  Si  Si14  1  0.404616  0.724030  0.685891  1
  Si  Si15  1  0.404616  0.275970  0.814109  1
  Si  Si16  1  0.899386  0.671697  0.186621  1
  Si  Si17  1  0.899386  0.328303  0.313379  1
  Si  Si18  1  0.100614  0.671697  0.313379  1
  Si  Si19  1  0.100614  0.328303  0.186621  1
  Si  Si20  1  0.100614  0.328303  0.813379  1
  Si  Si21  1  0.100614  0.671697  0.686621  1
  Si  Si22  1  0.899386  0.328303  0.686621  1
  Si  Si23  1  0.899386  0.671697  0.813379  1
  Si  Si24  1  0.399386  0.171697  0.686621  1
  Si  Si25  1  0.399386  0.828303  0.813379  1
  Si  Si26  1  0.600614  0.171697  0.813379  1
  Si  Si27  1  0.600614  0.828303  0.686621  1
  Si  Si28  1  0.600614  0.828303  0.313379  1
  Si  Si29  1  0.600614  0.171697  0.186621  1
  Si  Si30  1  0.399386  0.828303  0.186621  1
  Si  Si31  1  0.399386  0.171697  0.313379  1
  Si  Si32  1  0.716900  0.642076  0.684816  1
  Si  Si33  1  0.716900  0.357924  0.815184  1
  Si  Si34  1  0.283100  0.642076  0.815184  1
  Si  Si35  1  0.283100  0.357924  0.684816  1
  Si  Si36  1  0.283100  0.357924  0.315184  1
  Si  Si37  1  0.283100  0.642076  0.184816  1
  Si  Si38  1  0.716900  0.357924  0.184816  1
  Si  Si39  1  0.716900  0.642076  0.315184  1
  Si  Si40  1  0.216900  0.142076  0.184816  1
  Si  Si41  1  0.216900  0.857924  0.315184  1
  Si  Si42  1  0.783100  0.142076  0.315184  1
  Si  Si43  1  0.783100  0.857924  0.184816  1
  Si  Si44  1  0.783100  0.857924  0.815184  1
  Si  Si45  1  0.783100  0.142076  0.684816  1
  Si  Si46  1  0.216900  0.857924  0.684816  1
  Si  Si47  1  0.216900  0.142076  0.815184  1
  Si  Si48  1  0.399561  0.554630  0.692456  1
  Si  Si49  1  0.399561  0.445370  0.807544  1
  Si  Si50  1  0.600439  0.554630  0.807544  1
  Si  Si51  1  0.600439  0.445370  0.692456  1
  Si  Si52  1  0.600439  0.445370  0.307544  1
  Si  Si53  1  0.600439  0.554630  0.192456  1
  Si  Si54  1  0.399561  0.445370  0.192456  1
  Si  Si55  1  0.399561  0.554630  0.307544  1
  Si  Si56  1  0.899561  0.054630  0.192456  1
  Si  Si57  1  0.899561  0.945370  0.307544  1
  Si  Si58  1  0.100439  0.054630  0.307544  1
  Si  Si59  1  0.100439  0.945370  0.192456  1
  Si  Si60  1  0.100439  0.945370  0.807544  1
  Si  Si61  1  0.100439  0.054630  0.692456  1
  Si  Si62  1  0.899561  0.945370  0.692456  1
  Si  Si63  1  0.899561  0.054630  0.807544  1
  O  O64  1  0.000000  0.798059  0.750000  1
  O  O65  1  0.000000  0.201941  0.750000  1
  O  O66  1  0.000000  0.201941  0.250000  1
  O  O67  1  0.000000  0.798059  0.250000  1
  O  O68  1  0.500000  0.298059  0.250000  1
  O  O69  1  0.500000  0.701941  0.250000  1
  O  O70  1  0.500000  0.701941  0.750000  1
  O  O71  1  0.500000  0.298059  0.750000  1
  O  O72  1  0.827149  0.816675  0.700367  1
  O  O73  1  0.827149  0.183325  0.799633  1
  O  O74  1  0.172851  0.816675  0.799633  1
  O  O75  1  0.172851  0.183325  0.700367  1
  O  O76  1  0.172851  0.183325  0.299633  1
  O  O77  1  0.172851  0.816675  0.200367  1
  O  O78  1  0.827149  0.183325  0.200367  1
  O  O79  1  0.827149  0.816675  0.299633  1
  O  O80  1  0.327149  0.316675  0.200367  1
  O  O81  1  0.327149  0.683325  0.299633  1
  O  O82  1  0.672851  0.316675  0.299633  1
  O  O83  1  0.672851  0.683325  0.200367  1
  O  O84  1  0.672851  0.683325  0.799633  1
  O  O85  1  0.672851  0.316675  0.700367  1
  O  O86  1  0.327149  0.683325  0.700367  1
  O  O87  1  0.327149  0.316675  0.799633  1
  O  O88  1  0.878423  0.729136  0.791833  1
  O  O89  1  0.878423  0.270864  0.708167  1
  O  O90  1  0.121577  0.729136  0.708167  1
  O  O91  1  0.121577  0.270864  0.791833  1
  O  O92  1  0.121577  0.270864  0.208167  1
  O  O93  1  0.121577  0.729136  0.291833  1
  O  O94  1  0.878423  0.270864  0.291833  1
  O  O95  1  0.878423  0.729136  0.208167  1
  O  O96  1  0.378423  0.229136  0.291833  1
  O  O97  1  0.378423  0.770864  0.208167  1
  O  O98  1  0.621577  0.229136  0.208167  1
  O  O99  1  0.621577  0.770864  0.291833  1
  O  O100  1  0.621577  0.770864  0.708167  1
  O  O101  1  0.621577  0.229136  0.791833  1
  O  O102  1  0.378423  0.770864  0.791833  1
  O  O103  1  0.378423  0.229136  0.708167  1
  O  O104  1  0.915125  0.759791  0.500000  1
  O  O105  1  0.915125  0.240208  0.000000  1
  O  O106  1  0.084875  0.759791  0.000000  1
  O  O107  1  0.084875  0.240208  0.500000  1
  O  O108  1  0.415125  0.259792  0.000000  1
  O  O109  1  0.415125  0.740209  0.500000  1
  O  O110  1  0.584875  0.259792  0.500000  1
  O  O111  1  0.584875  0.740209  0.000000  1
  O  O112  1  0.825522  0.641045  0.287760  1
  O  O113  1  0.825522  0.358955  0.212240  1
  O  O114  1  0.174478  0.641045  0.212240  1
  O  O115  1  0.174478  0.358955  0.287760  1
  O  O116  1  0.174478  0.358955  0.712240  1
  O  O117  1  0.174478  0.641045  0.787760  1
  O  O118  1  0.825522  0.358955  0.787760  1
  O  O119  1  0.825522  0.641045  0.712240  1
  O  O120  1  0.325522  0.141045  0.787760  1
  O  O121  1  0.325522  0.858955  0.712240  1
  O  O122  1  0.674478  0.141045  0.712240  1
  O  O123  1  0.674478  0.858955  0.787760  1
  O  O124  1  0.674478  0.858955  0.212240  1
  O  O125  1  0.674478  0.141045  0.287760  1
  O  O126  1  0.325522  0.858955  0.287760  1
  O  O127  1  0.325522  0.141045  0.212240  1
  O  O128  1  0.000000  0.658916  0.250000  1
  O  O129  1  0.000000  0.341084  0.250000  1
  O  O130  1  0.000000  0.341084  0.750000  1
  O  O131  1  0.000000  0.658916  0.750000  1
  O  O132  1  0.500000  0.158916  0.750000  1
  O  O133  1  0.500000  0.841084  0.750000  1
  O  O134  1  0.500000  0.841084  0.250000  1
  O  O135  1  0.500000  0.158916  0.250000  1
  O  O136  1  0.890951  0.657385  0.000000  1
  O  O137  1  0.890951  0.342615  0.500000  1
  O  O138  1  0.109049  0.657385  0.500000  1
  O  O139  1  0.109049  0.342615  0.000000  1
  O  O140  1  0.390951  0.157385  0.500000  1
  O  O141  1  0.390951  0.842615  0.000000  1
  O  O142  1  0.609049  0.157385  0.000000  1
  O  O143  1  0.609049  0.842615  0.500000  1
  O  O144  1  0.694914  0.655394  0.500000  1
  O  O145  1  0.694914  0.344606  0.000000  1
  O  O146  1  0.305086  0.655394  0.000000  1
  O  O147  1  0.305086  0.344606  0.500000  1
  O  O148  1  0.194914  0.155394  0.000000  1
  O  O149  1  0.194914  0.844606  0.500000  1
  O  O150  1  0.805086  0.155394  0.500000  1
  O  O151  1  0.805086  0.844606  0.000000  1
  O  O152  1  0.674966  0.589851  0.727914  1
  O  O153  1  0.674966  0.410149  0.772086  1
  O  O154  1  0.325034  0.589851  0.772086  1
  O  O155  1  0.325034  0.410149  0.727914  1
  O  O156  1  0.325034  0.410149  0.272086  1
  O  O157  1  0.325034  0.589851  0.227914  1
  O  O158  1  0.674966  0.410149  0.227914  1
  O  O159  1  0.674966  0.589851  0.272086  1
  O  O160  1  0.174966  0.089851  0.227914  1
  O  O161  1  0.174966  0.910149  0.272086  1
  O  O162  1  0.825034  0.089851  0.272086  1
  O  O163  1  0.825034  0.910149  0.227914  1
  O  O164  1  0.825034  0.910149  0.772086  1
  O  O165  1  0.825034  0.089851  0.727914  1
  O  O166  1  0.174966  0.910149  0.727914  1
  O  O167  1  0.174966  0.089851  0.772086  1
  O  O168  1  0.500000  0.571003  0.750000  1
  O  O169  1  0.500000  0.428997  0.750000  1
  O  O170  1  0.500000  0.428997  0.250000  1
  O  O171  1  0.500000  0.571003  0.250000  1
  O  O172  1  0.000000  0.071003  0.250000  1
  O  O173  1  0.000000  0.928997  0.250000  1
  O  O174  1  0.000000  0.928997  0.750000  1
  O  O175  1  0.000000  0.071003  0.750000  1
  O  O176  1  0.392844  0.558196  0.500000  1
  O  O177  1  0.392844  0.441804  0.000000  1
  O  O178  1  0.607156  0.558196  0.000000  1
  O  O179  1  0.607156  0.441804  0.500000  1
  O  O180  1  0.892844  0.058196  0.000000  1
  O  O181  1  0.892844  0.941804  0.500000  1
  O  O182  1  0.107156  0.058196  0.500000  1
  O  O183  1  0.107156  0.941804  0.000000  1
  O  O184  1  0.378951  0.500000  0.750000  1
  O  O185  1  0.621049  0.500000  0.750000  1
  O  O186  1  0.621049  0.500000  0.250000  1
  O  O187  1  0.378951  0.500000  0.250000  1
  O  O188  1  0.878951  0.000000  0.250000  1
  O  O189  1  0.121049  0.000000  0.250000  1
  O  O190  1  0.121049  0.000000  0.750000  1
  O  O191  1  0.878951  0.000000  0.750000  1
