# generated using pymatgen
data_InAs
_symmetry_space_group_name_H-M   'P 1'
_cell_length_a   4.13741266
_cell_length_b   4.13741217
_cell_length_c   16.95044047
_cell_angle_alpha   90.00000000
_cell_angle_beta   90.00000000
_cell_angle_gamma   92.40987776
_symmetry_Int_Tables_number   1
_chemical_formula_structural   InAs
_chemical_formula_sum   'In6 As6'
_cell_volume   289.90409728
_cell_formula_units_Z   6
loop_
 _symmetry_equiv_pos_site_id
 _symmetry_equiv_pos_as_xyz
  1  'x, y, z'
loop_
 _atom_site_type_symbol
 _atom_site_label
 _atom_site_symmetry_multiplicity
 _atom_site_fract_x
 _atom_site_fract_y
 _atom_site_fract_z
 _atom_site_occupancy
  In  In0  1  0.586514  0.413486  0.090282  1
  In  In1  1  0.046828  0.953172  0.750000  1
  In  In2  1  0.586514  0.413486  0.409718  1
  In  In3  1  0.953172  0.046828  0.250000  1
  In  In4  1  0.413486  0.586514  0.590282  1
  In  In5  1  0.413486  0.586514  0.909718  1
  As  As6  1  0.076098  0.923902  0.069551  1
  As  As7  1  0.442739  0.557261  0.250000  1
  As  As8  1  0.923902  0.076098  0.930449  1
  As  As9  1  0.557261  0.442739  0.750000  1
  As  As10  1  0.923902  0.076098  0.569551  1
  As  As11  1  0.076098  0.923902  0.430449  1
