# generated using pymatgen
data_Cu8NO11
_symmetry_space_group_name_H-M   'P 1'
_cell_length_a   6.93508382
_cell_length_b   6.54445960
_cell_length_c   6.81514300
_cell_angle_alpha   62.71855856
_cell_angle_beta   56.82679951
_cell_angle_gamma   60.69614979
_symmetry_Int_Tables_number   1
_chemical_formula_structural   Cu8NO11
_chemical_formula_sum   'Cu8 N1 O11'
_cell_volume   217.94310952
_cell_formula_units_Z   1
loop_
 _symmetry_equiv_pos_site_id
 _symmetry_equiv_pos_as_xyz
  1  'x, y, z'
loop_
 _atom_site_type_symbol
 _atom_site_label
 _atom_site_symmetry_multiplicity
 _atom_site_fract_x
 _atom_site_fract_y
 _atom_site_fract_z
 _atom_site_occupancy
  Cu  Cu0  1  0.998404  0.501577  0.998444  1
  Cu  Cu1  1  0.499470  0.007262  0.992722  1
  Cu  Cu2  1  0.992694  0.500557  0.499447  1
  Cu  Cu3  1  0.120732  0.878957  0.121022  1
  Cu  Cu4  1  0.498720  0.501239  0.998827  1
  Cu  Cu5  1  0.998799  0.001164  0.498746  1
  Cu  Cu6  1  0.498429  0.001553  0.498428  1
  Cu  Cu7  1  0.885118  0.115228  0.884791  1
  N  N8  1  0.504603  0.495270  0.504730  1
  O  O9  1  0.138706  0.148114  0.146413  1
  O  O10  1  0.144651  0.137795  0.567064  1
  O  O11  1  0.146143  0.566481  0.139475  1
  O  O12  1  0.567292  0.150982  0.144784  1
  O  O13  1  0.327301  0.438787  0.561228  1
  O  O14  1  0.561341  0.672414  0.327588  1
  O  O15  1  0.629887  0.370645  0.629345  1
  O  O16  1  0.433234  0.853435  0.851995  1
  O  O17  1  0.849376  0.432987  0.862277  1
  O  O18  1  0.852088  0.860445  0.433488  1
  O  O19  1  0.863013  0.855108  0.849186  1
