# generated using pymatgen
data_Sr(H8O5)2
_symmetry_space_group_name_H-M   'P 1'
_cell_length_a   6.40791604
_cell_length_b   6.13050050
_cell_length_c   11.55117319
_cell_angle_alpha   90.33978099
_cell_angle_beta   92.06798830
_cell_angle_gamma   89.99870831
_symmetry_Int_Tables_number   1
_chemical_formula_structural   Sr(H8O5)2
_chemical_formula_sum   'Sr2 H32 O20'
_cell_volume   453.46967784
_cell_formula_units_Z   2
loop_
 _symmetry_equiv_pos_site_id
 _symmetry_equiv_pos_as_xyz
  1  'x, y, z'
loop_
 _atom_site_type_symbol
 _atom_site_label
 _atom_site_symmetry_multiplicity
 _atom_site_fract_x
 _atom_site_fract_y
 _atom_site_fract_z
 _atom_site_occupancy
  Sr  Sr0  1  0.002343  0.004317  0.498254  1
  Sr  Sr1  1  0.001079  0.995245  0.001432  1
  H  H2  1  0.038301  0.459291  0.370987  1
  H  H3  1  0.271721  0.388287  0.398538  1
  H  H4  1  0.808997  0.730087  0.292142  1
  H  H5  1  0.719521  0.614686  0.405351  1
  H  H6  1  0.609020  0.283861  0.399820  1
  H  H7  1  0.553041  0.039409  0.368760  1
  H  H8  1  0.256190  0.789823  0.294080  1
  H  H9  1  0.390597  0.723781  0.406963  1
  H  H10  1  0.881399  0.294087  0.790544  1
  H  H11  1  0.732196  0.390749  0.889389  1
  H  H12  1  0.041934  0.555595  0.878214  1
  H  H13  1  0.279989  0.613892  0.893592  1
  H  H14  1  0.401538  0.032065  0.934003  1
  H  H15  1  0.388861  0.273532  0.893378  1
  H  H16  1  0.612467  0.964977  0.833344  1
  H  H17  1  0.612869  0.725251  0.891984  1
  H  H18  1  0.899750  0.699806  0.705435  1
  H  H19  1  0.729474  0.602660  0.610231  1
  H  H20  1  0.049899  0.441043  0.623356  1
  H  H21  1  0.279073  0.356634  0.624173  1
  H  H22  1  0.392247  0.722718  0.616050  1
  H  H23  1  0.303245  0.901575  0.707036  1
  H  H24  1  0.599019  0.024464  0.639028  1
  H  H25  1  0.625981  0.271819  0.613201  1
  H  H26  1  0.051054  0.563419  0.130998  1
  H  H27  1  0.285446  0.616856  0.105120  1
  H  H28  1  0.730533  0.394468  0.108335  1
  H  H29  1  0.889880  0.307538  0.210075  1
  H  H30  1  0.616180  0.966840  0.156957  1
  H  H31  1  0.623468  0.724398  0.110382  1
  H  H32  1  0.318608  0.115612  0.206230  1
  H  H33  1  0.394968  0.275704  0.105843  1
  O  O34  1  0.506728  0.512570  0.450117  1
  O  O35  1  0.508759  0.498106  0.933775  1
  O  O36  1  0.514850  0.503637  0.579707  1
  O  O37  1  0.508760  0.499141  0.063876  1
  O  O38  1  0.132362  0.330711  0.370059  1
  O  O39  1  0.852406  0.674569  0.369624  1
  O  O40  1  0.669501  0.144069  0.367852  1
  O  O41  1  0.314482  0.853547  0.367077  1
  O  O42  1  0.876479  0.331487  0.873399  1
  O  O43  1  0.139578  0.681008  0.873741  1
  O  O44  1  0.328276  0.122209  0.875916  1
  O  O45  1  0.702895  0.853455  0.868610  1
  O  O46  1  0.880567  0.664717  0.622783  1
  O  O47  1  0.134598  0.306988  0.636205  1
  O  O48  1  0.334648  0.877000  0.625385  1
  O  O49  1  0.707980  0.137483  0.638547  1
  O  O50  1  0.154321  0.683996  0.135966  1
  O  O51  1  0.877127  0.334513  0.126386  1
  O  O52  1  0.714400  0.847503  0.143483  1
  O  O53  1  0.336948  0.124646  0.122524  1
