# generated using pymatgen
data_TeAs(Se2F3)2
_symmetry_space_group_name_H-M   'P 1'
_cell_length_a   13.38736883
_cell_length_b   16.54070413
_cell_length_c   19.40820456
_cell_angle_alpha   90.00000000
_cell_angle_beta   90.00000000
_cell_angle_gamma   90.00000000
_symmetry_Int_Tables_number   1
_chemical_formula_structural   TeAs(Se2F3)2
_chemical_formula_sum   'Te16 As16 Se64 F96'
_cell_volume   4297.68502289
_cell_formula_units_Z   16
loop_
 _symmetry_equiv_pos_site_id
 _symmetry_equiv_pos_as_xyz
  1  'x, y, z'
loop_
 _atom_site_type_symbol
 _atom_site_label
 _atom_site_symmetry_multiplicity
 _atom_site_fract_x
 _atom_site_fract_y
 _atom_site_fract_z
 _atom_site_occupancy
  Te  Te0  1  0.217637  0.860654  0.702087  1
  Te  Te1  1  0.279706  0.255300  0.033635  1
  Te  Te2  1  0.717637  0.639346  0.702087  1
  Te  Te3  1  0.779706  0.755300  0.466365  1
  Te  Te4  1  0.282363  0.639346  0.202088  1
  Te  Te5  1  0.220294  0.244700  0.533635  1
  Te  Te6  1  0.779706  0.244700  0.033635  1
  Te  Te7  1  0.217637  0.139346  0.797913  1
  Te  Te8  1  0.282363  0.360654  0.297913  1
  Te  Te9  1  0.279706  0.744700  0.466365  1
  Te  Te10  1  0.717637  0.360654  0.797913  1
  Te  Te11  1  0.220294  0.755300  0.966365  1
  Te  Te12  1  0.720294  0.744700  0.966365  1
  Te  Te13  1  0.782363  0.139346  0.297913  1
  Te  Te14  1  0.782363  0.860654  0.202088  1
  Te  Te15  1  0.720294  0.255300  0.533635  1
  As  As16  1  0.477878  0.403848  0.645880  1
  As  As17  1  0.934354  0.414094  0.637893  1
  As  As18  1  0.977878  0.903848  0.854120  1
  As  As19  1  0.065646  0.414094  0.137893  1
  As  As20  1  0.977878  0.096152  0.645880  1
  As  As21  1  0.434354  0.914095  0.862107  1
  As  As22  1  0.565646  0.085905  0.137893  1
  As  As23  1  0.434354  0.085905  0.637893  1
  As  As24  1  0.934354  0.585905  0.862107  1
  As  As25  1  0.065646  0.585905  0.362107  1
  As  As26  1  0.565646  0.914095  0.362107  1
  As  As27  1  0.022122  0.096152  0.145880  1
  As  As28  1  0.022122  0.903848  0.354120  1
  As  As29  1  0.522122  0.596152  0.354120  1
  As  As30  1  0.522122  0.403848  0.145880  1
  As  As31  1  0.477878  0.596152  0.854120  1
  Se  Se32  1  0.113298  0.236444  0.963402  1
  Se  Se33  1  0.618646  0.200014  0.353008  1
  Se  Se34  1  0.365186  0.221497  0.265356  1
  Se  Se35  1  0.369253  0.390945  0.415727  1
  Se  Se36  1  0.340335  0.387326  0.971393  1
  Se  Se37  1  0.751019  0.877778  0.708510  1
  Se  Se38  1  0.118646  0.299986  0.353008  1
  Se  Se39  1  0.748981  0.377778  0.291490  1
  Se  Se40  1  0.840335  0.887326  0.528607  1
  Se  Se41  1  0.748981  0.622222  0.208510  1
  Se  Se42  1  0.159665  0.112674  0.471393  1
  Se  Se43  1  0.119638  0.353542  0.462532  1
  Se  Se44  1  0.251019  0.622222  0.708510  1
  Se  Se45  1  0.130747  0.890945  0.584273  1
  Se  Se46  1  0.113298  0.763556  0.536598  1
  Se  Se47  1  0.630747  0.609055  0.584273  1
  Se  Se48  1  0.880362  0.646458  0.537468  1
  Se  Se49  1  0.705880  0.075271  0.903347  1
  Se  Se50  1  0.381354  0.799986  0.646992  1
  Se  Se51  1  0.134814  0.721497  0.734644  1
  Se  Se52  1  0.119638  0.646458  0.037468  1
  Se  Se53  1  0.634814  0.221497  0.765356  1
  Se  Se54  1  0.134814  0.278503  0.765356  1
  Se  Se55  1  0.634814  0.778503  0.734644  1
  Se  Se56  1  0.886702  0.236444  0.463402  1
  Se  Se57  1  0.205880  0.575271  0.596653  1
  Se  Se58  1  0.619638  0.146458  0.462532  1
  Se  Se59  1  0.340335  0.612674  0.528607  1
  Se  Se60  1  0.865186  0.278503  0.265356  1
  Se  Se61  1  0.118646  0.700014  0.146992  1
  Se  Se62  1  0.869253  0.109055  0.415727  1
  Se  Se63  1  0.205880  0.424729  0.903347  1
  Se  Se64  1  0.881354  0.700014  0.646992  1
  Se  Se65  1  0.613298  0.736444  0.536598  1
  Se  Se66  1  0.881354  0.299986  0.853008  1
  Se  Se67  1  0.380362  0.146458  0.962532  1
  Se  Se68  1  0.751019  0.122222  0.791490  1
  Se  Se69  1  0.386702  0.263556  0.463402  1
  Se  Se70  1  0.248981  0.877778  0.208510  1
  Se  Se71  1  0.619638  0.853542  0.037468  1
  Se  Se72  1  0.794120  0.575271  0.096653  1
  Se  Se73  1  0.386702  0.736444  0.036598  1
  Se  Se74  1  0.840335  0.112674  0.971393  1
  Se  Se75  1  0.380362  0.853542  0.537468  1
  Se  Se76  1  0.794120  0.424729  0.403347  1
  Se  Se77  1  0.618646  0.799986  0.146992  1
  Se  Se78  1  0.159665  0.887326  0.028607  1
  Se  Se79  1  0.659665  0.612674  0.028607  1
  Se  Se80  1  0.248981  0.122222  0.291490  1
  Se  Se81  1  0.886702  0.763556  0.036598  1
  Se  Se82  1  0.659665  0.387326  0.471393  1
  Se  Se83  1  0.365186  0.778503  0.234644  1
  Se  Se84  1  0.880362  0.353542  0.962532  1
  Se  Se85  1  0.369253  0.609055  0.084273  1
  Se  Se86  1  0.381354  0.200014  0.853008  1
  Se  Se87  1  0.294120  0.075271  0.403347  1
  Se  Se88  1  0.630747  0.390945  0.915727  1
  Se  Se89  1  0.294120  0.924729  0.096653  1
  Se  Se90  1  0.251019  0.377778  0.791490  1
  Se  Se91  1  0.865186  0.721497  0.234644  1
  Se  Se92  1  0.130747  0.109055  0.915727  1
  Se  Se93  1  0.705880  0.924729  0.596653  1
  Se  Se94  1  0.613298  0.263556  0.963402  1
  Se  Se95  1  0.869253  0.890945  0.084273  1
  F  F96  1  0.541146  0.318628  0.610021  1
  F  F97  1  0.132013  0.675575  0.337703  1
  F  F98  1  0.327190  0.027213  0.659913  1
  F  F99  1  0.132013  0.324425  0.162297  1
  F  F100  1  0.042007  0.357635  0.613683  1
  F  F101  1  0.903812  0.048341  0.158653  1
  F  F102  1  0.042007  0.642365  0.886317  1
  F  F103  1  0.361185  0.354841  0.634336  1
  F  F104  1  0.542007  0.142365  0.613683  1
  F  F105  1  0.457993  0.142365  0.113683  1
  F  F106  1  0.403812  0.451659  0.158653  1
  F  F107  1  0.672810  0.972787  0.340087  1
  F  F108  1  0.957993  0.357635  0.113683  1
  F  F109  1  0.518994  0.077709  0.222208  1
  F  F110  1  0.632013  0.175575  0.162297  1
  F  F111  1  0.096188  0.048341  0.658653  1
  F  F112  1  0.583463  0.510918  0.320378  1
  F  F113  1  0.827190  0.527213  0.840087  1
  F  F114  1  0.010561  0.140434  0.229389  1
  F  F115  1  0.470054  0.446442  0.561793  1
  F  F116  1  0.916537  0.010918  0.679622  1
  F  F117  1  0.632013  0.824425  0.337703  1
  F  F118  1  0.861185  0.854841  0.865664  1
  F  F119  1  0.457993  0.857635  0.386317  1
  F  F120  1  0.096188  0.951659  0.841347  1
  F  F121  1  0.958854  0.181372  0.110021  1
  F  F122  1  0.638815  0.645159  0.365664  1
  F  F123  1  0.489439  0.640434  0.770611  1
  F  F124  1  0.386701  0.900049  0.947525  1
  F  F125  1  0.113299  0.599951  0.447525  1
  F  F126  1  0.458854  0.318628  0.110021  1
  F  F127  1  0.386701  0.099951  0.552475  1
  F  F128  1  0.083463  0.010918  0.179622  1
  F  F129  1  0.861185  0.145159  0.634336  1
  F  F130  1  0.416537  0.489082  0.679622  1
  F  F131  1  0.958854  0.818628  0.389979  1
  F  F132  1  0.995261  0.504095  0.611612  1
  F  F133  1  0.529946  0.446442  0.061793  1
  F  F134  1  0.970054  0.946442  0.938207  1
  F  F135  1  0.481006  0.077709  0.722208  1
  F  F136  1  0.367987  0.824425  0.837703  1
  F  F137  1  0.004739  0.504095  0.111612  1
  F  F138  1  0.138815  0.854841  0.365664  1
  F  F139  1  0.957993  0.642365  0.386317  1
  F  F140  1  0.970054  0.053558  0.561793  1
  F  F141  1  0.596188  0.548341  0.841347  1
  F  F142  1  0.504739  0.004095  0.388388  1
  F  F143  1  0.010561  0.859566  0.270611  1
  F  F144  1  0.327190  0.972787  0.840087  1
  F  F145  1  0.416537  0.510918  0.820378  1
  F  F146  1  0.613299  0.099951  0.052475  1
  F  F147  1  0.989439  0.140434  0.729389  1
  F  F148  1  0.981006  0.577709  0.777792  1
  F  F149  1  0.367987  0.175575  0.662297  1
  F  F150  1  0.018994  0.422291  0.222208  1
  F  F151  1  0.672810  0.027213  0.159913  1
  F  F152  1  0.903812  0.951659  0.341347  1
  F  F153  1  0.867987  0.324425  0.662297  1
  F  F154  1  0.470054  0.553558  0.938207  1
  F  F155  1  0.510561  0.359566  0.229389  1
  F  F156  1  0.886701  0.400049  0.552475  1
  F  F157  1  0.638815  0.354841  0.134336  1
  F  F158  1  0.083463  0.989082  0.320378  1
  F  F159  1  0.596188  0.451659  0.658653  1
  F  F160  1  0.886701  0.599951  0.947525  1
  F  F161  1  0.504739  0.995905  0.111612  1
  F  F162  1  0.541146  0.681372  0.889979  1
  F  F163  1  0.172810  0.472787  0.159913  1
  F  F164  1  0.018994  0.577709  0.277792  1
  F  F165  1  0.458854  0.681372  0.389979  1
  F  F166  1  0.613299  0.900049  0.447525  1
  F  F167  1  0.981006  0.422291  0.722208  1
  F  F168  1  0.995261  0.495905  0.888388  1
  F  F169  1  0.867987  0.675575  0.837703  1
  F  F170  1  0.029946  0.946442  0.438207  1
  F  F171  1  0.827190  0.472787  0.659913  1
  F  F172  1  0.481006  0.922291  0.777792  1
  F  F173  1  0.041146  0.181372  0.610021  1
  F  F174  1  0.113299  0.400049  0.052475  1
  F  F175  1  0.495261  0.004095  0.888388  1
  F  F176  1  0.403812  0.548341  0.341347  1
  F  F177  1  0.138815  0.145159  0.134336  1
  F  F178  1  0.916537  0.989082  0.820378  1
  F  F179  1  0.029946  0.053558  0.061793  1
  F  F180  1  0.510561  0.640434  0.270611  1
  F  F181  1  0.172810  0.527213  0.340087  1
  F  F182  1  0.518994  0.922291  0.277792  1
  F  F183  1  0.989439  0.859566  0.770611  1
  F  F184  1  0.041146  0.818628  0.889979  1
  F  F185  1  0.489439  0.359566  0.729389  1
  F  F186  1  0.361185  0.645159  0.865664  1
  F  F187  1  0.495261  0.995905  0.611612  1
  F  F188  1  0.583463  0.489082  0.179622  1
  F  F189  1  0.004739  0.495905  0.388388  1
  F  F190  1  0.529946  0.553558  0.438207  1
  F  F191  1  0.542007  0.857635  0.886317  1
