# generated using pymatgen
data_Fe(CuS)2
_symmetry_space_group_name_H-M   'P 1'
_cell_length_a   7.64615872
_cell_length_b   7.65026609
_cell_length_c   7.64726857
_cell_angle_alpha   59.99714579
_cell_angle_beta   59.98007324
_cell_angle_gamma   59.99317424
_symmetry_Int_Tables_number   1
_chemical_formula_structural   Fe(CuS)2
_chemical_formula_sum   'Fe4 Cu8 S8'
_cell_volume   316.23794775
_cell_formula_units_Z   4
loop_
 _symmetry_equiv_pos_site_id
 _symmetry_equiv_pos_as_xyz
  1  'x, y, z'
loop_
 _atom_site_type_symbol
 _atom_site_label
 _atom_site_symmetry_multiplicity
 _atom_site_fract_x
 _atom_site_fract_y
 _atom_site_fract_z
 _atom_site_occupancy
  Fe  Fe0  1  0.374754  0.374824  0.374775  1
  Fe  Fe1  1  0.875601  0.374830  0.374775  1
  Fe  Fe2  1  0.374751  0.875693  0.374774  1
  Fe  Fe3  1  0.374759  0.374829  0.875618  1
  Cu  Cu4  1  0.109050  0.630289  0.630354  1
  Cu  Cu5  1  0.630338  0.109048  0.630332  1
  Cu  Cu6  1  0.118769  0.118821  0.643567  1
  Cu  Cu7  1  0.630363  0.630293  0.109040  1
  Cu  Cu8  1  0.643650  0.118787  0.118756  1
  Cu  Cu9  1  0.118774  0.643586  0.118794  1
  Cu  Cu10  1  0.118788  0.118841  0.118813  1
  Cu  Cu11  1  0.630326  0.630250  0.630321  1
  S  S12  1  0.497289  0.497287  0.002675  1
  S  S13  1  0.497307  0.002736  0.002665  1
  S  S14  1  0.002654  0.497293  0.497270  1
  S  S15  1  0.002646  0.002771  0.497287  1
  S  S16  1  0.497358  0.002650  0.497335  1
  S  S17  1  0.500094  0.499909  0.500046  1
  S  S18  1  0.002739  0.497242  0.002792  1
  S  S19  1  0.999990  0.000020  0.000011  1
