# generated using pymatgen
data_Na13Ca7S12Cl2O48F
_symmetry_space_group_name_H-M   'P 1'
_cell_length_a   9.74474587
_cell_length_b   9.72423136
_cell_length_c   13.96683484
_cell_angle_alpha   90.06913008
_cell_angle_beta   89.66062673
_cell_angle_gamma   120.21698886
_symmetry_Int_Tables_number   1
_chemical_formula_structural   Na13Ca7S12Cl2O48F
_chemical_formula_sum   'Na13 Ca7 S12 Cl2 O48 F1'
_cell_volume   1143.64738718
_cell_formula_units_Z   1
loop_
 _symmetry_equiv_pos_site_id
 _symmetry_equiv_pos_as_xyz
  1  'x, y, z'
loop_
 _atom_site_type_symbol
 _atom_site_label
 _atom_site_symmetry_multiplicity
 _atom_site_fract_x
 _atom_site_fract_y
 _atom_site_fract_z
 _atom_site_occupancy
  Na  Na0  1  0.231592  0.998713  0.612702  1
  Na  Na1  1  0.014783  0.273617  0.129691  1
  Na  Na2  1  0.008202  0.237600  0.615748  1
  Na  Na3  1  0.324369  0.654338  0.251888  1
  Na  Na4  1  0.331666  0.660600  0.014714  1
  Na  Na5  1  0.319652  0.659080  0.493424  1
  Na  Na6  1  0.276119  0.267635  0.373579  1
  Na  Na7  1  0.728620  0.739038  0.129546  1
  Na  Na8  1  0.673423  0.345113  0.253279  1
  Na  Na9  1  0.663107  0.329548  0.739424  1
  Na  Na10  1  0.672399  0.336923  0.008341  1
  Na  Na11  1  0.664382  0.334410  0.494418  1
  Na  Na12  1  0.991511  0.723543  0.369748  1
  Ca  Ca13  1  0.255305  0.994608  0.129684  1
  Ca  Ca14  1  0.327228  0.664129  0.745211  1
  Ca  Ca15  1  0.274981  0.263123  0.875698  1
  Ca  Ca16  1  0.769654  0.769916  0.619569  1
  Ca  Ca17  1  0.986504  0.722772  0.876150  1
  Ca  Ca18  1  0.734968  0.009976  0.370868  1
  Ca  Ca19  1  0.738036  0.015878  0.877835  1
  S  S20  1  0.026526  0.383796  0.376357  1
  S  S21  1  0.037858  0.394485  0.872050  1
  S  S22  1  0.365012  0.974768  0.375570  1
  S  S23  1  0.358618  0.964226  0.873792  1
  S  S24  1  0.396628  0.364218  0.121675  1
  S  S25  1  0.402891  0.377557  0.628020  1
  S  S26  1  0.614258  0.644938  0.377232  1
  S  S27  1  0.606560  0.642848  0.871238  1
  S  S28  1  0.628495  0.025632  0.122973  1
  S  S29  1  0.625909  0.023285  0.626475  1
  S  S30  1  0.971582  0.605544  0.121598  1
  S  S31  1  0.970215  0.598620  0.627986  1
  Cl  Cl32  1  0.998116  0.998248  0.826835  1
  Cl  Cl33  1  0.996617  0.000278  0.184797  1
  O  O34  1  0.266860  0.920952  0.286621  1
  O  O35  1  0.256195  0.919579  0.458690  1
  O  O36  1  0.260678  0.896805  0.786385  1
  O  O37  1  0.248527  0.916681  0.958053  1
  O  O38  1  0.149958  0.688704  0.123136  1
  O  O39  1  0.146612  0.671663  0.630885  1
  O  O40  1  0.101977  0.560570  0.378298  1
  O  O41  1  0.113820  0.573198  0.881061  1
  O  O42  1  0.079288  0.335295  0.289286  1
  O  O43  1  0.103726  0.366319  0.782358  1
  O  O44  1  0.076138  0.328104  0.461224  1
  O  O45  1  0.087448  0.331977  0.953830  1
  O  O46  1  0.464263  0.895247  0.377505  1
  O  O47  1  0.460029  0.888158  0.882023  1
  O  O48  1  0.320505  0.463147  0.123778  1
  O  O49  1  0.330652  0.482177  0.631534  1
  O  O50  1  0.525532  0.850161  0.124264  1
  O  O51  1  0.524246  0.844397  0.630563  1
  O  O52  1  0.428337  0.541505  0.880725  1
  O  O53  1  0.438459  0.549229  0.380203  1
  O  O54  1  0.334315  0.249656  0.037175  1
  O  O55  1  0.359375  0.262934  0.208186  1
  O  O56  1  0.357635  0.278205  0.717889  1
  O  O57  1  0.346723  0.272298  0.544685  1
  O  O58  1  0.674118  0.757306  0.462034  1
  O  O59  1  0.666365  0.753502  0.292325  1
  O  O60  1  0.669098  0.757070  0.951947  1
  O  O61  1  0.636850  0.735687  0.780257  1
  O  O62  1  0.571431  0.465065  0.110531  1
  O  O63  1  0.580604  0.479350  0.625037  1
  O  O64  1  0.460916  0.140201  0.869893  1
  O  O65  1  0.472340  0.150032  0.375305  1
  O  O66  1  0.684498  0.540759  0.376699  1
  O  O67  1  0.679330  0.540619  0.869262  1
  O  O68  1  0.529001  0.103106  0.114090  1
  O  O69  1  0.528004  0.099809  0.624638  1
  O  O70  1  0.922523  0.665103  0.035844  1
  O  O71  1  0.909673  0.639697  0.209129  1
  O  O72  1  0.921104  0.657548  0.544580  1
  O  O73  1  0.915786  0.650771  0.715905  1
  O  O74  1  0.901943  0.430761  0.111075  1
  O  O75  1  0.891361  0.422839  0.627017  1
  O  O76  1  0.847583  0.307415  0.376187  1
  O  O77  1  0.862177  0.320106  0.869843  1
  O  O78  1  0.738880  0.078239  0.038328  1
  O  O79  1  0.723394  0.085267  0.211397  1
  O  O80  1  0.729871  0.068472  0.540365  1
  O  O81  1  0.729258  0.076993  0.714080  1
  F  F82  1  0.986801  0.988318  0.593756  1
