# generated using pymatgen
data_Ti2In5
_symmetry_space_group_name_H-M   'P 1'
_cell_length_a   3.13817371
_cell_length_b   10.95642446
_cell_length_c   10.90672788
_cell_angle_alpha   89.71226326
_cell_angle_beta   89.81500785
_cell_angle_gamma   89.13580405
_symmetry_Int_Tables_number   1
_chemical_formula_structural   Ti2In5
_chemical_formula_sum   'Ti4 In10'
_cell_volume   374.95855633
_cell_formula_units_Z   2
loop_
 _symmetry_equiv_pos_site_id
 _symmetry_equiv_pos_as_xyz
  1  'x, y, z'
loop_
 _atom_site_type_symbol
 _atom_site_label
 _atom_site_symmetry_multiplicity
 _atom_site_fract_x
 _atom_site_fract_y
 _atom_site_fract_z
 _atom_site_occupancy
  Ti  Ti0  1  0.499508  0.180091  0.680247  1
  Ti  Ti1  1  0.500941  0.819775  0.319079  1
  Ti  Ti2  1  0.497682  0.319313  0.181245  1
  Ti  Ti3  1  0.497324  0.681304  0.819067  1
  In  In4  1  0.000168  0.206600  0.936415  1
  In  In5  1  0.001015  0.063328  0.206597  1
  In  In6  1  0.003654  0.707284  0.563401  1
  In  In7  1  0.000951  0.563260  0.292843  1
  In  In8  1  0.999964  -0.000019  0.501126  1
  In  In9  1  0.999307  0.293482  0.435997  1
  In  In10  1  0.999218  0.792809  0.063753  1
  In  In11  1  0.002082  0.437066  0.706608  1
  In  In12  1  0.998004  0.936745  0.793297  1
  In  In13  1  0.000184  0.498963  0.000327  1
