# generated using pymatgen
data_Sm3(Bi7Te12)2
_symmetry_space_group_name_H-M   'P 1'
_cell_length_a   8.26865304
_cell_length_b   8.41531371
_cell_length_c   25.09815223
_cell_angle_alpha   109.46341729
_cell_angle_beta   108.93484456
_cell_angle_gamma   109.04763304
_symmetry_Int_Tables_number   1
_chemical_formula_structural   Sm3(Bi7Te12)2
_chemical_formula_sum   'Sm3 Bi14 Te24'
_cell_volume   1360.18455420
_cell_formula_units_Z   1
loop_
 _symmetry_equiv_pos_site_id
 _symmetry_equiv_pos_as_xyz
  1  'x, y, z'
loop_
 _atom_site_type_symbol
 _atom_site_label
 _atom_site_symmetry_multiplicity
 _atom_site_fract_x
 _atom_site_fract_y
 _atom_site_fract_z
 _atom_site_occupancy
  Sm  Sm0  1  0.124451  0.746256  0.960907  1
  Sm  Sm1  1  0.266894  0.631145  0.800536  1
  Sm  Sm2  1  0.609267  0.366365  0.077343  1
  Bi  Bi3  1  0.090962  0.741401  0.619143  1
  Bi  Bi4  1  0.358552  0.250160  0.865093  1
  Bi  Bi5  1  0.119358  0.733512  0.288326  1
  Bi  Bi6  1  0.602276  0.343904  0.742165  1
  Bi  Bi7  1  0.368713  0.257984  0.541971  1
  Bi  Bi8  1  0.744864  0.854624  0.698924  1
  Bi  Bi9  1  0.880609  0.126137  0.915513  1
  Bi  Bi10  1  0.237649  0.646660  0.128965  1
  Bi  Bi11  1  0.606197  0.330508  0.417953  1
  Bi  Bi12  1  0.423558  0.286210  0.222028  1
  Bi  Bi13  1  0.751308  0.861572  0.375807  1
  Bi  Bi14  1  0.868160  0.139236  0.573169  1
  Bi  Bi15  1  0.741101  0.880316  0.043964  1
  Bi  Bi16  1  0.908989  0.145769  0.259459  1
  Te  Te17  1  0.020934  0.874982  0.834861  1
  Te  Te18  1  0.993503  0.369187  0.835455  1
  Te  Te19  1  0.490905  0.982795  0.952666  1
  Te  Te20  1  0.010596  0.885598  0.502000  1
  Te  Te21  1  0.156574  0.168095  0.717495  1
  Te  Te22  1  0.013685  0.375416  0.508979  1
  Te  Te23  1  0.384152  0.514282  0.673115  1
  Te  Te24  1  0.983734  0.843841  0.163994  1
  Te  Te25  1  0.663464  0.644237  0.880410  1
  Te  Te26  1  0.495625  0.991461  0.790164  1
  Te  Te27  1  0.491753  0.008410  0.453703  1
  Te  Te28  1  0.118767  0.112201  0.375206  1
  Te  Te29  1  0.997464  0.373808  0.161607  1
  Te  Te30  1  0.349409  0.489120  0.330608  1
  Te  Te31  1  0.500179  0.995228  0.623490  1
  Te  Te32  1  0.656235  0.652122  0.551608  1
  Te  Te33  1  0.887817  0.506223  0.674763  1
  Te  Te34  1  0.509036  0.010437  0.116438  1
  Te  Te35  1  0.136387  0.131684  0.038360  1
  Te  Te36  1  0.368900  0.513032  0.998132  1
  Te  Te37  1  0.503033  0.996034  0.291650  1
  Te  Te38  1  0.613749  0.620379  0.204091  1
  Te  Te39  1  0.841394  0.489699  0.330487  1
  Te  Te40  1  0.859802  0.484972  0.001118  1
