# generated using pymatgen
data_LiB(HO2)2
_symmetry_space_group_name_H-M   'P 1'
_cell_length_a   7.12222557
_cell_length_b   7.99555558
_cell_length_c   5.13923856
_cell_angle_alpha   90.00000000
_cell_angle_beta   97.54348544
_cell_angle_gamma   90.00000000
_symmetry_Int_Tables_number   1
_chemical_formula_structural   LiB(HO2)2
_chemical_formula_sum   'Li4 B4 H8 O16'
_cell_volume   290.12703056
_cell_formula_units_Z   4
loop_
 _symmetry_equiv_pos_site_id
 _symmetry_equiv_pos_as_xyz
  1  'x, y, z'
loop_
 _atom_site_type_symbol
 _atom_site_label
 _atom_site_symmetry_multiplicity
 _atom_site_fract_x
 _atom_site_fract_y
 _atom_site_fract_z
 _atom_site_occupancy
  Li  Li0  1  0.095270  0.174265  0.058944  1
  Li  Li1  1  0.904730  0.674265  0.441056  1
  Li  Li2  1  0.904730  0.825735  0.941056  1
  Li  Li3  1  0.095270  0.325735  0.558944  1
  B  B4  1  0.198774  0.970416  0.522159  1
  B  B5  1  0.801226  0.470416  0.977841  1
  B  B6  1  0.801226  0.029584  0.477841  1
  B  B7  1  0.198774  0.529584  0.022159  1
  H  H8  1  0.337610  0.782807  0.737752  1
  H  H9  1  0.662390  0.282807  0.762248  1
  H  H10  1  0.662390  0.217193  0.262248  1
  H  H11  1  0.337610  0.717193  0.237752  1
  H  H12  1  0.391777  0.134957  0.412875  1
  H  H13  1  0.608223  0.634957  0.087125  1
  H  H14  1  0.608223  0.865043  0.587125  1
  H  H15  1  0.391777  0.365043  0.912875  1
  O  O16  1  0.056205  0.879300  0.326199  1
  O  O17  1  0.943794  0.379300  0.173801  1
  O  O18  1  0.943794  0.120700  0.673801  1
  O  O19  1  0.056205  0.620700  0.826199  1
  O  O20  1  0.103563  0.002272  0.763076  1
  O  O21  1  0.896437  0.502272  0.736924  1
  O  O22  1  0.896437  0.997728  0.236924  1
  O  O23  1  0.103563  0.497728  0.263076  1
  O  O24  1  0.353964  0.854285  0.586534  1
  O  O25  1  0.646036  0.354285  0.913466  1
  O  O26  1  0.646036  0.145715  0.413466  1
  O  O27  1  0.353964  0.645715  0.086534  1
  O  O28  1  0.252200  0.127019  0.406555  1
  O  O29  1  0.747800  0.627019  0.093445  1
  O  O30  1  0.747800  0.872981  0.593445  1
  O  O31  1  0.252200  0.372981  0.906555  1
