# generated using pymatgen
data_InCu(WO4)2
_symmetry_space_group_name_H-M   'P 1'
_cell_length_a   5.08392190
_cell_length_b   7.67551843
_cell_length_c   7.67551911
_cell_angle_alpha   100.93500801
_cell_angle_beta   91.41827886
_cell_angle_gamma   91.41827826
_symmetry_Int_Tables_number   1
_chemical_formula_structural   InCu(WO4)2
_chemical_formula_sum   'In2 Cu2 W4 O16'
_cell_volume   293.85142508
_cell_formula_units_Z   2
loop_
 _symmetry_equiv_pos_site_id
 _symmetry_equiv_pos_as_xyz
  1  'x, y, z'
loop_
 _atom_site_type_symbol
 _atom_site_label
 _atom_site_symmetry_multiplicity
 _atom_site_fract_x
 _atom_site_fract_y
 _atom_site_fract_z
 _atom_site_occupancy
  In  In0  1  0.750000  0.167440  0.832560  1
  In  In1  1  0.250000  0.832560  0.167440  1
  Cu  Cu2  1  0.750000  0.650286  0.349714  1
  Cu  Cu3  1  0.250000  0.349714  0.650286  1
  W  W4  1  0.255906  0.340707  0.170090  1
  W  W5  1  0.744094  0.659293  0.829910  1
  W  W6  1  0.755906  0.170090  0.340707  1
  W  W7  1  0.244094  0.829910  0.659293  1
  O  O8  1  0.897048  0.688989  0.055035  1
  O  O9  1  0.444272  0.304606  0.405047  1
  O  O10  1  0.055728  0.594953  0.695394  1
  O  O11  1  0.404984  0.567098  0.195081  1
  O  O12  1  0.595016  0.432902  0.804919  1
  O  O13  1  0.904984  0.195081  0.567098  1
  O  O14  1  0.397048  0.055035  0.688989  1
  O  O15  1  0.932217  0.909351  0.803116  1
  O  O16  1  0.944272  0.405047  0.304606  1
  O  O17  1  0.067783  0.090649  0.196884  1
  O  O18  1  0.555728  0.695394  0.594953  1
  O  O19  1  0.602952  0.944965  0.311011  1
  O  O20  1  0.102952  0.311011  0.944965  1
  O  O21  1  0.432217  0.803116  0.909351  1
  O  O22  1  0.095016  0.804919  0.432902  1
  O  O23  1  0.567783  0.196884  0.090649  1
