# generated using pymatgen
data_Nb9IrSe20
_symmetry_space_group_name_H-M   'P 1'
_cell_length_a   6.97607363
_cell_length_b   17.44883726
_cell_length_c   9.72114682
_cell_angle_alpha   44.20787296
_cell_angle_beta   111.00381833
_cell_angle_gamma   119.90703325
_symmetry_Int_Tables_number   1
_chemical_formula_structural   Nb9IrSe20
_chemical_formula_sum   'Nb9 Ir1 Se20'
_cell_volume   715.20103030
_cell_formula_units_Z   1
loop_
 _symmetry_equiv_pos_site_id
 _symmetry_equiv_pos_as_xyz
  1  'x, y, z'
loop_
 _atom_site_type_symbol
 _atom_site_label
 _atom_site_symmetry_multiplicity
 _atom_site_fract_x
 _atom_site_fract_y
 _atom_site_fract_z
 _atom_site_occupancy
  Nb  Nb0  1  0.000000  0.800000  0.000000  1
  Nb  Nb1  1  0.987794  0.589584  0.005438  1
  Nb  Nb2  1  0.996421  0.396834  0.001115  1
  Nb  Nb3  1  0.003579  0.203166  0.998885  1
  Nb  Nb4  1  0.494040  0.593608  0.003363  1
  Nb  Nb5  1  0.012206  0.010416  0.994562  1
  Nb  Nb6  1  0.491507  0.392674  0.000768  1
  Nb  Nb7  1  0.508493  0.207326  0.999232  1
  Nb  Nb8  1  0.505960  0.006392  0.996637  1
  Ir  Ir9  1  0.500000  0.800000  0.000000  1
  Se  Se10  1  0.339709  0.962079  0.759466  1
  Se  Se11  1  0.169001  0.839303  0.240504  1
  Se  Se12  1  0.333591  0.761292  0.766915  1
  Se  Se13  1  0.174108  0.638134  0.238696  1
  Se  Se14  1  0.330185  0.562873  0.754252  1
  Se  Se15  1  0.825892  0.961866  0.761304  1
  Se  Se16  1  0.163254  0.429207  0.252703  1
  Se  Se17  1  0.666409  0.838708  0.233085  1
  Se  Se18  1  0.333657  0.369217  0.744210  1
  Se  Se19  1  0.830999  0.760697  0.759496  1
  Se  Se20  1  0.660291  0.637921  0.240534  1
  Se  Se21  1  0.166956  0.232005  0.252912  1
  Se  Se22  1  0.338174  0.170698  0.747958  1
  Se  Se23  1  0.831865  0.564287  0.752527  1
  Se  Se24  1  0.168135  0.035713  0.247473  1
  Se  Se25  1  0.661826  0.429302  0.252042  1
  Se  Se26  1  0.833044  0.367995  0.747088  1
  Se  Se27  1  0.666343  0.230783  0.255790  1
  Se  Se28  1  0.836746  0.170793  0.747297  1
  Se  Se29  1  0.669815  0.037127  0.245748  1
