# generated using pymatgen
data_Mg2Al4Si5O18
_symmetry_space_group_name_H-M   'P 1'
_cell_length_a   9.90314509
_cell_length_b   9.83578466
_cell_length_c   9.44996063
_cell_angle_alpha   90.05845619
_cell_angle_beta   89.97593723
_cell_angle_gamma   119.49771130
_symmetry_Int_Tables_number   1
_chemical_formula_structural   Mg2Al4Si5O18
_chemical_formula_sum   'Mg4 Al8 Si10 O36'
_cell_volume   801.15863048
_cell_formula_units_Z   2
loop_
 _symmetry_equiv_pos_site_id
 _symmetry_equiv_pos_as_xyz
  1  'x, y, z'
loop_
 _atom_site_type_symbol
 _atom_site_label
 _atom_site_symmetry_multiplicity
 _atom_site_fract_x
 _atom_site_fract_y
 _atom_site_fract_z
 _atom_site_occupancy
  Mg  Mg0  1  0.337481  0.669443  0.247510  1
  Mg  Mg1  1  0.334349  0.667982  0.752420  1
  Mg  Mg2  1  0.670996  0.332716  0.248336  1
  Mg  Mg3  1  0.675503  0.334131  0.752484  1
  Al  Al4  1  0.997433  0.497038  0.750614  1
  Al  Al5  1  0.502510  0.501149  0.751347  1
  Al  Al6  1  0.502978  0.501691  0.248304  1
  Al  Al7  1  0.504031  0.001627  0.250923  1
  Al  Al8  1  0.503031  0.001382  0.749196  1
  Al  Al9  1  0.896852  0.636332  0.998749  1
  Al  Al10  1  0.736752  0.112329  0.000056  1
  Al  Al11  1  0.895508  0.258243  0.500727  1
  Si  Si12  1  0.100954  0.731663  0.499922  1
  Si  Si13  1  0.270651  0.897049  0.000252  1
  Si  Si14  1  0.109343  0.375061  0.000164  1
  Si  Si15  1  0.269575  0.373362  0.499759  1
  Si  Si16  1  0.621670  0.886402  0.499329  1
  Si  Si17  1  0.375504  0.267746  0.000853  1
  Si  Si18  1  0.621223  0.733872  0.000755  1
  Si  Si19  1  0.367244  0.102019  0.498986  1
  Si  Si20  1  0.733304  0.624917  0.499726  1
  Si  Si21  1  0.998188  0.498362  0.249523  1
  O  O22  1  0.088799  0.782441  0.000814  1
  O  O23  1  0.223565  0.918538  0.492981  1
  O  O24  1  0.124230  0.648107  0.351814  1
  O  O25  1  0.136021  0.652423  0.637907  1
  O  O26  1  0.132103  0.484755  0.149491  1
  O  O27  1  0.143810  0.491239  0.861961  1
  O  O28  1  0.349453  0.865168  0.142666  1
  O  O29  1  0.349337  0.865668  0.857887  1
  O  O30  1  0.088242  0.306739  0.499341  1
  O  O31  1  0.237476  0.315356  0.006891  1
  O  O32  1  0.507834  0.854270  0.359998  1
  O  O33  1  0.511093  0.855987  0.640487  1
  O  O34  1  0.351222  0.484473  0.640554  1
  O  O35  1  0.351175  0.485071  0.358940  1
  O  O36  1  0.505512  0.648760  0.139923  1
  O  O37  1  0.509341  0.650399  0.859443  1
  O  O38  1  0.306959  0.228358  0.498996  1
  O  O39  1  0.683168  0.916496  0.001252  1
  O  O40  1  0.309419  0.080723  0.000996  1
  O  O41  1  0.690427  0.765022  0.498583  1
  O  O42  1  0.484615  0.345245  0.142442  1
  O  O43  1  0.480236  0.343856  0.857290  1
  O  O44  1  0.656864  0.516399  0.357102  1
  O  O45  1  0.655081  0.516999  0.641245  1
  O  O46  1  0.476936  0.133438  0.359848  1
  O  O47  1  0.472397  0.130002  0.640303  1
  O  O48  1  0.754173  0.686887  0.006926  1
  O  O49  1  0.921676  0.696935  0.499320  1
  O  O50  1  0.651714  0.144309  0.150587  1
  O  O51  1  0.649338  0.142472  0.851186  1
  O  O52  1  0.875872  0.522368  0.153889  1
  O  O53  1  0.861672  0.512176  0.855702  1
  O  O54  1  0.876720  0.354603  0.347233  1
  O  O55  1  0.861810  0.351744  0.640944  1
  O  O56  1  0.760011  0.061986  0.494175  1
  O  O57  1  0.936620  0.236074  0.000949  1
