# generated using pymatgen
data_Gd6CoBr10
_symmetry_space_group_name_H-M   'P 1'
_cell_length_a   7.41021549
_cell_length_b   9.16433429
_cell_length_c   9.25712971
_cell_angle_alpha   108.98048098
_cell_angle_beta   97.38554716
_cell_angle_gamma   106.10606542
_symmetry_Int_Tables_number   1
_chemical_formula_structural   Gd6CoBr10
_chemical_formula_sum   'Gd6 Co1 Br10'
_cell_volume   554.32937199
_cell_formula_units_Z   1
loop_
 _symmetry_equiv_pos_site_id
 _symmetry_equiv_pos_as_xyz
  1  'x, y, z'
loop_
 _atom_site_type_symbol
 _atom_site_label
 _atom_site_symmetry_multiplicity
 _atom_site_fract_x
 _atom_site_fract_y
 _atom_site_fract_z
 _atom_site_occupancy
  Gd  Gd0  1  0.864556  0.139065  0.681377  1
  Gd  Gd1  1  0.525128  0.703582  0.406366  1
  Gd  Gd2  1  0.474872  0.296418  0.593634  1
  Gd  Gd3  1  0.135444  0.860935  0.318623  1
  Gd  Gd4  1  0.623362  0.044350  0.251265  1
  Gd  Gd5  1  0.376638  0.955650  0.748735  1
  Co  Co6  1  0.500000  0.000000  0.500000  1
  Br  Br7  1  0.410662  0.629114  0.678292  1
  Br  Br8  1  0.766247  0.088634  0.963150  1
  Br  Br9  1  0.233753  0.911366  0.036850  1
  Br  Br10  1  0.951536  0.819737  0.586208  1
  Br  Br11  1  0.295985  0.267837  0.860077  1
  Br  Br12  1  0.704015  0.732163  0.139923  1
  Br  Br13  1  0.048464  0.180263  0.413792  1
  Br  Br14  1  0.589338  0.370886  0.321708  1
  Br  Br15  1  0.869520  0.468992  0.779433  1
  Br  Br16  1  0.130480  0.531008  0.220567  1
