# generated using pymatgen
data_Nb6Co7
_symmetry_space_group_name_H-M   'P 1'
_cell_length_a   10.76376926
_cell_length_b   10.76376909
_cell_length_c   10.76376945
_cell_angle_alpha   26.73800573
_cell_angle_beta   26.73800629
_cell_angle_gamma   26.73800791
_symmetry_Int_Tables_number   1
_chemical_formula_structural   Nb6Co7
_chemical_formula_sum   'Nb6 Co7'
_cell_volume   222.57783280
_cell_formula_units_Z   1
loop_
 _symmetry_equiv_pos_site_id
 _symmetry_equiv_pos_as_xyz
  1  'x, y, z'
loop_
 _atom_site_type_symbol
 _atom_site_label
 _atom_site_symmetry_multiplicity
 _atom_site_fract_x
 _atom_site_fract_y
 _atom_site_fract_z
 _atom_site_occupancy
  Nb  Nb0  1  0.203342  0.203342  0.203342  1
  Nb  Nb1  1  0.116021  0.116021  0.116021  1
  Nb  Nb2  1  0.553092  0.553092  0.553092  1
  Nb  Nb3  1  0.796658  0.796658  0.796658  1
  Nb  Nb4  1  0.446908  0.446908  0.446908  1
  Nb  Nb5  1  0.883979  0.883979  0.883979  1
  Co  Co6  1  0.122201  0.590713  0.122201  1
  Co  Co7  1  0.122201  0.122201  0.590713  1
  Co  Co8  1  0.877799  0.877799  0.409287  1
  Co  Co9  1  0.409287  0.877799  0.877799  1
  Co  Co10  1  0.000000  0.000000  0.000000  1
  Co  Co11  1  0.590713  0.122201  0.122201  1
  Co  Co12  1  0.877799  0.409287  0.877799  1
