# generated using pymatgen
data_GePbS3
_symmetry_space_group_name_H-M   'P 1'
_cell_length_a   6.93675628
_cell_length_b   7.35329726
_cell_length_c   10.58703301
_cell_angle_alpha   90.00000000
_cell_angle_beta   90.00000000
_cell_angle_gamma   105.55233554
_symmetry_Int_Tables_number   1
_chemical_formula_structural   GePbS3
_chemical_formula_sum   'Ge4 Pb4 S12'
_cell_volume   520.25125163
_cell_formula_units_Z   4
loop_
 _symmetry_equiv_pos_site_id
 _symmetry_equiv_pos_as_xyz
  1  'x, y, z'
loop_
 _atom_site_type_symbol
 _atom_site_label
 _atom_site_symmetry_multiplicity
 _atom_site_fract_x
 _atom_site_fract_y
 _atom_site_fract_z
 _atom_site_occupancy
  Ge  Ge0  1  0.990677  0.317843  0.793765  1
  Ge  Ge1  1  0.490677  0.317843  0.706235  1
  Ge  Ge2  1  0.009323  0.682157  0.206235  1
  Ge  Ge3  1  0.509323  0.682157  0.293765  1
  Pb  Pb4  1  0.780540  0.136477  0.420368  1
  Pb  Pb5  1  0.280540  0.136477  0.079632  1
  Pb  Pb6  1  0.719460  0.863523  0.920368  1
  Pb  Pb7  1  0.219460  0.863523  0.579632  1
  S  S8  1  0.415916  0.230703  0.508140  1
  S  S9  1  0.690601  0.487189  0.219645  1
  S  S10  1  0.410621  0.057233  0.821488  1
  S  S11  1  0.910621  0.057233  0.678512  1
  S  S12  1  0.915916  0.230703  0.991860  1
  S  S13  1  0.190601  0.487189  0.280355  1
  S  S14  1  0.584084  0.769297  0.491860  1
  S  S15  1  0.809399  0.512811  0.719645  1
  S  S16  1  0.089379  0.942767  0.321488  1
  S  S17  1  0.589379  0.942767  0.178512  1
  S  S18  1  0.084084  0.769297  0.008140  1
  S  S19  1  0.309399  0.512811  0.780355  1
