# generated using pymatgen
data_VHO2
_symmetry_space_group_name_H-M   'P 1'
_cell_length_a   4.64864318
_cell_length_b   10.07522045
_cell_length_c   3.15276651
_cell_angle_alpha   90.00000000
_cell_angle_beta   90.00000000
_cell_angle_gamma   90.00000000
_symmetry_Int_Tables_number   1
_chemical_formula_structural   VHO2
_chemical_formula_sum   'V4 H4 O8'
_cell_volume   147.66330277
_cell_formula_units_Z   4
loop_
 _symmetry_equiv_pos_site_id
 _symmetry_equiv_pos_as_xyz
  1  'x, y, z'
loop_
 _atom_site_type_symbol
 _atom_site_label
 _atom_site_symmetry_multiplicity
 _atom_site_fract_x
 _atom_site_fract_y
 _atom_site_fract_z
 _atom_site_occupancy
  V  V0  1  0.542886  0.653683  0.250000  1
  V  V1  1  0.957114  0.153683  0.250000  1
  V  V2  1  0.457154  0.362393  0.750000  1
  V  V3  1  0.042846  0.862393  0.750000  1
  H  H4  1  0.901717  0.432364  0.250000  1
  H  H5  1  0.598283  0.932364  0.250000  1
  H  H6  1  0.099907  0.594430  0.750000  1
  H  H7  1  0.400093  0.094430  0.750000  1
  O  O8  1  0.215650  0.305673  0.250000  1
  O  O9  1  0.284350  0.805674  0.250000  1
  O  O10  1  0.790226  0.707774  0.750000  1
  O  O11  1  0.709774  0.207774  0.750000  1
  O  O12  1  0.695369  0.455042  0.250000  1
  O  O13  1  0.804631  0.955042  0.250000  1
  O  O14  1  0.300916  0.562041  0.750000  1
  O  O15  1  0.199084  0.062041  0.750000  1
