# generated using pymatgen
data_SbN6Cl
_symmetry_space_group_name_H-M   'P 1'
_cell_length_a   7.61524067
_cell_length_b   7.61524161
_cell_length_c   14.07656359
_cell_angle_alpha   75.20962966
_cell_angle_beta   75.20962889
_cell_angle_gamma   68.63330418
_symmetry_Int_Tables_number   1
_chemical_formula_structural   SbN6Cl
_chemical_formula_sum   'Sb4 N24 Cl4'
_cell_volume   722.99432396
_cell_formula_units_Z   4
loop_
 _symmetry_equiv_pos_site_id
 _symmetry_equiv_pos_as_xyz
  1  'x, y, z'
loop_
 _atom_site_type_symbol
 _atom_site_label
 _atom_site_symmetry_multiplicity
 _atom_site_fract_x
 _atom_site_fract_y
 _atom_site_fract_z
 _atom_site_occupancy
  Sb  Sb0  1  0.831388  0.370735  0.475474  1
  Sb  Sb1  1  0.168612  0.629265  0.524526  1
  Sb  Sb2  1  0.370735  0.831388  0.975474  1
  Sb  Sb3  1  0.629265  0.168612  0.024526  1
  N  N4  1  0.532907  0.724961  0.663728  1
  N  N5  1  0.157900  0.138304  0.203770  1
  N  N6  1  0.356060  0.326775  0.883041  1
  N  N7  1  0.848558  0.821343  0.724509  1
  N  N8  1  0.178657  0.151442  0.775491  1
  N  N9  1  0.643940  0.673225  0.116959  1
  N  N10  1  0.438332  0.173162  0.932067  1
  N  N11  1  0.861696  0.842100  0.296230  1
  N  N12  1  0.821343  0.848558  0.224509  1
  N  N13  1  0.036484  0.008055  0.030142  1
  N  N14  1  0.826838  0.561668  0.567933  1
  N  N15  1  0.275039  0.467093  0.836272  1
  N  N16  1  0.138304  0.157900  0.703770  1
  N  N17  1  0.561668  0.826838  0.067933  1
  N  N18  1  0.724961  0.532907  0.163728  1
  N  N19  1  0.842100  0.861696  0.796230  1
  N  N20  1  0.963516  0.991945  0.969858  1
  N  N21  1  0.151442  0.178657  0.275491  1
  N  N22  1  0.173162  0.438332  0.432067  1
  N  N23  1  0.326775  0.356060  0.383041  1
  N  N24  1  0.991945  0.963516  0.469858  1
  N  N25  1  0.673225  0.643940  0.616959  1
  N  N26  1  0.467093  0.275039  0.336272  1
  N  N27  1  0.008055  0.036484  0.530142  1
  Cl  Cl28  1  0.561871  0.284011  0.590174  1
  Cl  Cl29  1  0.438129  0.715989  0.409826  1
  Cl  Cl30  1  0.284011  0.561871  0.090174  1
  Cl  Cl31  1  0.715989  0.438129  0.909826  1
