# generated using pymatgen
data_Ca4Te5O14
_symmetry_space_group_name_H-M   'P 1'
_cell_length_a   11.06937258
_cell_length_b   15.97904507
_cell_length_c   16.75690953
_cell_angle_alpha   90.00000000
_cell_angle_beta   90.00000000
_cell_angle_gamma   90.00000000
_symmetry_Int_Tables_number   1
_chemical_formula_structural   Ca4Te5O14
_chemical_formula_sum   'Ca32 Te40 O112'
_cell_volume   2963.92870002
_cell_formula_units_Z   8
loop_
 _symmetry_equiv_pos_site_id
 _symmetry_equiv_pos_as_xyz
  1  'x, y, z'
loop_
 _atom_site_type_symbol
 _atom_site_label
 _atom_site_symmetry_multiplicity
 _atom_site_fract_x
 _atom_site_fract_y
 _atom_site_fract_z
 _atom_site_occupancy
  Ca  Ca0  1  0.381074  0.737692  0.318600  1
  Ca  Ca1  1  0.885663  0.089608  0.012457  1
  Ca  Ca2  1  0.385663  0.910392  0.487543  1
  Ca  Ca3  1  0.614337  0.089608  0.512457  1
  Ca  Ca4  1  0.118926  0.737692  0.818600  1
  Ca  Ca5  1  0.123029  0.264472  0.009744  1
  Ca  Ca6  1  0.876971  0.735528  0.990256  1
  Ca  Ca7  1  0.884039  0.256178  0.854632  1
  Ca  Ca8  1  0.618926  0.762308  0.818600  1
  Ca  Ca9  1  0.114337  0.410392  0.512457  1
  Ca  Ca10  1  0.623029  0.735528  0.490256  1
  Ca  Ca11  1  0.115961  0.743822  0.145368  1
  Ca  Ca12  1  0.118926  0.237693  0.681400  1
  Ca  Ca13  1  0.384039  0.743822  0.645368  1
  Ca  Ca14  1  0.884039  0.756178  0.645368  1
  Ca  Ca15  1  0.376971  0.764472  0.990256  1
  Ca  Ca16  1  0.115961  0.243822  0.354632  1
  Ca  Ca17  1  0.384039  0.243822  0.854632  1
  Ca  Ca18  1  0.385663  0.410392  0.012457  1
  Ca  Ca19  1  0.614337  0.589608  0.987543  1
  Ca  Ca20  1  0.123029  0.764472  0.490256  1
  Ca  Ca21  1  0.615961  0.256178  0.354632  1
  Ca  Ca22  1  0.376971  0.264472  0.509744  1
  Ca  Ca23  1  0.381074  0.237693  0.181400  1
  Ca  Ca24  1  0.876971  0.235528  0.509744  1
  Ca  Ca25  1  0.885663  0.589608  0.487543  1
  Ca  Ca26  1  0.881074  0.762308  0.318600  1
  Ca  Ca27  1  0.618926  0.262308  0.681400  1
  Ca  Ca28  1  0.114337  0.910392  0.987543  1
  Ca  Ca29  1  0.623029  0.235528  0.009744  1
  Ca  Ca30  1  0.615961  0.756178  0.145368  1
  Ca  Ca31  1  0.881074  0.262308  0.181400  1
  Te  Te32  1  0.112491  0.592243  0.653573  1
  Te  Te33  1  0.872489  0.085377  0.346578  1
  Te  Te34  1  0.602303  0.409733  0.159280  1
  Te  Te35  1  0.897697  0.909733  0.840720  1
  Te  Te36  1  0.135699  0.407391  0.175445  1
  Te  Te37  1  0.627511  0.085377  0.846578  1
  Te  Te38  1  0.135699  0.907391  0.324555  1
  Te  Te39  1  0.626125  0.397855  0.512976  1
  Te  Te40  1  0.397697  0.090267  0.659280  1
  Te  Te41  1  0.127511  0.414623  0.846578  1
  Te  Te42  1  0.373875  0.602145  0.487024  1
  Te  Te43  1  0.864301  0.092609  0.675445  1
  Te  Te44  1  0.626125  0.897855  0.987024  1
  Te  Te45  1  0.127511  0.914623  0.653422  1
  Te  Te46  1  0.887509  0.907757  0.153573  1
  Te  Te47  1  0.635699  0.592609  0.324555  1
  Te  Te48  1  0.126125  0.102145  0.512976  1
  Te  Te49  1  0.897697  0.409733  0.659280  1
  Te  Te50  1  0.887509  0.407757  0.346427  1
  Te  Te51  1  0.612491  0.407757  0.846427  1
  Te  Te52  1  0.112491  0.092243  0.846427  1
  Te  Te53  1  0.372489  0.414623  0.346578  1
  Te  Te54  1  0.872489  0.585377  0.153422  1
  Te  Te55  1  0.635699  0.092609  0.175445  1
  Te  Te56  1  0.373875  0.102145  0.012976  1
  Te  Te57  1  0.627511  0.585377  0.653422  1
  Te  Te58  1  0.873875  0.397855  0.012976  1
  Te  Te59  1  0.397697  0.590267  0.840720  1
  Te  Te60  1  0.126125  0.602145  0.987024  1
  Te  Te61  1  0.364301  0.907391  0.824555  1
  Te  Te62  1  0.387509  0.592243  0.153573  1
  Te  Te63  1  0.102303  0.090267  0.159280  1
  Te  Te64  1  0.372489  0.914623  0.153422  1
  Te  Te65  1  0.602303  0.909733  0.340720  1
  Te  Te66  1  0.387509  0.092243  0.346427  1
  Te  Te67  1  0.612491  0.907757  0.653573  1
  Te  Te68  1  0.102303  0.590267  0.340720  1
  Te  Te69  1  0.364301  0.407391  0.675445  1
  Te  Te70  1  0.864301  0.592609  0.824555  1
  Te  Te71  1  0.873875  0.897855  0.487024  1
  O  O72  1  0.030853  0.165801  0.920149  1
  O  O73  1  0.255288  0.841373  0.886416  1
  O  O74  1  0.277929  0.169716  0.299052  1
  O  O75  1  0.557396  0.988940  0.419431  1
  O  O76  1  0.722071  0.330284  0.799052  1
  O  O77  1  0.939385  0.170096  0.282152  1
  O  O78  1  0.255288  0.341373  0.613584  1
  O  O79  1  0.969147  0.334199  0.420149  1
  O  O80  1  0.741521  0.877441  0.876479  1
  O  O81  1  0.494755  0.630733  0.571710  1
  O  O82  1  0.930604  0.178558  0.740008  1
  O  O83  1  0.755288  0.158627  0.613584  1
  O  O84  1  0.430604  0.321442  0.740008  1
  O  O85  1  0.469147  0.665801  0.079851  1
  O  O86  1  0.750767  0.051974  0.759225  1
  O  O87  1  0.215504  0.533628  0.581122  1
  O  O88  1  0.060615  0.829904  0.717848  1
  O  O89  1  0.514871  0.324533  0.104852  1
  O  O90  1  0.005245  0.130733  0.428290  1
  O  O91  1  0.222071  0.169716  0.799052  1
  O  O92  1  0.190959  0.707102  0.014488  1
  O  O93  1  0.442604  0.511060  0.919431  1
  O  O94  1  0.439385  0.829904  0.217848  1
  O  O95  1  0.485129  0.175467  0.604852  1
  O  O96  1  0.994755  0.869267  0.571710  1
  O  O97  1  0.939385  0.670096  0.217848  1
  O  O98  1  0.277929  0.669716  0.200948  1
  O  O99  1  0.284496  0.533628  0.081122  1
  O  O100  1  0.241609  0.856275  0.588459  1
  O  O101  1  0.258391  0.856275  0.088459  1
  O  O102  1  0.309041  0.207102  0.985512  1
  O  O103  1  0.060615  0.329904  0.782152  1
  O  O104  1  0.241609  0.356275  0.911541  1
  O  O105  1  0.784496  0.466372  0.418878  1
  O  O106  1  0.250767  0.948026  0.740775  1
  O  O107  1  0.258479  0.122559  0.123521  1
  O  O108  1  0.485129  0.675467  0.895148  1
  O  O109  1  0.057396  0.511060  0.419431  1
  O  O110  1  0.258479  0.622559  0.376480  1
  O  O111  1  0.250767  0.448026  0.759225  1
  O  O112  1  0.244712  0.341373  0.113584  1
  O  O113  1  0.560615  0.670096  0.717848  1
  O  O114  1  0.809041  0.792898  0.514488  1
  O  O115  1  0.755288  0.658627  0.886416  1
  O  O116  1  0.942604  0.488940  0.580569  1
  O  O117  1  0.009054  0.647222  0.912141  1
  O  O118  1  0.244712  0.841373  0.386416  1
  O  O119  1  0.241521  0.622559  0.876479  1
  O  O120  1  0.784496  0.966372  0.081122  1
  O  O121  1  0.490946  0.647222  0.412141  1
  O  O122  1  0.777929  0.830284  0.200948  1
  O  O123  1  0.014871  0.675467  0.395148  1
  O  O124  1  0.249233  0.948026  0.240775  1
  O  O125  1  0.430604  0.821442  0.759992  1
  O  O126  1  0.442604  0.011060  0.580569  1
  O  O127  1  0.069396  0.821442  0.259992  1
  O  O128  1  0.715504  0.966372  0.581122  1
  O  O129  1  0.494755  0.130733  0.928290  1
  O  O130  1  0.469147  0.165801  0.420149  1
  O  O131  1  0.994755  0.369267  0.928290  1
  O  O132  1  0.942604  0.988940  0.919431  1
  O  O133  1  0.241521  0.122559  0.623521  1
  O  O134  1  0.758391  0.143725  0.411541  1
  O  O135  1  0.509054  0.352778  0.587859  1
  O  O136  1  0.509054  0.852778  0.912141  1
  O  O137  1  0.014871  0.175467  0.104852  1
  O  O138  1  0.690959  0.292898  0.485512  1
  O  O139  1  0.744712  0.658627  0.386416  1
  O  O140  1  0.284496  0.033628  0.418878  1
  O  O141  1  0.569396  0.678558  0.259992  1
  O  O142  1  0.758479  0.877441  0.376480  1
  O  O143  1  0.990946  0.352778  0.087859  1
  O  O144  1  0.258391  0.356275  0.411541  1
  O  O145  1  0.030853  0.665801  0.579851  1
  O  O146  1  0.490946  0.147222  0.087859  1
  O  O147  1  0.249233  0.448026  0.259225  1
  O  O148  1  0.309041  0.707102  0.514488  1
  O  O149  1  0.749233  0.051974  0.259225  1
  O  O150  1  0.005245  0.630733  0.071710  1
  O  O151  1  0.215504  0.033628  0.918878  1
  O  O152  1  0.969147  0.834199  0.079851  1
  O  O153  1  0.569396  0.178558  0.240008  1
  O  O154  1  0.505245  0.869267  0.071710  1
  O  O155  1  0.930604  0.678558  0.759992  1
  O  O156  1  0.741521  0.377441  0.623521  1
  O  O157  1  0.505245  0.369267  0.428290  1
  O  O158  1  0.777929  0.330284  0.299052  1
  O  O159  1  0.514871  0.824533  0.395148  1
  O  O160  1  0.985129  0.824533  0.895148  1
  O  O161  1  0.560615  0.170096  0.782152  1
  O  O162  1  0.990946  0.852778  0.412141  1
  O  O163  1  0.758391  0.643725  0.088459  1
  O  O164  1  0.750767  0.551974  0.740775  1
  O  O165  1  0.557396  0.488940  0.080569  1
  O  O166  1  0.057396  0.011060  0.080569  1
  O  O167  1  0.690959  0.792898  0.014488  1
  O  O168  1  0.190959  0.207102  0.485512  1
  O  O169  1  0.530853  0.334199  0.920149  1
  O  O170  1  0.722071  0.830284  0.700948  1
  O  O171  1  0.741609  0.643725  0.588459  1
  O  O172  1  0.744712  0.158627  0.113584  1
  O  O173  1  0.222071  0.669716  0.700948  1
  O  O174  1  0.758479  0.377441  0.123521  1
  O  O175  1  0.749233  0.551974  0.240775  1
  O  O176  1  0.715504  0.466372  0.918878  1
  O  O177  1  0.530853  0.834199  0.579851  1
  O  O178  1  0.809041  0.292898  0.985512  1
  O  O179  1  0.985129  0.324533  0.604852  1
  O  O180  1  0.439385  0.329904  0.282152  1
  O  O181  1  0.009054  0.147222  0.587859  1
  O  O182  1  0.069396  0.321442  0.240008  1
  O  O183  1  0.741609  0.143725  0.911541  1
