# generated using pymatgen
data_CsMg12Al25Si29O108
_symmetry_space_group_name_H-M   'P 1'
_cell_length_a   9.96209778
_cell_length_b   9.83964308
_cell_length_c   28.36730502
_cell_angle_alpha   90.00809978
_cell_angle_beta   89.99614677
_cell_angle_gamma   119.37983658
_symmetry_Int_Tables_number   1
_chemical_formula_structural   CsMg12Al25Si29O108
_chemical_formula_sum   'Cs1 Mg12 Al25 Si29 O108'
_cell_volume   2423.03146848
_cell_formula_units_Z   1
loop_
 _symmetry_equiv_pos_site_id
 _symmetry_equiv_pos_as_xyz
  1  'x, y, z'
loop_
 _atom_site_type_symbol
 _atom_site_label
 _atom_site_symmetry_multiplicity
 _atom_site_fract_x
 _atom_site_fract_y
 _atom_site_fract_z
 _atom_site_occupancy
  Cs  Cs0  1  0.990546  0.995277  0.916653  1
  Mg  Mg1  1  0.340364  0.670233  0.083661  1
  Mg  Mg2  1  0.334859  0.669605  0.583227  1
  Mg  Mg3  1  0.341510  0.671188  0.250003  1
  Mg  Mg4  1  0.334870  0.669621  0.416752  1
  Mg  Mg5  1  0.340204  0.670887  0.749748  1
  Mg  Mg6  1  0.335997  0.668341  0.916663  1
  Mg  Mg7  1  0.668195  0.334227  0.083603  1
  Mg  Mg8  1  0.667441  0.333292  0.249971  1
  Mg  Mg9  1  0.670138  0.332877  0.416842  1
  Mg  Mg10  1  0.670245  0.332912  0.583153  1
  Mg  Mg11  1  0.668500  0.333464  0.749779  1
  Mg  Mg12  1  0.676693  0.338154  0.916729  1
  Al  Al13  1  0.101211  0.733645  0.500009  1
  Al  Al14  1  0.000126  0.500048  0.916559  1
  Al  Al15  1  0.503159  0.499811  0.083280  1
  Al  Al16  1  0.499985  0.500731  0.416447  1
  Al  Al17  1  0.502355  0.498948  0.749337  1
  Al  Al18  1  0.502937  0.499283  0.250431  1
  Al  Al19  1  0.499960  0.500705  0.583522  1
  Al  Al20  1  0.502559  0.499074  0.916818  1
  Al  Al21  1  0.733476  0.622518  0.166847  1
  Al  Al22  1  0.735064  0.620981  0.832919  1
  Al  Al23  1  0.502428  0.003247  0.083749  1
  Al  Al24  1  0.503076  0.004063  0.417361  1
  Al  Al25  1  0.502779  0.003430  0.249864  1
  Al  Al26  1  0.503054  0.004073  0.582603  1
  Al  Al27  1  0.503056  0.003346  0.749937  1
  Al  Al28  1  0.502646  0.003491  0.916624  1
  Al  Al29  1  0.897131  0.635210  0.000288  1
  Al  Al30  1  0.900790  0.640203  0.333563  1
  Al  Al31  1  0.900686  0.640708  0.666182  1
  Al  Al32  1  0.735391  0.113898  0.000386  1
  Al  Al33  1  0.733359  0.109535  0.666778  1
  Al  Al34  1  0.733122  0.109480  0.333070  1
  Al  Al35  1  0.900072  0.258610  0.166930  1
  Al  Al36  1  0.899804  0.259072  0.499975  1
  Al  Al37  1  0.896541  0.261318  0.833042  1
  Si  Si38  1  0.103370  0.732165  0.166924  1
  Si  Si39  1  0.107173  0.732787  0.833038  1
  Si  Si40  1  0.000448  0.500127  0.249843  1
  Si  Si41  1  0.000118  0.497754  0.583857  1
  Si  Si42  1  0.269543  0.896509  0.000121  1
  Si  Si43  1  0.271779  0.898492  0.333609  1
  Si  Si44  1  0.271668  0.898439  0.666293  1
  Si  Si45  1  0.106908  0.374572  0.000292  1
  Si  Si46  1  0.102658  0.368746  0.332374  1
  Si  Si47  1  0.102741  0.368433  0.667360  1
  Si  Si48  1  0.271364  0.373552  0.166784  1
  Si  Si49  1  0.270760  0.375415  0.499993  1
  Si  Si50  1  0.269668  0.373406  0.833199  1
  Si  Si51  1  0.620633  0.888805  0.166749  1
  Si  Si52  1  0.620963  0.888298  0.499994  1
  Si  Si53  1  0.621088  0.887954  0.833185  1
  Si  Si54  1  0.371973  0.267379  0.333992  1
  Si  Si55  1  0.370805  0.266111  0.000447  1
  Si  Si56  1  0.371890  0.267142  0.665877  1
  Si  Si57  1  0.620560  0.731590  0.333355  1
  Si  Si58  1  0.620869  0.733276  0.000122  1
  Si  Si59  1  0.620460  0.731735  0.666588  1
  Si  Si60  1  0.368853  0.102642  0.166789  1
  Si  Si61  1  0.373169  0.107775  0.500000  1
  Si  Si62  1  0.370431  0.104182  0.832882  1
  Si  Si63  1  0.729799  0.623841  0.499996  1
  Si  Si64  1  0.000649  0.499819  0.084331  1
  Si  Si65  1  0.000171  0.497791  0.416080  1
  Si  Si66  1  0.000651  0.500721  0.749292  1
  O  O67  1  0.087052  0.786727  0.998889  1
  O  O68  1  0.090914  0.784078  0.333459  1
  O  O69  1  0.090910  0.784227  0.666450  1
  O  O70  1  0.234192  0.916135  0.166772  1
  O  O71  1  0.236678  0.929452  0.500005  1
  O  O72  1  0.230407  0.920496  0.831677  1
  O  O73  1  0.131450  0.646241  0.118625  1
  O  O74  1  0.130880  0.646080  0.215335  1
  O  O75  1  0.129254  0.641094  0.448574  1
  O  O76  1  0.129277  0.641140  0.551411  1
  O  O77  1  0.130114  0.647915  0.783273  1
  O  O78  1  0.143148  0.652609  0.879178  1
  O  O79  1  0.130028  0.482143  0.050124  1
  O  O80  1  0.128013  0.479972  0.380457  1
  O  O81  1  0.131512  0.483571  0.715373  1
  O  O82  1  0.130914  0.483348  0.284115  1
  O  O83  1  0.127997  0.479869  0.619379  1
  O  O84  1  0.143023  0.490478  0.954164  1
  O  O85  1  0.349356  0.866691  0.286066  1
  O  O86  1  0.348893  0.866981  0.952798  1
  O  O87  1  0.348189  0.865849  0.047516  1
  O  O88  1  0.350971  0.867472  0.619135  1
  O  O89  1  0.350976  0.867511  0.380809  1
  O  O90  1  0.349476  0.866762  0.713815  1
  O  O91  1  0.090655  0.306742  0.166784  1
  O  O92  1  0.089918  0.305829  0.499990  1
  O  O93  1  0.087005  0.300597  0.834420  1
  O  O94  1  0.230379  0.309730  0.001668  1
  O  O95  1  0.235711  0.317457  0.333439  1
  O  O96  1  0.235774  0.317231  0.666449  1
  O  O97  1  0.506967  0.858456  0.120072  1
  O  O98  1  0.510337  0.858086  0.453115  1
  O  O99  1  0.507358  0.858470  0.786661  1
  O  O100  1  0.506981  0.858825  0.213342  1
  O  O101  1  0.510336  0.858059  0.546872  1
  O  O102  1  0.509588  0.859717  0.880177  1
  O  O103  1  0.349561  0.483531  0.119463  1
  O  O104  1  0.348525  0.485903  0.452678  1
  O  O105  1  0.348215  0.482381  0.785785  1
  O  O106  1  0.349682  0.483411  0.214098  1
  O  O107  1  0.348500  0.485886  0.547313  1
  O  O108  1  0.348693  0.482061  0.880522  1
  O  O109  1  0.507237  0.649096  0.046625  1
  O  O110  1  0.506728  0.648019  0.286875  1
  O  O111  1  0.507072  0.649810  0.380217  1
  O  O112  1  0.506984  0.649779  0.619758  1
  O  O113  1  0.506500  0.648288  0.713111  1
  O  O114  1  0.509344  0.650015  0.953160  1
  O  O115  1  0.304648  0.225514  0.166740  1
  O  O116  1  0.314588  0.236064  0.500004  1
  O  O117  1  0.302498  0.224502  0.833730  1
  O  O118  1  0.688476  0.918278  0.998923  1
  O  O119  1  0.684178  0.914787  0.333132  1
  O  O120  1  0.684261  0.914885  0.666846  1
  O  O121  1  0.302676  0.078170  0.999585  1
  O  O122  1  0.306554  0.080548  0.333995  1
  O  O123  1  0.306439  0.080402  0.665941  1
  O  O124  1  0.684459  0.768797  0.166724  1
  O  O125  1  0.689034  0.770586  0.834376  1
  O  O126  1  0.682072  0.761482  0.499995  1
  O  O127  1  0.477268  0.341297  0.047253  1
  O  O128  1  0.476885  0.341856  0.286894  1
  O  O129  1  0.479063  0.343597  0.381211  1
  O  O130  1  0.476658  0.341527  0.713007  1
  O  O131  1  0.472303  0.339636  0.952771  1
  O  O132  1  0.479084  0.343563  0.618714  1
  O  O133  1  0.651318  0.505355  0.116755  1
  O  O134  1  0.651011  0.513705  0.452564  1
  O  O135  1  0.651854  0.505667  0.782611  1
  O  O136  1  0.651325  0.504940  0.216952  1
  O  O137  1  0.651018  0.513727  0.547428  1
  O  O138  1  0.650551  0.506261  0.883088  1
  O  O139  1  0.474286  0.133856  0.119715  1
  O  O140  1  0.483762  0.141042  0.453383  1
  O  O141  1  0.476865  0.135628  0.786046  1
  O  O142  1  0.474545  0.133958  0.213793  1
  O  O143  1  0.483722  0.141044  0.546621  1
  O  O144  1  0.471864  0.132114  0.880572  1
  O  O145  1  0.758772  0.692487  0.000687  1
  O  O146  1  0.752205  0.681519  0.333612  1
  O  O147  1  0.751997  0.681693  0.666356  1
  O  O148  1  0.932475  0.699789  0.166819  1
  O  O149  1  0.911222  0.691092  0.500003  1
  O  O150  1  0.936464  0.705854  0.834342  1
  O  O151  1  0.651293  0.145968  0.283054  1
  O  O152  1  0.651170  0.143854  0.616618  1
  O  O153  1  0.651162  0.145641  0.716693  1
  O  O154  1  0.652036  0.145882  0.050706  1
  O  O155  1  0.651154  0.143813  0.383311  1
  O  O156  1  0.650566  0.144021  0.950217  1
  O  O157  1  0.875974  0.518154  0.383336  1
  O  O158  1  0.880775  0.524285  0.051795  1
  O  O159  1  0.879837  0.522428  0.716199  1
  O  O160  1  0.880546  0.522249  0.283290  1
  O  O161  1  0.875971  0.518249  0.616549  1
  O  O162  1  0.866009  0.513898  0.952348  1
  O  O163  1  0.879408  0.357234  0.117146  1
  O  O164  1  0.879828  0.358039  0.216739  1
  O  O165  1  0.877477  0.355024  0.449470  1
  O  O166  1  0.877450  0.354965  0.550493  1
  O  O167  1  0.880519  0.356649  0.781663  1
  O  O168  1  0.866021  0.352036  0.881006  1
  O  O169  1  0.751805  0.069974  0.166720  1
  O  O170  1  0.758505  0.065276  0.499993  1
  O  O171  1  0.758561  0.066316  0.832644  1
  O  O172  1  0.936495  0.230975  0.998984  1
  O  O173  1  0.931881  0.230409  0.332290  1
  O  O174  1  0.931985  0.230256  0.667555  1
