# generated using pymatgen
data_KTeOF3
_symmetry_space_group_name_H-M   'P 1'
_cell_length_a   5.47863214
_cell_length_b   5.88833993
_cell_length_c   8.27130259
_cell_angle_alpha   90.00000000
_cell_angle_beta   110.74035575
_cell_angle_gamma   90.00000000
_symmetry_Int_Tables_number   1
_chemical_formula_structural   KTeOF3
_chemical_formula_sum   'K2 Te2 O2 F6'
_cell_volume   249.54048918
_cell_formula_units_Z   2
loop_
 _symmetry_equiv_pos_site_id
 _symmetry_equiv_pos_as_xyz
  1  'x, y, z'
loop_
 _atom_site_type_symbol
 _atom_site_label
 _atom_site_symmetry_multiplicity
 _atom_site_fract_x
 _atom_site_fract_y
 _atom_site_fract_z
 _atom_site_occupancy
  K  K0  1  0.631653  0.598386  0.308912  1
  K  K1  1  0.368347  0.098386  0.691088  1
  Te  Te2  1  0.065454  0.117856  0.206253  1
  Te  Te3  1  0.934546  0.617856  0.793747  1
  O  O4  1  0.970698  0.211991  0.383910  1
  O  O5  1  0.029302  0.711991  0.616090  1
  F  F6  1  0.693490  0.151824  0.037058  1
  F  F7  1  0.022935  0.293256  0.814518  1
  F  F8  1  0.977065  0.793256  0.185482  1
  F  F9  1  0.586631  0.493688  0.626996  1
  F  F10  1  0.413369  0.993688  0.373004  1
  F  F11  1  0.306510  0.651824  0.962943  1
