# generated using pymatgen
data_U2(P2O7)3
_symmetry_space_group_name_H-M   'P 1'
_cell_length_a   7.05169010
_cell_length_b   7.05169015
_cell_length_c   19.60424342
_cell_angle_alpha   97.31355479
_cell_angle_beta   97.31355480
_cell_angle_gamma   105.11765368
_symmetry_Int_Tables_number   1
_chemical_formula_structural   U2(P2O7)3
_chemical_formula_sum   'U4 P12 O42'
_cell_volume   920.24717913
_cell_formula_units_Z   2
loop_
 _symmetry_equiv_pos_site_id
 _symmetry_equiv_pos_as_xyz
  1  'x, y, z'
loop_
 _atom_site_type_symbol
 _atom_site_label
 _atom_site_symmetry_multiplicity
 _atom_site_fract_x
 _atom_site_fract_y
 _atom_site_fract_z
 _atom_site_occupancy
  U  U0  1  0.350356  0.728999  0.475685  1
  U  U1  1  0.228999  0.850356  0.975685  1
  U  U2  1  0.863728  0.955565  0.260037  1
  U  U3  1  0.455565  0.363728  0.760037  1
  P  P4  1  0.771054  0.984227  0.971196  1
  P  P5  1  0.982787  0.933714  0.707568  1
  P  P6  1  0.484227  0.271054  0.471196  1
  P  P7  1  0.013470  0.442942  0.206414  1
  P  P8  1  0.610523  0.965068  0.630229  1
  P  P9  1  0.942942  0.513470  0.706414  1
  P  P10  1  0.606322  0.910143  0.741857  1
  P  P11  1  0.465068  0.110523  0.130229  1
  P  P12  1  0.382097  0.411337  0.003210  1
  P  P13  1  0.433714  0.482787  0.207568  1
  P  P14  1  0.410143  0.106322  0.241857  1
  P  P15  1  0.911337  0.882097  0.503210  1
  O  O16  1  0.675696  0.357927  0.520422  1
  O  O17  1  0.689394  0.787083  0.482598  1
  O  O18  1  0.462806  0.339197  0.667672  1
  O  O19  1  0.269852  0.585263  0.370496  1
  O  O20  1  0.274990  0.943001  0.093634  1
  O  O21  1  0.852513  0.947873  0.766254  1
  O  O22  1  0.998201  0.372746  0.657039  1
  O  O23  1  0.985328  0.314363  0.260233  1
  O  O24  1  0.295817  0.816948  0.873821  1
  O  O25  1  0.348170  0.467879  0.847494  1
  O  O26  1  0.085263  0.769852  0.870496  1
  O  O27  1  0.465679  0.334119  0.863657  1
  O  O28  1  0.237883  0.563495  0.210496  1
  O  O29  1  0.935196  0.848930  0.987163  1
  O  O30  1  0.997582  0.095420  0.528114  1
  O  O31  1  0.605397  0.663167  0.220211  1
  O  O32  1  0.203296  0.000198  0.252459  1
  O  O33  1  0.595420  0.497582  0.028114  1
  O  O34  1  0.500198  0.703296  0.752459  1
  O  O35  1  0.163167  0.105397  0.720211  1
  O  O36  1  0.857927  0.175696  0.020422  1
  O  O37  1  0.447873  0.352513  0.266254  1
  O  O38  1  0.063495  0.737883  0.710496  1
  O  O39  1  0.840688  0.877588  0.636335  1
  O  O40  1  0.872746  0.498201  0.157039  1
  O  O41  1  0.590180  0.055318  0.277210  1
  O  O42  1  0.730470  0.956124  0.893034  1
  O  O43  1  0.540177  0.892207  0.992456  1
  O  O44  1  0.839197  0.962806  0.167672  1
  O  O45  1  0.443001  0.774990  0.593634  1
  O  O46  1  0.348930  0.435196  0.487163  1
  O  O47  1  0.287083  0.189394  0.982598  1
  O  O48  1  0.316948  0.795817  0.373821  1
  O  O49  1  0.967879  0.848170  0.347494  1
  O  O50  1  0.033401  0.734506  0.498007  1
  O  O51  1  0.377588  0.340688  0.136335  1
  O  O52  1  0.234506  0.533401  0.998007  1
  O  O53  1  0.555318  0.090180  0.777210  1
  O  O54  1  0.834119  0.965679  0.363657  1
  O  O55  1  0.456124  0.230470  0.393034  1
  O  O56  1  0.392207  0.040177  0.492456  1
  O  O57  1  0.814363  0.485328  0.760233  1
