# generated using pymatgen
data_Nb2SiTe4
_symmetry_space_group_name_H-M   'P 1'
_cell_length_a   3.71333117
_cell_length_b   8.52543699
_cell_length_c   7.70096902
_cell_angle_alpha   109.21973912
_cell_angle_beta   118.92880859
_cell_angle_gamma   99.24551340
_symmetry_Int_Tables_number   1
_chemical_formula_structural   Nb2SiTe4
_chemical_formula_sum   'Nb2 Si1 Te4'
_cell_volume   185.77537199
_cell_formula_units_Z   1
loop_
 _symmetry_equiv_pos_site_id
 _symmetry_equiv_pos_as_xyz
  1  'x, y, z'
loop_
 _atom_site_type_symbol
 _atom_site_label
 _atom_site_symmetry_multiplicity
 _atom_site_fract_x
 _atom_site_fract_y
 _atom_site_fract_z
 _atom_site_occupancy
  Nb  Nb0  1  0.780303  0.355266  0.183686  1
  Nb  Nb1  1  0.909007  0.329563  0.814634  1
  Si  Si2  1  0.463878  0.905923  0.025649  1
  Te  Te3  1  0.235559  0.055843  0.741968  1
  Te  Te4  1  0.435035  0.622428  0.238737  1
  Te  Te5  1  0.353426  0.533061  0.686820  1
  Te  Te6  1  0.322792  0.144716  0.306506  1
