# generated using pymatgen
data_Ba5SrNd2Fe4O15
_symmetry_space_group_name_H-M   'P 1'
_cell_length_a   11.89981903
_cell_length_b   11.89981904
_cell_length_c   14.24861109
_cell_angle_alpha   89.77673117
_cell_angle_beta   90.22326883
_cell_angle_gamma   120.11207283
_symmetry_Int_Tables_number   1
_chemical_formula_structural   Ba5SrNd2Fe4O15
_chemical_formula_sum   'Ba20 Sr4 Nd8 Fe16 O60'
_cell_volume   1745.37166227
_cell_formula_units_Z   4
loop_
 _symmetry_equiv_pos_site_id
 _symmetry_equiv_pos_as_xyz
  1  'x, y, z'
loop_
 _atom_site_type_symbol
 _atom_site_label
 _atom_site_symmetry_multiplicity
 _atom_site_fract_x
 _atom_site_fract_y
 _atom_site_fract_z
 _atom_site_occupancy
  Ba  Ba0  1  0.001376  0.999308  0.496793  1
  Ba  Ba1  1  0.001181  0.001100  0.746654  1
  Ba  Ba2  1  0.172814  0.824630  0.081452  1
  Ba  Ba3  1  0.175370  0.827186  0.581452  1
  Ba  Ba4  1  0.000692  0.998624  0.996793  1
  Ba  Ba5  1  0.174962  0.348530  0.080880  1
  Ba  Ba6  1  0.176241  0.348311  0.584728  1
  Ba  Ba7  1  0.333516  0.664987  0.740217  1
  Ba  Ba8  1  0.335013  0.666484  0.240217  1
  Ba  Ba9  1  0.651689  0.823759  0.084728  1
  Ba  Ba10  1  0.651470  0.825038  0.580880  1
  Ba  Ba11  1  0.348685  0.174521  0.331795  1
  Ba  Ba12  1  0.348756  0.177131  0.832192  1
  Ba  Ba13  1  0.822869  0.651244  0.332192  1
  Ba  Ba14  1  0.825479  0.651315  0.831795  1
  Ba  Ba15  1  0.998900  0.998819  0.246654  1
  Ba  Ba16  1  0.664647  0.330927  0.491103  1
  Ba  Ba17  1  0.669073  0.335353  0.991103  1
  Ba  Ba18  1  0.822926  0.171357  0.334390  1
  Ba  Ba19  1  0.828643  0.177074  0.834390  1
  Sr  Sr20  1  0.043997  0.523055  0.918434  1
  Sr  Sr21  1  0.476945  0.956003  0.418434  1
  Sr  Sr22  1  0.520456  0.477269  0.167802  1
  Sr  Sr23  1  0.522731  0.479544  0.667802  1
  Nd  Nd24  1  0.042654  0.521457  0.418761  1
  Nd  Nd25  1  0.478543  0.957346  0.918761  1
  Nd  Nd26  1  0.477267  0.520956  0.417303  1
  Nd  Nd27  1  0.479044  0.522733  0.917303  1
  Nd  Nd28  1  0.521190  0.043051  0.169667  1
  Nd  Nd29  1  0.522236  0.043798  0.666536  1
  Nd  Nd30  1  0.956202  0.477764  0.166536  1
  Nd  Nd31  1  0.956949  0.478810  0.669667  1
  Fe  Fe32  1  0.179893  0.818977  0.328470  1
  Fe  Fe33  1  0.181023  0.820107  0.828470  1
  Fe  Fe34  1  0.332145  0.667662  0.013057  1
  Fe  Fe35  1  0.332338  0.667855  0.513057  1
  Fe  Fe36  1  0.178201  0.360559  0.831480  1
  Fe  Fe37  1  0.175681  0.357320  0.331981  1
  Fe  Fe38  1  0.639441  0.821799  0.331480  1
  Fe  Fe39  1  0.642680  0.824319  0.831981  1
  Fe  Fe40  1  0.360244  0.180050  0.078846  1
  Fe  Fe41  1  0.360052  0.181517  0.581444  1
  Fe  Fe42  1  0.666907  0.334765  0.263907  1
  Fe  Fe43  1  0.665235  0.333093  0.763907  1
  Fe  Fe44  1  0.819950  0.639756  0.578846  1
  Fe  Fe45  1  0.818483  0.639948  0.081444  1
  Fe  Fe46  1  0.819376  0.177405  0.082348  1
  Fe  Fe47  1  0.822595  0.180624  0.582348  1
  O  O48  1  0.097713  0.903312  0.378926  1
  O  O49  1  0.096688  0.902287  0.878926  1
  O  O50  1  0.062753  0.664892  0.263128  1
  O  O51  1  0.068488  0.672294  0.757383  1
  O  O52  1  0.335108  0.937247  0.763128  1
  O  O53  1  0.327706  0.931512  0.257383  1
  O  O54  1  0.061011  0.396561  0.265183  1
  O  O55  1  0.064962  0.393654  0.757802  1
  O  O56  1  0.241175  0.743207  0.420576  1
  O  O57  1  0.256793  0.758825  0.920576  1
  O  O58  1  0.170122  0.586250  0.089173  1
  O  O59  1  0.163449  0.582623  0.583483  1
  O  O60  1  0.089995  0.188880  0.378425  1
  O  O61  1  0.091941  0.193085  0.881862  1
  O  O62  1  0.417377  0.836551  0.083483  1
  O  O63  1  0.255359  0.501157  0.920703  1
  O  O64  1  0.243658  0.495741  0.422219  1
  O  O65  1  0.413750  0.829878  0.589173  1
  O  O66  1  0.415955  0.585886  0.081058  1
  O  O67  1  0.414114  0.584045  0.581058  1
  O  O68  1  0.504259  0.756342  0.922219  1
  O  O69  1  0.498843  0.744641  0.420703  1
  O  O70  1  0.330670  0.397524  0.270925  1
  O  O71  1  0.330367  0.395670  0.768394  1
  O  O72  1  0.193866  0.098358  0.130123  1
  O  O73  1  0.193247  0.100083  0.630574  1
  O  O74  1  0.603439  0.938989  0.765183  1
  O  O75  1  0.606346  0.935038  0.257802  1
  O  O76  1  0.393562  0.327973  0.006961  1
  O  O77  1  0.394959  0.330259  0.508029  1
  O  O78  1  0.602476  0.669330  0.770925  1
  O  O79  1  0.604330  0.669633  0.268394  1
  O  O80  1  0.397487  0.064611  0.012848  1
  O  O81  1  0.397513  0.066037  0.520560  1
  O  O82  1  0.806915  0.908059  0.381862  1
  O  O83  1  0.811120  0.910005  0.878425  1
  O  O84  1  0.669741  0.605041  0.008029  1
  O  O85  1  0.672027  0.606438  0.506961  1
  O  O86  1  0.497642  0.242203  0.170528  1
  O  O87  1  0.501650  0.245696  0.672553  1
  O  O88  1  0.584622  0.414691  0.838612  1
  O  O89  1  0.585309  0.415378  0.338612  1
  O  O90  1  0.582408  0.164271  0.834642  1
  O  O91  1  0.585479  0.169502  0.331830  1
  O  O92  1  0.899917  0.806753  0.130574  1
  O  O93  1  0.901642  0.806134  0.630123  1
  O  O94  1  0.754304  0.498350  0.172553  1
  O  O95  1  0.757797  0.502358  0.670528  1
  O  O96  1  0.830498  0.414521  0.831830  1
  O  O97  1  0.835729  0.417592  0.334642  1
  O  O98  1  0.750938  0.247108  0.173375  1
  O  O99  1  0.752892  0.249062  0.673375  1
  O  O100  1  0.933963  0.602487  0.020560  1
  O  O101  1  0.935389  0.602513  0.512848  1
  O  O102  1  0.664198  0.064752  0.016072  1
  O  O103  1  0.668514  0.065551  0.521322  1
  O  O104  1  0.934449  0.331486  0.021322  1
  O  O105  1  0.935248  0.335802  0.516072  1
  O  O106  1  0.903635  0.092270  0.127989  1
  O  O107  1  0.907730  0.096365  0.627989  1
