# generated using pymatgen
data_NaNd3Ti3MnO12
_symmetry_space_group_name_H-M   'P 1'
_cell_length_a   5.53491992
_cell_length_b   5.52810166
_cell_length_c   15.73701938
_cell_angle_alpha   89.90866012
_cell_angle_beta   90.00000000
_cell_angle_gamma   90.00000000
_symmetry_Int_Tables_number   1
_chemical_formula_structural   NaNd3Ti3MnO12
_chemical_formula_sum   'Na2 Nd6 Ti6 Mn2 O24'
_cell_volume   481.51441197
_cell_formula_units_Z   2
loop_
 _symmetry_equiv_pos_site_id
 _symmetry_equiv_pos_as_xyz
  1  'x, y, z'
loop_
 _atom_site_type_symbol
 _atom_site_label
 _atom_site_symmetry_multiplicity
 _atom_site_fract_x
 _atom_site_fract_y
 _atom_site_fract_z
 _atom_site_occupancy
  Na  Na0  1  0.508786  0.499868  0.872484  1
  Na  Na1  1  0.008786  0.000132  0.627516  1
  Nd  Nd2  1  0.979508  0.985437  0.374766  1
  Nd  Nd3  1  0.987142  0.992219  0.868288  1
  Nd  Nd4  1  0.516478  0.485601  0.375116  1
  Nd  Nd5  1  0.479508  0.514563  0.125234  1
  Nd  Nd6  1  0.487142  0.507781  0.631712  1
  Nd  Nd7  1  0.016478  0.014399  0.124884  1
  Ti  Ti8  1  0.999706  0.498784  0.750585  1
  Ti  Ti9  1  0.499706  0.001216  0.749415  1
  Ti  Ti10  1  0.508313  0.002636  0.995593  1
  Ti  Ti11  1  0.494620  0.998431  0.505202  1
  Ti  Ti12  1  0.994620  0.501569  0.994798  1
  Ti  Ti13  1  0.008313  0.497364  0.504407  1
  Mn  Mn14  1  0.998757  0.499896  0.249761  1
  Mn  Mn15  1  0.498757  0.000104  0.250239  1
  O  O16  1  0.094672  0.511541  0.385598  1
  O  O17  1  0.073856  0.503513  0.873350  1
  O  O18  1  0.254684  0.749064  0.526161  1
  O  O19  1  0.261214  0.262392  0.220982  1
  O  O20  1  0.254416  0.256337  0.729571  1
  O  O21  1  0.237339  0.761708  0.221077  1
  O  O22  1  0.242406  0.757819  0.024244  1
  O  O23  1  0.267557  0.267444  0.526226  1
  O  O24  1  0.248473  0.749914  0.730115  1
  O  O25  1  0.258334  0.255021  0.024610  1
  O  O26  1  0.413458  0.000174  0.874082  1
  O  O27  1  0.400282  0.012766  0.386441  1
  O  O28  1  0.594672  0.988459  0.114402  1
  O  O29  1  0.573856  0.996487  0.626650  1
  O  O30  1  0.754684  0.750936  0.973839  1
  O  O31  1  0.742406  0.742181  0.475756  1
  O  O32  1  0.767557  0.232556  0.973774  1
  O  O33  1  0.761214  0.237608  0.279018  1
  O  O34  1  0.758334  0.244979  0.475390  1
  O  O35  1  0.737339  0.738292  0.278923  1
  O  O36  1  0.754416  0.243663  0.770429  1
  O  O37  1  0.748473  0.750086  0.769885  1
  O  O38  1  0.900282  0.487234  0.113559  1
  O  O39  1  0.913458  0.499826  0.625918  1
