# generated using pymatgen
data_PuSi6H54(C6N)3
_symmetry_space_group_name_H-M   'P 1'
_cell_length_a   16.39255760
_cell_length_b   16.39255784
_cell_length_c   9.47204357
_cell_angle_alpha   90.00000000
_cell_angle_beta   90.00000000
_cell_angle_gamma   119.99999952
_symmetry_Int_Tables_number   1
_chemical_formula_structural   PuSi6H54(C6N)3
_chemical_formula_sum   'Pu2 Si12 H108 C36 N6'
_cell_volume   2204.28509439
_cell_formula_units_Z   2
loop_
 _symmetry_equiv_pos_site_id
 _symmetry_equiv_pos_as_xyz
  1  'x, y, z'
loop_
 _atom_site_type_symbol
 _atom_site_label
 _atom_site_symmetry_multiplicity
 _atom_site_fract_x
 _atom_site_fract_y
 _atom_site_fract_z
 _atom_site_occupancy
  Pu  Pu0  1  0.333333  0.666667  0.303383  1
  Pu  Pu1  1  0.666667  0.333333  0.803383  1
  Si  Si2  1  0.170185  0.713905  0.119843  1
  Si  Si3  1  0.284430  0.830754  0.378196  1
  Si  Si4  1  0.169246  0.453676  0.378196  1
  Si  Si5  1  0.286095  0.456280  0.119843  1
  Si  Si6  1  0.543720  0.829815  0.119843  1
  Si  Si7  1  0.546324  0.715570  0.378196  1
  Si  Si8  1  0.456280  0.286095  0.619843  1
  Si  Si9  1  0.453676  0.169246  0.878196  1
  Si  Si10  1  0.715570  0.546324  0.878196  1
  Si  Si11  1  0.829815  0.543720  0.619843  1
  Si  Si12  1  0.713905  0.170185  0.619843  1
  Si  Si13  1  0.830754  0.284430  0.878196  1
  H  H14  1  0.007544  0.627874  0.619705  1
  H  H15  1  0.035658  0.691637  0.272480  1
  H  H16  1  0.136434  0.838592  0.428678  1
  H  H17  1  0.120450  0.782299  0.931227  1
  H  H18  1  0.162104  0.862977  0.073674  1
  H  H19  1  0.038475  0.584967  0.261274  1
  H  H20  1  0.144026  0.757152  0.543902  1
  H  H21  1  0.217203  0.880298  0.570944  1
  H  H22  1  0.243483  0.856088  0.956943  1
  H  H23  1  0.008889  0.380296  0.879881  1
  H  H24  1  0.038641  0.453611  0.239008  1
  H  H25  1  0.124261  0.620452  0.905561  1
  H  H26  1  0.308990  0.965582  0.227017  1
  H  H27  1  0.034418  0.343408  0.227017  1
  H  H28  1  0.125734  0.502842  0.591252  1
  H  H29  1  0.171679  0.602651  0.481994  1
  H  H30  1  0.371406  0.991111  0.879881  1
  H  H31  1  0.172874  0.570295  0.020519  1
  H  H32  1  0.248303  0.674442  0.923395  1
  H  H33  1  0.414970  0.961359  0.239008  1
  H  H34  1  0.377108  0.874266  0.591252  1
  H  H35  1  0.325933  0.751660  0.579404  1
  H  H36  1  0.248340  0.574274  0.579404  1
  H  H37  1  0.119702  0.336906  0.570944  1
  H  H38  1  0.143912  0.387394  0.956943  1
  H  H39  1  0.397420  0.827126  0.020519  1
  H  H40  1  0.137023  0.299127  0.073674  1
  H  H41  1  0.161408  0.297842  0.428678  1
  H  H42  1  0.430972  0.828321  0.481994  1
  H  H43  1  0.242848  0.386874  0.543902  1
  H  H44  1  0.217701  0.338151  0.931227  1
  H  H45  1  0.325558  0.573861  0.923395  1
  H  H46  1  0.426139  0.751697  0.923395  1
  H  H47  1  0.496190  0.875739  0.905561  1
  H  H48  1  0.546493  0.961525  0.261274  1
  H  H49  1  0.425726  0.674067  0.579404  1
  H  H50  1  0.397349  0.569028  0.481994  1
  H  H51  1  0.620330  0.992456  0.619705  1
  H  H52  1  0.429705  0.602580  0.020519  1
  H  H53  1  0.379548  0.503810  0.905561  1
  H  H54  1  0.308363  0.344021  0.272480  1
  H  H55  1  0.655979  0.964342  0.272480  1
  H  H56  1  0.497158  0.622892  0.591252  1
  H  H57  1  0.415033  0.453507  0.261274  1
  H  H58  1  0.372126  0.379670  0.619705  1
  H  H59  1  0.379670  0.372126  0.119705  1
  H  H60  1  0.613126  0.855974  0.543902  1
  H  H61  1  0.344021  0.308363  0.772480  1
  H  H62  1  0.661849  0.879550  0.931227  1
  H  H63  1  0.297842  0.161408  0.928678  1
  H  H64  1  0.338151  0.217701  0.431227  1
  H  H65  1  0.612606  0.756517  0.956943  1
  H  H66  1  0.299127  0.137023  0.573674  1
  H  H67  1  0.453507  0.415033  0.761274  1
  H  H68  1  0.546389  0.585030  0.239008  1
  H  H69  1  0.702158  0.863566  0.428678  1
  H  H70  1  0.386874  0.242848  0.043902  1
  H  H71  1  0.663094  0.782797  0.570944  1
  H  H72  1  0.700873  0.837896  0.073674  1
  H  H73  1  0.336906  0.119702  0.070944  1
  H  H74  1  0.656592  0.691010  0.227017  1
  H  H75  1  0.387394  0.143912  0.456943  1
  H  H76  1  0.619704  0.628594  0.879881  1
  H  H77  1  0.628594  0.619704  0.379881  1
  H  H78  1  0.585030  0.546389  0.739008  1
  H  H79  1  0.503810  0.379548  0.405561  1
  H  H80  1  0.343408  0.034418  0.727017  1
  H  H81  1  0.691010  0.656592  0.727017  1
  H  H82  1  0.622892  0.497158  0.091252  1
  H  H83  1  0.569028  0.397349  0.981994  1
  H  H84  1  0.380296  0.008889  0.379881  1
  H  H85  1  0.602580  0.429705  0.520519  1
  H  H86  1  0.573861  0.325558  0.423395  1
  H  H87  1  0.453611  0.038641  0.739008  1
  H  H88  1  0.502842  0.125734  0.091252  1
  H  H89  1  0.574274  0.248340  0.079404  1
  H  H90  1  0.674067  0.425726  0.079404  1
  H  H91  1  0.782797  0.663094  0.070944  1
  H  H92  1  0.756517  0.612606  0.456943  1
  H  H93  1  0.570295  0.172874  0.520519  1
  H  H94  1  0.837896  0.700873  0.573674  1
  H  H95  1  0.863566  0.702158  0.928678  1
  H  H96  1  0.602651  0.171679  0.981994  1
  H  H97  1  0.855974  0.613126  0.043902  1
  H  H98  1  0.879550  0.661849  0.431227  1
  H  H99  1  0.751697  0.426139  0.423395  1
  H  H100  1  0.674442  0.248303  0.423395  1
  H  H101  1  0.620452  0.124261  0.405561  1
  H  H102  1  0.584967  0.038475  0.761274  1
  H  H103  1  0.751660  0.325933  0.079404  1
  H  H104  1  0.828321  0.430972  0.981994  1
  H  H105  1  0.627874  0.007544  0.119705  1
  H  H106  1  0.827126  0.397420  0.520519  1
  H  H107  1  0.875739  0.496190  0.405561  1
  H  H108  1  0.964342  0.655979  0.772480  1
  H  H109  1  0.691637  0.035658  0.772480  1
  H  H110  1  0.874266  0.377108  0.091252  1
  H  H111  1  0.961525  0.546493  0.761274  1
  H  H112  1  0.992456  0.620330  0.119705  1
  H  H113  1  0.757152  0.144026  0.043902  1
  H  H114  1  0.782299  0.120450  0.431227  1
  H  H115  1  0.856088  0.243483  0.456943  1
  H  H116  1  0.961359  0.414970  0.739008  1
  H  H117  1  0.838592  0.136434  0.928678  1
  H  H118  1  0.880298  0.217203  0.070944  1
  H  H119  1  0.862977  0.162104  0.573674  1
  H  H120  1  0.965582  0.308990  0.727017  1
  H  H121  1  0.991111  0.371406  0.379881  1
  C  C122  1  0.048251  0.646414  0.200568  1
  C  C123  1  0.175942  0.814433  0.012522  1
  C  C124  1  0.185437  0.825067  0.489080  1
  C  C125  1  0.047227  0.401085  0.299535  1
  C  C126  1  0.181437  0.637045  0.981343  1
  C  C127  1  0.353859  0.952773  0.299535  1
  C  C128  1  0.183148  0.545035  0.516474  1
  C  C129  1  0.361886  0.816852  0.516474  1
  C  C130  1  0.174933  0.360370  0.489080  1
  C  C131  1  0.185567  0.361509  0.012522  1
  C  C132  1  0.455608  0.818563  0.981343  1
  C  C133  1  0.362955  0.544392  0.981343  1
  C  C134  1  0.598163  0.951749  0.200568  1
  C  C135  1  0.454965  0.638114  0.516474  1
  C  C136  1  0.353586  0.401837  0.200568  1
  C  C137  1  0.401837  0.353586  0.700568  1
  C  C138  1  0.638491  0.824058  0.012522  1
  C  C139  1  0.639630  0.814563  0.489080  1
  C  C140  1  0.361509  0.185567  0.512522  1
  C  C141  1  0.360370  0.174933  0.989080  1
  C  C142  1  0.598915  0.646141  0.299535  1
  C  C143  1  0.646141  0.598915  0.799535  1
  C  C144  1  0.544392  0.362955  0.481343  1
  C  C145  1  0.401085  0.047227  0.799535  1
  C  C146  1  0.638114  0.454965  0.016474  1
  C  C147  1  0.545035  0.183148  0.016474  1
  C  C148  1  0.814563  0.639630  0.989080  1
  C  C149  1  0.824058  0.638491  0.512522  1
  C  C150  1  0.637045  0.181437  0.481343  1
  C  C151  1  0.818563  0.455608  0.481343  1
  C  C152  1  0.646414  0.048251  0.700568  1
  C  C153  1  0.816852  0.361886  0.016474  1
  C  C154  1  0.951749  0.598163  0.700568  1
  C  C155  1  0.814433  0.175942  0.512522  1
  C  C156  1  0.825067  0.185437  0.989080  1
  C  C157  1  0.952773  0.353859  0.799535  1
  N  N158  1  0.254293  0.744535  0.250987  1
  N  N159  1  0.255465  0.509758  0.250987  1
  N  N160  1  0.490242  0.745707  0.250987  1
  N  N161  1  0.509758  0.255465  0.750987  1
  N  N162  1  0.745707  0.490242  0.750987  1
  N  N163  1  0.744535  0.254293  0.750987  1
