# generated using pymatgen
data_Na19Zr11S30
_symmetry_space_group_name_H-M   'P 1'
_cell_length_a   6.63248669
_cell_length_b   66.46928390
_cell_length_c   10.40958669
_cell_angle_alpha   41.82085890
_cell_angle_beta   57.80684258
_cell_angle_gamma   60.08240450
_symmetry_Int_Tables_number   1
_chemical_formula_structural   Na19Zr11S30
_chemical_formula_sum   'Na38 Zr22 S60'
_cell_volume   2547.17590562
_cell_formula_units_Z   2
loop_
 _symmetry_equiv_pos_site_id
 _symmetry_equiv_pos_as_xyz
  1  'x, y, z'
loop_
 _atom_site_type_symbol
 _atom_site_label
 _atom_site_symmetry_multiplicity
 _atom_site_fract_x
 _atom_site_fract_y
 _atom_site_fract_z
 _atom_site_occupancy
  Na  Na0  1  0.162154  0.018462  0.493977  1
  Na  Na1  1  0.159335  0.117259  0.505847  1
  Na  Na2  1  0.505828  0.050425  0.495918  1
  Na  Na3  1  0.000000  0.100000  0.000000  1
  Na  Na4  1  0.161991  0.218413  0.494486  1
  Na  Na5  1  0.494172  0.149575  0.504082  1
  Na  Na6  1  0.840665  0.082741  0.494153  1
  Na  Na7  1  0.158825  0.318163  0.499902  1
  Na  Na8  1  0.505774  0.250393  0.496142  1
  Na  Na9  1  0.837846  0.181538  0.506023  1
  Na  Na10  1  0.000258  0.299975  0.999766  1
  Na  Na11  1  0.158965  0.418190  0.500164  1
  Na  Na12  1  0.500001  0.349983  0.500138  1
  Na  Na13  1  0.840319  0.282567  0.494688  1
  Na  Na14  1  0.000168  0.399976  0.999982  1
  Na  Na15  1  0.158899  0.518215  0.500015  1
  Na  Na16  1  0.499979  0.449976  0.500131  1
  Na  Na17  1  0.841074  0.381754  0.500211  1
  Na  Na18  1  0.000015  0.499997  0.000000  1
  Na  Na19  1  0.158908  0.618220  0.499981  1
  Na  Na20  1  0.500004  0.549998  0.500012  1
  Na  Na21  1  0.841117  0.481774  0.500047  1
  Na  Na22  1  0.000000  0.600000  0.000000  1
  Na  Na23  1  0.158883  0.718226  0.499953  1
  Na  Na24  1  0.499996  0.650002  0.499988  1
  Na  Na25  1  0.841092  0.581780  0.500019  1
  Na  Na26  1  0.999985  0.700003  -0.000000  1
  Na  Na27  1  0.158926  0.818246  0.499789  1
  Na  Na28  1  0.500021  0.750024  0.499869  1
  Na  Na29  1  0.841101  0.681785  0.499985  1
  Na  Na30  1  0.999832  0.800024  0.000018  1
  Na  Na31  1  0.159681  0.917433  0.505312  1
  Na  Na32  1  0.499999  0.850017  0.499862  1
  Na  Na33  1  0.841035  0.781810  0.499836  1
  Na  Na34  1  0.999742  0.900025  0.000234  1
  Na  Na35  1  0.494226  0.949607  0.503857  1
  Na  Na36  1  0.841175  0.881837  0.500098  1
  Na  Na37  1  0.838009  0.981587  0.505514  1
  Zr  Zr38  1  0.998519  0.000322  0.999920  1
  Zr  Zr39  1  0.331663  0.033596  0.000100  1
  Zr  Zr40  1  0.334193  0.133226  0.000056  1
  Zr  Zr41  1  0.665807  0.066773  0.999944  1
  Zr  Zr42  1  0.331141  0.233677  0.000402  1
  Zr  Zr43  1  0.668337  0.166404  0.999900  1
  Zr  Zr44  1  0.334385  0.333090  0.999897  1
  Zr  Zr45  1  0.670064  0.265926  0.999788  1
  Zr  Zr46  1  0.001481  0.199678  0.000080  1
  Zr  Zr47  1  0.332098  0.433565  0.000110  1
  Zr  Zr48  1  0.667983  0.366347  0.000237  1
  Zr  Zr49  1  0.332075  0.533584  0.000005  1
  Zr  Zr50  1  0.668033  0.466382  0.000028  1
  Zr  Zr51  1  0.332016  0.633599  0.999989  1
  Zr  Zr52  1  0.667984  0.566401  0.000011  1
  Zr  Zr53  1  0.331967  0.733618  0.999972  1
  Zr  Zr54  1  0.667925  0.666416  0.999995  1
  Zr  Zr55  1  0.332017  0.833653  0.999763  1
  Zr  Zr56  1  0.667902  0.766435  0.999890  1
  Zr  Zr57  1  0.329936  0.934074  0.000212  1
  Zr  Zr58  1  0.665615  0.866910  0.000103  1
  Zr  Zr59  1  0.668859  0.966323  0.999598  1
  S  S60  1  0.591638  0.011045  0.220902  1
  S  S61  1  0.280809  0.077549  0.224463  1
  S  S62  1  0.077029  0.055261  0.779042  1
  S  S63  1  0.565624  0.113723  0.224718  1
  S  S64  1  0.927681  0.041333  0.224648  1
  S  S65  1  0.263164  0.178049  0.219106  1
  S  S66  1  0.736836  0.021951  0.780894  1
  S  S67  1  0.072319  0.158667  0.775352  1
  S  S68  1  0.434376  0.086277  0.775282  1
  S  S69  1  0.592099  0.210889  0.221686  1
  S  S70  1  0.922971  0.144739  0.220958  1
  S  S71  1  0.287219  0.277177  0.222039  1
  S  S72  1  0.719191  0.122451  0.775537  1
  S  S73  1  0.077487  0.255157  0.779212  1
  S  S74  1  0.408362  0.188955  0.779098  1
  S  S75  1  0.564258  0.313602  0.223764  1
  S  S76  1  0.928390  0.241217  0.225112  1
  S  S77  1  0.286143  0.377796  0.221870  1
  S  S78  1  0.737055  0.221922  0.780837  1
  S  S79  1  0.074983  0.358220  0.777982  1
  S  S80  1  0.433835  0.286058  0.776278  1
  S  S81  1  0.564559  0.413863  0.222420  1
  S  S82  1  0.927242  0.341625  0.221952  1
  S  S83  1  0.286020  0.477814  0.221908  1
  S  S84  1  0.719091  0.321602  0.777633  1
  S  S85  1  0.074455  0.458331  0.777653  1
  S  S86  1  0.435717  0.385852  0.778697  1
  S  S87  1  0.564519  0.513876  0.222349  1
  S  S88  1  0.925568  0.441657  0.222420  1
  S  S89  1  0.286009  0.577816  0.221899  1
  S  S90  1  0.714197  0.422118  0.778295  1
  S  S91  1  0.074427  0.558339  0.777625  1
  S  S92  1  0.435521  0.486117  0.777638  1
  S  S93  1  0.564514  0.613877  0.222333  1
  S  S94  1  0.925561  0.541664  0.222362  1
  S  S95  1  0.286020  0.677815  0.221897  1
  S  S96  1  0.713980  0.522185  0.778103  1
  S  S97  1  0.074439  0.658336  0.777638  1
  S  S98  1  0.435486  0.586123  0.777667  1
  S  S99  1  0.564479  0.713883  0.222362  1
  S  S100  1  0.925573  0.641661  0.222375  1
  S  S101  1  0.285803  0.777882  0.221705  1
  S  S102  1  0.713991  0.622184  0.778101  1
  S  S103  1  0.074432  0.758343  0.777580  1
  S  S104  1  0.435481  0.686124  0.777651  1
  S  S105  1  0.564283  0.814148  0.221303  1
  S  S106  1  0.925545  0.741669  0.222347  1
  S  S107  1  0.280909  0.878398  0.222367  1
  S  S108  1  0.713980  0.722186  0.778092  1
  S  S109  1  0.072758  0.858375  0.778048  1
  S  S110  1  0.435441  0.786137  0.777580  1
  S  S111  1  0.566165  0.913942  0.223722  1
  S  S112  1  0.925017  0.841780  0.222018  1
  S  S113  1  0.262945  0.978078  0.219163  1
  S  S114  1  0.713857  0.822204  0.778130  1
  S  S115  1  0.071610  0.958783  0.774888  1
  S  S116  1  0.435742  0.886398  0.776236  1
  S  S117  1  0.922513  0.944843  0.220788  1
  S  S118  1  0.712781  0.922823  0.777961  1
  S  S119  1  0.407901  0.989111  0.778314  1
