# generated using pymatgen
data_Na3Zr2Si2PO12
_symmetry_space_group_name_H-M   'P 1'
_cell_length_a   9.15343862
_cell_length_b   9.17219113
_cell_length_c   18.59320519
_cell_angle_alpha   61.50131066
_cell_angle_beta   61.43161588
_cell_angle_gamma   59.98211895
_symmetry_Int_Tables_number   1
_chemical_formula_structural   Na3Zr2Si2PO12
_chemical_formula_sum   'Na12 Zr8 Si8 P4 O48'
_cell_volume   1127.49338704
_cell_formula_units_Z   4
loop_
 _symmetry_equiv_pos_site_id
 _symmetry_equiv_pos_as_xyz
  1  'x, y, z'
loop_
 _atom_site_type_symbol
 _atom_site_label
 _atom_site_symmetry_multiplicity
 _atom_site_fract_x
 _atom_site_fract_y
 _atom_site_fract_z
 _atom_site_occupancy
  Na  Na0  1  0.271855  0.075528  0.191531  1
  Na  Na1  1  0.057545  0.312459  0.462677  1
  Na  Na2  1  0.570468  0.978830  0.265029  1
  Na  Na3  1  0.601704  0.398072  0.126528  1
  Na  Na4  1  0.312425  0.057596  0.714541  1
  Na  Na5  1  0.384685  0.603579  0.378858  1
  Na  Na6  1  0.055218  0.312975  0.963833  1
  Na  Na7  1  0.948594  0.684913  0.035811  1
  Na  Na8  1  0.601851  0.394897  0.626579  1
  Na  Na9  1  0.386784  0.607675  0.877510  1
  Na  Na10  1  0.946302  0.687860  0.534929  1
  Na  Na11  1  0.684805  0.948952  0.786666  1
  Zr  Zr12  1  0.149108  0.649952  0.281076  1
  Zr  Zr13  1  0.644760  0.144013  0.028891  1
  Zr  Zr14  1  0.154465  0.647957  0.779599  1
  Zr  Zr15  1  0.350922  0.852270  0.470131  1
  Zr  Zr16  1  0.645814  0.143358  0.527962  1
  Zr  Zr17  1  0.849965  0.350901  0.221918  1
  Zr  Zr18  1  0.347505  0.851721  0.971490  1
  Zr  Zr19  1  0.857047  0.349015  0.719902  1
  Si  Si20  1  0.249362  0.469759  0.120042  1
  Si  Si21  1  0.047074  0.955919  0.375152  1
  Si  Si22  1  0.471769  0.247312  0.366447  1
  Si  Si23  1  0.527221  0.752010  0.132103  1
  Si  Si24  1  0.249364  0.473415  0.617546  1
  Si  Si25  1  0.043379  0.955204  0.875555  1
  Si  Si26  1  0.472806  0.246336  0.867624  1
  Si  Si27  1  0.528590  0.751201  0.631199  1
  P  P28  1  0.953536  0.041864  0.126921  1
  P  P29  1  0.752450  0.529978  0.380734  1
  P  P30  1  0.956459  0.043619  0.624905  1
  P  P31  1  0.752775  0.526943  0.881300  1
  O  O32  1  0.106336  0.008789  0.042604  1
  O  O33  1  0.997308  0.121753  0.290977  1
  O  O34  1  0.071505  0.430401  0.144616  1
  O  O35  1  0.267441  0.630255  0.027091  1
  O  O36  1  0.111115  0.006849  0.542721  1
  O  O37  1  0.424131  0.285054  0.114633  1
  O  O38  1  0.242036  0.526499  0.192948  1
  O  O39  1  0.066913  0.766652  0.375979  1
  O  O40  1  0.007437  0.119671  0.788490  1
  O  O41  1  0.286290  0.419892  0.361157  1
  O  O42  1  0.433586  0.069472  0.392526  1
  O  O43  1  0.068538  0.437453  0.643904  1
  O  O44  1  0.474884  0.758802  0.057524  1
  O  O45  1  0.774101  0.068568  0.124777  1
  O  O46  1  0.362006  0.739971  0.222872  1
  O  O47  1  0.630157  0.273179  0.274069  1
  O  O48  1  0.241940  0.932631  0.370972  1
  O  O49  1  0.522461  0.245077  0.440831  1
  O  O50  1  0.263605  0.636097  0.525647  1
  O  O51  1  0.558400  0.933466  0.109037  1
  O  O52  1  0.711762  0.581281  0.138447  1
  O  O53  1  0.424736  0.291562  0.610390  1
  O  O54  1  0.241449  0.527425  0.691976  1
  O  O55  1  0.937970  0.220898  0.125572  1
  O  O56  1  0.062591  0.767390  0.875132  1
  O  O57  1  0.755188  0.481566  0.310429  1
  O  O58  1  0.589370  0.704678  0.386214  1
  O  O59  1  0.287484  0.418187  0.860812  1
  O  O60  1  0.437737  0.065264  0.895870  1
  O  O61  1  0.733725  0.379022  0.467965  1
  O  O62  1  0.476829  0.754238  0.557336  1
  O  O63  1  0.777058  0.069937  0.623384  1
  O  O64  1  0.364797  0.737589  0.723085  1
  O  O65  1  0.636248  0.262039  0.776332  1
  O  O66  1  0.235216  0.928747  0.875742  1
  O  O67  1  0.520255  0.248731  0.941903  1
  O  O68  1  0.924967  0.557850  0.356004  1
  O  O69  1  0.561681  0.931994  0.605882  1
  O  O70  1  0.711251  0.578213  0.639672  1
  O  O71  1  0.992636  0.888477  0.207088  1
  O  O72  1  0.939775  0.222156  0.624321  1
  O  O73  1  0.754759  0.478312  0.811564  1
  O  O74  1  0.589499  0.701271  0.888695  1
  O  O75  1  0.887151  0.994939  0.463145  1
  O  O76  1  0.737937  0.375106  0.968470  1
  O  O77  1  0.923218  0.561398  0.855093  1
  O  O78  1  0.989633  0.890478  0.707663  1
  O  O79  1  0.880580  0.993741  0.962804  1
