# generated using pymatgen
data_Gd(FeGe)2
_symmetry_space_group_name_H-M   'P 1'
_cell_length_a   3.97505737
_cell_length_b   3.98526877
_cell_length_c   6.03221665
_cell_angle_alpha   108.84716319
_cell_angle_beta   109.36278711
_cell_angle_gamma   89.96543266
_symmetry_Int_Tables_number   1
_chemical_formula_structural   Gd(FeGe)2
_chemical_formula_sum   'Gd1 Fe2 Ge2'
_cell_volume   84.71236766
_cell_formula_units_Z   1
loop_
 _symmetry_equiv_pos_site_id
 _symmetry_equiv_pos_as_xyz
  1  'x, y, z'
loop_
 _atom_site_type_symbol
 _atom_site_label
 _atom_site_symmetry_multiplicity
 _atom_site_fract_x
 _atom_site_fract_y
 _atom_site_fract_z
 _atom_site_occupancy
  Gd  Gd0  1  0.992699  0.002711  0.000742  1
  Fe  Fe1  1  0.246150  0.760563  0.500681  1
  Fe  Fe2  1  0.739839  0.243211  0.499827  1
  Ge  Ge3  1  0.372967  0.388552  0.763443  1
  Ge  Ge4  1  0.612689  0.615553  0.237033  1
