# generated using pymatgen
data_SrB8O13
_symmetry_space_group_name_H-M   'P 1'
_cell_length_a   8.49758766
_cell_length_b   14.05763750
_cell_length_c   16.85018031
_cell_angle_alpha   90.00000000
_cell_angle_beta   90.00000000
_cell_angle_gamma   106.43102402
_symmetry_Int_Tables_number   1
_chemical_formula_structural   SrB8O13
_chemical_formula_sum   'Sr8 B64 O104'
_cell_volume   1930.65216817
_cell_formula_units_Z   8
loop_
 _symmetry_equiv_pos_site_id
 _symmetry_equiv_pos_as_xyz
  1  'x, y, z'
loop_
 _atom_site_type_symbol
 _atom_site_label
 _atom_site_symmetry_multiplicity
 _atom_site_fract_x
 _atom_site_fract_y
 _atom_site_fract_z
 _atom_site_occupancy
  Sr  Sr0  1  0.511147  0.279809  0.501489  1
  Sr  Sr1  1  0.511147  0.779809  0.998511  1
  Sr  Sr2  1  0.096089  0.958298  0.742534  1
  Sr  Sr3  1  0.488853  0.720191  0.498511  1
  Sr  Sr4  1  0.488853  0.220191  0.001489  1
  Sr  Sr5  1  0.096089  0.458298  0.757466  1
  Sr  Sr6  1  0.903911  0.041702  0.257466  1
  Sr  Sr7  1  0.903911  0.541702  0.242534  1
  B  B8  1  0.429797  0.525444  0.900605  1
  B  B9  1  0.774883  0.315246  0.345412  1
  B  B10  1  0.267363  0.269545  0.214924  1
  B  B11  1  0.929022  0.386079  0.465131  1
  B  B12  1  0.225117  0.184754  0.845412  1
  B  B13  1  0.949737  0.554261  0.913011  1
  B  B14  1  0.388171  0.384227  0.316483  1
  B  B15  1  0.941689  0.844045  0.524978  1
  B  B16  1  0.829977  0.259568  0.850978  1
  B  B17  1  0.704015  0.751378  0.285496  1
  B  B18  1  0.170023  0.740432  0.149022  1
  B  B19  1  0.245552  0.144751  0.587925  1
  B  B20  1  0.610149  0.137367  0.329951  1
  B  B21  1  0.659655  0.465019  0.875302  1
  B  B22  1  0.070978  0.113921  0.965131  1
  B  B23  1  0.451508  0.971432  0.891908  1
  B  B24  1  0.276719  0.024462  0.153165  1
  B  B25  1  0.732637  0.230455  0.714924  1
  B  B26  1  0.845515  0.602730  0.446001  1
  B  B27  1  0.170023  0.240432  0.350978  1
  B  B28  1  0.949737  0.054261  0.586989  1
  B  B29  1  0.058311  0.155955  0.475022  1
  B  B30  1  0.389851  0.862633  0.670049  1
  B  B31  1  0.611829  0.615773  0.683517  1
  B  B32  1  0.704015  0.251378  0.214504  1
  B  B33  1  0.867790  0.848972  0.890710  1
  B  B34  1  0.659655  0.965019  0.624698  1
  B  B35  1  0.754448  0.855249  0.412075  1
  B  B36  1  0.429797  0.025444  0.599395  1
  B  B37  1  0.732637  0.730455  0.785076  1
  B  B38  1  0.154485  0.897270  0.946001  1
  B  B39  1  0.245552  0.644751  0.912075  1
  B  B40  1  0.774883  0.815246  0.154588  1
  B  B41  1  0.070978  0.613921  0.534869  1
  B  B42  1  0.132210  0.651028  0.390710  1
  B  B43  1  0.754448  0.355249  0.087925  1
  B  B44  1  0.611829  0.115773  0.816483  1
  B  B45  1  0.389851  0.362633  0.829951  1
  B  B46  1  0.267363  0.769545  0.285076  1
  B  B47  1  0.929022  0.886079  0.034869  1
  B  B48  1  0.451508  0.471432  0.608092  1
  B  B49  1  0.867790  0.348972  0.609290  1
  B  B50  1  0.570203  0.974556  0.400605  1
  B  B51  1  0.276719  0.524462  0.346835  1
  B  B52  1  0.058311  0.655955  0.024978  1
  B  B53  1  0.295985  0.248622  0.714504  1
  B  B54  1  0.941689  0.344045  0.975022  1
  B  B55  1  0.610149  0.637367  0.170049  1
  B  B56  1  0.154485  0.397270  0.553999  1
  B  B57  1  0.295985  0.748622  0.785496  1
  B  B58  1  0.845515  0.102730  0.053999  1
  B  B59  1  0.132210  0.151028  0.109290  1
  B  B60  1  0.340345  0.034981  0.375302  1
  B  B61  1  0.829977  0.759568  0.649022  1
  B  B62  1  0.723281  0.975538  0.846835  1
  B  B63  1  0.570203  0.474556  0.099395  1
  B  B64  1  0.050263  0.945739  0.413011  1
  B  B65  1  0.548492  0.528568  0.391908  1
  B  B66  1  0.225117  0.684754  0.654588  1
  B  B67  1  0.050263  0.445739  0.086989  1
  B  B68  1  0.388171  0.884227  0.183517  1
  B  B69  1  0.548492  0.028568  0.108092  1
  B  B70  1  0.340345  0.534981  0.124698  1
  B  B71  1  0.723281  0.475538  0.653165  1
  O  O72  1  0.677634  0.577724  0.439856  1
  O  O73  1  0.586300  0.433547  0.603576  1
  O  O74  1  0.413700  0.066453  0.103576  1
  O  O75  1  0.049786  0.859239  0.884757  1
  O  O76  1  0.591888  0.028817  0.584194  1
  O  O77  1  0.668343  0.051634  0.356113  1
  O  O78  1  0.095567  0.411853  0.479157  1
  O  O79  1  0.924650  0.093435  0.514198  1
  O  O80  1  0.453107  0.055749  0.851351  1
  O  O81  1  0.690083  0.694205  0.621808  1
  O  O82  1  0.819288  0.355933  0.524935  1
  O  O83  1  0.725309  0.555634  0.697544  1
  O  O84  1  0.274691  0.444366  0.302456  1
  O  O85  1  0.226707  0.667136  0.735384  1
  O  O86  1  0.100646  0.075503  0.622609  1
  O  O87  1  0.959633  0.814709  0.602090  1
  O  O88  1  0.773293  0.832864  0.235384  1
  O  O89  1  0.322366  0.922276  0.939856  1
  O  O90  1  0.100646  0.575503  0.877391  1
  O  O91  1  0.407057  0.336439  0.241606  1
  O  O92  1  0.829756  0.985027  0.627475  1
  O  O93  1  0.206913  0.184849  0.510734  1
  O  O94  1  0.075350  0.406565  0.014198  1
  O  O95  1  0.592943  0.163561  0.741606  1
  O  O96  1  0.758299  0.756012  0.863069  1
  O  O97  1  0.899354  0.924497  0.377391  1
  O  O98  1  0.829756  0.485027  0.872525  1
  O  O99  1  0.309917  0.805795  0.121808  1
  O  O100  1  0.309917  0.305795  0.378192  1
  O  O101  1  0.959633  0.314709  0.897910  1
  O  O102  1  0.331657  0.448366  0.856113  1
  O  O103  1  0.664633  0.657251  0.253506  1
  O  O104  1  0.848721  0.932620  0.842208  1
  O  O105  1  0.567788  0.883061  0.662675  1
  O  O106  1  0.546893  0.444251  0.351351  1
  O  O107  1  0.170244  0.014973  0.372525  1
  O  O108  1  0.950214  0.140761  0.115243  1
  O  O109  1  0.592943  0.663561  0.758394  1
  O  O110  1  0.408112  0.971183  0.415806  1
  O  O111  1  0.875696  0.892738  0.111706  1
  O  O112  1  0.413700  0.566453  0.396424  1
  O  O113  1  0.432212  0.616939  0.162675  1
  O  O114  1  0.685439  0.766280  0.363623  1
  O  O115  1  0.335367  0.842749  0.753506  1
  O  O116  1  0.620632  0.898068  0.431101  1
  O  O117  1  0.586300  0.933547  0.896424  1
  O  O118  1  0.180712  0.144067  0.024935  1
  O  O119  1  0.140943  0.723567  0.230017  1
  O  O120  1  0.206913  0.684849  0.989266  1
  O  O121  1  0.904433  0.088147  0.979157  1
  O  O122  1  0.950214  0.640761  0.384757  1
  O  O123  1  0.819288  0.855933  0.975065  1
  O  O124  1  0.432212  0.116939  0.337325  1
  O  O125  1  0.686512  0.728911  0.119878  1
  O  O126  1  0.875696  0.392738  0.388294  1
  O  O127  1  0.793087  0.315151  0.010734  1
  O  O128  1  0.170244  0.514973  0.127475  1
  O  O129  1  0.124304  0.607262  0.611706  1
  O  O130  1  0.241701  0.743988  0.363069  1
  O  O131  1  0.124304  0.107262  0.888294  1
  O  O132  1  0.859057  0.776433  0.730017  1
  O  O133  1  0.848721  0.432620  0.657792  1
  O  O134  1  0.151279  0.567380  0.342208  1
  O  O135  1  0.408112  0.471183  0.084194  1
  O  O136  1  0.140943  0.223567  0.269983  1
  O  O137  1  0.546893  0.944251  0.148649  1
  O  O138  1  0.690083  0.194205  0.878192  1
  O  O139  1  0.331657  0.948366  0.643887  1
  O  O140  1  0.567788  0.383061  0.837325  1
  O  O141  1  0.899354  0.424497  0.122609  1
  O  O142  1  0.758299  0.256012  0.636931  1
  O  O143  1  0.924650  0.593435  0.985802  1
  O  O144  1  0.314561  0.233720  0.636377  1
  O  O145  1  0.685439  0.266280  0.136377  1
  O  O146  1  0.773293  0.332864  0.264616  1
  O  O147  1  0.793087  0.815151  0.489266  1
  O  O148  1  0.686512  0.228911  0.380122  1
  O  O149  1  0.677634  0.077724  0.060144  1
  O  O150  1  0.591888  0.528817  0.915806  1
  O  O151  1  0.049786  0.359239  0.615243  1
  O  O152  1  0.040367  0.185291  0.397910  1
  O  O153  1  0.095567  0.911853  0.020843  1
  O  O154  1  0.313488  0.771089  0.619878  1
  O  O155  1  0.075350  0.906565  0.485802  1
  O  O156  1  0.180712  0.644067  0.475065  1
  O  O157  1  0.335367  0.342749  0.746494  1
  O  O158  1  0.379368  0.101932  0.568899  1
  O  O159  1  0.226707  0.167136  0.764616  1
  O  O160  1  0.407057  0.836439  0.258394  1
  O  O161  1  0.725309  0.055634  0.802456  1
  O  O162  1  0.904433  0.588147  0.520843  1
  O  O163  1  0.859057  0.276433  0.769983  1
  O  O164  1  0.313488  0.271089  0.880122  1
  O  O165  1  0.040367  0.685291  0.102090  1
  O  O166  1  0.274691  0.944366  0.197544  1
  O  O167  1  0.322366  0.422276  0.560144  1
  O  O168  1  0.664633  0.157251  0.246494  1
  O  O169  1  0.379368  0.601932  0.931101  1
  O  O170  1  0.314561  0.733720  0.863623  1
  O  O171  1  0.620632  0.398068  0.068899  1
  O  O172  1  0.151279  0.067380  0.157792  1
  O  O173  1  0.668343  0.551634  0.143887  1
  O  O174  1  0.241701  0.243988  0.136932  1
  O  O175  1  0.453107  0.555749  0.648649  1
