# generated using pymatgen
data_Ce(FeP)2
_symmetry_space_group_name_H-M   'P 1'
_cell_length_a   3.77204060
_cell_length_b   3.77204060
_cell_length_c   6.66065607
_cell_angle_alpha   106.33263610
_cell_angle_beta   106.33263610
_cell_angle_gamma   89.98295922
_symmetry_Int_Tables_number   1
_chemical_formula_structural   Ce(FeP)2
_chemical_formula_sum   'Ce1 Fe2 P2'
_cell_volume   86.95531214
_cell_formula_units_Z   1
loop_
 _symmetry_equiv_pos_site_id
 _symmetry_equiv_pos_as_xyz
  1  'x, y, z'
loop_
 _atom_site_type_symbol
 _atom_site_label
 _atom_site_symmetry_multiplicity
 _atom_site_fract_x
 _atom_site_fract_y
 _atom_site_fract_z
 _atom_site_occupancy
  Ce  Ce0  1  0.000000  0.000000  0.000000  1
  Fe  Fe1  1  0.750078  0.249922  0.500000  1
  Fe  Fe2  1  0.249922  0.750078  0.500000  1
  P  P3  1  0.383085  0.383085  0.768044  1
  P  P4  1  0.616915  0.616915  0.231956  1
