# generated using pymatgen
data_LaGa6
_symmetry_space_group_name_H-M   'P 1'
_cell_length_a   6.10957107
_cell_length_b   6.10962977
_cell_length_c   7.76445206
_cell_angle_alpha   89.99956574
_cell_angle_beta   89.99729801
_cell_angle_gamma   90.00428049
_symmetry_Int_Tables_number   1
_chemical_formula_structural   LaGa6
_chemical_formula_sum   'La2 Ga12'
_cell_volume   289.82538816
_cell_formula_units_Z   2
loop_
 _symmetry_equiv_pos_site_id
 _symmetry_equiv_pos_as_xyz
  1  'x, y, z'
loop_
 _atom_site_type_symbol
 _atom_site_label
 _atom_site_symmetry_multiplicity
 _atom_site_fract_x
 _atom_site_fract_y
 _atom_site_fract_z
 _atom_site_occupancy
  La  La0  1  0.000174  0.499944  0.000002  1
  La  La1  1  0.499889  0.000078  0.000092  1
  Ga  Ga2  1  0.500049  0.500069  0.161504  1
  Ga  Ga3  1  0.999960  0.999921  0.838480  1
  Ga  Ga4  1  0.500054  0.500049  0.838539  1
  Ga  Ga5  1  0.999849  -0.000088  0.161411  1
  Ga  Ga6  1  0.200750  0.700796  0.347518  1
  Ga  Ga7  1  0.799277  0.299232  0.347441  1
  Ga  Ga8  1  0.700637  0.200780  0.652482  1
  Ga  Ga9  1  0.299202  0.799247  0.652463  1
  Ga  Ga10  1  0.200779  0.299255  0.652578  1
  Ga  Ga11  1  0.799419  0.700675  0.652503  1
  Ga  Ga12  1  0.700798  0.799289  0.347502  1
  Ga  Ga13  1  0.299163  0.200752  0.347486  1
