# generated using pymatgen
data_SrH4O3
_symmetry_space_group_name_H-M   'P 1'
_cell_length_a   3.69473907
_cell_length_b   6.20974867
_cell_length_c   6.84351082
_cell_angle_alpha   90.00000000
_cell_angle_beta   90.00000000
_cell_angle_gamma   90.17987840
_symmetry_Int_Tables_number   1
_chemical_formula_structural   SrH4O3
_chemical_formula_sum   'Sr2 H8 O6'
_cell_volume   157.01263942
_cell_formula_units_Z   2
loop_
 _symmetry_equiv_pos_site_id
 _symmetry_equiv_pos_as_xyz
  1  'x, y, z'
loop_
 _atom_site_type_symbol
 _atom_site_label
 _atom_site_symmetry_multiplicity
 _atom_site_fract_x
 _atom_site_fract_y
 _atom_site_fract_z
 _atom_site_occupancy
  Sr  Sr0  1  0.007462  0.622027  0.754249  1
  Sr  Sr1  1  0.992538  0.377973  0.254249  1
  H  H2  1  0.214259  0.118659  0.820586  1
  H  H3  1  0.794825  0.112877  0.832567  1
  H  H4  1  0.785741  0.881341  0.320586  1
  H  H5  1  0.205175  0.887123  0.332567  1
  H  H6  1  0.551142  0.946696  0.603520  1
  H  H7  1  0.448858  0.053304  0.103520  1
  H  H8  1  0.497810  0.290780  0.592599  1
  H  H9  1  0.502190  0.709220  0.092599  1
  O  O10  1  0.007413  0.206787  0.874592  1
  O  O11  1  0.992587  0.793213  0.374592  1
  O  O12  1  0.513226  0.930943  0.743557  1
  O  O13  1  0.486774  0.069057  0.243557  1
  O  O14  1  0.501280  0.436250  0.537932  1
  O  O15  1  0.498720  0.563750  0.037932  1
