# generated using pymatgen
data_Os6C17SO17
_symmetry_space_group_name_H-M   'P 1'
_cell_length_a   11.52231407
_cell_length_b   14.27906533
_cell_length_c   16.70149904
_cell_angle_alpha   90.00000000
_cell_angle_beta   90.00000000
_cell_angle_gamma   90.00000000
_symmetry_Int_Tables_number   1
_chemical_formula_structural   Os6C17SO17
_chemical_formula_sum   'Os24 C68 S4 O68'
_cell_volume   2747.86215235
_cell_formula_units_Z   4
loop_
 _symmetry_equiv_pos_site_id
 _symmetry_equiv_pos_as_xyz
  1  'x, y, z'
loop_
 _atom_site_type_symbol
 _atom_site_label
 _atom_site_symmetry_multiplicity
 _atom_site_fract_x
 _atom_site_fract_y
 _atom_site_fract_z
 _atom_site_occupancy
  Os  Os0  1  0.894249  0.149240  0.127229  1
  Os  Os1  1  0.444416  0.652458  0.046610  1
  Os  Os2  1  0.394249  0.149240  0.372771  1
  Os  Os3  1  0.518657  0.736315  0.481752  1
  Os  Os4  1  0.798789  0.145403  0.890256  1
  Os  Os5  1  0.481343  0.236315  0.518248  1
  Os  Os6  1  0.981343  0.236315  0.981752  1
  Os  Os7  1  0.701211  0.645403  0.390256  1
  Os  Os8  1  0.739524  0.263568  0.026066  1
  Os  Os9  1  0.783483  0.562446  0.539708  1
  Os  Os10  1  0.216517  0.062446  0.460292  1
  Os  Os11  1  0.283483  0.562446  0.960292  1
  Os  Os12  1  0.760476  0.763568  0.526066  1
  Os  Os13  1  0.201211  0.645403  0.109744  1
  Os  Os14  1  0.944416  0.652458  0.453390  1
  Os  Os15  1  0.105751  0.649240  0.872771  1
  Os  Os16  1  0.260476  0.763568  0.973934  1
  Os  Os17  1  0.605751  0.649240  0.627229  1
  Os  Os18  1  0.298789  0.145403  0.609744  1
  Os  Os19  1  0.555584  0.152458  0.953390  1
  Os  Os20  1  0.018657  0.736315  0.018248  1
  Os  Os21  1  0.716517  0.062446  0.039708  1
  Os  Os22  1  0.239524  0.263568  0.473934  1
  Os  Os23  1  0.055584  0.152458  0.546610  1
  C  C24  1  0.830829  0.855384  0.457447  1
  C  C25  1  0.930895  0.127587  0.821897  1
  C  C26  1  0.516640  0.740069  0.118573  1
  C  C27  1  0.483363  0.047180  0.907589  1
  C  C28  1  0.370378  0.759936  0.888318  1
  C  C29  1  0.765241  0.734959  0.317419  1
  C  C30  1  0.734759  0.234959  0.817419  1
  C  C31  1  0.814860  0.438681  0.509408  1
  C  C32  1  0.185140  0.938681  0.490592  1
  C  C33  1  0.430895  0.127587  0.678103  1
  C  C34  1  0.358779  0.232951  0.287482  1
  C  C35  1  0.961640  0.337956  0.909861  1
  C  C36  1  0.569105  0.627587  0.321897  1
  C  C37  1  0.629622  0.259936  0.111682  1
  C  C38  1  0.060967  0.303818  0.063504  1
  C  C39  1  0.123409  0.194129  0.935984  1
  C  C40  1  0.345517  0.046183  0.309604  1
  C  C41  1  0.461640  0.337956  0.590139  1
  C  C42  1  0.314860  0.438681  0.990592  1
  C  C43  1  0.169171  0.355384  0.542553  1
  C  C44  1  0.538360  0.837956  0.409861  1
  C  C45  1  0.623409  0.194129  0.564016  1
  C  C46  1  0.569769  0.659078  0.974660  1
  C  C47  1  0.817822  0.366066  0.077125  1
  C  C48  1  0.669171  0.355384  0.957447  1
  C  C49  1  0.947683  0.631810  0.841136  1
  C  C50  1  0.483360  0.240069  0.881427  1
  C  C51  1  0.773278  0.539028  0.340995  1
  C  C52  1  0.685140  0.938681  0.009408  1
  C  C53  1  0.682178  0.866066  0.577125  1
  C  C54  1  0.870378  0.759936  0.611682  1
  C  C55  1  0.016637  0.547180  0.407589  1
  C  C56  1  0.447683  0.631810  0.658864  1
  C  C57  1  0.234759  0.234959  0.682581  1
  C  C58  1  0.129622  0.259936  0.388318  1
  C  C59  1  0.265241  0.734959  0.182581  1
  C  C60  1  0.317822  0.366066  0.422875  1
  C  C61  1  0.388728  0.543823  0.876190  1
  C  C62  1  0.560967  0.303818  0.436496  1
  C  C63  1  0.330829  0.855384  0.042553  1
  C  C64  1  0.858779  0.232951  0.212518  1
  C  C65  1  0.430231  0.159078  0.025340  1
  C  C66  1  0.052317  0.131810  0.158864  1
  C  C67  1  0.016640  0.740069  0.381427  1
  C  C68  1  0.516637  0.547180  0.092411  1
  C  C69  1  0.888728  0.543823  0.623810  1
  C  C70  1  0.141221  0.732951  0.787482  1
  C  C71  1  0.226722  0.039028  0.659005  1
  C  C72  1  0.726722  0.039028  0.840995  1
  C  C73  1  0.273278  0.539028  0.159005  1
  C  C74  1  0.611272  0.043823  0.123810  1
  C  C75  1  0.552317  0.131810  0.341136  1
  C  C76  1  0.439033  0.803818  0.563504  1
  C  C77  1  0.154483  0.546183  0.809604  1
  C  C78  1  0.654483  0.546183  0.690396  1
  C  C79  1  0.939033  0.803818  0.936496  1
  C  C80  1  0.069769  0.659078  0.525340  1
  C  C81  1  0.845517  0.046183  0.190396  1
  C  C82  1  0.641221  0.732951  0.712518  1
  C  C83  1  0.182178  0.866066  0.922875  1
  C  C84  1  0.111272  0.043823  0.376190  1
  C  C85  1  0.069105  0.627587  0.178103  1
  C  C86  1  0.983360  0.240069  0.618573  1
  C  C87  1  0.983363  0.047180  0.592411  1
  C  C88  1  0.930231  0.159078  0.474660  1
  C  C89  1  0.876591  0.694129  0.064016  1
  C  C90  1  0.038360  0.837956  0.090139  1
  C  C91  1  0.376591  0.694129  0.435984  1
  S  S92  1  0.418069  0.067791  0.502583  1
  S  S93  1  0.581931  0.567791  0.497417  1
  S  S94  1  0.081931  0.567791  0.002583  1
  S  S95  1  0.918069  0.067791  0.997417  1
  O  O96  1  0.708126  0.167005  0.593886  1
  O  O97  1  0.947820  0.401086  0.867062  1
  O  O98  1  0.331898  0.281639  0.235058  1
  O  O99  1  0.354092  0.433228  0.392379  1
  O  O100  1  0.628306  0.418120  0.923093  1
  O  O101  1  0.437465  0.290352  0.836936  1
  O  O102  1  0.390837  0.849709  0.610502  1
  O  O103  1  0.645442  0.659364  0.928942  1
  O  O104  1  0.993103  0.613939  0.222185  1
  O  O105  1  0.854092  0.433228  0.107621  1
  O  O106  1  0.668102  0.781639  0.764942  1
  O  O107  1  0.168102  0.781639  0.735058  1
  O  O108  1  0.662920  0.861506  0.991316  1
  O  O109  1  0.699894  0.287443  0.770195  1
  O  O110  1  0.837080  0.361506  0.491316  1
  O  O111  1  0.063310  0.481765  0.381301  1
  O  O112  1  0.563310  0.481765  0.118699  1
  O  O113  1  0.062535  0.790352  0.336936  1
  O  O114  1  0.300106  0.787443  0.229805  1
  O  O115  1  0.800106  0.787443  0.270195  1
  O  O116  1  0.447820  0.401086  0.632938  1
  O  O117  1  0.871694  0.918120  0.423093  1
  O  O118  1  0.371694  0.918120  0.076907  1
  O  O119  1  0.937465  0.290352  0.663064  1
  O  O120  1  0.810296  0.474684  0.307375  1
  O  O121  1  0.851440  0.620049  0.823647  1
  O  O122  1  0.208126  0.167005  0.906114  1
  O  O123  1  0.068033  0.261515  0.333171  1
  O  O124  1  0.826003  0.985014  0.234035  1
  O  O125  1  0.351440  0.620049  0.676353  1
  O  O126  1  0.493103  0.613939  0.277815  1
  O  O127  1  0.145908  0.933228  0.892379  1
  O  O128  1  0.173997  0.485014  0.765965  1
  O  O129  1  0.128306  0.418120  0.576907  1
  O  O130  1  0.046681  0.030593  0.323559  1
  O  O131  1  0.689704  0.974684  0.807375  1
  O  O132  1  0.645908  0.933228  0.607621  1
  O  O133  1  0.354558  0.159364  0.071058  1
  O  O134  1  0.199894  0.287443  0.729805  1
  O  O135  1  0.506897  0.113939  0.722185  1
  O  O136  1  0.791874  0.667005  0.093886  1
  O  O137  1  0.936690  0.981765  0.618699  1
  O  O138  1  0.436690  0.981765  0.881301  1
  O  O139  1  0.552180  0.901086  0.367062  1
  O  O140  1  0.431967  0.761515  0.833171  1
  O  O141  1  0.854558  0.159364  0.428942  1
  O  O142  1  0.953319  0.530593  0.676441  1
  O  O143  1  0.673997  0.485014  0.734035  1
  O  O144  1  0.609163  0.349709  0.389498  1
  O  O145  1  0.831898  0.281639  0.264942  1
  O  O146  1  0.546681  0.030593  0.176441  1
  O  O147  1  0.145442  0.659364  0.571058  1
  O  O148  1  0.562535  0.790352  0.163064  1
  O  O149  1  0.148560  0.120049  0.176353  1
  O  O150  1  0.291874  0.667005  0.406114  1
  O  O151  1  0.006897  0.113939  0.777815  1
  O  O152  1  0.310296  0.474684  0.192625  1
  O  O153  1  0.109163  0.349709  0.110502  1
  O  O154  1  0.648560  0.120049  0.323647  1
  O  O155  1  0.453319  0.530593  0.823559  1
  O  O156  1  0.189704  0.974684  0.692625  1
  O  O157  1  0.931967  0.761515  0.666829  1
  O  O158  1  0.162920  0.861506  0.508684  1
  O  O159  1  0.326003  0.985014  0.265965  1
  O  O160  1  0.890837  0.849709  0.889498  1
  O  O161  1  0.337080  0.361506  0.008684  1
  O  O162  1  0.052180  0.901086  0.132938  1
  O  O163  1  0.568033  0.261515  0.166829  1
