# generated using pymatgen
data_TaTcPb2
_symmetry_space_group_name_H-M   'P 1'
_cell_length_a   4.92538338
_cell_length_b   4.93708546
_cell_length_c   4.93437360
_cell_angle_alpha   59.92971889
_cell_angle_beta   59.79619949
_cell_angle_gamma   59.86212889
_symmetry_Int_Tables_number   1
_chemical_formula_structural   TaTcPb2
_chemical_formula_sum   'Ta1 Tc1 Pb2'
_cell_volume   84.58067594
_cell_formula_units_Z   1
loop_
 _symmetry_equiv_pos_site_id
 _symmetry_equiv_pos_as_xyz
  1  'x, y, z'
loop_
 _atom_site_type_symbol
 _atom_site_label
 _atom_site_symmetry_multiplicity
 _atom_site_fract_x
 _atom_site_fract_y
 _atom_site_fract_z
 _atom_site_occupancy
  Ta  Ta0  1  0.497494  0.500589  0.499899  1
  Tc  Tc1  1  0.752285  0.749634  0.749464  1
  Pb  Pb2  1  0.001092  0.999278  0.000609  1
  Pb  Pb3  1  0.249129  0.250498  0.250027  1
