# generated using pymatgen
data_V2O5
_symmetry_space_group_name_H-M   'P 1'
_cell_length_a   2.89733552
_cell_length_b   5.79764255
_cell_length_c   11.27258679
_cell_angle_alpha   90.00000000
_cell_angle_beta   90.00000000
_cell_angle_gamma   90.00000000
_symmetry_Int_Tables_number   1
_chemical_formula_structural   V2O5
_chemical_formula_sum   'V4 O10'
_cell_volume   189.35370802
_cell_formula_units_Z   2
loop_
 _symmetry_equiv_pos_site_id
 _symmetry_equiv_pos_as_xyz
  1  'x, y, z'
loop_
 _atom_site_type_symbol
 _atom_site_label
 _atom_site_symmetry_multiplicity
 _atom_site_fract_x
 _atom_site_fract_y
 _atom_site_fract_z
 _atom_site_occupancy
  V  V0  1  0.750000  0.850240  0.408006  1
  V  V1  1  0.750000  0.850240  0.091994  1
  V  V2  1  0.250000  0.149778  0.592009  1
  V  V3  1  0.250000  0.149778  0.907991  1
  O  O4  1  0.750000  0.904348  0.925023  1
  O  O5  1  0.250000  0.095668  0.425030  1
  O  O6  1  0.250000  0.095668  0.074970  1
  O  O7  1  0.750000  0.904348  0.574977  1
  O  O8  1  0.750000  0.341646  0.909001  1
  O  O9  1  0.250000  0.658360  0.409046  1
  O  O10  1  0.250000  0.658360  0.090954  1
  O  O11  1  0.750000  0.341646  0.590999  1
  O  O12  1  0.750000  0.908120  0.250000  1
  O  O13  1  0.250000  0.091799  0.750000  1
