# generated using pymatgen
data_Fe2Te2Ru2(CO)11
_symmetry_space_group_name_H-M   'P 1'
_cell_length_a   6.89685319
_cell_length_b   16.17558022
_cell_length_c   17.87718505
_cell_angle_alpha   90.00000000
_cell_angle_beta   90.00000000
_cell_angle_gamma   90.00000000
_symmetry_Int_Tables_number   1
_chemical_formula_structural   Fe2Te2Ru2(CO)11
_chemical_formula_sum   'Fe8 Te8 Ru8 C44 O44'
_cell_volume   1994.38952697
_cell_formula_units_Z   4
loop_
 _symmetry_equiv_pos_site_id
 _symmetry_equiv_pos_as_xyz
  1  'x, y, z'
loop_
 _atom_site_type_symbol
 _atom_site_label
 _atom_site_symmetry_multiplicity
 _atom_site_fract_x
 _atom_site_fract_y
 _atom_site_fract_z
 _atom_site_occupancy
  Fe  Fe0  1  0.668102  0.666418  0.692476  1
  Fe  Fe1  1  0.331898  0.166418  0.807524  1
  Fe  Fe2  1  0.831898  0.666418  0.192476  1
  Fe  Fe3  1  0.331898  0.333582  0.307524  1
  Fe  Fe4  1  0.168102  0.333582  0.807524  1
  Fe  Fe5  1  0.668102  0.833582  0.192476  1
  Fe  Fe6  1  0.831898  0.833582  0.692476  1
  Fe  Fe7  1  0.168102  0.166418  0.307524  1
  Te  Te8  1  0.490076  0.292913  0.740379  1
  Te  Te9  1  0.009924  0.292913  0.240379  1
  Te  Te10  1  0.509924  0.792913  0.759621  1
  Te  Te11  1  0.490076  0.207087  0.240379  1
  Te  Te12  1  0.509924  0.707087  0.259621  1
  Te  Te13  1  0.990076  0.792913  0.259621  1
  Te  Te14  1  0.990076  0.707087  0.759621  1
  Te  Te15  1  0.009924  0.207087  0.740379  1
  Ru  Ru16  1  0.670082  0.831263  0.347926  1
  Ru  Ru17  1  0.829918  0.831263  0.847926  1
  Ru  Ru18  1  0.829918  0.668737  0.347926  1
  Ru  Ru19  1  0.170082  0.168737  0.152074  1
  Ru  Ru20  1  0.670082  0.668737  0.847926  1
  Ru  Ru21  1  0.329918  0.331263  0.152074  1
  Ru  Ru22  1  0.170082  0.331263  0.652074  1
  Ru  Ru23  1  0.329918  0.168737  0.652074  1
  C  C24  1  0.565877  0.358852  0.105842  1
  C  C25  1  0.086266  0.076210  0.257984  1
  C  C26  1  0.934123  0.141148  0.105842  1
  C  C27  1  0.709236  0.578953  0.396555  1
  C  C28  1  0.413734  0.423790  0.257984  1
  C  C29  1  0.184942  0.385284  0.374785  1
  C  C30  1  0.250000  0.250000  0.567378  1
  C  C31  1  0.750000  0.750000  0.932622  1
  C  C32  1  0.025135  0.669500  0.126749  1
  C  C33  1  0.065877  0.858852  0.894158  1
  C  C34  1  0.025135  0.830500  0.626749  1
  C  C35  1  0.290764  0.421047  0.603445  1
  C  C36  1  0.315058  0.385284  0.874785  1
  C  C37  1  0.434123  0.641148  0.894158  1
  C  C38  1  0.209236  0.421047  0.103445  1
  C  C39  1  0.790764  0.578953  0.896555  1
  C  C40  1  0.184942  0.114716  0.874785  1
  C  C41  1  0.586266  0.923790  0.242016  1
  C  C42  1  0.474865  0.669500  0.626749  1
  C  C43  1  0.565877  0.141148  0.605842  1
  C  C44  1  0.586266  0.576210  0.742016  1
  C  C45  1  0.934123  0.358852  0.605842  1
  C  C46  1  0.209236  0.078953  0.603445  1
  C  C47  1  0.790764  0.921047  0.396555  1
  C  C48  1  0.315058  0.114716  0.374785  1
  C  C49  1  0.290764  0.078953  0.103445  1
  C  C50  1  0.684942  0.614716  0.125215  1
  C  C51  1  0.525135  0.169500  0.873251  1
  C  C52  1  0.250000  0.250000  0.067378  1
  C  C53  1  0.709236  0.921047  0.896555  1
  C  C54  1  0.684942  0.885284  0.625215  1
  C  C55  1  0.815058  0.614716  0.625215  1
  C  C56  1  0.750000  0.750000  0.432622  1
  C  C57  1  0.434123  0.858852  0.394158  1
  C  C58  1  0.974865  0.169500  0.373251  1
  C  C59  1  0.913734  0.576210  0.242016  1
  C  C60  1  0.913734  0.923790  0.742016  1
  C  C61  1  0.525135  0.330500  0.373251  1
  C  C62  1  0.974865  0.330500  0.873251  1
  C  C63  1  0.065877  0.641148  0.394158  1
  C  C64  1  0.815058  0.885284  0.125215  1
  C  C65  1  0.413734  0.076210  0.757984  1
  C  C66  1  0.474865  0.830500  0.126749  1
  C  C67  1  0.086266  0.423790  0.757984  1
  O  O68  1  0.634930  0.523986  0.427134  1
  O  O69  1  0.865070  0.523986  0.927134  1
  O  O70  1  0.025393  0.490992  0.749413  1
  O  O71  1  0.525393  0.990992  0.250587  1
  O  O72  1  0.250000  0.250000  0.001042  1
  O  O73  1  0.474607  0.490992  0.249413  1
  O  O74  1  0.525393  0.509008  0.750587  1
  O  O75  1  0.025393  0.009008  0.249413  1
  O  O76  1  0.211739  0.875783  0.923152  1
  O  O77  1  0.405404  0.419911  0.919573  1
  O  O78  1  0.134930  0.023986  0.572866  1
  O  O79  1  0.650691  0.169298  0.916280  1
  O  O80  1  0.594596  0.580089  0.080427  1
  O  O81  1  0.288261  0.875783  0.423152  1
  O  O82  1  0.634930  0.976014  0.927134  1
  O  O83  1  0.788261  0.375783  0.576848  1
  O  O84  1  0.750000  0.750000  0.998958  1
  O  O85  1  0.849309  0.330702  0.916280  1
  O  O86  1  0.711739  0.375783  0.076848  1
  O  O87  1  0.211739  0.624217  0.423152  1
  O  O88  1  0.405404  0.080089  0.419573  1
  O  O89  1  0.349309  0.669298  0.583720  1
  O  O90  1  0.974607  0.990992  0.750587  1
  O  O91  1  0.150691  0.669298  0.083720  1
  O  O92  1  0.474607  0.009008  0.749413  1
  O  O93  1  0.905404  0.919911  0.080427  1
  O  O94  1  0.788261  0.124217  0.076848  1
  O  O95  1  0.905404  0.580089  0.580427  1
  O  O96  1  0.974607  0.509008  0.250587  1
  O  O97  1  0.150691  0.830702  0.583720  1
  O  O98  1  0.250000  0.250000  0.501042  1
  O  O99  1  0.365070  0.023986  0.072866  1
  O  O100  1  0.650691  0.330702  0.416280  1
  O  O101  1  0.094596  0.419911  0.419573  1
  O  O102  1  0.849309  0.169298  0.416280  1
  O  O103  1  0.134930  0.476014  0.072866  1
  O  O104  1  0.094596  0.080089  0.919573  1
  O  O105  1  0.711739  0.124217  0.576848  1
  O  O106  1  0.349309  0.830702  0.083720  1
  O  O107  1  0.594596  0.919911  0.580427  1
  O  O108  1  0.865070  0.976014  0.427134  1
  O  O109  1  0.750000  0.750000  0.498959  1
  O  O110  1  0.288261  0.624217  0.923152  1
  O  O111  1  0.365070  0.476014  0.572866  1
