# generated using pymatgen
data_Y13Sn31Pd40
_symmetry_space_group_name_H-M   'P 1'
_cell_length_a   20.21344352
_cell_length_b   20.21344324
_cell_length_c   9.39300467
_cell_angle_alpha   90.00000000
_cell_angle_beta   90.00000000
_cell_angle_gamma   120.00000046
_symmetry_Int_Tables_number   1
_chemical_formula_structural   Y13Sn31Pd40
_chemical_formula_sum   'Y26 Sn62 Pd80'
_cell_volume   3323.65374043
_cell_formula_units_Z   2
loop_
 _symmetry_equiv_pos_site_id
 _symmetry_equiv_pos_as_xyz
  1  'x, y, z'
loop_
 _atom_site_type_symbol
 _atom_site_label
 _atom_site_symmetry_multiplicity
 _atom_site_fract_x
 _atom_site_fract_y
 _atom_site_fract_z
 _atom_site_occupancy
  Y  Y0  1  0.576806  0.153613  0.500000  1
  Y  Y1  1  0.423194  0.576806  0.500000  1
  Y  Y2  1  0.846387  0.423194  0.500000  1
  Y  Y3  1  0.513817  0.756909  0.000000  1
  Y  Y4  1  0.729248  0.000000  0.710910  1
  Y  Y5  1  0.729248  0.000000  0.289090  1
  Y  Y6  1  0.243091  0.486183  0.000000  1
  Y  Y7  1  0.000000  0.000000  0.208675  1
  Y  Y8  1  0.270752  0.000000  0.289090  1
  Y  Y9  1  0.153613  0.576806  0.500000  1
  Y  Y10  1  0.243091  0.756909  0.000000  1
  Y  Y11  1  0.576806  0.423194  0.500000  1
  Y  Y12  1  0.729248  0.729248  0.710910  1
  Y  Y13  1  0.270752  0.270752  0.289090  1
  Y  Y14  1  0.270752  0.000000  0.710910  1
  Y  Y15  1  0.000000  0.729248  0.710910  1
  Y  Y16  1  0.000000  0.729248  0.289090  1
  Y  Y17  1  0.000000  0.270752  0.289090  1
  Y  Y18  1  0.756909  0.513817  0.000000  1
  Y  Y19  1  0.270752  0.270752  0.710910  1
  Y  Y20  1  0.756909  0.243091  0.000000  1
  Y  Y21  1  0.000000  0.270752  0.710910  1
  Y  Y22  1  0.729248  0.729248  0.289090  1
  Y  Y23  1  0.423194  0.846387  0.500000  1
  Y  Y24  1  0.486183  0.243091  0.000000  1
  Y  Y25  1  0.000000  0.000000  0.791325  1
  Sn  Sn26  1  0.822681  0.645362  0.768307  1
  Sn  Sn27  1  0.607047  0.214095  0.813829  1
  Sn  Sn28  1  0.607047  0.214095  0.186171  1
  Sn  Sn29  1  0.392953  0.607047  0.186171  1
  Sn  Sn30  1  0.125924  0.411320  0.500000  1
  Sn  Sn31  1  0.000000  0.500000  0.739792  1
  Sn  Sn32  1  0.177319  0.822681  0.231693  1
  Sn  Sn33  1  0.354638  0.177319  0.231693  1
  Sn  Sn34  1  0.500000  0.000000  0.260208  1
  Sn  Sn35  1  0.000000  0.161989  0.000000  1
  Sn  Sn36  1  0.285396  0.411320  0.500000  1
  Sn  Sn37  1  0.822681  0.645362  0.231693  1
  Sn  Sn38  1  0.714604  0.125924  0.500000  1
  Sn  Sn39  1  0.161989  0.161989  0.000000  1
  Sn  Sn40  1  0.588680  0.714604  0.500000  1
  Sn  Sn41  1  0.214095  0.607047  0.186171  1
  Sn  Sn42  1  0.854057  0.000000  0.500000  1
  Sn  Sn43  1  0.000000  0.500000  0.260208  1
  Sn  Sn44  1  0.333333  0.666667  0.500000  1
  Sn  Sn45  1  0.607047  0.392953  0.186171  1
  Sn  Sn46  1  0.838011  0.000000  0.000000  1
  Sn  Sn47  1  0.854057  0.854057  0.500000  1
  Sn  Sn48  1  0.822681  0.177319  0.231693  1
  Sn  Sn49  1  0.645362  0.822681  0.768307  1
  Sn  Sn50  1  0.607047  0.392953  0.813829  1
  Sn  Sn51  1  0.145943  0.000000  0.500000  1
  Sn  Sn52  1  0.666667  0.333333  0.500000  1
  Sn  Sn53  1  0.411320  0.285396  0.500000  1
  Sn  Sn54  1  0.500000  0.000000  0.739792  1
  Sn  Sn55  1  0.354638  0.177319  0.768307  1
  Sn  Sn56  1  0.785905  0.392953  0.186171  1
  Sn  Sn57  1  1.000000  0.854057  0.500000  1
  Sn  Sn58  1  1.000000  0.838011  0.000000  1
  Sn  Sn59  1  0.145943  0.145943  0.500000  1
  Sn  Sn60  1  0.392953  0.607047  0.813829  1
  Sn  Sn61  1  0.500000  0.500000  0.739792  1
  Sn  Sn62  1  0.822681  0.177319  0.768307  1
  Sn  Sn63  1  0.125924  0.714604  0.500000  1
  Sn  Sn64  1  0.838011  0.838011  0.000000  1
  Sn  Sn65  1  0.874076  0.285396  0.500000  1
  Sn  Sn66  1  0.392953  0.785905  0.186171  1
  Sn  Sn67  1  0.000000  0.612753  0.000000  1
  Sn  Sn68  1  0.177319  0.354638  0.231693  1
  Sn  Sn69  1  0.000000  0.145943  0.500000  1
  Sn  Sn70  1  0.500000  0.500000  0.260208  1
  Sn  Sn71  1  0.387247  0.000000  0.000000  1
  Sn  Sn72  1  0.645362  0.822681  0.231693  1
  Sn  Sn73  1  0.177319  0.354638  0.768307  1
  Sn  Sn74  1  0.392953  0.785905  0.813829  1
  Sn  Sn75  1  0.214095  0.607047  0.813829  1
  Sn  Sn76  1  0.785905  0.392953  0.813829  1
  Sn  Sn77  1  0.588680  0.874076  0.500000  1
  Sn  Sn78  1  0.714604  0.588680  0.500000  1
  Sn  Sn79  1  0.411320  0.125924  0.500000  1
  Sn  Sn80  1  0.177319  0.822681  0.768307  1
  Sn  Sn81  1  0.387247  0.387247  0.000000  1
  Sn  Sn82  1  0.874076  0.588680  0.500000  1
  Sn  Sn83  1  0.161989  0.000000  0.000000  1
  Sn  Sn84  1  0.285396  0.874076  0.500000  1
  Sn  Sn85  1  0.612753  0.612753  0.000000  1
  Sn  Sn86  1  0.612753  0.000000  0.000000  1
  Sn  Sn87  1  1.000000  0.387247  0.000000  1
  Pd  Pd88  1  0.105767  0.658417  0.778894  1
  Pd  Pd89  1  0.260452  0.739548  0.652819  1
  Pd  Pd90  1  0.739548  0.260452  0.347181  1
  Pd  Pd91  1  0.320715  0.235720  0.000000  1
  Pd  Pd92  1  0.577060  0.000000  0.500000  1
  Pd  Pd93  1  0.447350  0.341583  0.221106  1
  Pd  Pd94  1  0.479096  0.739548  0.652819  1
  Pd  Pd95  1  0.089110  0.544555  0.000000  1
  Pd  Pd96  1  0.544555  0.455445  0.000000  1
  Pd  Pd97  1  0.260452  0.739548  0.347181  1
  Pd  Pd98  1  0.915005  0.679285  0.000000  1
  Pd  Pd99  1  0.824896  0.912448  0.243298  1
  Pd  Pd100  1  0.658417  0.552650  0.221106  1
  Pd  Pd101  1  0.912448  0.087552  0.756702  1
  Pd  Pd102  1  0.894233  0.341583  0.778894  1
  Pd  Pd103  1  0.739548  0.479096  0.347181  1
  Pd  Pd104  1  0.552650  0.658417  0.221106  1
  Pd  Pd105  1  0.084995  0.764280  0.000000  1
  Pd  Pd106  1  0.658417  0.105767  0.221106  1
  Pd  Pd107  1  0.739548  0.479096  0.652819  1
  Pd  Pd108  1  0.679285  0.764280  0.000000  1
  Pd  Pd109  1  0.142114  0.857886  0.500000  1
  Pd  Pd110  1  0.912448  0.824896  0.243298  1
  Pd  Pd111  1  0.260452  0.520904  0.652819  1
  Pd  Pd112  1  0.552650  0.658417  0.778894  1
  Pd  Pd113  1  0.764280  0.679285  0.000000  1
  Pd  Pd114  1  0.894233  0.341583  0.221106  1
  Pd  Pd115  1  0.658417  0.552650  0.778894  1
  Pd  Pd116  1  0.520904  0.260452  0.347181  1
  Pd  Pd117  1  0.087552  0.175104  0.756702  1
  Pd  Pd118  1  0.087552  0.175104  0.243298  1
  Pd  Pd119  1  0.857886  0.715772  0.500000  1
  Pd  Pd120  1  0.333333  0.666667  0.000000  1
  Pd  Pd121  1  0.142114  0.284228  0.500000  1
  Pd  Pd122  1  0.455445  0.910890  0.000000  1
  Pd  Pd123  1  0.824896  0.912448  0.756702  1
  Pd  Pd124  1  0.912448  0.087552  0.243298  1
  Pd  Pd125  1  0.455445  0.544555  0.000000  1
  Pd  Pd126  1  0.260452  0.520904  0.347181  1
  Pd  Pd127  1  0.658417  0.105767  0.778894  1
  Pd  Pd128  1  0.912448  0.824896  0.756702  1
  Pd  Pd129  1  0.175104  0.087552  0.756702  1
  Pd  Pd130  1  0.520904  0.260452  0.652819  1
  Pd  Pd131  1  0.341583  0.894233  0.221106  1
  Pd  Pd132  1  0.577060  0.577060  0.500000  1
  Pd  Pd133  1  0.235720  0.915005  0.000000  1
  Pd  Pd134  1  0.320715  0.084995  0.000000  1
  Pd  Pd135  1  0.000000  0.422940  0.500000  1
  Pd  Pd136  1  0.857886  0.142114  0.500000  1
  Pd  Pd137  1  0.422940  0.422940  0.500000  1
  Pd  Pd138  1  0.666667  0.333333  0.000000  1
  Pd  Pd139  1  0.175104  0.087552  0.243298  1
  Pd  Pd140  1  0.422940  0.000000  0.500000  1
  Pd  Pd141  1  0.715772  0.857886  0.500000  1
  Pd  Pd142  1  0.087552  0.912448  0.243298  1
  Pd  Pd143  1  0.544555  0.089110  0.000000  1
  Pd  Pd144  1  0.341583  0.447350  0.221106  1
  Pd  Pd145  1  0.084995  0.320715  0.000000  1
  Pd  Pd146  1  0.341583  0.894233  0.778894  1
  Pd  Pd147  1  0.764280  0.084995  0.000000  1
  Pd  Pd148  1  0.447350  0.105767  0.221106  1
  Pd  Pd149  1  0.447350  0.341583  0.778894  1
  Pd  Pd150  1  0.284228  0.142114  0.500000  1
  Pd  Pd151  1  0.341583  0.447350  0.778894  1
  Pd  Pd152  1  0.679285  0.915005  0.000000  1
  Pd  Pd153  1  0.447350  0.105767  0.778894  1
  Pd  Pd154  1  0.894233  0.552650  0.778894  1
  Pd  Pd155  1  0.739548  0.260452  0.652819  1
  Pd  Pd156  1  0.105767  0.658417  0.221106  1
  Pd  Pd157  1  0.235720  0.320715  0.000000  1
  Pd  Pd158  1  0.552650  0.894233  0.221106  1
  Pd  Pd159  1  0.087552  0.912448  0.756702  1
  Pd  Pd160  1  0.105767  0.447350  0.221106  1
  Pd  Pd161  1  0.105767  0.447350  0.778894  1
  Pd  Pd162  1  0.915005  0.235720  0.000000  1
  Pd  Pd163  1  0.552650  0.894233  0.778894  1
  Pd  Pd164  1  0.894233  0.552650  0.221106  1
  Pd  Pd165  1  0.000000  0.577060  0.500000  1
  Pd  Pd166  1  0.479096  0.739548  0.347181  1
  Pd  Pd167  1  0.910890  0.455445  0.000000  1
