# generated using pymatgen
data_CdI2
_symmetry_space_group_name_H-M   'P 1'
_cell_length_a   4.34169286
_cell_length_b   4.34169314
_cell_length_c   103.15835908
_cell_angle_alpha   90.00000000
_cell_angle_beta   90.00000000
_cell_angle_gamma   119.99999790
_symmetry_Int_Tables_number   1
_chemical_formula_structural   CdI2
_chemical_formula_sum   'Cd14 I28'
_cell_volume   1684.04343389
_cell_formula_units_Z   14
loop_
 _symmetry_equiv_pos_site_id
 _symmetry_equiv_pos_as_xyz
  1  'x, y, z'
loop_
 _atom_site_type_symbol
 _atom_site_label
 _atom_site_symmetry_multiplicity
 _atom_site_fract_x
 _atom_site_fract_y
 _atom_site_fract_z
 _atom_site_occupancy
  Cd  Cd0  1  0.000000  0.000000  0.517847  1
  Cd  Cd1  1  0.666667  0.333333  0.303576  1
  Cd  Cd2  1  0.666667  0.333333  0.946444  1
  Cd  Cd3  1  0.666667  0.333333  0.160713  1
  Cd  Cd4  1  0.000000  0.000000  0.232148  1
  Cd  Cd5  1  0.000000  0.000000  0.660710  1
  Cd  Cd6  1  0.666667  0.333333  0.732146  1
  Cd  Cd7  1  0.666667  0.333333  0.017851  1
  Cd  Cd8  1  0.666667  0.333333  0.803575  1
  Cd  Cd9  1  0.666667  0.333333  0.589284  1
  Cd  Cd10  1  0.666667  0.333333  0.446441  1
  Cd  Cd11  1  0.000000  0.000000  0.089286  1
  Cd  Cd12  1  0.000000  0.000000  0.374997  1
  Cd  Cd13  1  0.000000  0.000000  0.874996  1
  I  I14  1  0.666667  0.333333  0.072538  1
  I  I15  1  0.000000  0.000000  0.929685  1
  I  I16  1  0.333333  0.666667  0.534593  1
  I  I17  1  0.333333  0.666667  0.177461  1
  I  I18  1  0.333333  0.666667  0.106045  1
  I  I19  1  0.333333  0.666667  0.463178  1
  I  I20  1  0.000000  0.000000  0.715386  1
  I  I21  1  0.000000  0.000000  0.286808  1
  I  I22  1  0.666667  0.333333  0.643952  1
  I  I23  1  0.000000  0.000000  0.786808  1
  I  I24  1  0.333333  0.666667  0.320325  1
  I  I25  1  0.333333  0.666667  0.606044  1
  I  I26  1  0.000000  0.000000  0.143956  1
  I  I27  1  0.333333  0.666667  0.820322  1
  I  I28  1  0.333333  0.666667  0.963180  1
  I  I29  1  0.000000  0.000000  0.001125  1
  I  I30  1  0.666667  0.333333  0.858258  1
  I  I31  1  0.333333  0.666667  0.677457  1
  I  I32  1  0.666667  0.333333  0.215402  1
  I  I33  1  0.333333  0.666667  0.034604  1
  I  I34  1  0.333333  0.666667  0.891738  1
  I  I35  1  0.333333  0.666667  0.248904  1
  I  I36  1  0.666667  0.333333  0.358258  1
  I  I37  1  0.333333  0.666667  0.391738  1
  I  I38  1  0.666667  0.333333  0.501094  1
  I  I39  1  0.000000  0.000000  0.572546  1
  I  I40  1  0.000000  0.000000  0.429682  1
  I  I41  1  0.333333  0.666667  0.748898  1
