# generated using pymatgen
data_Na3Zr2Si2PO12
_symmetry_space_group_name_H-M   'P 1'
_cell_length_a   9.17674960
_cell_length_b   9.16840676
_cell_length_c   18.68655764
_cell_angle_alpha   61.25638671
_cell_angle_beta   61.18354349
_cell_angle_gamma   60.18324573
_symmetry_Int_Tables_number   1
_chemical_formula_structural   Na3Zr2Si2PO12
_chemical_formula_sum   'Na12 Zr8 Si8 P4 O48'
_cell_volume   1133.39847337
_cell_formula_units_Z   4
loop_
 _symmetry_equiv_pos_site_id
 _symmetry_equiv_pos_as_xyz
  1  'x, y, z'
loop_
 _atom_site_type_symbol
 _atom_site_label
 _atom_site_symmetry_multiplicity
 _atom_site_fract_x
 _atom_site_fract_y
 _atom_site_fract_z
 _atom_site_occupancy
  Na  Na0  1  0.012872  0.480541  0.244833  1
  Na  Na1  1  0.327143  0.044146  0.469010  1
  Na  Na2  1  0.395317  0.608111  0.125805  1
  Na  Na3  1  0.044316  0.327703  0.717613  1
  Na  Na4  1  0.603007  0.384158  0.379422  1
  Na  Na5  1  0.324734  0.045588  0.969796  1
  Na  Na6  1  0.748654  0.906782  0.090657  1
  Na  Na7  1  0.385312  0.605898  0.629030  1
  Na  Na8  1  0.902254  0.761732  0.347914  1
  Na  Na9  1  0.603514  0.386201  0.880238  1
  Na  Na10  1  0.750547  0.904689  0.592001  1
  Na  Na11  1  0.905973  0.748776  0.841685  1
  Zr  Zr12  1  0.151586  0.637405  0.030861  1
  Zr  Zr13  1  0.151739  0.643257  0.528687  1
  Zr  Zr14  1  0.347327  0.859480  0.215487  1
  Zr  Zr15  1  0.646647  0.159566  0.274951  1
  Zr  Zr16  1  0.349986  0.854833  0.716967  1
  Zr  Zr17  1  0.646305  0.157000  0.775565  1
  Zr  Zr18  1  0.854842  0.345882  0.474614  1
  Zr  Zr19  1  0.855001  0.346346  0.974657  1
  Si  Si20  1  0.039056  0.949977  0.128596  1
  Si  Si21  1  0.468645  0.251048  0.119041  1
  Si  Si22  1  0.248325  0.469150  0.367329  1
  Si  Si23  1  0.040759  0.952581  0.627584  1
  Si  Si24  1  0.750676  0.532308  0.131656  1
  Si  Si25  1  0.470022  0.251035  0.618141  1
  Si  Si26  1  0.249331  0.467965  0.868632  1
  Si  Si27  1  0.750913  0.531850  0.630440  1
  P  P28  1  0.535021  0.751209  0.378059  1
  P  P29  1  0.956637  0.044895  0.374395  1
  P  P30  1  0.531440  0.751845  0.879693  1
  P  P31  1  0.954274  0.040392  0.876520  1
  O  O32  1  0.002264  0.116046  0.041346  1
  O  O33  1  0.115783  0.998184  0.296037  1
  O  O34  1  0.059550  0.767733  0.122351  1
  O  O35  1  0.004838  0.121922  0.540928  1
  O  O36  1  0.287688  0.425404  0.113078  1
  O  O37  1  0.443889  0.065358  0.146916  1
  O  O38  1  0.062735  0.445255  0.389528  1
  O  O39  1  0.632595  0.268496  0.027801  1
  O  O40  1  0.230206  0.928273  0.126339  1
  O  O41  1  0.519008  0.249223  0.192851  1
  O  O42  1  0.266548  0.634233  0.277569  1
  O  O43  1  0.112272  0.004318  0.794776  1
  O  O44  1  0.416739  0.282459  0.364309  1
  O  O45  1  0.241224  0.521110  0.442055  1
  O  O46  1  0.754995  0.483978  0.056468  1
  O  O47  1  0.063933  0.776047  0.616031  1
  O  O48  1  0.579538  0.713746  0.142278  1
  O  O49  1  0.287602  0.421748  0.610623  1
  O  O50  1  0.439635  0.066781  0.648594  1
  O  O51  1  0.727005  0.371110  0.223291  1
  O  O52  1  0.063936  0.441885  0.895069  1
  O  O53  1  0.484063  0.758968  0.308510  1
  O  O54  1  0.785259  0.057788  0.370260  1
  O  O55  1  0.383870  0.729415  0.466443  1
  O  O56  1  0.634937  0.265760  0.527333  1
  O  O57  1  0.229933  0.929763  0.627874  1
  O  O58  1  0.520070  0.250552  0.691845  1
  O  O59  1  0.925137  0.575708  0.106839  1
  O  O60  1  0.267639  0.633253  0.778685  1
  O  O61  1  0.567291  0.919825  0.357645  1
  O  O62  1  0.711190  0.589188  0.383933  1
  O  O63  1  0.419476  0.282925  0.863041  1
  O  O64  1  0.930792  0.226001  0.374873  1
  O  O65  1  0.247308  0.518813  0.942553  1
  O  O66  1  0.751250  0.484907  0.555991  1
  O  O67  1  0.580922  0.712751  0.642169  1
  O  O68  1  0.876223  0.985324  0.215313  1
  O  O69  1  0.737120  0.366703  0.721841  1
  O  O70  1  0.482538  0.759692  0.809294  1
  O  O71  1  0.783879  0.053402  0.871382  1
  O  O72  1  0.376586  0.736298  0.966801  1
  O  O73  1  0.929183  0.570649  0.603789  1
  O  O74  1  0.566166  0.921217  0.856967  1
  O  O75  1  0.703390  0.589210  0.888658  1
  O  O76  1  0.990322  0.893591  0.458049  1
  O  O77  1  0.928021  0.221967  0.876360  1
  O  O78  1  0.877133  0.986357  0.714460  1
  O  O79  1  0.991647  0.888218  0.958472  1
