# generated using pymatgen
data_C10F3
_symmetry_space_group_name_H-M   'P 1'
_cell_length_a   11.07295092
_cell_length_b   11.31067630
_cell_length_c   17.48403012
_cell_angle_alpha   80.63434845
_cell_angle_beta   71.59923448
_cell_angle_gamma   60.70091385
_symmetry_Int_Tables_number   1
_chemical_formula_structural   C10F3
_chemical_formula_sum   'C120 F36'
_cell_volume   1811.90017690
_cell_formula_units_Z   12
loop_
 _symmetry_equiv_pos_site_id
 _symmetry_equiv_pos_as_xyz
  1  'x, y, z'
loop_
 _atom_site_type_symbol
 _atom_site_label
 _atom_site_symmetry_multiplicity
 _atom_site_fract_x
 _atom_site_fract_y
 _atom_site_fract_z
 _atom_site_occupancy
  C  C0  1  0.968689  0.846368  0.094691  1
  C  C1  1  0.115404  0.808433  0.426422  1
  C  C2  1  0.693684  0.202248  0.876183  1
  C  C3  1  0.783661  0.701784  0.623429  1
  C  C4  1  0.131550  0.924338  0.434027  1
  C  C5  1  0.516912  0.668612  0.193414  1
  C  C6  1  0.934751  0.179274  0.823238  1
  C  C7  1  0.672003  0.502288  0.931694  1
  C  C8  1  0.917782  0.591572  0.616043  1
  C  C9  1  0.954705  0.374682  0.824929  1
  C  C10  1  0.966736  0.990286  0.049387  1
  C  C11  1  0.947542  0.794093  0.370776  1
  C  C12  1  0.312835  0.932082  0.063671  1
  C  C13  1  0.450988  0.602797  0.269477  1
  C  C14  1  0.420508  0.426513  0.892444  1
  C  C15  1  0.381512  0.545247  0.627223  1
  C  C16  1  0.944678  0.076977  0.678495  1
  C  C17  1  0.882130  0.515257  0.833265  1
  C  C18  1  0.839143  0.133155  0.826589  1
  C  C19  1  0.692697  0.431129  0.561718  1
  C  C20  1  0.889022  0.597573  0.761632  1
  C  C21  1  0.549411  0.803071  0.708047  1
  C  C22  1  0.480552  0.861248  0.283683  1
  C  C23  1  0.995043  0.045181  0.437059  1
  C  C24  1  0.135139  0.124838  0.009519  1
  C  C25  1  0.062919  0.679208  0.323146  1
  C  C26  1  0.834867  0.391297  0.555947  1
  C  C27  1  0.443885  0.663555  0.899296  1
  C  C28  1  0.733204  0.623347  0.508865  1
  C  C29  1  0.620353  0.563545  0.522200  1
  C  C30  1  0.707612  0.235690  0.644168  1
  C  C31  1  0.963622  0.299161  0.282802  1
  C  C32  1  0.218777  0.774589  0.094210  1
  C  C33  1  0.062926  0.222062  0.596652  1
  C  C34  1  0.891549  0.246688  0.353046  1
  C  C35  1  0.846501  0.875772  0.324374  1
  C  C36  1  0.913068  0.273636  0.593949  1
  C  C37  1  0.378196  0.012749  0.280540  1
  C  C38  1  0.770414  0.016078  0.332831  1
  C  C39  1  0.063480  0.167434  0.752347  1
  C  C40  1  0.556062  0.787591  0.200010  1
  C  C41  1  0.750258  0.355599  0.924370  1
  C  C42  1  0.316348  0.696540  0.138292  1
  C  C43  1  0.327148  0.139586  0.074638  1
  C  C44  1  0.217336  0.892442  0.056685  1
  C  C45  1  0.994710  0.489428  0.549652  1
  C  C46  1  0.970010  0.856400  0.424052  1
  C  C47  1  0.749439  0.713228  0.769516  1
  C  C48  1  0.684167  0.736138  0.570275  1
  C  C49  1  0.542316  0.768505  0.634534  1
  C  C50  1  0.753395  0.098496  0.261304  1
  C  C51  1  0.362720  0.702827  0.337108  1
  C  C52  1  0.299481  0.577520  0.177990  1
  C  C53  1  0.446757  0.722711  0.637760  1
  C  C54  1  0.017429  0.667871  0.251720  1
  C  C55  1  0.794029  0.205780  0.346976  1
  C  C56  1  0.009751  0.237044  0.071081  1
  C  C57  1  0.118397  0.722960  0.096022  1
  C  C58  1  0.795360  0.082427  0.386376  1
  C  C59  1  0.894416  0.003101  0.431178  1
  C  C60  1  0.463522  0.314245  0.844169  1
  C  C61  1  0.597545  0.203907  0.836765  1
  C  C62  1  0.375494  0.362274  0.783599  1
  C  C63  1  0.850550  0.052757  0.761645  1
  C  C64  1  0.840347  0.261863  0.201523  1
  C  C65  1  0.654920  0.703974  0.846852  1
  C  C66  1  0.042633  0.311831  0.747897  1
  C  C67  1  0.412144  0.736202  0.144852  1
  C  C68  1  0.939687  0.305004  0.208177  1
  C  C69  1  0.523097  0.544178  0.938123  1
  C  C70  1  0.335241  0.593091  0.712284  1
  C  C71  1  0.114977  0.990075  0.011308  1
  C  C72  1  0.357822  0.747614  0.785422  1
  C  C73  1  0.621717  0.168865  0.693291  1
  C  C74  1  0.456981  0.796453  0.782473  1
  C  C75  1  0.141210  0.615227  0.171141  1
  C  C76  1  0.849734  0.195391  0.637688  1
  C  C77  1  0.888072  0.293749  0.871136  1
  C  C78  1  0.510585  0.744911  0.853164  1
  C  C79  1  0.348854  0.666297  0.857019  1
  C  C80  1  0.737051  0.580661  0.886485  1
  C  C81  1  0.899486  0.812392  0.247424  1
  C  C82  1  0.514681  0.887117  0.123185  1
  C  C83  1  0.892399  0.201937  0.123654  1
  C  C84  1  0.968772  0.535946  0.686371  1
  C  C85  1  0.327795  0.514044  0.780680  1
  C  C86  1  0.294042  0.063361  0.023593  1
  C  C87  1  0.334633  0.552367  0.261232  1
  C  C88  1  0.359738  0.092871  0.212571  1
  C  C89  1  0.356535  0.707810  0.714048  1
  C  C90  1  0.051578  0.391229  0.680021  1
  C  C91  1  0.201441  0.632252  0.326677  1
  C  C92  1  0.649965  0.308166  0.926694  1
  C  C93  1  0.221952  0.208300  0.214523  1
  C  C94  1  0.337725  0.549747  0.853133  1
  C  C95  1  0.109511  0.248890  0.285422  1
  C  C96  1  0.259997  0.048661  0.352381  1
  C  C97  1  0.768247  0.214689  0.269330  1
  C  C98  1  0.379696  0.812699  0.344497  1
  C  C99  1  0.876284  0.091635  0.116120  1
  C  C100  1  0.228461  0.701645  0.376245  1
  C  C101  1  0.879840  0.891622  0.179560  1
  C  C102  1  0.091255  0.345567  0.595188  1
  C  C103  1  0.459678  0.640011  0.573895  1
  C  C104  1  0.410432  0.854482  0.107538  1
  C  C105  1  0.055047  0.269975  0.134983  1
  C  C106  1  0.509695  0.423692  0.934913  1
  C  C107  1  0.072588  0.114432  0.671844  1
  C  C108  1  0.629288  0.353963  0.606400  1
  C  C109  1  0.698138  0.760887  0.701473  1
  C  C110  1  0.128882  0.165954  0.356363  1
  C  C111  1  0.476805  0.387367  0.623077  1
  C  C112  1  0.446672  0.045559  0.127651  1
  C  C113  1  0.994004  0.164581  0.398771  1
  C  C114  1  0.457333  0.288774  0.699859  1
  C  C115  1  0.885042  0.488917  0.511204  1
  C  C116  1  0.811453  0.035904  0.186155  1
  C  C117  1  0.676212  0.104059  0.769534  1
  C  C118  1  0.260833  0.925993  0.391851  1
  C  C119  1  0.193505  0.222982  0.138201  1
  F  F120  1  0.946290  0.356879  0.026484  1
  F  F121  1  0.898530  0.021652  0.988605  1
  F  F122  1  0.391856  0.413546  0.277812  1
  F  F123  1  0.957338  0.578228  0.271180  1
  F  F124  1  0.234533  0.306810  0.554950  1
  F  F125  1  0.149287  0.500347  0.148332  1
  F  F126  1  0.645448  0.063455  0.648620  1
  F  F127  1  0.201809  0.999119  0.649244  1
  F  F128  1  0.651820  0.992005  0.792737  1
  F  F129  1  0.399366  0.462842  0.130030  1
  F  F130  1  0.007055  0.961522  0.631332  1
  F  F131  1  0.263459  0.578658  0.599463  1
  F  F132  1  0.639017  0.841204  0.058459  1
  F  F133  1  0.375878  0.723843  0.522840  1
  F  F134  1  0.749143  0.677618  0.432474  1
  F  F135  1  0.913989  0.914017  0.778990  1
  F  F136  1  0.590958  0.841681  0.316401  1
  F  F137  1  0.380807  0.232336  0.686528  1
  F  F138  1  0.702412  0.728523  0.187391  1
  F  F139  1  0.163973  0.947016  0.931533  1
  F  F140  1  0.557382  0.081178  0.099984  1
  F  F141  1  0.621028  0.541489  0.445386  1
  F  F142  1  0.093152  0.518935  0.488607  1
  F  F143  1  0.141735  0.180726  0.933477  1
  F  F144  1  0.253142  0.341281  0.817239  1
  F  F145  1  0.671677  0.854870  0.524174  1
  F  F146  1  0.563552  0.489159  0.292036  1
  F  F147  1  0.377950  0.223218  0.023379  1
  F  F148  1  0.168352  0.647934  0.026276  1
  F  F149  1  0.157318  0.146050  0.527122  1
  F  F150  1  0.958559  0.445498  0.431385  1
  F  F151  1  0.463665  0.340526  0.558378  1
  F  F152  1  0.192532  0.077491  0.773126  1
  F  F153  1  0.393876  0.037292  0.947253  1
  F  F154  1  0.643788  0.565079  0.147846  1
  F  F155  1  0.902531  0.807025  0.056041  1
