# generated using pymatgen
data_Ga3Te3As
_symmetry_space_group_name_H-M   'P 1'
_cell_length_a   4.15341927
_cell_length_b   33.82640794
_cell_length_c   7.33481129
_cell_angle_alpha   29.84816796
_cell_angle_beta   55.51007783
_cell_angle_gamma   60.58411920
_symmetry_Int_Tables_number   1
_chemical_formula_structural   Ga3Te3As
_chemical_formula_sum   'Ga6 Te6 As2'
_cell_volume   422.73414865
_cell_formula_units_Z   2
loop_
 _symmetry_equiv_pos_site_id
 _symmetry_equiv_pos_as_xyz
  1  'x, y, z'
loop_
 _atom_site_type_symbol
 _atom_site_label
 _atom_site_symmetry_multiplicity
 _atom_site_fract_x
 _atom_site_fract_y
 _atom_site_fract_z
 _atom_site_occupancy
  Ga  Ga0  1  0.010301  0.120575  0.007400  1
  Ga  Ga1  1  0.010301  0.254425  0.971998  1
  Ga  Ga2  1  0.016855  0.503297  0.969957  1
  Ga  Ga3  1  0.992428  0.631588  0.981220  1
  Ga  Ga4  1  0.992428  0.743412  0.033923  1
  Ga  Ga5  1  0.016855  0.871703  0.996334  1
  Te  Te6  1  0.229593  0.116867  0.302938  1
  Te  Te7  1  0.229593  0.258133  0.237876  1
  Te  Te8  1  0.266544  0.377542  0.223286  1
  Te  Te9  1  0.232500  0.496825  0.280199  1
  Te  Te10  1  0.232500  0.878175  0.254801  1
  Te  Te11  1  0.266544  0.997458  0.243625  1
  As  As12  1  0.251779  0.626805  0.241000  1
  As  As13  1  0.251779  0.748195  0.255442  1
