# generated using pymatgen
data_MoH4O5
_symmetry_space_group_name_H-M   'P 1'
_cell_length_a   7.72918387
_cell_length_b   6.39339579
_cell_length_c   4.05172924
_cell_angle_alpha   90.01294826
_cell_angle_beta   89.87280029
_cell_angle_gamma   82.46023150
_symmetry_Int_Tables_number   1
_chemical_formula_structural   MoH4O5
_chemical_formula_sum   'Mo2 H8 O10'
_cell_volume   198.48755841
_cell_formula_units_Z   2
loop_
 _symmetry_equiv_pos_site_id
 _symmetry_equiv_pos_as_xyz
  1  'x, y, z'
loop_
 _atom_site_type_symbol
 _atom_site_label
 _atom_site_symmetry_multiplicity
 _atom_site_fract_x
 _atom_site_fract_y
 _atom_site_fract_z
 _atom_site_occupancy
  Mo  Mo0  1  0.733845  0.001381  0.958401  1
  Mo  Mo1  1  0.240830  0.975740  0.089542  1
  H  H2  1  0.123146  0.547745  0.494899  1
  H  H3  1  0.902087  0.605102  0.230274  1
  H  H4  1  0.947224  0.577244  0.707871  1
  H  H5  1  0.572056  0.400378  0.508390  1
  H  H6  1  0.449246  0.576402  0.709637  1
  H  H7  1  0.394879  0.611854  0.211373  1
  H  H8  1  0.739242  0.551232  0.008518  1
  H  H9  1  0.259410  0.418242  0.019863  1
  O  O10  1  0.010653  0.970333  0.026746  1
  O  O11  1  0.512279  0.942000  0.014671  1
  O  O12  1  0.003301  0.515734  0.500242  1
  O  O13  1  0.522451  0.548522  0.507925  1
  O  O14  1  0.756687  0.977353  0.521802  1
  O  O15  1  0.256007  0.957439  0.522295  1
  O  O16  1  0.705339  0.274716  0.017173  1
  O  O17  1  0.822538  0.655714  0.024589  1
  O  O18  1  0.299708  0.652029  0.038599  1
  O  O19  1  0.247374  0.260744  0.028539  1
