# generated using pymatgen
data_H12W3C4S2Cl9O2
_symmetry_space_group_name_H-M   'P 1'
_cell_length_a   10.11547012
_cell_length_b   11.18108259
_cell_length_c   22.69220368
_cell_angle_alpha   90.61457130
_cell_angle_beta   90.00000000
_cell_angle_gamma   90.00000000
_symmetry_Int_Tables_number   1
_chemical_formula_structural   H12W3C4S2Cl9O2
_chemical_formula_sum   'H48 W12 C16 S8 Cl36 O8'
_cell_volume   2566.38386431
_cell_formula_units_Z   4
loop_
 _symmetry_equiv_pos_site_id
 _symmetry_equiv_pos_as_xyz
  1  'x, y, z'
loop_
 _atom_site_type_symbol
 _atom_site_label
 _atom_site_symmetry_multiplicity
 _atom_site_fract_x
 _atom_site_fract_y
 _atom_site_fract_z
 _atom_site_occupancy
  H  H0  1  0.029190  0.162184  0.728076  1
  H  H1  1  0.591445  0.869094  0.818047  1
  H  H2  1  0.037487  0.578548  0.849888  1
  H  H3  1  0.560389  0.943480  0.348970  1
  H  H4  1  0.876815  0.196762  0.690174  1
  H  H5  1  0.529190  0.337816  0.771924  1
  H  H6  1  0.123185  0.803238  0.309826  1
  H  H7  1  0.462513  0.078548  0.349888  1
  H  H8  1  0.052640  0.318849  0.279637  1
  H  H9  1  0.607403  0.808398  0.744544  1
  H  H10  1  0.060389  0.556520  0.151030  1
  H  H11  1  0.686180  0.473170  0.083209  1
  H  H12  1  0.947360  0.681151  0.720363  1
  H  H13  1  0.107403  0.691602  0.755456  1
  H  H14  1  0.376815  0.303238  0.809826  1
  H  H15  1  0.035681  0.218512  0.654652  1
  H  H16  1  0.129923  0.420493  0.177629  1
  H  H17  1  0.470810  0.662184  0.228076  1
  H  H18  1  0.135137  0.872353  0.419893  1
  H  H19  1  0.364863  0.372353  0.919893  1
  H  H20  1  0.447360  0.818849  0.779637  1
  H  H21  1  0.392597  0.191602  0.255456  1
  H  H22  1  0.370077  0.920493  0.677629  1
  H  H23  1  0.535681  0.281488  0.845348  1
  H  H24  1  0.030708  0.988576  0.448993  1
  H  H25  1  0.969292  0.011424  0.551007  1
  H  H26  1  0.552640  0.181151  0.220363  1
  H  H27  1  0.870077  0.579507  0.822371  1
  H  H28  1  0.864863  0.127647  0.580107  1
  H  H29  1  0.469292  0.488576  0.948993  1
  H  H30  1  0.629923  0.079507  0.322371  1
  H  H31  1  0.464319  0.718512  0.154652  1
  H  H32  1  0.439611  0.056520  0.651030  1
  H  H33  1  0.635137  0.627647  0.080107  1
  H  H34  1  0.186180  0.026830  0.416791  1
  H  H35  1  0.939611  0.443480  0.848970  1
  H  H36  1  0.313820  0.526830  0.916791  1
  H  H37  1  0.908555  0.369094  0.318047  1
  H  H38  1  0.892597  0.308398  0.244544  1
  H  H39  1  0.537487  0.921452  0.650112  1
  H  H40  1  0.091445  0.630906  0.681953  1
  H  H41  1  0.530708  0.511424  0.051007  1
  H  H42  1  0.964319  0.781488  0.345348  1
  H  H43  1  0.962513  0.421452  0.150112  1
  H  H44  1  0.970810  0.837816  0.271924  1
  H  H45  1  0.408555  0.130906  0.181953  1
  H  H46  1  0.813820  0.973170  0.583209  1
  H  H47  1  0.623185  0.696762  0.190174  1
  W  W48  1  0.630195  0.689741  0.472428  1
  W  W49  1  0.406062  0.483277  0.389835  1
  W  W50  1  0.906062  0.016723  0.110165  1
  W  W51  1  0.093938  0.983277  0.889835  1
  W  W52  1  0.869805  0.189741  0.972428  1
  W  W53  1  0.795961  0.869156  0.969544  1
  W  W54  1  0.295961  0.630844  0.530456  1
  W  W55  1  0.704039  0.369156  0.469544  1
  W  W56  1  0.130195  0.810259  0.027572  1
  W  W57  1  0.204039  0.130844  0.030456  1
  W  W58  1  0.369805  0.310259  0.527572  1
  W  W59  1  0.593938  0.516723  0.610165  1
  C  C60  1  0.461105  0.972610  0.673561  1
  C  C61  1  0.538895  0.027390  0.326439  1
  C  C62  1  0.544619  0.860170  0.774720  1
  C  C63  1  0.602570  0.535169  0.085080  1
  C  C64  1  0.455381  0.139830  0.225280  1
  C  C65  1  0.897430  0.035169  0.585080  1
  C  C66  1  0.044619  0.639830  0.725280  1
  C  C67  1  0.961105  0.527390  0.826439  1
  C  C68  1  0.021471  0.835517  0.314529  1
  C  C69  1  0.102570  0.964831  0.414920  1
  C  C70  1  0.038895  0.472610  0.173561  1
  C  C71  1  0.955381  0.360170  0.274720  1
  C  C72  1  0.521471  0.664483  0.185471  1
  C  C73  1  0.978529  0.164483  0.685471  1
  C  C74  1  0.478529  0.335517  0.814529  1
  C  C75  1  0.397430  0.464831  0.914920  1
  S  S76  1  0.518876  0.008215  0.746550  1
  S  S77  1  0.476177  0.485583  0.844093  1
  S  S78  1  0.481124  0.991785  0.253450  1
  S  S79  1  0.018876  0.491785  0.753450  1
  S  S80  1  0.981124  0.508215  0.246550  1
  S  S81  1  0.523823  0.514417  0.155907  1
  S  S82  1  0.023823  0.985583  0.344093  1
  S  S83  1  0.976177  0.014417  0.655907  1
  Cl  Cl84  1  0.321214  0.941315  0.055448  1
  Cl  Cl85  1  0.430861  0.809041  0.502457  1
  Cl  Cl86  1  0.180585  0.967067  0.791448  1
  Cl  Cl87  1  0.287214  0.300243  0.423586  1
  Cl  Cl88  1  0.819415  0.032933  0.208552  1
  Cl  Cl89  1  0.783427  0.390793  0.573978  1
  Cl  Cl90  1  0.608199  0.360772  0.367538  1
  Cl  Cl91  1  0.821214  0.558685  0.444552  1
  Cl  Cl92  1  0.749799  0.866834  0.446055  1
  Cl  Cl93  1  0.037908  0.831830  0.129863  1
  Cl  Cl94  1  0.250201  0.133166  0.553945  1
  Cl  Cl95  1  0.891801  0.860772  0.867538  1
  Cl  Cl96  1  0.319416  0.467067  0.291448  1
  Cl  Cl97  1  0.110584  0.751185  0.558473  1
  Cl  Cl98  1  0.930861  0.690959  0.997543  1
  Cl  Cl99  1  0.391801  0.639228  0.632462  1
  Cl  Cl100  1  0.178786  0.441315  0.555448  1
  Cl  Cl101  1  0.750201  0.366834  0.946055  1
  Cl  Cl102  1  0.889416  0.248815  0.441527  1
  Cl  Cl103  1  0.283427  0.109207  0.926022  1
  Cl  Cl104  1  0.787214  0.199757  0.076414  1
  Cl  Cl105  1  0.212786  0.800243  0.923586  1
  Cl  Cl106  1  0.249799  0.633166  0.053945  1
  Cl  Cl107  1  0.962092  0.168170  0.870137  1
  Cl  Cl108  1  0.216573  0.609207  0.426022  1
  Cl  Cl109  1  0.108199  0.139228  0.132462  1
  Cl  Cl110  1  0.712786  0.699757  0.576414  1
  Cl  Cl111  1  0.069139  0.309041  0.002457  1
  Cl  Cl112  1  0.678786  0.058685  0.944552  1
  Cl  Cl113  1  0.680585  0.532933  0.708552  1
  Cl  Cl114  1  0.716573  0.890793  0.073978  1
  Cl  Cl115  1  0.569139  0.190959  0.497543  1
  Cl  Cl116  1  0.462092  0.331830  0.629863  1
  Cl  Cl117  1  0.537908  0.668170  0.370137  1
  Cl  Cl118  1  0.610584  0.748815  0.941527  1
  Cl  Cl119  1  0.389416  0.251185  0.058473  1
  O  O120  1  0.886815  0.938590  0.693064  1
  O  O121  1  0.113185  0.061410  0.306936  1
  O  O122  1  0.386815  0.561410  0.806936  1
  O  O123  1  0.613185  0.438590  0.193064  1
  O  O124  1  0.350406  0.928277  0.258440  1
  O  O125  1  0.649594  0.071723  0.741560  1
  O  O126  1  0.149594  0.428277  0.758440  1
  O  O127  1  0.850406  0.571723  0.241560  1
