# generated using pymatgen
data_Al5HO8
_symmetry_space_group_name_H-M   'P 1'
_cell_length_a   5.75026022
_cell_length_b   5.75023088
_cell_length_c   8.72165152
_cell_angle_alpha   90.00000000
_cell_angle_beta   90.00000000
_cell_angle_gamma   120.00016879
_symmetry_Int_Tables_number   1
_chemical_formula_structural   Al5HO8
_chemical_formula_sum   'Al10 H2 O16'
_cell_volume   249.74764647
_cell_formula_units_Z   2
loop_
 _symmetry_equiv_pos_site_id
 _symmetry_equiv_pos_as_xyz
  1  'x, y, z'
loop_
 _atom_site_type_symbol
 _atom_site_label
 _atom_site_symmetry_multiplicity
 _atom_site_fract_x
 _atom_site_fract_y
 _atom_site_fract_z
 _atom_site_occupancy
  Al  Al0  1  0.826075  0.173923  0.877509  1
  Al  Al1  1  0.826080  0.652159  0.877508  1
  Al  Al2  1  0.347847  0.173923  0.877509  1
  Al  Al3  1  0.173925  0.826077  0.377509  1
  Al  Al4  1  0.173920  0.347841  0.377508  1
  Al  Al5  1  0.652153  0.826077  0.377509  1
  Al  Al6  1  0.333333  0.666667  0.673037  1
  Al  Al7  1  0.666667  0.333333  0.173037  1
  Al  Al8  1  0.666668  0.333336  0.541842  1
  Al  Al9  1  0.333332  0.666664  0.041842  1
  H  H10  1  0.000005  0.000010  0.862959  1
  H  H11  1  0.999995  0.999990  0.362959  1
  O  O12  1  1.000000  0.999999  0.480226  1
  O  O13  1  0.000000  0.000001  0.980226  1
  O  O14  1  0.482702  0.517296  0.513378  1
  O  O15  1  0.482704  0.965409  0.513379  1
  O  O16  1  0.034594  0.517296  0.513378  1
  O  O17  1  0.517298  0.482704  0.013378  1
  O  O18  1  0.517296  0.034591  0.013379  1
  O  O19  1  0.965406  0.482704  0.013378  1
  O  O20  1  0.171165  0.828838  0.781286  1
  O  O21  1  0.171163  0.342326  0.781287  1
  O  O22  1  0.657673  0.828838  0.781286  1
  O  O23  1  0.828835  0.171162  0.281286  1
  O  O24  1  0.828837  0.657674  0.281287  1
  O  O25  1  0.342327  0.171162  0.281286  1
  O  O26  1  0.666668  0.333336  0.758717  1
  O  O27  1  0.333332  0.666664  0.258717  1
