# generated using pymatgen
data_CsTi(PS4)2
_symmetry_space_group_name_H-M   'P 1'
_cell_length_a   7.13195660
_cell_length_b   11.75684904
_cell_length_c   17.58933658
_cell_angle_alpha   98.19827964
_cell_angle_beta   90.00021485
_cell_angle_gamma   107.65950724
_symmetry_Int_Tables_number   1
_chemical_formula_structural   CsTi(PS4)2
_chemical_formula_sum   'Cs4 Ti4 P8 S32'
_cell_volume   1389.52716930
_cell_formula_units_Z   4
loop_
 _symmetry_equiv_pos_site_id
 _symmetry_equiv_pos_as_xyz
  1  'x, y, z'
loop_
 _atom_site_type_symbol
 _atom_site_label
 _atom_site_symmetry_multiplicity
 _atom_site_fract_x
 _atom_site_fract_y
 _atom_site_fract_z
 _atom_site_occupancy
  Cs  Cs0  1  0.701821  0.824248  0.350858  1
  Cs  Cs1  1  0.487656  0.505835  0.618093  1
  Cs  Cs2  1  0.018179  0.505837  0.118095  1
  Cs  Cs3  1  0.122426  0.824248  0.850855  1
  Ti  Ti4  1  0.653462  0.993423  0.101913  1
  Ti  Ti5  1  0.023582  0.295329  0.845816  1
  Ti  Ti6  1  0.339952  0.993423  0.601912  1
  Ti  Ti7  1  0.271749  0.295334  0.345819  1
  P  P8  1  0.422071  0.138017  0.210187  1
  P  P9  1  0.252624  0.152990  0.484416  1
  P  P10  1  0.900351  0.152984  0.984424  1
  P  P11  1  0.090765  0.722342  0.601478  1
  P  P12  1  0.631581  0.722341  0.101473  1
  P  P13  1  0.130567  0.531937  0.358919  1
  P  P14  1  0.715929  0.138000  0.710179  1
  P  P15  1  0.401393  0.531941  0.858920  1
  S  S16  1  0.121958  0.514240  0.898269  1
  S  S17  1  0.144310  0.677943  0.314369  1
  S  S18  1  0.898881  0.668756  0.497363  1
  S  S19  1  0.392287  0.514265  0.398279  1
  S  S20  1  0.429082  0.063271  0.738703  1
  S  S21  1  0.267046  0.978567  0.464015  1
  S  S22  1  0.552519  0.591059  0.163552  1
  S  S23  1  0.016748  0.874553  0.644384  1
  S  S24  1  0.769892  0.668751  0.997362  1
  S  S25  1  0.010368  0.362806  0.295117  1
  S  S26  1  0.820091  0.322601  0.743046  1
  S  S27  1  0.386204  0.081579  0.093762  1
  S  S28  1  0.634185  0.063271  0.238701  1
  S  S29  1  0.023944  0.186897  0.430211  1
  S  S30  1  0.502552  0.322592  0.243027  1
  S  S31  1  0.378192  0.791903  0.571241  1
  S  S32  1  0.857792  0.874552  0.144386  1
  S  S33  1  0.711530  0.978570  0.964017  1
  S  S34  1  0.914006  0.090380  0.773822  1
  S  S35  1  0.773433  0.269175  0.943828  1
  S  S36  1  0.916834  0.504748  0.449296  1
  S  S37  1  0.533626  0.677946  0.814374  1
  S  S38  1  0.587914  0.504743  0.949296  1
  S  S39  1  0.495741  0.269166  0.443841  1
  S  S40  1  0.242015  0.176898  0.601923  1
  S  S41  1  0.038539  0.591063  0.663547  1
  S  S42  1  0.695380  0.081578  0.593767  1
  S  S43  1  0.352400  0.362783  0.795125  1
  S  S44  1  0.162947  0.186912  0.930194  1
  S  S45  1  0.176386  0.090359  0.273811  1
  S  S46  1  0.413695  0.791906  0.071239  1
  S  S47  1  0.934872  0.176901  0.101919  1
