# generated using pymatgen
data_K16Zr12Se61
_symmetry_space_group_name_H-M   'P 1'
_cell_length_a   12.78152033
_cell_length_b   15.10427568
_cell_length_c   15.53200373
_cell_angle_alpha   73.71743946
_cell_angle_beta   76.89499387
_cell_angle_gamma   71.36115725
_symmetry_Int_Tables_number   1
_chemical_formula_structural   K16Zr12Se61
_chemical_formula_sum   'K16 Zr12 Se61'
_cell_volume   2696.13691577
_cell_formula_units_Z   1
loop_
 _symmetry_equiv_pos_site_id
 _symmetry_equiv_pos_as_xyz
  1  'x, y, z'
loop_
 _atom_site_type_symbol
 _atom_site_label
 _atom_site_symmetry_multiplicity
 _atom_site_fract_x
 _atom_site_fract_y
 _atom_site_fract_z
 _atom_site_occupancy
  K  K0  1  0.005229  0.029355  0.175594  1
  K  K1  1  0.131672  0.614423  0.346843  1
  K  K2  1  0.282630  0.300553  0.142978  1
  K  K3  1  0.213773  0.252689  0.825925  1
  K  K4  1  0.155288  0.636078  0.638636  1
  K  K5  1  0.600283  0.103533  0.340547  1
  K  K6  1  0.372370  0.832459  0.320468  1
  K  K7  1  0.418108  0.462012  0.849923  1
  K  K8  1  0.582545  0.538438  0.148129  1
  K  K9  1  0.628409  0.167581  0.679699  1
  K  K10  1  0.401560  0.895003  0.659619  1
  K  K11  1  0.864875  0.365237  0.347026  1
  K  K12  1  0.787417  0.747540  0.174671  1
  K  K13  1  0.717782  0.699415  0.855415  1
  K  K14  1  0.890037  0.387608  0.652730  1
  K  K15  1  0.993985  0.970580  0.824830  1
  Zr  Zr16  1  0.116825  0.065731  0.501141  1
  Zr  Zr17  1  0.076281  0.583337  0.003380  1
  Zr  Zr18  1  0.253544  0.248938  0.503877  1
  Zr  Zr19  1  0.243147  0.742292  0.005851  1
  Zr  Zr20  1  0.405375  0.424454  0.487205  1
  Zr  Zr21  1  0.382918  0.929736  0.006326  1
  Zr  Zr22  1  0.616878  0.068598  0.996054  1
  Zr  Zr23  1  0.581439  0.575343  0.513515  1
  Zr  Zr24  1  0.756934  0.256766  0.994418  1
  Zr  Zr25  1  0.743995  0.749262  0.497117  1
  Zr  Zr26  1  0.923737  0.416301  0.997154  1
  Zr  Zr27  1  0.883354  0.932393  0.498891  1
  Se  Se28  1  0.015455  0.778621  0.019983  1
  Se  Se29  1  0.067674  0.536083  0.183280  1
  Se  Se30  1  0.071916  0.392785  0.451592  1
  Se  Se31  1  0.131558  0.253191  0.379839  1
  Se  Se32  1  0.106560  0.152930  0.635127  1
  Se  Se33  1  0.271148  0.092409  0.069743  1
  Se  Se34  1  0.252714  0.072962  0.334711  1
  Se  Se35  1  0.086655  0.799377  0.145593  1
  Se  Se36  1  0.069281  0.818103  0.415395  1
  Se  Se37  1  0.246656  0.551964  0.099745  1
  Se  Se38  1  0.014759  0.723050  0.853230  1
  Se  Se39  1  0.446614  0.008924  0.123305  1
  Se  Se40  1  0.339362  0.069438  0.459097  1
  Se  Se41  1  0.022873  0.922805  0.616858  1
  Se  Se42  1  0.288502  0.009645  0.849091  1
  Se  Se43  1  0.214595  0.397172  0.598075  1
  Se  Se44  1  0.143281  0.421051  0.953664  1
  Se  Se45  1  0.318391  0.391505  0.357144  1
  Se  Se46  1  0.369651  0.131301  0.641708  1
  Se  Se47  1  0.213911  0.872066  0.549072  1
  Se  Se48  1  0.212374  0.676543  0.861467  1
  Se  Se49  1  0.358452  0.768001  0.133332  1
  Se  Se50  1  0.373617  0.384471  0.668816  1
  Se  Se51  1  0.474285  0.215402  0.511216  1
  Se  Se52  1  0.371866  0.607202  0.459757  1
  Se  Se53  1  0.593997  0.196549  0.118808  1
  Se  Se54  1  0.553418  0.370189  0.051024  1
  Se  Se55  1  0.170996  0.940283  0.982310  1
  Se  Se56  1  0.520830  0.358371  0.334870  1
  Se  Se57  1  0.450887  0.224326  0.931480  1
  Se  Se58  1  0.548902  0.774367  0.070945  1
  Se  Se59  1  0.467312  0.655016  0.659123  1
  Se  Se60  1  0.828994  0.058357  0.019441  1
  Se  Se61  1  0.626124  0.386648  0.496336  1
  Se  Se62  1  0.446875  0.628929  0.949312  1
  Se  Se63  1  0.406205  0.802860  0.882488  1
  Se  Se64  1  0.522236  0.780711  0.487987  1
  Se  Se65  1  0.633267  0.615695  0.328098  1
  Se  Se66  1  0.641436  0.229269  0.869135  1
  Se  Se67  1  0.628818  0.407505  0.642503  1
  Se  Se68  1  0.788163  0.322870  0.138793  1
  Se  Se69  1  0.787347  0.126820  0.451141  1
  Se  Se70  1  0.631436  0.865479  0.357930  1
  Se  Se71  1  0.667315  0.620529  0.646203  1
  Se  Se72  1  0.857124  0.578664  0.046673  1
  Se  Se73  1  0.781683  0.594842  0.410367  1
  Se  Se74  1  0.712491  0.989167  0.152879  1
  Se  Se75  1  0.977888  0.076077  0.383109  1
  Se  Se76  1  0.660122  0.929491  0.540247  1
  Se  Se77  1  0.552248  0.989872  0.878777  1
  Se  Se78  1  0.986067  0.276097  0.146934  1
  Se  Se79  1  0.753765  0.447528  0.900693  1
  Se  Se80  1  0.931218  0.181857  0.582758  1
  Se  Se81  1  0.913139  0.200862  0.854111  1
  Se  Se82  1  0.746506  0.927150  0.664673  1
  Se  Se83  1  0.728280  0.906597  0.931350  1
  Se  Se84  1  0.892894  0.846401  0.364844  1
  Se  Se85  1  0.871372  0.745499  0.618592  1
  Se  Se86  1  0.931079  0.609208  0.543939  1
  Se  Se87  1  0.932138  0.465816  0.817791  1
  Se  Se88  1  0.984831  0.220842  0.979224  1
