# generated using pymatgen
data_NaAlH2CO5
_symmetry_space_group_name_H-M   'P 1'
_cell_length_a   6.86772726
_cell_length_b   6.86772726
_cell_length_c   6.86772726
_cell_angle_alpha   119.41526105
_cell_angle_beta   131.34835661
_cell_angle_gamma   81.27041149
_symmetry_Int_Tables_number   1
_chemical_formula_structural   NaAlH2CO5
_chemical_formula_sum   'Na2 Al2 H4 C2 O10'
_cell_volume   204.30142992
_cell_formula_units_Z   2
loop_
 _symmetry_equiv_pos_site_id
 _symmetry_equiv_pos_as_xyz
  1  'x, y, z'
loop_
 _atom_site_type_symbol
 _atom_site_label
 _atom_site_symmetry_multiplicity
 _atom_site_fract_x
 _atom_site_fract_y
 _atom_site_fract_z
 _atom_site_occupancy
  Na  Na0  1  0.000000  0.500000  0.000000  1
  Na  Na1  1  0.000000  0.000000  0.500000  1
  Al  Al2  1  0.000000  0.500000  0.500000  1
  Al  Al3  1  0.500000  0.500000  0.000000  1
  H  H4  1  0.279236  0.232380  0.453144  1
  H  H5  1  0.720764  0.173908  0.953144  1
  H  H6  1  0.720764  0.767620  0.546856  1
  H  H7  1  0.279236  0.826092  0.046856  1
  C  C8  1  0.498675  0.748675  0.750000  1
  C  C9  1  0.501325  0.251325  0.250000  1
  O  O10  1  0.620159  0.870159  0.750000  1
  O  O11  1  0.379841  0.129840  0.250000  1
  O  O12  1  0.234193  0.685165  0.549028  1
  O  O13  1  0.765807  0.314835  0.450972  1
  O  O14  1  0.363863  0.314835  0.049028  1
  O  O15  1  0.636137  0.685165  0.950972  1
  O  O16  1  0.224825  0.295879  0.571053  1
  O  O17  1  0.775175  0.346228  0.071053  1
  O  O18  1  0.775175  0.704121  0.428947  1
  O  O19  1  0.224825  0.653772  0.928947  1
