# generated using pymatgen
data_Na12SnGe8
_symmetry_space_group_name_H-M   'P 1'
_cell_length_a   14.23812832
_cell_length_b   14.23812832
_cell_length_c   22.06841302
_cell_angle_alpha   90.00000000
_cell_angle_beta   90.00000000
_cell_angle_gamma   90.00000000
_symmetry_Int_Tables_number   1
_chemical_formula_structural   Na12SnGe8
_chemical_formula_sum   'Na96 Sn8 Ge64'
_cell_volume   4473.80353871
_cell_formula_units_Z   8
loop_
 _symmetry_equiv_pos_site_id
 _symmetry_equiv_pos_as_xyz
  1  'x, y, z'
loop_
 _atom_site_type_symbol
 _atom_site_label
 _atom_site_symmetry_multiplicity
 _atom_site_fract_x
 _atom_site_fract_y
 _atom_site_fract_z
 _atom_site_occupancy
  Na  Na0  1  0.261723  0.578689  0.746807  1
  Na  Na1  1  0.929274  0.125730  0.124657  1
  Na  Na2  1  0.379671  0.134595  0.844704  1
  Na  Na3  1  0.334411  0.354773  0.766858  1
  Na  Na4  1  0.134595  0.379671  0.155296  1
  Na  Na5  1  0.436637  0.603546  0.629095  1
  Na  Na6  1  0.675553  0.353690  0.995342  1
  Na  Na7  1  0.116990  0.383691  0.674192  1
  Na  Na8  1  0.498992  0.981607  0.962382  1
  Na  Na9  1  0.731178  0.424740  0.772174  1
  Na  Na10  1  0.917692  0.229642  0.268811  1
  Na  Na11  1  0.761723  0.921311  0.003193  1
  Na  Na12  1  0.620329  0.865405  0.344704  1
  Na  Na13  1  0.424740  0.731178  0.227826  1
  Na  Na14  1  0.738277  0.421311  0.246807  1
  Na  Na15  1  0.616990  0.116309  0.075808  1
  Na  Na16  1  0.565773  0.723216  0.515030  1
  Na  Na17  1  0.165589  0.854773  0.483142  1
  Na  Na18  1  0.365405  0.879671  0.094704  1
  Na  Na19  1  0.634595  0.120329  0.594704  1
  Na  Na20  1  0.383691  0.116990  0.325808  1
  Na  Na21  1  0.853690  0.824447  0.745342  1
  Na  Na22  1  0.353690  0.675553  0.004658  1
  Na  Na23  1  0.896454  0.936637  0.879095  1
  Na  Na24  1  0.120329  0.634595  0.405296  1
  Na  Na25  1  0.116309  0.616990  0.924192  1
  Na  Na26  1  0.324447  0.646310  0.495342  1
  Na  Na27  1  0.924740  0.768822  0.522174  1
  Na  Na28  1  0.616309  0.883010  0.825808  1
  Na  Na29  1  0.223216  0.934227  0.265031  1
  Na  Na30  1  0.374270  0.429274  0.374657  1
  Na  Na31  1  0.018393  0.501008  0.537618  1
  Na  Na32  1  0.078689  0.238277  0.496807  1
  Na  Na33  1  0.103546  0.063363  0.379095  1
  Na  Na34  1  0.231178  0.075260  0.977826  1
  Na  Na35  1  0.768822  0.924740  0.477826  1
  Na  Na36  1  0.936637  0.896454  0.120905  1
  Na  Na37  1  0.563363  0.396454  0.129095  1
  Na  Na38  1  0.001008  0.481607  0.287618  1
  Na  Na39  1  0.354773  0.334411  0.233142  1
  Na  Na40  1  0.883691  0.383010  0.424192  1
  Na  Na41  1  0.776784  0.065773  0.765030  1
  Na  Na42  1  0.481607  0.001008  0.712382  1
  Na  Na43  1  0.665589  0.645227  0.266858  1
  Na  Na44  1  0.070726  0.874270  0.624657  1
  Na  Na45  1  0.421311  0.738277  0.753193  1
  Na  Na46  1  0.582308  0.729642  0.981189  1
  Na  Na47  1  0.603546  0.436637  0.370905  1
  Na  Na48  1  0.824447  0.853690  0.254658  1
  Na  Na49  1  0.383010  0.883691  0.575808  1
  Na  Na50  1  0.979003  0.861669  0.374741  1
  Na  Na51  1  0.883010  0.616309  0.174192  1
  Na  Na52  1  0.020997  0.138331  0.874741  1
  Na  Na53  1  0.417692  0.270358  0.481189  1
  Na  Na54  1  0.075260  0.231178  0.022174  1
  Na  Na55  1  0.082308  0.770358  0.768811  1
  Na  Na56  1  0.145227  0.834411  0.016858  1
  Na  Na57  1  0.429274  0.374270  0.625343  1
  Na  Na58  1  0.981607  0.498992  0.037618  1
  Na  Na59  1  0.146310  0.175553  0.245342  1
  Na  Na60  1  0.268822  0.575260  0.272174  1
  Na  Na61  1  0.501008  0.018393  0.462382  1
  Na  Na62  1  0.138331  0.020997  0.125259  1
  Na  Na63  1  0.723216  0.565773  0.484969  1
  Na  Na64  1  0.575260  0.268822  0.727826  1
  Na  Na65  1  0.921311  0.761723  0.996807  1
  Na  Na66  1  0.578689  0.261723  0.253193  1
  Na  Na67  1  0.270358  0.417692  0.518811  1
  Na  Na68  1  0.479003  0.638331  0.375259  1
  Na  Na69  1  0.065773  0.776784  0.234969  1
  Na  Na70  1  0.276784  0.434227  0.984970  1
  Na  Na71  1  0.834411  0.145227  0.983142  1
  Na  Na72  1  0.861669  0.979003  0.625259  1
  Na  Na73  1  0.175553  0.146310  0.754658  1
  Na  Na74  1  0.229642  0.917692  0.731189  1
  Na  Na75  1  0.570726  0.625730  0.125343  1
  Na  Na76  1  0.646310  0.324447  0.504658  1
  Na  Na77  1  0.063363  0.103546  0.620905  1
  Na  Na78  1  0.638331  0.479003  0.624741  1
  Na  Na79  1  0.125730  0.929274  0.875343  1
  Na  Na80  1  0.396454  0.563363  0.870905  1
  Na  Na81  1  0.625730  0.570726  0.874657  1
  Na  Na82  1  0.238277  0.078689  0.503193  1
  Na  Na83  1  0.879671  0.365405  0.905296  1
  Na  Na84  1  0.645227  0.665589  0.733142  1
  Na  Na85  1  0.865405  0.620329  0.655296  1
  Na  Na86  1  0.434227  0.276784  0.015031  1
  Na  Na87  1  0.520997  0.361669  0.875259  1
  Na  Na88  1  0.874270  0.070726  0.375343  1
  Na  Na89  1  0.518393  0.998992  0.212382  1
  Na  Na90  1  0.361669  0.520997  0.124741  1
  Na  Na91  1  0.934227  0.223216  0.734970  1
  Na  Na92  1  0.770358  0.082308  0.231189  1
  Na  Na93  1  0.998992  0.518393  0.787618  1
  Na  Na94  1  0.729642  0.582308  0.018811  1
  Na  Na95  1  0.854773  0.165589  0.516858  1
  Sn  Sn96  1  0.989925  0.989925  0.500000  1
  Sn  Sn97  1  0.489925  0.510075  0.250000  1
  Sn  Sn98  1  0.502668  0.502668  0.000000  1
  Sn  Sn99  1  0.002668  0.997332  0.750000  1
  Sn  Sn100  1  0.497332  0.497332  0.500000  1
  Sn  Sn101  1  0.997332  0.002668  0.250000  1
  Sn  Sn102  1  0.510075  0.489925  0.750000  1
  Sn  Sn103  1  0.010075  0.010075  0.000000  1
  Ge  Ge104  1  0.739422  0.770396  0.108490  1
  Ge  Ge105  1  0.552099  0.216947  0.387288  1
  Ge  Ge106  1  0.872804  0.318373  0.052837  1
  Ge  Ge107  1  0.223777  0.276614  0.885469  1
  Ge  Ge108  1  0.818373  0.627196  0.802837  1
  Ge  Ge109  1  0.118891  0.584961  0.174947  1
  Ge  Ge110  1  0.677143  0.915716  0.687107  1
  Ge  Ge111  1  0.760578  0.270396  0.141510  1
  Ge  Ge112  1  0.047348  0.701516  0.098978  1
  Ge  Ge113  1  0.723777  0.223386  0.864531  1
  Ge  Ge114  1  0.822857  0.415716  0.562893  1
  Ge  Ge115  1  0.584961  0.118891  0.825053  1
  Ge  Ge116  1  0.783053  0.447901  0.112712  1
  Ge  Ge117  1  0.701516  0.047348  0.901022  1
  Ge  Ge118  1  0.729604  0.239422  0.358490  1
  Ge  Ge119  1  0.798484  0.547348  0.348978  1
  Ge  Ge120  1  0.077462  0.640660  0.662828  1
  Ge  Ge121  1  0.947901  0.716947  0.862712  1
  Ge  Ge122  1  0.052099  0.283053  0.362712  1
  Ge  Ge123  1  0.681627  0.127196  0.447163  1
  Ge  Ge124  1  0.452652  0.201516  0.151022  1
  Ge  Ge125  1  0.372804  0.181627  0.697163  1
  Ge  Ge126  1  0.223386  0.723777  0.135469  1
  Ge  Ge127  1  0.716947  0.947901  0.137288  1
  Ge  Ge128  1  0.577462  0.859340  0.087172  1
  Ge  Ge129  1  0.276614  0.223777  0.114531  1
  Ge  Ge130  1  0.723386  0.776223  0.614531  1
  Ge  Ge131  1  0.229604  0.260578  0.391510  1
  Ge  Ge132  1  0.270396  0.760578  0.858490  1
  Ge  Ge133  1  0.415039  0.881109  0.325053  1
  Ge  Ge134  1  0.216947  0.552099  0.612712  1
  Ge  Ge135  1  0.881109  0.415039  0.674947  1
  Ge  Ge136  1  0.177143  0.584284  0.062893  1
  Ge  Ge137  1  0.776223  0.723386  0.385469  1
  Ge  Ge138  1  0.140660  0.422538  0.412828  1
  Ge  Ge139  1  0.618891  0.915039  0.575053  1
  Ge  Ge140  1  0.127196  0.681627  0.552837  1
  Ge  Ge141  1  0.447901  0.783053  0.887288  1
  Ge  Ge142  1  0.952652  0.298484  0.598978  1
  Ge  Ge143  1  0.415716  0.822857  0.437107  1
  Ge  Ge144  1  0.283053  0.052099  0.637288  1
  Ge  Ge145  1  0.239422  0.729604  0.641510  1
  Ge  Ge146  1  0.547348  0.798484  0.651022  1
  Ge  Ge147  1  0.276223  0.776614  0.364531  1
  Ge  Ge148  1  0.359340  0.922538  0.837172  1
  Ge  Ge149  1  0.915039  0.618891  0.424947  1
  Ge  Ge150  1  0.584284  0.177143  0.937107  1
  Ge  Ge151  1  0.776614  0.276223  0.635469  1
  Ge  Ge152  1  0.181627  0.372804  0.302837  1
  Ge  Ge153  1  0.422538  0.140660  0.587172  1
  Ge  Ge154  1  0.627196  0.818373  0.197163  1
  Ge  Ge155  1  0.640660  0.077462  0.337172  1
  Ge  Ge156  1  0.084961  0.381109  0.924947  1
  Ge  Ge157  1  0.084284  0.322857  0.812893  1
  Ge  Ge158  1  0.915716  0.677143  0.312893  1
  Ge  Ge159  1  0.381109  0.084961  0.075053  1
  Ge  Ge160  1  0.318373  0.872804  0.947163  1
  Ge  Ge161  1  0.770396  0.739422  0.891510  1
  Ge  Ge162  1  0.322857  0.084284  0.187107  1
  Ge  Ge163  1  0.922538  0.359340  0.162828  1
  Ge  Ge164  1  0.298484  0.952652  0.401022  1
  Ge  Ge165  1  0.859340  0.577462  0.912828  1
  Ge  Ge166  1  0.260578  0.229604  0.608490  1
  Ge  Ge167  1  0.201516  0.452652  0.848978  1
