# generated using pymatgen
data_SnHg2(SBr)2
_symmetry_space_group_name_H-M   'P 1'
_cell_length_a   8.91741251
_cell_length_b   10.44987363
_cell_length_c   14.41209994
_cell_angle_alpha   110.46243990
_cell_angle_beta   90.00000000
_cell_angle_gamma   90.00000000
_symmetry_Int_Tables_number   1
_chemical_formula_structural   SnHg2(SBr)2
_chemical_formula_sum   'Sn4 Hg8 S8 Br8'
_cell_volume   1258.26212939
_cell_formula_units_Z   4
loop_
 _symmetry_equiv_pos_site_id
 _symmetry_equiv_pos_as_xyz
  1  'x, y, z'
loop_
 _atom_site_type_symbol
 _atom_site_label
 _atom_site_symmetry_multiplicity
 _atom_site_fract_x
 _atom_site_fract_y
 _atom_site_fract_z
 _atom_site_occupancy
  Sn  Sn0  1  0.619193  0.683142  0.538493  1
  Sn  Sn1  1  0.119193  0.816858  0.961507  1
  Sn  Sn2  1  0.880807  0.183142  0.038493  1
  Sn  Sn3  1  0.380807  0.316858  0.461507  1
  Hg  Hg4  1  0.173645  0.932606  0.384558  1
  Hg  Hg5  1  0.326355  0.432606  0.884558  1
  Hg  Hg6  1  0.431426  0.868658  0.180678  1
  Hg  Hg7  1  0.931426  0.631342  0.319322  1
  Hg  Hg8  1  0.826355  0.067394  0.615442  1
  Hg  Hg9  1  0.673645  0.567394  0.115442  1
  Hg  Hg10  1  0.568574  0.131342  0.819322  1
  Hg  Hg11  1  0.068574  0.368658  0.680678  1
  S  S12  1  0.969119  0.196198  0.540019  1
  S  S13  1  0.530881  0.696198  0.040019  1
  S  S14  1  0.817423  0.442676  0.194675  1
  S  S15  1  0.682577  0.942676  0.694675  1
  S  S16  1  0.030881  0.803802  0.459981  1
  S  S17  1  0.317423  0.057324  0.305325  1
  S  S18  1  0.182577  0.557324  0.805325  1
  S  S19  1  0.469119  0.303802  0.959981  1
  Br  Br20  1  0.944555  0.271807  0.889838  1
  Br  Br21  1  0.665070  0.373617  0.427805  1
  Br  Br22  1  0.555445  0.771807  0.389838  1
  Br  Br23  1  0.165070  0.126383  0.072195  1
  Br  Br24  1  0.834930  0.873617  0.927805  1
  Br  Br25  1  0.334930  0.626383  0.572195  1
  Br  Br26  1  0.055445  0.728193  0.110162  1
  Br  Br27  1  0.444555  0.228193  0.610162  1
