# generated using pymatgen
data_Pr2Ta3(SeO4)2
_symmetry_space_group_name_H-M   'P 1'
_cell_length_a   7.68280514
_cell_length_b   10.00224790
_cell_length_c   12.01726190
_cell_angle_alpha   90.00000000
_cell_angle_beta   90.00000000
_cell_angle_gamma   90.00000000
_symmetry_Int_Tables_number   1
_chemical_formula_structural   Pr2Ta3(SeO4)2
_chemical_formula_sum   'Pr8 Ta12 Se8 O32'
_cell_volume   923.47035519
_cell_formula_units_Z   4
loop_
 _symmetry_equiv_pos_site_id
 _symmetry_equiv_pos_as_xyz
  1  'x, y, z'
loop_
 _atom_site_type_symbol
 _atom_site_label
 _atom_site_symmetry_multiplicity
 _atom_site_fract_x
 _atom_site_fract_y
 _atom_site_fract_z
 _atom_site_occupancy
  O  O0  1  0.500000  0.364590  0.051470  1
  O  O1  1  0.500000  0.635410  0.948530  1
  O  O2  1  0.000000  0.864590  0.448530  1
  O  O3  1  0.000000  0.135410  0.551470  1
  O  O4  1  0.500000  0.150274  0.548915  1
  O  O5  1  0.500000  0.849726  0.451085  1
  O  O6  1  0.000000  0.650274  0.951085  1
  O  O7  1  0.000000  0.349726  0.048915  1
  O  O8  1  0.751795  0.787578  0.276006  1
  O  O9  1  0.751795  0.212422  0.723994  1
  O  O10  1  0.748205  0.287578  0.223994  1
  O  O11  1  0.748205  0.712422  0.776006  1
  O  O12  1  0.248205  0.212422  0.723994  1
  O  O13  1  0.248205  0.787578  0.276006  1
  O  O14  1  0.264820  0.197151  0.975373  1
  O  O15  1  0.251795  0.712422  0.776006  1
  O  O16  1  0.754195  0.556138  0.102904  1
  O  O17  1  0.754195  0.443862  0.897096  1
  O  O18  1  0.745805  0.056138  0.397096  1
  O  O19  1  0.745805  0.943862  0.602904  1
  O  O20  1  0.245805  0.443862  0.897096  1
  O  O21  1  0.245805  0.556138  0.102904  1
  O  O22  1  0.254195  0.943862  0.602904  1
  O  O23  1  0.254195  0.056138  0.397096  1
  O  O24  1  0.735180  0.802849  0.024627  1
  O  O25  1  0.735180  0.197151  0.975373  1
  O  O26  1  0.764820  0.302849  0.475373  1
  O  O27  1  0.764820  0.697151  0.524627  1
  O  O28  1  0.235180  0.302849  0.475373  1
  O  O29  1  0.235180  0.697151  0.524627  1
  O  O30  1  0.264820  0.802849  0.024627  1
  O  O31  1  0.251795  0.287578  0.223994  1
  Se  Se32  1  0.500000  0.980239  0.836723  1
  Se  Se33  1  0.500000  0.019761  0.163277  1
  Se  Se34  1  0.000000  0.480239  0.663277  1
  Se  Se35  1  0.000000  0.519761  0.336723  1
  Se  Se36  1  0.500000  0.476656  0.638301  1
  Se  Se37  1  0.500000  0.523344  0.361699  1
  Se  Se38  1  0.000000  0.976656  0.861699  1
  Se  Se39  1  0.000000  0.023344  0.138301  1
  Pr  Pr40  1  0.000000  0.789837  0.656843  1
  Pr  Pr41  1  0.500000  0.710163  0.156843  1
  Pr  Pr42  1  0.500000  0.289837  0.843157  1
  Pr  Pr43  1  0.000000  0.727327  0.148998  1
  Pr  Pr44  1  0.000000  0.272673  0.851002  1
  Pr  Pr45  1  0.500000  0.227327  0.351002  1
  Pr  Pr46  1  0.000000  0.210163  0.343157  1
  Pr  Pr47  1  0.500000  0.772673  0.648998  1
  Ta  Ta48  1  0.249747  0.135904  0.583426  1
  Ta  Ta49  1  0.249747  0.864096  0.416574  1
  Ta  Ta50  1  0.250253  0.635904  0.916574  1
  Ta  Ta51  1  0.250253  0.364096  0.083426  1
  Ta  Ta52  1  0.749747  0.635904  0.916574  1
  Ta  Ta53  1  0.750253  0.135904  0.583426  1
  Ta  Ta54  1  0.750253  0.864096  0.416574  1
  Ta  Ta55  1  0.285497  0.000000  0.000000  1
  Ta  Ta56  1  0.214503  0.500000  0.500000  1
  Ta  Ta57  1  0.714503  0.000000  0.000000  1
  Ta  Ta58  1  0.785497  0.500000  0.500000  1
  Ta  Ta59  1  0.749747  0.364096  0.083426  1
