# generated using pymatgen
data_U5O11
_symmetry_space_group_name_H-M   'P 1'
_cell_length_a   3.83625812
_cell_length_b   3.87612801
_cell_length_c   19.09235727
_cell_angle_alpha   59.50526788
_cell_angle_beta   59.66338407
_cell_angle_gamma   59.90265788
_symmetry_Int_Tables_number   1
_chemical_formula_structural   U5O11
_chemical_formula_sum   'U5 O11'
_cell_volume   199.33106625
_cell_formula_units_Z   1
loop_
 _symmetry_equiv_pos_site_id
 _symmetry_equiv_pos_as_xyz
  1  'x, y, z'
loop_
 _atom_site_type_symbol
 _atom_site_label
 _atom_site_symmetry_multiplicity
 _atom_site_fract_x
 _atom_site_fract_y
 _atom_site_fract_z
 _atom_site_occupancy
  U  U0  1  0.974888  0.027795  0.994846  1
  U  U1  1  0.962253  0.011321  0.204017  1
  U  U2  1  0.976518  0.998715  0.405232  1
  U  U3  1  0.984882  0.987997  0.607228  1
  U  U4  1  0.962615  0.977568  0.817216  1
  O  O5  1  0.178668  0.241459  0.068925  1
  O  O6  1  0.694450  0.749536  0.162706  1
  O  O7  1  0.209338  0.254928  0.257127  1
  O  O8  1  0.721837  0.746536  0.357323  1
  O  O9  1  0.246321  0.249729  0.650637  1
  O  O10  1  0.226353  0.248360  0.455290  1
  O  O11  1  0.737191  0.741564  0.555463  1
  O  O12  1  0.261640  0.277219  0.838118  1
  O  O13  1  0.760298  0.760870  0.743817  1
  O  O14  1  0.467163  0.504458  0.906224  1
  O  O15  1  0.677586  0.735944  0.973032  1
