# generated using pymatgen
data_CoH32C8S4(NO5)2
_symmetry_space_group_name_H-M   'P 1'
_cell_length_a   10.53047868
_cell_length_b   11.09005872
_cell_length_c   11.48710507
_cell_angle_alpha   90.00000000
_cell_angle_beta   90.00000000
_cell_angle_gamma   109.20907772
_symmetry_Int_Tables_number   1
_chemical_formula_structural   CoH32C8S4(NO5)2
_chemical_formula_sum   'Co2 H64 C16 S8 N4 O20'
_cell_volume   1266.81645704
_cell_formula_units_Z   2
loop_
 _symmetry_equiv_pos_site_id
 _symmetry_equiv_pos_as_xyz
  1  'x, y, z'
loop_
 _atom_site_type_symbol
 _atom_site_label
 _atom_site_symmetry_multiplicity
 _atom_site_fract_x
 _atom_site_fract_y
 _atom_site_fract_z
 _atom_site_occupancy
  Co  Co0  1  0.500000  0.500000  0.500000  1
  Co  Co1  1  0.000000  0.000000  0.000000  1
  H  H2  1  0.355180  0.525602  0.003460  1
  H  H3  1  0.028009  0.633326  0.580406  1
  H  H4  1  0.835084  0.580230  0.172778  1
  H  H5  1  0.158119  0.515265  0.113246  1
  H  H6  1  0.341881  0.984735  0.613246  1
  H  H7  1  0.483845  0.676636  0.978665  1
  H  H8  1  0.191391  0.177928  0.915836  1
  H  H9  1  0.689129  0.273787  0.503011  1
  H  H10  1  0.466084  0.601122  0.120255  1
  H  H11  1  0.189129  0.773787  0.996989  1
  H  H12  1  0.139469  0.657620  0.175980  1
  H  H13  1  0.360531  0.842380  0.675980  1
  H  H14  1  0.666482  0.227240  0.087897  1
  H  H15  1  0.834866  0.636690  0.389635  1
  H  H16  1  0.306235  0.871733  0.430279  1
  H  H17  1  0.756475  0.085989  0.263325  1
  H  H18  1  0.335084  0.080230  0.327222  1
  H  H19  1  0.179701  0.162699  0.208114  1
  H  H20  1  0.533916  0.398878  0.879745  1
  H  H21  1  0.033916  0.898878  0.620255  1
  H  H22  1  0.826173  0.358271  0.335645  1
  H  H23  1  0.471991  0.866674  0.080406  1
  H  H24  1  0.983845  0.176636  0.521335  1
  H  H25  1  0.310871  0.726213  0.496989  1
  H  H26  1  0.144820  0.974398  0.503460  1
  H  H27  1  0.256475  0.585989  0.236675  1
  H  H28  1  0.855180  0.025602  0.496540  1
  H  H29  1  0.308609  0.322072  0.415836  1
  H  H30  1  0.841881  0.484735  0.886754  1
  H  H31  1  0.528009  0.133326  0.919594  1
  H  H32  1  0.644820  0.474398  0.996540  1
  H  H33  1  0.516155  0.323364  0.021335  1
  H  H34  1  0.333518  0.772760  0.912103  1
  H  H35  1  0.055620  0.717708  0.716024  1
  H  H36  1  0.806235  0.371733  0.069721  1
  H  H37  1  0.444380  0.782292  0.216024  1
  H  H38  1  0.639469  0.157620  0.324020  1
  H  H39  1  0.173827  0.641729  0.664355  1
  H  H40  1  0.673827  0.141729  0.835645  1
  H  H41  1  0.334866  0.136690  0.110365  1
  H  H42  1  0.326173  0.858271  0.164355  1
  H  H43  1  0.808609  0.822072  0.084164  1
  H  H44  1  0.971991  0.366674  0.419594  1
  H  H45  1  0.243525  0.914011  0.736675  1
  H  H46  1  0.664916  0.919770  0.672778  1
  H  H47  1  0.679701  0.662699  0.291886  1
  H  H48  1  0.665134  0.863310  0.889635  1
  H  H49  1  0.693765  0.128267  0.569721  1
  H  H50  1  0.016155  0.823364  0.478665  1
  H  H51  1  0.944380  0.282292  0.283976  1
  H  H52  1  0.166482  0.727240  0.412103  1
  H  H53  1  0.966084  0.101122  0.379745  1
  H  H54  1  0.820299  0.837301  0.791886  1
  H  H55  1  0.658119  0.015265  0.386754  1
  H  H56  1  0.691391  0.677928  0.584164  1
  H  H57  1  0.555620  0.217708  0.783976  1
  H  H58  1  0.164916  0.419770  0.827222  1
  H  H59  1  0.193765  0.628267  0.930279  1
  H  H60  1  0.743525  0.414011  0.763325  1
  H  H61  1  0.860531  0.342380  0.824020  1
  H  H62  1  0.165134  0.363310  0.610365  1
  H  H63  1  0.320299  0.337301  0.708114  1
  H  H64  1  0.833518  0.272760  0.587897  1
  H  H65  1  0.810871  0.226213  0.003011  1
  C  C66  1  0.209605  0.605689  0.157329  1
  C  C67  1  0.586437  0.382916  0.957362  1
  C  C68  1  0.104336  0.692483  0.639966  1
  C  C69  1  0.413563  0.617084  0.042638  1
  C  C70  1  0.709605  0.105689  0.342671  1
  C  C71  1  0.895664  0.307517  0.360034  1
  C  C72  1  0.913563  0.117084  0.457362  1
  C  C73  1  0.604336  0.192483  0.860034  1
  C  C74  1  0.086437  0.882916  0.542638  1
  C  C75  1  0.790395  0.394311  0.842671  1
  C  C76  1  0.290395  0.894311  0.657329  1
  C  C77  1  0.253612  0.718134  0.971116  1
  C  C78  1  0.395664  0.807517  0.139966  1
  C  C79  1  0.746388  0.281866  0.028884  1
  C  C80  1  0.246388  0.781866  0.471116  1
  C  C81  1  0.753612  0.218134  0.528884  1
  S  S82  1  0.157719  0.234508  0.818759  1
  S  S83  1  0.104479  0.932358  0.131666  1
  S  S84  1  0.395521  0.567642  0.631666  1
  S  S85  1  0.604479  0.432358  0.368334  1
  S  S86  1  0.342281  0.265492  0.318759  1
  S  S87  1  0.842281  0.765492  0.181241  1
  S  S88  1  0.895521  0.067642  0.868334  1
  S  S89  1  0.657719  0.734508  0.681241  1
  N  N90  1  0.181876  0.813666  0.577962  1
  N  N91  1  0.681876  0.313666  0.922038  1
  N  N92  1  0.318124  0.686334  0.077962  1
  N  N93  1  0.818124  0.186334  0.422038  1
  O  O94  1  0.387068  0.137137  0.180313  1
  O  O95  1  0.598868  0.513236  0.720946  1
  O  O96  1  0.112932  0.362863  0.680313  1
  O  O97  1  0.190648  0.234924  0.262802  1
  O  O98  1  0.321939  0.133094  0.394154  1
  O  O99  1  0.612932  0.862863  0.819687  1
  O  O100  1  0.896580  0.039821  0.114227  1
  O  O101  1  0.396580  0.539821  0.385773  1
  O  O102  1  0.809352  0.765076  0.737198  1
  O  O103  1  0.678061  0.866906  0.605846  1
  O  O104  1  0.690648  0.734924  0.237198  1
  O  O105  1  0.309352  0.265076  0.762802  1
  O  O106  1  0.178061  0.366906  0.894154  1
  O  O107  1  0.901132  0.986764  0.220946  1
  O  O108  1  0.103420  0.960179  0.885773  1
  O  O109  1  0.098868  0.013236  0.779054  1
  O  O110  1  0.401132  0.486764  0.279054  1
  O  O111  1  0.603420  0.460179  0.614227  1
  O  O112  1  0.821939  0.633094  0.105846  1
  O  O113  1  0.887068  0.637137  0.319687  1
