# generated using pymatgen
data_KGaH4
_symmetry_space_group_name_H-M   'P 1'
_cell_length_a   9.16844588
_cell_length_b   5.64386862
_cell_length_c   7.34279724
_cell_angle_alpha   90.00000000
_cell_angle_beta   90.00000000
_cell_angle_gamma   90.00000000
_symmetry_Int_Tables_number   1
_chemical_formula_structural   KGaH4
_chemical_formula_sum   'K4 Ga4 H16'
_cell_volume   379.95674393
_cell_formula_units_Z   4
loop_
 _symmetry_equiv_pos_site_id
 _symmetry_equiv_pos_as_xyz
  1  'x, y, z'
loop_
 _atom_site_type_symbol
 _atom_site_label
 _atom_site_symmetry_multiplicity
 _atom_site_fract_x
 _atom_site_fract_y
 _atom_site_fract_z
 _atom_site_occupancy
  K  K0  1  0.686645  0.250000  0.344710  1
  K  K1  1  0.186645  0.250000  0.155290  1
  K  K2  1  0.313355  0.750000  0.655290  1
  K  K3  1  0.813355  0.750000  0.844710  1
  Ga  Ga4  1  0.061929  0.250000  0.688606  1
  Ga  Ga5  1  0.561929  0.250000  0.811394  1
  Ga  Ga6  1  0.938071  0.750000  0.311394  1
  Ga  Ga7  1  0.438071  0.750000  0.188606  1
  H  H8  1  0.902456  0.250000  0.606759  1
  H  H9  1  0.402456  0.250000  0.893241  1
  H  H10  1  0.097544  0.750000  0.393241  1
  H  H11  1  0.597544  0.750000  0.106759  1
  H  H12  1  0.186208  0.250000  0.536317  1
  H  H13  1  0.686208  0.250000  0.963683  1
  H  H14  1  0.813792  0.750000  0.463683  1
  H  H15  1  0.313792  0.750000  0.036317  1
  H  H16  1  0.917155  0.979522  0.184425  1
  H  H17  1  0.417155  0.520478  0.315575  1
  H  H18  1  0.082845  0.479522  0.815575  1
  H  H19  1  0.582845  0.020478  0.684425  1
  H  H20  1  0.082845  0.020478  0.815575  1
  H  H21  1  0.582845  0.479522  0.684425  1
  H  H22  1  0.917155  0.520478  0.184425  1
  H  H23  1  0.417155  0.979522  0.315575  1
