# generated using pymatgen
data_Na3Sr4Nd3Ti10O30
_symmetry_space_group_name_H-M   'P 1'
_cell_length_a   5.52691803
_cell_length_b   27.57379334
_cell_length_c   7.78133993
_cell_angle_alpha   45.15085971
_cell_angle_beta   134.80077448
_cell_angle_gamma   119.87818542
_symmetry_Int_Tables_number   1
_chemical_formula_structural   Na3Sr4Nd3Ti10O30
_chemical_formula_sum   'Na3 Sr4 Nd3 Ti10 O30'
_cell_volume   596.55161572
_cell_formula_units_Z   1
loop_
 _symmetry_equiv_pos_site_id
 _symmetry_equiv_pos_as_xyz
  1  'x, y, z'
loop_
 _atom_site_type_symbol
 _atom_site_label
 _atom_site_symmetry_multiplicity
 _atom_site_fract_x
 _atom_site_fract_y
 _atom_site_fract_z
 _atom_site_occupancy
  Na  Na0  1  0.490782  0.699539  0.742354  1
  Na  Na1  1  0.491893  0.500530  0.747398  1
  Na  Na2  1  0.510021  0.302942  0.750025  1
  Sr  Sr3  1  0.493404  0.899761  0.748985  1
  Sr  Sr4  1  0.493948  0.897510  0.252701  1
  Sr  Sr5  1  0.502173  0.100326  0.749149  1
  Sr  Sr6  1  0.500170  0.100785  0.249198  1
  Nd  Nd7  1  0.512011  0.697194  0.262490  1
  Nd  Nd8  1  0.519365  0.497515  0.268024  1
  Nd  Nd9  1  0.523671  0.299914  0.261690  1
  Ti  Ti10  1  0.994148  -0.000260  0.498704  1
  Ti  Ti11  1  0.992228  0.796756  0.005936  1
  Ti  Ti12  1  0.003244  0.598922  0.501092  1
  Ti  Ti13  1  0.003766  0.598018  0.006396  1
  Ti  Ti14  1  0.014351  0.400466  0.504866  1
  Ti  Ti15  1  -0.005262  0.795228  0.508761  1
  Ti  Ti16  1  0.016833  0.400641  0.010374  1
  Ti  Ti17  1  0.009242  0.202080  0.498231  1
  Ti  Ti18  1  0.008969  0.202696  0.998408  1
  Ti  Ti19  1  0.993887  0.998773  0.001628  1
  O  O20  1  0.030968  0.992318  0.783841  1
  O  O21  1  0.000464  0.899046  0.730350  1
  O  O22  1  0.068845  0.784801  0.821561  1
  O  O23  1  0.998758  0.899668  0.270220  1
  O  O24  1  -0.002490  0.698223  0.711843  1
  O  O25  1  0.500388  0.001036  0.263280  1
  O  O26  1  0.081585  0.581420  0.838705  1
  O  O27  1  0.505249  0.797578  0.738999  1
  O  O28  1  0.995108  0.698389  0.294855  1
  O  O29  1  0.991531  0.500424  0.702513  1
  O  O30  1  0.505561  0.797087  0.278175  1
  O  O31  1  0.082167  0.384590  0.830583  1
  O  O32  1  0.500447  0.603087  0.700144  1
  O  O33  1  0.981513  0.500505  0.283354  1
  O  O34  1  0.982721  0.302961  0.697618  1
  O  O35  1  0.499102  0.601080  0.287322  1
  O  O36  1  0.950282  0.808528  0.204114  1
  O  O37  1  0.047215  0.191943  0.794202  1
  O  O38  1  0.494008  0.403885  0.698373  1
  O  O39  1  0.981391  0.302895  0.271402  1
  O  O40  1  0.495801  0.402729  0.284736  1
  O  O41  1  0.930350  0.613488  0.182776  1
  O  O42  1  0.495666  0.205029  0.698317  1
  O  O43  1  0.993065  0.102393  0.260929  1
  O  O44  1  0.494991  0.204556  0.271941  1
  O  O45  1  0.929987  0.414690  0.179200  1
  O  O46  1  0.499194  0.001866  0.728603  1
  O  O47  1  -0.004354  0.102773  0.719330  1
  O  O48  1  0.951129  0.214883  0.188426  1
  O  O49  1  0.968865  0.008141  0.213110  1
