# generated using pymatgen
data_Na2Zn2Si2O7
_symmetry_space_group_name_H-M   'P 1'
_cell_length_a   5.16968165
_cell_length_b   5.35358270
_cell_length_c   13.82079286
_cell_angle_alpha   90.00000000
_cell_angle_beta   90.00000000
_cell_angle_gamma   118.87003690
_symmetry_Int_Tables_number   1
_chemical_formula_structural   Na2Zn2Si2O7
_chemical_formula_sum   'Na4 Zn4 Si4 O14'
_cell_volume   334.96939182
_cell_formula_units_Z   2
loop_
 _symmetry_equiv_pos_site_id
 _symmetry_equiv_pos_as_xyz
  1  'x, y, z'
loop_
 _atom_site_type_symbol
 _atom_site_label
 _atom_site_symmetry_multiplicity
 _atom_site_fract_x
 _atom_site_fract_y
 _atom_site_fract_z
 _atom_site_occupancy
  O  O0  1  0.351738  0.073224  0.629013  1
  O  O1  1  0.278514  0.926776  0.370987  1
  O  O2  1  0.351738  0.073224  0.870987  1
  O  O3  1  0.278514  0.926776  0.129013  1
  O  O4  1  0.082261  0.532404  0.563358  1
  O  O5  1  0.549858  0.467596  0.436642  1
  O  O6  1  0.082261  0.532404  0.936642  1
  O  O7  1  0.549858  0.467596  0.063358  1
  O  O8  1  0.651443  0.775610  0.625985  1
  O  O9  1  0.875832  0.224390  0.374015  1
  O  O10  1  0.651443  0.775610  0.874015  1
  O  O11  1  0.875832  0.224390  0.125985  1
  O  O12  1  0.562789  0.370609  0.250000  1
  O  O13  1  0.192180  0.629391  0.750000  1
  Na  Na14  1  0.014721  0.072163  0.750000  1
  Na  Na15  1  0.942558  0.927837  0.250000  1
  Na  Na16  1  0.992232  0.000000  0.500000  1
  Na  Na17  1  0.992232  0.000000  0.000000  1
  Si  Si18  1  0.331650  0.760610  0.640325  1
  Si  Si19  1  0.571040  0.239390  0.359675  1
  Si  Si20  1  0.331650  0.760610  0.859675  1
  Si  Si21  1  0.571040  0.239390  0.140325  1
  Zn  Zn22  1  0.657211  0.429014  0.579994  1
  Zn  Zn23  1  0.228197  0.570986  0.420006  1
  Zn  Zn24  1  0.657211  0.429014  0.920006  1
  Zn  Zn25  1  0.228197  0.570986  0.079994  1
