# generated using pymatgen
data_Cu3P4Se4Br3
_symmetry_space_group_name_H-M   'P 1'
_cell_length_a   6.50725950
_cell_length_b   19.28822149
_cell_length_c   34.06127578
_cell_angle_alpha   90.12737089
_cell_angle_beta   90.00000000
_cell_angle_gamma   90.00000000
_symmetry_Int_Tables_number   1
_chemical_formula_structural   Cu3P4Se4Br3
_chemical_formula_sum   'Cu36 P48 Se48 Br36'
_cell_volume   4275.13809670
_cell_formula_units_Z   12
loop_
 _symmetry_equiv_pos_site_id
 _symmetry_equiv_pos_as_xyz
  1  'x, y, z'
loop_
 _atom_site_type_symbol
 _atom_site_label
 _atom_site_symmetry_multiplicity
 _atom_site_fract_x
 _atom_site_fract_y
 _atom_site_fract_z
 _atom_site_occupancy
  Cu  Cu0  1  0.260989  0.124101  0.929795  1
  Cu  Cu1  1  0.034932  0.123219  0.264608  1
  Cu  Cu2  1  0.727173  0.675924  0.353804  1
  Cu  Cu3  1  0.760989  0.875899  0.070205  1
  Cu  Cu4  1  0.765123  0.696125  0.141597  1
  Cu  Cu5  1  0.251019  0.828279  0.467798  1
  Cu  Cu6  1  0.247666  0.801786  0.014247  1
  Cu  Cu7  1  0.229831  0.625706  0.418043  1
  Cu  Cu8  1  0.750247  0.697128  0.474689  1
  Cu  Cu9  1  0.534932  0.876781  0.735392  1
  Cu  Cu10  1  0.729831  0.374294  0.581957  1
  Cu  Cu11  1  0.268865  0.824727  0.135637  1
  Cu  Cu12  1  0.529756  0.677449  0.687406  1
  Cu  Cu13  1  0.048339  0.304645  0.190873  1
  Cu  Cu14  1  0.222829  0.798989  0.347655  1
  Cu  Cu15  1  0.250247  0.302872  0.525311  1
  Cu  Cu16  1  0.530471  0.200905  0.319564  1
  Cu  Cu17  1  0.532671  0.372628  0.248781  1
  Cu  Cu18  1  0.253886  0.625498  0.083467  1
  Cu  Cu19  1  0.768865  0.175273  0.864363  1
  Cu  Cu20  1  0.227173  0.324076  0.646196  1
  Cu  Cu21  1  0.751019  0.171721  0.532202  1
  Cu  Cu22  1  0.548339  0.695355  0.809127  1
  Cu  Cu23  1  0.751060  0.678781  0.020294  1
  Cu  Cu24  1  0.251060  0.321219  0.979706  1
  Cu  Cu25  1  0.265123  0.303875  0.858403  1
  Cu  Cu26  1  0.032671  0.627372  0.751219  1
  Cu  Cu27  1  0.722829  0.201011  0.652345  1
  Cu  Cu28  1  0.047779  0.830718  0.801881  1
  Cu  Cu29  1  0.030471  0.799095  0.680436  1
  Cu  Cu30  1  0.547779  0.169282  0.198119  1
  Cu  Cu31  1  0.747666  0.198214  0.985753  1
  Cu  Cu32  1  0.753886  0.374502  0.916533  1
  Cu  Cu33  1  0.029757  0.322551  0.312594  1
  Cu  Cu34  1  0.736377  0.876092  0.402072  1
  Cu  Cu35  1  0.236377  0.123908  0.597928  1
  P  P36  1  0.637314  0.985155  0.406187  1
  P  P37  1  0.893148  0.559249  0.935782  1
  P  P38  1  0.160258  0.015199  0.927323  1
  P  P39  1  0.629640  0.483307  0.580293  1
  P  P40  1  0.194616  0.878013  0.524968  1
  P  P41  1  0.649986  0.483147  0.916494  1
  P  P42  1  0.594794  0.621277  0.632308  1
  P  P43  1  0.131237  0.876671  0.858570  1
  P  P44  1  0.086715  0.860323  0.626867  1
  P  P45  1  0.855268  0.544723  0.274047  1
  P  P46  1  0.101307  0.011440  0.260605  1
  P  P47  1  0.631608  0.642063  0.863577  1
  P  P48  1  0.632481  0.622387  0.299520  1
  P  P49  1  0.359766  0.939490  0.280072  1
  P  P50  1  0.694138  0.642274  0.530096  1
  P  P51  1  0.894597  0.068713  0.060984  1
  P  P52  1  0.651403  0.622473  0.967216  1
  P  P53  1  0.589403  0.485072  0.247183  1
  P  P54  1  0.393148  0.440751  0.064218  1
  P  P55  1  0.700010  0.641969  0.196897  1
  P  P56  1  0.857892  0.554059  0.609995  1
  P  P57  1  0.631237  0.123329  0.141430  1
  P  P58  1  0.149986  0.516853  0.083506  1
  P  P59  1  0.204582  0.874462  0.192516  1
  P  P60  1  0.132481  0.377613  0.700480  1
  P  P61  1  0.704582  0.125538  0.807485  1
  P  P62  1  0.357892  0.445941  0.390005  1
  P  P63  1  0.586715  0.139677  0.373133  1
  P  P64  1  0.660258  0.984801  0.072677  1
  P  P65  1  0.126491  0.857311  0.295015  1
  P  P66  1  0.089403  0.514928  0.752817  1
  P  P67  1  0.644649  0.137810  0.037140  1
  P  P68  1  0.355268  0.455277  0.725953  1
  P  P69  1  0.200010  0.358031  0.803103  1
  P  P70  1  0.394597  0.931287  0.939016  1
  P  P71  1  0.131608  0.357937  0.136423  1
  P  P72  1  0.859766  0.060510  0.719928  1
  P  P73  1  0.626491  0.142689  0.704985  1
  P  P74  1  0.356180  0.931908  0.614706  1
  P  P75  1  0.694616  0.121987  0.475032  1
  P  P76  1  0.151403  0.377527  0.032784  1
  P  P77  1  0.137314  0.014845  0.593813  1
  P  P78  1  0.856180  0.068092  0.385294  1
  P  P79  1  0.094794  0.378723  0.367692  1
  P  P80  1  0.601307  0.988560  0.739395  1
  P  P81  1  0.194138  0.357726  0.469904  1
  P  P82  1  0.144649  0.862190  0.962860  1
  P  P83  1  0.129640  0.516693  0.419707  1
  Se  Se84  1  0.460647  0.037763  0.025014  1
  Se  Se85  1  0.957718  0.478153  0.030837  1
  Se  Se86  1  0.391770  0.534267  0.296052  1
  Se  Se87  1  0.051626  0.802082  0.236701  1
  Se  Se88  1  0.457718  0.521847  0.969163  1
  Se  Se89  1  0.560081  0.698586  0.249748  1
  Se  Se90  1  0.960647  0.962237  0.974986  1
  Se  Se91  1  0.522886  0.540482  0.188929  1
  Se  Se92  1  0.498427  0.892717  0.559622  1
  Se  Se93  1  0.507483  0.531539  0.860986  1
  Se  Se94  1  0.006338  0.098722  0.774722  1
  Se  Se95  1  -0.001573  0.107283  0.440378  1
  Se  Se96  1  0.007483  0.468461  0.139014  1
  Se  Se97  1  0.501464  0.398786  0.775355  1
  Se  Se98  1  0.027895  0.304814  0.418608  1
  Se  Se99  1  0.510309  0.692572  0.919720  1
  Se  Se100  1  0.395495  0.522718  0.626037  1
  Se  Se101  1  0.551626  0.197918  0.763299  1
  Se  Se102  1  0.396019  0.052452  0.697542  1
  Se  Se103  1  0.895495  0.477282  0.373963  1
  Se  Se104  1  0.518465  0.191608  0.432439  1
  Se  Se105  1  0.393680  0.039884  0.367640  1
  Se  Se106  1  0.499155  0.387603  0.439193  1
  Se  Se107  1  0.469279  0.886992  0.880404  1
  Se  Se108  1  0.469415  0.380392  0.117711  1
  Se  Se109  1  0.548424  0.535726  0.521599  1
  Se  Se110  1  0.560945  0.012447  0.470055  1
  Se  Se111  1  0.048424  0.464274  0.478401  1
  Se  Se112  1  -0.000845  0.612397  0.560807  1
  Se  Se113  1  0.018982  0.987623  0.867506  1
  Se  Se114  1  0.060081  0.301414  0.750252  1
  Se  Se115  1  0.001464  0.601214  0.224645  1
  Se  Se116  1  0.969279  0.113008  0.119596  1
  Se  Se117  1  0.518982  0.012377  0.132494  1
  Se  Se118  1  0.893680  0.960116  0.632360  1
  Se  Se119  1  0.022886  0.459518  0.811071  1
  Se  Se120  1  0.010309  0.307428  0.080280  1
  Se  Se121  1  0.018465  0.808392  0.567561  1
  Se  Se122  1  0.506338  0.901278  0.225278  1
  Se  Se123  1  0.527895  0.695186  0.581392  1
  Se  Se124  1  0.896019  0.947548  0.302458  1
  Se  Se125  1  0.891770  0.465733  0.703948  1
  Se  Se126  1  0.038827  0.979181  0.197000  1
  Se  Se127  1  0.969415  0.619608  0.882289  1
  Se  Se128  1  0.060945  0.987553  0.529945  1
  Se  Se129  1  0.499818  0.189372  0.091697  1
  Se  Se130  1  0.538827  0.020819  0.803000  1
  Se  Se131  1  0.999818  0.810628  0.908303  1
  Br  Br132  1  0.642091  0.803279  0.014338  1
  Br  Br133  1  0.159816  0.181765  0.866384  1
  Br  Br134  1  0.131295  0.198104  0.320205  1
  Br  Br135  1  0.139573  0.877471  0.736376  1
  Br  Br136  1  0.152010  0.875031  0.072742  1
  Br  Br137  1  0.631548  0.323315  0.313911  1
  Br  Br138  1  0.659790  0.816227  0.796179  1
  Br  Br139  1  0.652010  0.124969  0.927258  1
  Br  Br140  1  0.619723  0.323861  0.646443  1
  Br  Br141  1  0.628800  0.124133  0.595414  1
  Br  Br142  1  0.143458  0.678868  0.019612  1
  Br  Br143  1  0.659816  0.818235  0.133616  1
  Br  Br144  1  0.159790  0.183773  0.203821  1
  Br  Br145  1  0.641614  0.818563  0.465942  1
  Br  Br146  1  0.624503  0.625384  0.417683  1
  Br  Br147  1  0.141614  0.181437  0.534058  1
  Br  Br148  1  0.159571  0.705824  0.802870  1
  Br  Br149  1  0.647137  0.625615  0.083741  1
  Br  Br150  1  0.141410  0.703549  0.472900  1
  Br  Br151  1  0.142091  0.196721  0.985662  1
  Br  Br152  1  0.124503  0.374616  0.582317  1
  Br  Br153  1  0.631295  0.801896  0.679795  1
  Br  Br154  1  0.617698  0.800905  0.347506  1
  Br  Br155  1  0.635886  0.624022  0.749874  1
  Br  Br156  1  0.119723  0.676139  0.353557  1
  Br  Br157  1  0.128800  0.875867  0.404586  1
  Br  Br158  1  0.117698  0.199095  0.652494  1
  Br  Br159  1  0.131548  0.676685  0.686089  1
  Br  Br160  1  0.135886  0.375978  0.250126  1
  Br  Br161  1  0.641410  0.296451  0.527100  1
  Br  Br162  1  0.657529  0.299812  0.860453  1
  Br  Br163  1  0.643458  0.321132  0.980388  1
  Br  Br164  1  0.157529  0.700188  0.139547  1
  Br  Br165  1  0.659571  0.294176  0.197130  1
  Br  Br166  1  0.147137  0.374385  0.916259  1
  Br  Br167  1  0.639573  0.122529  0.263624  1
