# generated using pymatgen
data_V3H8C2NO7
_symmetry_space_group_name_H-M   'P 1'
_cell_length_a   6.75437136
_cell_length_b   7.92463290
_cell_length_c   8.74433395
_cell_angle_alpha   98.90634031
_cell_angle_beta   90.00000000
_cell_angle_gamma   90.00000000
_symmetry_Int_Tables_number   1
_chemical_formula_structural   V3H8C2NO7
_chemical_formula_sum   'V6 H16 C4 N2 O14'
_cell_volume   462.40508020
_cell_formula_units_Z   2
loop_
 _symmetry_equiv_pos_site_id
 _symmetry_equiv_pos_as_xyz
  1  'x, y, z'
loop_
 _atom_site_type_symbol
 _atom_site_label
 _atom_site_symmetry_multiplicity
 _atom_site_fract_x
 _atom_site_fract_y
 _atom_site_fract_z
 _atom_site_occupancy
  V  V0  1  0.318035  0.288903  0.652109  1
  V  V1  1  0.095058  0.015172  0.427703  1
  V  V2  1  0.822057  0.381406  0.567635  1
  V  V3  1  0.595058  0.984828  0.572297  1
  V  V4  1  0.322057  0.618594  0.432365  1
  V  V5  1  0.818035  0.711097  0.347891  1
  H  H6  1  0.038244  0.685609  0.002671  1
  H  H7  1  0.538244  0.314391  0.997329  1
  H  H8  1  0.593982  0.025998  0.018078  1
  H  H9  1  0.093982  0.974002  0.981922  1
  H  H10  1  0.642484  0.383376  0.168624  1
  H  H11  1  0.964332  0.867947  0.813861  1
  H  H12  1  0.142484  0.616624  0.831376  1
  H  H13  1  0.365400  0.583484  0.040117  1
  H  H14  1  0.464332  0.132053  0.186139  1
  H  H15  1  0.461492  0.727810  0.918364  1
  H  H16  1  0.349987  0.809579  0.101955  1
  H  H17  1  0.725958  0.088087  0.195726  1
  H  H18  1  0.225958  0.911913  0.804274  1
  H  H19  1  0.865400  0.416516  0.959883  1
  H  H20  1  0.849987  0.190421  0.898045  1
  H  H21  1  0.961492  0.272190  0.081636  1
  C  C22  1  0.846927  0.292551  0.997723  1
  C  C23  1  0.346927  0.707449  0.002277  1
  C  C24  1  0.104740  0.878805  0.877318  1
  C  C25  1  0.604740  0.121195  0.122682  1
  N  N26  1  0.149350  0.711138  0.926912  1
  N  N27  1  0.649350  0.288862  0.073088  1
  O  O28  1  0.654796  0.945367  0.745464  1
  O  O29  1  0.154796  0.054633  0.254536  1
  O  O30  1  0.817908  0.956117  0.430848  1
  O  O31  1  0.816466  0.684860  0.156533  1
  O  O32  1  0.317908  0.043883  0.569152  1
  O  O33  1  0.809104  0.478578  0.401772  1
  O  O34  1  0.604108  0.248533  0.588301  1
  O  O35  1  0.842794  0.530474  0.718881  1
  O  O36  1  0.542060  0.752262  0.439449  1
  O  O37  1  0.104108  0.751467  0.411699  1
  O  O38  1  0.309104  0.521422  0.598228  1
  O  O39  1  0.042060  0.247738  0.560551  1
  O  O40  1  0.342794  0.469526  0.281119  1
  O  O41  1  0.316466  0.315140  0.843467  1
