# generated using pymatgen
data_KMnF3
_symmetry_space_group_name_H-M   'P 1'
_cell_length_a   6.04495368
_cell_length_b   8.54043379
_cell_length_c   6.01210997
_cell_angle_alpha   90.00000000
_cell_angle_beta   89.97188926
_cell_angle_gamma   90.00000000
_symmetry_Int_Tables_number   1
_chemical_formula_structural   KMnF3
_chemical_formula_sum   'K4 Mn4 F12'
_cell_volume   310.38431833
_cell_formula_units_Z   4
loop_
 _symmetry_equiv_pos_site_id
 _symmetry_equiv_pos_as_xyz
  1  'x, y, z'
loop_
 _atom_site_type_symbol
 _atom_site_label
 _atom_site_symmetry_multiplicity
 _atom_site_fract_x
 _atom_site_fract_y
 _atom_site_fract_z
 _atom_site_occupancy
  K  K0  1  0.504132  0.250000  0.995677  1
  K  K1  1  0.495868  0.750000  0.004323  1
  K  K2  1  0.007840  0.250000  0.496982  1
  K  K3  1  0.992160  0.750000  0.503018  1
  Mn  Mn4  1  0.000000  0.500000  0.000000  1
  Mn  Mn5  1  0.000000  0.000000  0.000000  1
  Mn  Mn6  1  0.500000  0.500000  0.500000  1
  Mn  Mn7  1  0.500000  0.000000  0.500000  1
  F  F8  1  0.988901  0.250000  0.003139  1
  F  F9  1  0.011099  0.750000  0.996861  1
  F  F10  1  0.502693  0.250000  0.498787  1
  F  F11  1  0.497307  0.750000  0.501213  1
  F  F12  1  0.236179  0.493493  0.735654  1
  F  F13  1  0.763821  0.506507  0.264346  1
  F  F14  1  0.763821  0.993493  0.264346  1
  F  F15  1  0.236179  0.006507  0.735654  1
  F  F16  1  0.264218  0.497294  0.235180  1
  F  F17  1  0.735782  0.502706  0.764820  1
  F  F18  1  0.735782  0.997294  0.764820  1
  F  F19  1  0.264218  0.002706  0.235180  1
