# generated using pymatgen
data_NiMo3S4
_symmetry_space_group_name_H-M   'P 1'
_cell_length_a   6.58980636
_cell_length_b   6.56910181
_cell_length_c   6.41673132
_cell_angle_alpha   91.39803794
_cell_angle_beta   97.01569483
_cell_angle_gamma   98.21008447
_symmetry_Int_Tables_number   1
_chemical_formula_structural   NiMo3S4
_chemical_formula_sum   'Ni2 Mo6 S8'
_cell_volume   272.62162419
_cell_formula_units_Z   2
loop_
 _symmetry_equiv_pos_site_id
 _symmetry_equiv_pos_as_xyz
  1  'x, y, z'
loop_
 _atom_site_type_symbol
 _atom_site_label
 _atom_site_symmetry_multiplicity
 _atom_site_fract_x
 _atom_site_fract_y
 _atom_site_fract_z
 _atom_site_occupancy
  Ni  Ni0  1  0.056787  0.091526  0.834754  1
  Ni  Ni1  1  0.943213  0.908474  0.165246  1
  Mo  Mo2  1  0.206823  0.396713  0.541978  1
  Mo  Mo3  1  0.409733  0.543734  0.219446  1
  Mo  Mo4  1  0.464546  0.787175  0.592189  1
  Mo  Mo5  1  0.535454  0.212825  0.407811  1
  Mo  Mo6  1  0.590267  0.456266  0.780554  1
  Mo  Mo7  1  0.793177  0.603287  0.458022  1
  S  S8  1  0.144368  0.719123  0.358151  1
  S  S9  1  0.281614  0.613809  0.857060  1
  S  S10  1  0.193154  0.188446  0.197163  1
  S  S11  1  0.369800  0.122909  0.730423  1
  S  S12  1  0.630200  0.877091  0.269577  1
  S  S13  1  0.806846  0.811554  0.802837  1
  S  S14  1  0.718386  0.386191  0.142940  1
  S  S15  1  0.855632  0.280877  0.641849  1
