# generated using pymatgen
data_PuNi3
_symmetry_space_group_name_H-M   'P 1'
_cell_length_a   8.73149207
_cell_length_b   8.73149208
_cell_length_c   8.73149240
_cell_angle_alpha   33.15407573
_cell_angle_beta   33.15407563
_cell_angle_gamma   33.15407391
_symmetry_Int_Tables_number   1
_chemical_formula_structural   PuNi3
_chemical_formula_sum   'Pu3 Ni9'
_cell_volume   177.22526254
_cell_formula_units_Z   3
loop_
 _symmetry_equiv_pos_site_id
 _symmetry_equiv_pos_as_xyz
  1  'x, y, z'
loop_
 _atom_site_type_symbol
 _atom_site_label
 _atom_site_symmetry_multiplicity
 _atom_site_fract_x
 _atom_site_fract_y
 _atom_site_fract_z
 _atom_site_occupancy
  Pu  Pu0  1  0.142613  0.142613  0.142613  1
  Pu  Pu1  1  0.000000  0.000000  0.000000  1
  Pu  Pu2  1  0.857387  0.857387  0.857387  1
  Ni  Ni3  1  0.417518  0.417518  0.918460  1
  Ni  Ni4  1  0.918460  0.417518  0.417518  1
  Ni  Ni5  1  0.667366  0.667366  0.667366  1
  Ni  Ni6  1  0.582482  0.582482  0.081540  1
  Ni  Ni7  1  0.417518  0.918460  0.417518  1
  Ni  Ni8  1  0.500000  0.500000  0.500000  1
  Ni  Ni9  1  0.081540  0.582482  0.582482  1
  Ni  Ni10  1  0.332634  0.332634  0.332634  1
  Ni  Ni11  1  0.582482  0.081540  0.582482  1
