# generated using pymatgen
data_Nb4IrSe10
_symmetry_space_group_name_H-M   'P 1'
_cell_length_a   17.78734966
_cell_length_b   9.47023372
_cell_length_c   7.62836920
_cell_angle_alpha   63.81898037
_cell_angle_beta   62.40953399
_cell_angle_gamma   18.71827942
_symmetry_Int_Tables_number   1
_chemical_formula_structural   Nb4IrSe10
_chemical_formula_sum   'Nb4 Ir1 Se10'
_cell_volume   365.46653079
_cell_formula_units_Z   1
loop_
 _symmetry_equiv_pos_site_id
 _symmetry_equiv_pos_as_xyz
  1  'x, y, z'
loop_
 _atom_site_type_symbol
 _atom_site_label
 _atom_site_symmetry_multiplicity
 _atom_site_fract_x
 _atom_site_fract_y
 _atom_site_fract_z
 _atom_site_occupancy
  Nb  Nb0  1  0.971056  0.067075  -0.000372  1
  Nb  Nb1  1  0.268045  0.859417  0.009317  1
  Nb  Nb2  1  0.331955  0.140583  0.990683  1
  Nb  Nb3  1  0.628944  0.932925  0.000372  1
  Ir  Ir4  1  0.800000  0.000000  0.000000  1
  Se  Se5  1  0.988533  0.719021  0.251059  1
  Se  Se6  1  0.166613  0.346452  0.765923  1
  Se  Se7  1  0.229994  0.637697  0.247124  1
  Se  Se8  1  0.370006  0.362303  0.752876  1
  Se  Se9  1  0.433387  0.653548  0.234077  1
  Se  Se10  1  0.611467  0.280979  0.748941  1
  Se  Se11  1  0.598745  0.696004  0.251936  1
  Se  Se12  1  0.756744  0.366056  0.782853  1
  Se  Se13  1  0.843256  0.633944  0.217147  1
  Se  Se14  1  0.001255  0.303996  0.748064  1
