# generated using pymatgen
data_Nb3IrSe8
_symmetry_space_group_name_H-M   'P 1'
_cell_length_a   6.96495690
_cell_length_b   6.97876087
_cell_length_c   13.39588087
_cell_angle_alpha   96.93303574
_cell_angle_beta   74.75401888
_cell_angle_gamma   119.83339985
_symmetry_Int_Tables_number   1
_chemical_formula_structural   Nb3IrSe8
_chemical_formula_sum   'Nb6 Ir2 Se16'
_cell_volume   544.92094580
_cell_formula_units_Z   2
loop_
 _symmetry_equiv_pos_site_id
 _symmetry_equiv_pos_as_xyz
  1  'x, y, z'
loop_
 _atom_site_type_symbol
 _atom_site_label
 _atom_site_symmetry_multiplicity
 _atom_site_fract_x
 _atom_site_fract_y
 _atom_site_fract_z
 _atom_site_occupancy
  Nb  Nb0  1  0.019950  0.522162  0.999189  1
  Nb  Nb1  1  0.257948  0.026605  0.499416  1
  Nb  Nb2  1  0.030786  0.996643  0.002950  1
  Nb  Nb3  1  0.500506  0.533959  0.996811  1
  Nb  Nb4  1  0.787162  0.035006  0.497944  1
  Nb  Nb5  1  0.711067  0.495449  0.503566  1
  Ir  Ir6  1  0.250200  0.452503  0.501636  1
  Ir  Ir7  1  0.450572  0.950927  0.000164  1
  Se  Se8  1  0.080656  0.815656  0.142981  1
  Se  Se9  1  0.147054  0.651816  0.393815  1
  Se  Se10  1  0.114781  0.343319  0.129067  1
  Se  Se11  1  0.604589  0.847126  0.126256  1
  Se  Se12  1  0.352472  0.806168  0.608433  1
  Se  Se13  1  0.160255  0.163495  0.359206  1
  Se  Se14  1  0.593696  0.303800  0.107270  1
  Se  Se15  1  0.339804  0.315903  0.644301  1
  Se  Se16  1  0.395214  0.661274  0.858052  1
  Se  Se17  1  0.635332  0.674639  0.374704  1
  Se  Se18  1  0.656447  0.186580  0.368447  1
  Se  Se19  1  0.415878  0.174381  0.873680  1
  Se  Se20  1  0.849552  0.842559  0.628811  1
  Se  Se21  1  0.864321  0.347784  0.627285  1
  Se  Se22  1  0.914973  0.686455  0.868739  1
  Se  Se23  1  0.861927  0.150515  0.892180  1
