# generated using pymatgen
data_Ca4ThF12
_symmetry_space_group_name_H-M   'P 1'
_cell_length_a   3.97016048
_cell_length_b   4.09507764
_cell_length_c   19.63576765
_cell_angle_alpha   59.67430881
_cell_angle_beta   60.86344950
_cell_angle_gamma   62.38687990
_symmetry_Int_Tables_number   1
_chemical_formula_structural   Ca4ThF12
_chemical_formula_sum   'Ca4 Th1 F12'
_cell_volume   230.44169626
_cell_formula_units_Z   1
loop_
 _symmetry_equiv_pos_site_id
 _symmetry_equiv_pos_as_xyz
  1  'x, y, z'
loop_
 _atom_site_type_symbol
 _atom_site_label
 _atom_site_symmetry_multiplicity
 _atom_site_fract_x
 _atom_site_fract_y
 _atom_site_fract_z
 _atom_site_occupancy
  Ca  Ca0  1  0.927691  0.010614  0.017938  1
  Ca  Ca1  1  0.925372  0.018387  0.210385  1
  Ca  Ca2  1  0.958397  0.018739  0.401395  1
  Ca  Ca3  1  0.998557  0.026747  0.594085  1
  Th  Th4  1  0.965650  0.040731  0.805100  1
  F  F5  1  0.156522  0.290588  0.065837  1
  F  F6  1  0.222032  0.271312  0.447859  1
  F  F7  1  0.666820  0.769630  0.163759  1
  F  F8  1  0.187058  0.271870  0.255977  1
  F  F9  1  0.274231  0.233777  0.647040  1
  F  F10  1  0.695372  0.765184  0.355301  1
  F  F11  1  0.098906  0.351925  0.875602  1
  F  F12  1  0.743534  0.762102  0.546420  1
  F  F13  1  0.488977  0.379986  0.735945  1
  F  F14  1  0.819779  0.732815  0.737515  1
  F  F15  1  0.431747  0.709975  0.876315  1
  F  F16  1  0.643354  0.845619  0.963526  1
