# generated using pymatgen
data_CsClO4
_symmetry_space_group_name_H-M   'P 1'
_cell_length_a   5.25622717
_cell_length_b   10.45262331
_cell_length_c   8.99838202
_cell_angle_alpha   30.23632196
_cell_angle_beta   54.06313958
_cell_angle_gamma   59.61144859
_symmetry_Int_Tables_number   1
_chemical_formula_structural   CsClO4
_chemical_formula_sum   'Cs2 Cl2 O8'
_cell_volume   201.56952261
_cell_formula_units_Z   2
loop_
 _symmetry_equiv_pos_site_id
 _symmetry_equiv_pos_as_xyz
  1  'x, y, z'
loop_
 _atom_site_type_symbol
 _atom_site_label
 _atom_site_symmetry_multiplicity
 _atom_site_fract_x
 _atom_site_fract_y
 _atom_site_fract_z
 _atom_site_occupancy
  Cs  Cs0  1  0.502273  0.002435  0.498128  1
  Cs  Cs1  1  0.504384  0.501938  0.497732  1
  Cl  Cl2  1  -0.000516  0.000516  0.000846  1
  Cl  Cl3  1  0.002952  0.500552  -0.001073  1
  O  O4  1  0.111419  0.002755  0.113736  1
  O  O5  1  0.656906  0.001578  0.113645  1
  O  O6  1  0.115075  0.772640  0.116068  1
  O  O7  1  0.119421  0.224870  0.658157  1
  O  O8  1  0.890155  0.271574  0.342318  1
  O  O9  1  0.345395  0.503898  0.880202  1
  O  O10  1  0.892296  0.501392  0.882646  1
  O  O11  1  0.885543  0.725957  0.889193  1
