# generated using pymatgen
data_Ba2CaY(Co4O7)2
_symmetry_space_group_name_H-M   'P 1'
_cell_length_a   6.78770134
_cell_length_b   6.78770125
_cell_length_c   9.80582504
_cell_angle_alpha   90.00000000
_cell_angle_beta   90.00000000
_cell_angle_gamma   120.00000044
_symmetry_Int_Tables_number   1
_chemical_formula_structural   Ba2CaY(Co4O7)2
_chemical_formula_sum   'Ba2 Ca1 Y1 Co8 O14'
_cell_volume   391.25528252
_cell_formula_units_Z   1
loop_
 _symmetry_equiv_pos_site_id
 _symmetry_equiv_pos_as_xyz
  1  'x, y, z'
loop_
 _atom_site_type_symbol
 _atom_site_label
 _atom_site_symmetry_multiplicity
 _atom_site_fract_x
 _atom_site_fract_y
 _atom_site_fract_z
 _atom_site_occupancy
  Ba  Ba0  1  0.333333  0.666667  0.106646  1
  Ba  Ba1  1  0.666667  0.333333  0.613089  1
  Ca  Ca2  1  0.666667  0.333333  0.970428  1
  Y  Y3  1  0.333333  0.666667  0.491506  1
  Co  Co4  1  0.188381  0.811619  0.784433  1
  Co  Co5  1  0.000000  0.000000  0.392669  1
  Co  Co6  1  0.188381  0.376763  0.784433  1
  Co  Co7  1  0.623237  0.811619  0.784433  1
  Co  Co8  1  0.334142  0.167071  0.223025  1
  Co  Co9  1  0.832929  0.665858  0.223025  1
  Co  Co10  1  0.832929  0.167071  0.223025  1
  Co  Co11  1  0.000000  0.000000  0.745488  1
  O  O12  1  0.164567  0.835433  0.371070  1
  O  O13  1  0.079275  0.539637  0.681769  1
  O  O14  1  0.164567  0.329133  0.371070  1
  O  O15  1  0.460363  0.920725  0.681769  1
  O  O16  1  0.460363  0.539637  0.681769  1
  O  O17  1  0.295812  0.147906  0.843862  1
  O  O18  1  0.670867  0.835433  0.371070  1
  O  O19  1  0.535584  0.464416  0.153359  1
  O  O20  1  0.852094  0.704188  0.843862  1
  O  O21  1  0.535584  0.071168  0.153359  1
  O  O22  1  0.000000  0.000000  0.190503  1
  O  O23  1  0.928832  0.464416  0.153359  1
  O  O24  1  0.852094  0.147906  0.843862  1
  O  O25  1  0.000000  0.000000  0.572918  1
