# generated using pymatgen
data_Na4Al3Si3NO13
_symmetry_space_group_name_H-M   'P 1'
_cell_length_a   9.29859152
_cell_length_b   9.29733421
_cell_length_c   9.25470225
_cell_angle_alpha   90.00000000
_cell_angle_beta   90.02663106
_cell_angle_gamma   90.00000000
_symmetry_Int_Tables_number   1
_chemical_formula_structural   Na4Al3Si3NO13
_chemical_formula_sum   'Na8 Al6 Si6 N2 O26'
_cell_volume   800.08847877
_cell_formula_units_Z   2
loop_
 _symmetry_equiv_pos_site_id
 _symmetry_equiv_pos_as_xyz
  1  'x, y, z'
loop_
 _atom_site_type_symbol
 _atom_site_label
 _atom_site_symmetry_multiplicity
 _atom_site_fract_x
 _atom_site_fract_y
 _atom_site_fract_z
 _atom_site_occupancy
  Na  Na0  1  0.214825  0.780589  0.784518  1
  Na  Na1  1  0.214825  0.219411  0.784518  1
  Na  Na2  1  0.285282  0.280666  0.284291  1
  Na  Na3  1  0.285282  0.719334  0.284291  1
  Na  Na4  1  0.715729  0.289982  0.706445  1
  Na  Na5  1  0.715729  0.710018  0.706445  1
  Na  Na6  1  0.784098  0.209836  0.206406  1
  Na  Na7  1  0.784098  0.790164  0.206406  1
  Al  Al8  1  0.999691  0.249912  0.499712  1
  Al  Al9  1  0.999691  0.750088  0.499712  1
  Al  Al10  1  0.250232  0.500000  0.002728  1
  Al  Al11  1  0.498312  0.000000  0.750231  1
  Al  Al12  1  0.502178  0.000000  0.249996  1
  Al  Al13  1  0.749784  0.500000  0.998018  1
  Si  Si14  1  0.004057  0.500000  0.250013  1
  Si  Si15  1  0.996683  0.500000  0.750216  1
  Si  Si16  1  0.249797  0.000000  0.504205  1
  Si  Si17  1  0.499725  0.250246  0.999679  1
  Si  Si18  1  0.499725  0.749754  0.999679  1
  Si  Si19  1  0.750111  0.000000  0.496325  1
  N  N20  1  0.497930  0.500000  0.485676  1
  N  N21  1  0.002092  0.000000  0.985791  1
  O  O22  1  0.002775  0.350361  0.341312  1
  O  O23  1  0.001273  0.350727  0.658275  1
  O  O24  1  0.002775  0.649639  0.341312  1
  O  O25  1  0.001273  0.649273  0.658275  1
  O  O26  1  0.157995  0.149160  0.500525  1
  O  O27  1  0.157995  0.850840  0.500525  1
  O  O28  1  0.160813  0.500000  0.168404  1
  O  O29  1  0.139164  0.500000  0.852310  1
  O  O30  1  0.350044  0.342100  0.001498  1
  O  O31  1  0.350044  0.657900  0.001498  1
  O  O32  1  0.351863  0.000000  0.361858  1
  O  O33  1  0.332004  0.000000  0.660523  1
  O  O34  1  0.499760  0.158205  0.149461  1
  O  O35  1  0.496167  0.158595  0.849958  1
  O  O36  1  0.499760  0.841795  0.149461  1
  O  O37  1  0.496167  0.841405  0.849958  1
  O  O38  1  0.627306  0.500000  0.532560  1
  O  O39  1  0.666335  0.000000  0.341109  1
  O  O40  1  0.647071  0.000000  0.637560  1
  O  O41  1  0.647648  0.343130  0.998319  1
  O  O42  1  0.647648  0.656870  0.998319  1
  O  O43  1  0.863457  0.500000  0.146880  1
  O  O44  1  0.842319  0.500000  0.833731  1
  O  O45  1  0.842928  0.148320  0.499354  1
  O  O46  1  0.842928  0.851680  0.499354  1
  O  O47  1  0.872612  0.000000  0.032356  1
