# generated using pymatgen
data_Na2Co(NO3)4
_symmetry_space_group_name_H-M   'P 1'
_cell_length_a   7.80932480
_cell_length_b   10.85155674
_cell_length_c   11.88704370
_cell_angle_alpha   92.92198759
_cell_angle_beta   90.00000000
_cell_angle_gamma   90.00000000
_symmetry_Int_Tables_number   1
_chemical_formula_structural   Na2Co(NO3)4
_chemical_formula_sum   'Na8 Co4 N16 O48'
_cell_volume   1006.03799621
_cell_formula_units_Z   4
loop_
 _symmetry_equiv_pos_site_id
 _symmetry_equiv_pos_as_xyz
  1  'x, y, z'
loop_
 _atom_site_type_symbol
 _atom_site_label
 _atom_site_symmetry_multiplicity
 _atom_site_fract_x
 _atom_site_fract_y
 _atom_site_fract_z
 _atom_site_occupancy
  Na  Na0  1  0.832081  0.036973  0.170198  1
  Na  Na1  1  0.157481  0.509246  0.839907  1
  Na  Na2  1  0.342519  0.009246  0.339907  1
  Na  Na3  1  0.332081  0.463027  0.329802  1
  Na  Na4  1  0.842519  0.490754  0.160093  1
  Na  Na5  1  0.167919  0.963027  0.829802  1
  Na  Na6  1  0.657481  0.990754  0.660093  1
  Na  Na7  1  0.667919  0.536973  0.670198  1
  Co  Co8  1  0.948620  0.743930  0.469598  1
  Co  Co9  1  0.448620  0.756070  0.030402  1
  Co  Co10  1  0.551380  0.243930  0.969598  1
  Co  Co11  1  0.051380  0.256070  0.530402  1
  N  N12  1  0.042025  0.739116  0.689561  1
  N  N13  1  0.957975  0.260884  0.310439  1
  N  N14  1  0.237036  0.571209  0.098477  1
  N  N15  1  0.769834  0.071402  0.889036  1
  N  N16  1  0.730166  0.571402  0.389036  1
  N  N17  1  0.542025  0.760884  0.810439  1
  N  N18  1  0.230682  0.248744  0.907576  1
  N  N19  1  0.769318  0.751256  0.092424  1
  N  N20  1  0.269318  0.748744  0.407576  1
  N  N21  1  0.730682  0.251256  0.592424  1
  N  N22  1  0.457975  0.239116  0.189561  1
  N  N23  1  0.230166  0.928598  0.110964  1
  N  N24  1  0.269834  0.428598  0.610964  1
  N  N25  1  0.737036  0.928791  0.401523  1
  N  N26  1  0.262964  0.071209  0.598477  1
  N  N27  1  0.762964  0.428791  0.901523  1
  O  O28  1  0.900961  0.274860  0.213428  1
  O  O29  1  0.046087  0.843176  0.645812  1
  O  O30  1  0.079929  0.264663  0.880952  1
  O  O31  1  0.304611  0.388165  0.512521  1
  O  O32  1  0.732079  0.381683  0.997654  1
  O  O33  1  0.195389  0.888165  0.012521  1
  O  O34  1  0.232079  0.118317  0.502346  1
  O  O35  1  0.818861  0.885261  0.317417  1
  O  O36  1  0.318861  0.614739  0.182583  1
  O  O37  1  0.453913  0.343176  0.145812  1
  O  O38  1  0.695389  0.611835  0.487479  1
  O  O39  1  0.767921  0.881683  0.497654  1
  O  O40  1  0.792097  0.354915  0.565859  1
  O  O41  1  0.978039  0.648532  0.629413  1
  O  O42  1  0.681139  0.385261  0.817417  1
  O  O43  1  0.631500  0.014429  0.396316  1
  O  O44  1  0.953913  0.156824  0.354188  1
  O  O45  1  0.356851  0.507787  0.665141  1
  O  O46  1  0.267921  0.618317  0.002346  1
  O  O47  1  0.839749  0.160688  0.589966  1
  O  O48  1  0.660251  0.660688  0.089966  1
  O  O49  1  0.579929  0.235337  0.619048  1
  O  O50  1  0.135468  0.383092  0.657421  1
  O  O51  1  0.635468  0.116908  0.842579  1
  O  O52  1  0.856851  0.992213  0.834859  1
  O  O53  1  0.400961  0.225140  0.286572  1
  O  O54  1  0.339749  0.339312  0.910034  1
  O  O55  1  0.420071  0.764663  0.380952  1
  O  O56  1  0.364532  0.883092  0.157421  1
  O  O57  1  0.292097  0.145085  0.934141  1
  O  O58  1  0.920071  0.735337  0.119048  1
  O  O59  1  0.707903  0.854915  0.065859  1
  O  O60  1  0.181139  0.114739  0.682583  1
  O  O61  1  0.143149  0.007787  0.165141  1
  O  O62  1  0.099039  0.725140  0.786572  1
  O  O63  1  0.478039  0.851468  0.870587  1
  O  O64  1  0.864532  0.616908  0.342579  1
  O  O65  1  0.868500  0.514429  0.896316  1
  O  O66  1  0.521961  0.148532  0.129413  1
  O  O67  1  0.368500  0.985571  0.603684  1
  O  O68  1  0.207903  0.645085  0.434141  1
  O  O69  1  0.131500  0.485571  0.103684  1
  O  O70  1  0.804611  0.111835  0.987479  1
  O  O71  1  0.599039  0.774860  0.713428  1
  O  O72  1  0.021961  0.351468  0.370587  1
  O  O73  1  0.160251  0.839312  0.410034  1
  O  O74  1  0.643149  0.492213  0.334859  1
  O  O75  1  0.546087  0.656824  0.854188  1
