# generated using pymatgen
data_Ti2Ag2P2S11
_symmetry_space_group_name_H-M   'P 1'
_cell_length_a   6.92248951
_cell_length_b   8.65126514
_cell_length_c   24.48983640
_cell_angle_alpha   90.00003166
_cell_angle_beta   90.00024949
_cell_angle_gamma   89.99942131
_symmetry_Int_Tables_number   1
_chemical_formula_structural   Ti2Ag2P2S11
_chemical_formula_sum   'Ti8 Ag8 P8 S44'
_cell_volume   1466.65447772
_cell_formula_units_Z   4
loop_
 _symmetry_equiv_pos_site_id
 _symmetry_equiv_pos_as_xyz
  1  'x, y, z'
loop_
 _atom_site_type_symbol
 _atom_site_label
 _atom_site_symmetry_multiplicity
 _atom_site_fract_x
 _atom_site_fract_y
 _atom_site_fract_z
 _atom_site_occupancy
  Ti  Ti0  1  0.995803  0.256219  0.578411  1
  Ti  Ti1  1  0.504205  0.756218  0.921586  1
  Ti  Ti2  1  0.004210  0.243784  0.078418  1
  Ti  Ti3  1  0.495801  0.743780  0.421590  1
  Ti  Ti4  1  0.004209  0.743782  0.421583  1
  Ti  Ti5  1  0.504210  0.256217  0.578419  1
  Ti  Ti6  1  0.495803  0.243781  0.078409  1
  Ti  Ti7  1  0.995796  0.756218  0.921586  1
  Ag  Ag8  1  0.250000  0.398962  0.303294  1
  Ag  Ag9  1  0.750000  0.101037  0.803295  1
  Ag  Ag10  1  0.250001  0.894170  0.693470  1
  Ag  Ag11  1  0.750001  0.605831  0.193470  1
  Ag  Ag12  1  0.750000  0.105831  0.306530  1
  Ag  Ag13  1  0.250000  0.898962  0.196705  1
  Ag  Ag14  1  0.749999  0.601038  0.696706  1
  Ag  Ag15  1  0.250000  0.394169  0.806530  1
  P  P16  1  0.250007  0.497017  0.652401  1
  P  P17  1  0.750008  0.002985  0.152401  1
  P  P18  1  0.749994  0.998925  0.650448  1
  P  P19  1  0.750006  0.502983  0.347598  1
  P  P20  1  0.250001  0.997015  0.847599  1
  P  P21  1  0.750000  0.498927  0.849552  1
  P  P22  1  0.249995  0.001076  0.349551  1
  P  P23  1  0.249993  0.501074  0.150448  1
  S  S24  1  0.504270  0.964825  0.106947  1
  S  S25  1  0.250000  0.604869  0.725379  1
  S  S26  1  0.502606  0.037997  0.391974  1
  S  S27  1  0.750001  0.240108  0.655837  1
  S  S28  1  0.750001  0.740108  0.844164  1
  S  S29  1  0.995727  0.464817  0.393052  1
  S  S30  1  0.502605  0.537998  0.108027  1
  S  S31  1  0.249999  0.756010  0.846249  1
  S  S32  1  0.249998  0.740052  0.983165  1
  S  S33  1  0.750000  0.895131  0.225380  1
  S  S34  1  0.002606  0.961994  0.608027  1
  S  S35  1  0.250009  0.259892  0.155836  1
  S  S36  1  0.004271  0.535182  0.606946  1
  S  S37  1  0.749999  0.390745  0.775987  1
  S  S38  1  0.750002  0.878449  0.981150  1
  S  S39  1  0.250000  0.104869  0.774620  1
  S  S40  1  0.249979  0.240052  0.516833  1
  S  S41  1  0.749992  0.743992  0.346251  1
  S  S42  1  0.250015  0.121551  0.018849  1
  S  S43  1  0.997397  0.038002  0.391972  1
  S  S44  1  0.004273  0.035182  0.893053  1
  S  S45  1  0.002604  0.461998  0.891973  1
  S  S46  1  0.250006  0.759891  0.344165  1
  S  S47  1  0.250001  0.609255  0.224013  1
  S  S48  1  0.497397  0.461998  0.891972  1
  S  S49  1  0.497399  0.961994  0.608028  1
  S  S50  1  0.504269  0.464826  0.393055  1
  S  S51  1  0.250001  0.109255  0.275988  1
  S  S52  1  0.749988  0.243990  0.153751  1
  S  S53  1  0.495725  0.535189  0.606948  1
  S  S54  1  0.750003  0.143693  0.517289  1
  S  S55  1  0.250011  0.621555  0.481149  1
  S  S56  1  0.995723  0.964810  0.106949  1
  S  S57  1  0.749972  0.759948  0.483162  1
  S  S58  1  0.997399  0.538007  0.108029  1
  S  S59  1  0.750005  0.378449  0.518848  1
  S  S60  1  0.750001  0.643693  0.982710  1
  S  S61  1  0.250014  0.356307  0.017290  1
  S  S62  1  0.750000  0.890745  0.724012  1
  S  S63  1  0.249996  0.256009  0.653752  1
  S  S64  1  0.750001  0.395130  0.274621  1
  S  S65  1  0.250009  0.856303  0.482708  1
  S  S66  1  0.495728  0.035182  0.893052  1
  S  S67  1  0.749961  0.259948  0.016835  1
