# generated using pymatgen
data_LaNb2CuClO7
_symmetry_space_group_name_H-M   'P 1'
_cell_length_a   3.92224429
_cell_length_b   3.92222365
_cell_length_c   11.84313829
_cell_angle_alpha   89.99978275
_cell_angle_beta   90.00013629
_cell_angle_gamma   90.00019516
_symmetry_Int_Tables_number   1
_chemical_formula_structural   LaNb2CuClO7
_chemical_formula_sum   'La1 Nb2 Cu1 Cl1 O7'
_cell_volume   182.19388389
_cell_formula_units_Z   1
loop_
 _symmetry_equiv_pos_site_id
 _symmetry_equiv_pos_as_xyz
  1  'x, y, z'
loop_
 _atom_site_type_symbol
 _atom_site_label
 _atom_site_symmetry_multiplicity
 _atom_site_fract_x
 _atom_site_fract_y
 _atom_site_fract_z
 _atom_site_occupancy
  La  La0  1  0.999993  -0.000008  0.000001  1
  Nb  Nb1  1  0.500002  0.500004  0.806676  1
  Nb  Nb2  1  0.500000  0.500002  0.193323  1
  Cu  Cu3  1  0.499995  0.499997  0.500001  1
  Cl  Cl4  1  0.000005  0.000001  0.500001  1
  O  O5  1  -0.000000  0.499998  0.156004  1
  O  O6  1  0.500001  0.500000  0.654400  1
  O  O7  1  0.000001  0.500008  0.843995  1
  O  O8  1  0.500003  0.500002  0.345601  1
  O  O9  1  0.499999  1.000000  0.156006  1
  O  O10  1  0.500004  -0.000001  0.843994  1
  O  O11  1  0.499997  0.499997  1.000000  1
