# generated using pymatgen
data_SiO2
_symmetry_space_group_name_H-M   'P 1'
_cell_length_a   9.14480875
_cell_length_b   9.14480875
_cell_length_c   9.66184406
_cell_angle_alpha   90.00000000
_cell_angle_beta   90.00000000
_cell_angle_gamma   90.00000000
_symmetry_Int_Tables_number   1
_chemical_formula_structural   SiO2
_chemical_formula_sum   'Si12 O24'
_cell_volume   807.99612571
_cell_formula_units_Z   12
loop_
 _symmetry_equiv_pos_site_id
 _symmetry_equiv_pos_as_xyz
  1  'x, y, z'
loop_
 _atom_site_type_symbol
 _atom_site_label
 _atom_site_symmetry_multiplicity
 _atom_site_fract_x
 _atom_site_fract_y
 _atom_site_fract_z
 _atom_site_occupancy
  Si  Si0  1  0.336360  0.336360  0.000000  1
  Si  Si1  1  0.067893  0.374234  0.826679  1
  Si  Si2  1  0.836360  0.163640  0.750000  1
  Si  Si3  1  0.163640  0.836360  0.250000  1
  Si  Si4  1  0.932106  0.625766  0.326679  1
  Si  Si5  1  0.874234  0.432107  0.576679  1
  Si  Si6  1  0.663640  0.663640  0.500000  1
  Si  Si7  1  0.625766  0.932106  0.673321  1
  Si  Si8  1  0.374234  0.067893  0.173321  1
  Si  Si9  1  0.567894  0.125766  0.923321  1
  Si  Si10  1  0.432107  0.874234  0.423321  1
  Si  Si11  1  0.125766  0.567894  0.076679  1
  O  O12  1  0.005774  0.460138  0.689764  1
  O  O13  1  0.264348  0.822565  0.391196  1
  O  O14  1  0.493465  0.290749  0.931046  1
  O  O15  1  0.735652  0.177435  0.891196  1
  O  O16  1  0.235652  0.322565  0.858804  1
  O  O17  1  0.709251  0.506535  0.568954  1
  O  O18  1  0.209251  -0.006535  0.181046  1
  O  O19  1  0.177435  0.735652  0.108804  1
  O  O20  1  0.505774  0.039862  0.060236  1
  O  O21  1  0.764348  0.677435  0.358804  1
  O  O22  1  0.994226  0.539862  0.189764  1
  O  O23  1  0.039862  0.505774  0.939764  1
  O  O24  1  0.006535  0.790749  0.318954  1
  O  O25  1  0.494226  0.960138  0.560236  1
  O  O26  1  0.506535  0.709251  0.431046  1
  O  O27  1  0.290749  0.493465  0.068954  1
  O  O28  1  0.790749  0.006535  0.681046  1
  O  O29  1  0.460138  0.005774  0.310236  1
  O  O30  1  0.322565  0.235652  0.141196  1
  O  O31  1  0.539862  0.994226  0.810236  1
  O  O32  1  0.822565  0.264348  0.608804  1
  O  O33  1  -0.006535  0.209251  0.818954  1
  O  O34  1  0.677435  0.764348  0.641196  1
  O  O35  1  0.960138  0.494226  0.439764  1
