# generated using pymatgen
data_Na2Sr6ZnFe6F34
_symmetry_space_group_name_H-M   'P 1'
_cell_length_a   9.96546294
_cell_length_b   9.95324997
_cell_length_c   15.23303762
_cell_angle_alpha   80.23498958
_cell_angle_beta   80.38177307
_cell_angle_gamma   68.77544752
_symmetry_Int_Tables_number   1
_chemical_formula_structural   Na2Sr6ZnFe6F34
_chemical_formula_sum   'Na4 Sr12 Zn2 Fe12 F68'
_cell_volume   1378.83532913
_cell_formula_units_Z   2
loop_
 _symmetry_equiv_pos_site_id
 _symmetry_equiv_pos_as_xyz
  1  'x, y, z'
loop_
 _atom_site_type_symbol
 _atom_site_label
 _atom_site_symmetry_multiplicity
 _atom_site_fract_x
 _atom_site_fract_y
 _atom_site_fract_z
 _atom_site_occupancy
  Na  Na0  1  0.136231  0.563840  0.147746  1
  Na  Na1  1  0.482231  0.509725  0.001317  1
  Na  Na2  1  0.509661  0.493755  0.500702  1
  Na  Na3  1  0.766754  0.737442  0.529569  1
  Sr  Sr4  1  0.004722  0.996531  0.005019  1
  Sr  Sr5  1  0.265050  0.248950  0.448886  1
  Sr  Sr6  1  0.153545  0.541503  0.651043  1
  Sr  Sr7  1  0.252984  0.265828  0.948909  1
  Sr  Sr8  1  0.542197  0.159635  0.151879  1
  Sr  Sr9  1  0.547615  0.147610  0.652433  1
  Sr  Sr10  1  0.461977  0.840801  0.352486  1
  Sr  Sr11  1  0.455191  0.846701  0.847528  1
  Sr  Sr12  1  0.748980  0.734502  0.053216  1
  Sr  Sr13  1  0.851976  0.456899  0.343210  1
  Sr  Sr14  1  0.999645  0.996419  0.499300  1
  Sr  Sr15  1  0.839428  0.461884  0.847419  1
  Zn  Zn16  1  0.515238  0.484804  0.250215  1
  Zn  Zn17  1  0.487435  0.511394  0.749666  1
  Fe  Fe18  1  0.170860  0.165582  0.229386  1
  Fe  Fe19  1  0.151842  0.165971  0.731603  1
  Fe  Fe20  1  0.154087  0.633825  0.395627  1
  Fe  Fe21  1  0.134259  0.652116  0.906930  1
  Fe  Fe22  1  0.362503  0.850561  0.103058  1
  Fe  Fe23  1  0.345221  0.862045  0.596590  1
  Fe  Fe24  1  0.655979  0.131354  0.407515  1
  Fe  Fe25  1  0.638525  0.150216  0.897703  1
  Fe  Fe26  1  0.867126  0.344600  0.095147  1
  Fe  Fe27  1  0.848089  0.368911  0.600936  1
  Fe  Fe28  1  0.840185  0.831855  0.268507  1
  Fe  Fe29  1  0.834745  0.842240  0.768864  1
  F  F30  1  0.080469  0.122783  0.347461  1
  F  F31  1  0.006522  0.248381  0.519992  1
  F  F32  1  0.256190  0.006308  0.013956  1
  F  F33  1  0.094400  0.366276  0.250740  1
  F  F34  1  0.996973  0.746226  0.006981  1
  F  F35  1  0.102076  0.077274  0.847894  1
  F  F36  1  0.063286  0.484370  0.405583  1
  F  F37  1  0.043078  0.735293  0.292794  1
  F  F38  1  0.277054  0.221163  0.116480  1
  F  F39  1  0.025624  0.525961  0.909778  1
  F  F40  1  0.118042  0.343406  0.786672  1
  F  F41  1  0.345052  0.130124  0.286912  1
  F  F42  1  0.008405  0.806832  0.826314  1
  F  F43  1  0.231600  0.266380  0.622116  1
  F  F44  1  0.218905  0.765749  0.106624  1
  F  F45  1  0.263218  0.508487  0.492666  1
  F  F46  1  0.349957  0.093559  0.764168  1
  F  F47  1  0.309386  0.513374  0.314004  1
  F  F48  1  0.242389  0.778652  0.387721  1
  F  F49  1  0.211349  0.763572  0.590715  1
  F  F50  1  0.521633  0.030336  0.412525  1
  F  F51  1  0.262876  0.556054  0.803082  1
  F  F52  1  0.251954  0.503936  0.991388  1
  F  F53  1  0.459274  0.424848  0.148352  1
  F  F54  1  0.261461  0.956700  0.207959  1
  F  F55  1  0.493830  0.056298  0.904749  1
  F  F56  1  0.182507  0.000063  0.668707  1
  F  F57  1  0.241480  0.777009  0.910978  1
  F  F58  1  0.505202  0.256619  0.490350  1
  F  F59  1  0.429754  0.439056  0.649367  1
  F  F60  1  0.261701  0.991562  0.487568  1
  F  F61  1  0.571257  0.255396  0.300473  1
  F  F62  1  0.490070  0.741653  0.006678  1
  F  F63  1  0.484464  0.699356  0.189429  1
  F  F64  1  0.519950  0.296101  0.807264  1
  F  F65  1  0.507360  0.262547  0.990277  1
  F  F66  1  0.416529  0.739508  0.707866  1
  F  F67  1  0.736919  0.002640  0.512956  1
  F  F68  1  0.572565  0.559290  0.349538  1
  F  F69  1  0.490305  0.738581  0.515072  1
  F  F70  1  0.767626  0.213675  0.089041  1
  F  F71  1  0.814302  0.996160  0.333706  1
  F  F72  1  0.512931  0.939123  0.094385  1
  F  F73  1  0.748796  0.046353  0.795053  1
  F  F74  1  0.557617  0.569678  0.852119  1
  F  F75  1  0.739923  0.493351  0.013001  1
  F  F76  1  0.744867  0.422572  0.204731  1
  F  F77  1  0.458628  0.980246  0.595740  1
  F  F78  1  0.781194  0.239506  0.409538  1
  F  F79  1  0.752022  0.230617  0.606167  1
  F  F80  1  0.697989  0.478553  0.693485  1
  F  F81  1  0.638018  0.921991  0.242441  1
  F  F82  1  0.744477  0.489657  0.503186  1
  F  F83  1  0.772220  0.248863  0.891868  1
  F  F84  1  0.760157  0.729911  0.374914  1
  F  F85  1  0.005429  0.185725  0.167258  1
  F  F86  1  0.649602  0.883374  0.724044  1
  F  F87  1  0.856584  0.665260  0.209641  1
  F  F88  1  0.964702  0.478667  0.090312  1
  F  F89  1  0.739223  0.759300  0.880639  1
  F  F90  1  0.948738  0.258777  0.707395  1
  F  F91  1  0.944666  0.508281  0.594928  1
  F  F92  1  0.890923  0.920703  0.153244  1
  F  F93  1  0.998723  0.262352  0.987530  1
  F  F94  1  0.915155  0.643661  0.740016  1
  F  F95  1  0.748601  0.997310  0.984341  1
  F  F96  1  0.002911  0.744611  0.481221  1
  F  F97  1  0.914627  0.902500  0.653498  1
