# generated using pymatgen
data_Ce5Sn3
_symmetry_space_group_name_H-M   'P 1'
_cell_length_a   6.10403234
_cell_length_b   9.30389695
_cell_length_c   9.30044559
_cell_angle_alpha   83.88662922
_cell_angle_beta   70.87566243
_cell_angle_gamma   70.84748400
_symmetry_Int_Tables_number   1
_chemical_formula_structural   Ce5Sn3
_chemical_formula_sum   'Ce10 Sn6'
_cell_volume   471.41119770
_cell_formula_units_Z   2
loop_
 _symmetry_equiv_pos_site_id
 _symmetry_equiv_pos_as_xyz
  1  'x, y, z'
loop_
 _atom_site_type_symbol
 _atom_site_label
 _atom_site_symmetry_multiplicity
 _atom_site_fract_x
 _atom_site_fract_y
 _atom_site_fract_z
 _atom_site_occupancy
  Ce  Ce0  1  0.721480  0.861749  0.695137  1
  Ce  Ce1  1  0.221901  0.694471  0.861830  1
  Ce  Ce2  1  0.083531  0.138144  0.694770  1
  Ce  Ce3  1  0.916353  0.862060  0.305048  1
  Ce  Ce4  1  0.778452  0.304842  0.138381  1
  Ce  Ce5  1  0.250385  0.499865  0.499925  1
  Ce  Ce6  1  0.416057  0.305916  0.861954  1
  Ce  Ce7  1  0.583484  0.694827  0.138320  1
  Ce  Ce8  1  0.278561  0.138128  0.304685  1
  Ce  Ce9  1  0.749798  0.499991  0.499863  1
  Sn  Sn10  1  0.839222  0.500020  0.820706  1
  Sn  Sn11  1  0.339167  0.820989  0.499990  1
  Sn  Sn12  1  0.250058  0.000005  -0.000020  1
  Sn  Sn13  1  0.660899  0.179119  0.500007  1
  Sn  Sn14  1  0.160624  0.499892  0.179393  1
  Sn  Sn15  1  0.750026  -0.000016  0.000014  1
