# generated using pymatgen
data_Ca10Al6Si13N30
_symmetry_space_group_name_H-M   'P 1'
_cell_length_a   5.06709185
_cell_length_b   5.65538590
_cell_length_c   28.60616721
_cell_angle_alpha   120.98617294
_cell_angle_beta   90.26465501
_cell_angle_gamma   90.00041540
_symmetry_Int_Tables_number   1
_chemical_formula_structural   Ca10Al6Si13N30
_chemical_formula_sum   'Ca10 Al6 Si13 N30'
_cell_volume   702.75336369
_cell_formula_units_Z   1
loop_
 _symmetry_equiv_pos_site_id
 _symmetry_equiv_pos_as_xyz
  1  'x, y, z'
loop_
 _atom_site_type_symbol
 _atom_site_label
 _atom_site_symmetry_multiplicity
 _atom_site_fract_x
 _atom_site_fract_y
 _atom_site_fract_z
 _atom_site_occupancy
  Ca  Ca0  1  0.501220  0.666694  0.393984  1
  Ca  Ca1  1  0.511704  0.720526  0.008752  1
  Ca  Ca2  1  0.452603  0.663591  0.186141  1
  Ca  Ca3  1  0.494945  0.686274  0.599787  1
  Ca  Ca4  1  0.504294  0.676036  0.800277  1
  Ca  Ca5  1  0.986090  0.244826  0.188895  1
  Ca  Ca6  1  0.017266  0.445304  0.028562  1
  Ca  Ca7  1  0.000683  0.322443  0.803960  1
  Ca  Ca8  1  0.992252  0.308825  0.601199  1
  Ca  Ca9  1  -0.000164  0.334743  0.404646  1
  Al  Al10  1  0.024545  0.662997  0.530435  1
  Al  Al11  1  0.519626  0.329951  0.670405  1
  Al  Al12  1  0.523569  0.980251  0.328447  1
  Al  Al13  1  0.526301  0.978205  0.527584  1
  Al  Al14  1  0.534810  0.991087  0.932191  1
  Al  Al15  1  0.524631  0.981664  0.732547  1
  Si  Si16  1  0.993527  0.048548  0.069496  1
  Si  Si17  1  0.016967  0.992421  0.269450  1
  Si  Si18  1  0.024906  0.006265  0.466306  1
  Si  Si19  1  0.026481  0.661292  0.327569  1
  Si  Si20  1  0.029688  0.016045  0.672440  1
  Si  Si21  1  0.035309  0.023007  0.872015  1
  Si  Si22  1  0.031254  0.671016  0.732959  1
  Si  Si23  1  0.042931  0.681699  0.932617  1
  Si  Si24  1  0.507860  0.350598  0.068631  1
  Si  Si25  1  0.519715  0.323549  0.468091  1
  Si  Si26  1  0.516694  0.309506  0.264844  1
  Si  Si27  1  0.509150  0.972423  0.124154  1
  Si  Si28  1  0.530840  0.332476  0.871672  1
  N  N29  1  0.330037  0.136565  0.091898  1
  N  N30  1  0.365263  0.074404  0.479269  1
  N  N31  1  0.362059  0.091762  0.283863  1
  N  N32  1  0.365181  0.076415  0.686253  1
  N  N33  1  0.378805  0.082466  0.882189  1
  N  N34  1  0.365943  0.634851  0.309845  1
  N  N35  1  0.357799  0.666507  0.103412  1
  N  N36  1  0.364334  0.661230  0.720950  1
  N  N37  1  0.386034  0.640603  0.514577  1
  N  N38  1  0.380127  0.646152  0.914907  1
  N  N39  1  0.466674  0.257693  0.000730  1
  N  N40  1  0.481491  0.256569  0.402172  1
  N  N41  1  0.490302  0.203050  0.196476  1
  N  N42  1  0.491813  0.259188  0.599909  1
  N  N43  1  0.506044  0.263596  0.805526  1
  N  N44  1  0.860362  0.336017  0.286207  1
  N  N45  1  0.822402  0.326578  0.081997  1
  N  N46  1  0.824314  0.901175  0.099038  1
  N  N47  1  0.883755  0.342658  0.691457  1
  N  N48  1  0.861022  0.316340  0.483294  1
  N  N49  1  0.889875  0.904957  0.715639  1
  N  N50  1  0.898599  0.895082  0.910656  1
  N  N51  1  0.889848  0.902417  0.508667  1
  N  N52  1  0.896954  0.934446  0.322224  1
  N  N53  1  0.878882  0.343956  0.889272  1
  N  N54  1  0.960577  0.719906  0.208604  1
  N  N55  1  0.009178  0.779504  0.998876  1
  N  N56  1  0.981120  0.774246  0.802235  1
  N  N57  1  0.976493  0.771305  0.604068  1
  N  N58  1  0.994216  0.746499  0.396574  1
