# generated using pymatgen
data_Na3MgZr(PO4)3
_symmetry_space_group_name_H-M   'P 1'
_cell_length_a   9.06982732
_cell_length_b   9.07946209
_cell_length_c   27.20403569
_cell_angle_alpha   59.89164852
_cell_angle_beta   60.11421920
_cell_angle_gamma   60.13892143
_symmetry_Int_Tables_number   1
_chemical_formula_structural   Na3MgZr(PO4)3
_chemical_formula_sum   'Na18 Mg6 Zr6 P18 O72'
_cell_volume   1585.79630985
_cell_formula_units_Z   6
loop_
 _symmetry_equiv_pos_site_id
 _symmetry_equiv_pos_as_xyz
  1  'x, y, z'
loop_
 _atom_site_type_symbol
 _atom_site_label
 _atom_site_symmetry_multiplicity
 _atom_site_fract_x
 _atom_site_fract_y
 _atom_site_fract_z
 _atom_site_occupancy
  Na  Na0  1  0.007561  0.997540  0.327345  1
  Na  Na1  1  0.751637  0.093335  0.128863  1
  Na  Na2  1  0.493226  0.515528  0.167680  1
  Na  Na3  1  0.248695  0.879874  0.206050  1
  Na  Na4  1  0.995385  0.006682  0.660961  1
  Na  Na5  1  0.626705  0.250957  0.291607  1
  Na  Na6  1  0.879705  0.642725  0.082248  1
  Na  Na7  1  0.750989  0.103142  0.465162  1
  Na  Na8  1  0.491917  0.516443  0.501347  1
  Na  Na9  1  0.248931  0.876068  0.540075  1
  Na  Na10  1  0.622613  0.256187  0.627606  1
  Na  Na11  1  0.874737  0.622865  0.415882  1
  Na  Na12  1  0.392268  0.728248  0.703403  1
  Na  Na13  1  0.738213  0.119760  0.795708  1
  Na  Na14  1  0.479106  0.488560  0.834865  1
  Na  Na15  1  0.224762  0.899418  0.879364  1
  Na  Na16  1  0.634472  0.222297  0.963612  1
  Na  Na17  1  0.891745  0.611818  0.743475  1
  Mg  Mg18  1  0.652016  0.648358  0.218473  1
  Mg  Mg19  1  0.846967  0.844667  0.284034  1
  Mg  Mg20  1  0.346605  0.351714  0.785902  1
  Mg  Mg21  1  0.653810  0.647101  0.551005  1
  Mg  Mg22  1  0.851730  0.844496  0.616354  1
  Mg  Mg23  1  0.851295  0.850168  0.951103  1
  Zr  Zr24  1  0.149037  0.135060  0.045154  1
  Zr  Zr25  1  0.346527  0.359778  0.119585  1
  Zr  Zr26  1  0.150964  0.144550  0.378478  1
  Zr  Zr27  1  0.349023  0.363860  0.451478  1
  Zr  Zr28  1  0.145800  0.156167  0.712777  1
  Zr  Zr29  1  0.652593  0.647660  0.883625  1
  P  P30  1  0.041132  0.745947  0.156000  1
  P  P31  1  0.461355  0.038613  0.249387  1
  P  P32  1  0.749094  0.461650  0.017368  1
  P  P33  1  0.249408  0.549825  0.316774  1
  P  P34  1  0.543949  0.952432  0.084885  1
  P  P35  1  0.039858  0.751827  0.486582  1
  P  P36  1  0.948525  0.249027  0.180903  1
  P  P37  1  0.460753  0.039145  0.583475  1
  P  P38  1  0.749480  0.455919  0.348287  1
  P  P39  1  0.255026  0.555188  0.651367  1
  P  P40  1  0.549713  0.954914  0.417272  1
  P  P41  1  0.054207  0.749997  0.818892  1
  P  P42  1  0.950157  0.248618  0.515024  1
  P  P43  1  0.464068  0.051841  0.914044  1
  P  P44  1  0.746232  0.455281  0.682211  1
  P  P45  1  0.248768  0.541132  0.984489  1
  P  P46  1  0.548498  0.956653  0.749842  1
  P  P47  1  0.955423  0.249676  0.847663  1
  O  O48  1  0.119351  0.288180  0.165857  1
  O  O49  1  0.289544  0.505750  0.039325  1
  O  O50  1  0.063775  0.913709  0.097047  1
  O  O51  1  0.515895  0.117871  0.097131  1
  O  O52  1  0.018999  0.783754  0.208341  1
  O  O53  1  0.221471  0.586276  0.144754  1
  O  O54  1  0.278932  0.070676  0.302528  1
  O  O55  1  0.439952  0.218968  0.193727  1
  O  O56  1  0.586973  0.427063  0.076588  1
  O  O57  1  0.208969  0.381727  0.331068  1
  O  O58  1  0.084680  0.722811  0.312090  1
  O  O59  1  0.368836  0.998915  0.074813  1
  O  O60  1  0.618713  0.015603  0.262363  1
  O  O61  1  0.121148  0.287268  0.499404  1
  O  O62  1  0.906943  0.280708  0.025939  1
  O  O63  1  0.787037  0.620207  0.007260  1
  O  O64  1  0.413902  0.564907  0.259205  1
  O  O65  1  0.290000  0.507302  0.372939  1
  O  O66  1  0.560691  0.778107  0.140058  1
  O  O67  1  0.062597  0.917424  0.426000  1
  O  O68  1  0.516907  0.117808  0.431472  1
  O  O69  1  0.711239  0.931905  0.029297  1
  O  O70  1  0.016189  0.797164  0.537464  1
  O  O71  1  0.220748  0.590934  0.476851  1
  O  O72  1  0.776955  0.415075  0.187630  1
  O  O73  1  0.981654  0.208716  0.126568  1
  O  O74  1  0.282577  0.061335  0.638979  1
  O  O75  1  0.484848  0.885372  0.234721  1
  O  O76  1  0.935566  0.085185  0.239932  1
  O  O77  1  0.434741  0.218978  0.528713  1
  O  O78  1  0.705079  0.478628  0.297260  1
  O  O79  1  0.590878  0.420952  0.410644  1
  O  O80  1  0.214116  0.383160  0.666963  1
  O  O81  1  0.087806  0.726195  0.643200  1
  O  O82  1  0.880927  0.712829  0.162906  1
  O  O83  1  0.378700  0.001860  0.404416  1
  O  O84  1  0.620052  0.015250  0.595685  1
  O  O85  1  0.121034  0.285132  0.833922  1
  O  O86  1  0.908259  0.269746  0.359498  1
  O  O87  1  0.792609  0.609086  0.341284  1
  O  O88  1  0.416242  0.567280  0.591930  1
  O  O89  1  0.292498  0.526044  0.705115  1
  O  O90  1  0.563614  0.778974  0.471981  1
  O  O91  1  0.062959  0.918920  0.758602  1
  O  O92  1  0.516506  0.116532  0.763142  1
  O  O93  1  0.721674  0.937782  0.361967  1
  O  O94  1  0.019410  0.798533  0.870351  1
  O  O95  1  0.230387  0.595165  0.806445  1
  O  O96  1  0.778633  0.415143  0.520571  1
  O  O97  1  0.983155  0.206035  0.460753  1
  O  O98  1  0.288978  0.066748  0.968825  1
  O  O99  1  0.484690  0.880369  0.571094  1
  O  O100  1  0.935264  0.086031  0.574002  1
  O  O101  1  0.442178  0.221212  0.858544  1
  O  O102  1  0.704973  0.480010  0.629858  1
  O  O103  1  0.587123  0.429019  0.742492  1
  O  O104  1  0.226251  0.368352  0.995419  1
  O  O105  1  0.086944  0.710721  0.976347  1
  O  O106  1  0.880371  0.715585  0.494462  1
  O  O107  1  0.380492  0.987987  0.738065  1
  O  O108  1  0.626333  0.018255  0.926465  1
  O  O109  1  0.909725  0.271068  0.691870  1
  O  O110  1  0.790467  0.613007  0.672486  1
  O  O111  1  0.419251  0.562705  0.926200  1
  O  O112  1  0.566534  0.775893  0.805525  1
  O  O113  1  0.723159  0.928963  0.695787  1
  O  O114  1  0.778497  0.419337  0.854443  1
  O  O115  1  0.975289  0.224221  0.791050  1
  O  O116  1  0.497605  0.885017  0.900435  1
  O  O117  1  0.924817  0.088679  0.904551  1
  O  O118  1  0.705848  0.489736  0.963351  1
  O  O119  1  0.886156  0.711435  0.829678  1
