# generated using pymatgen
data_Cr3B7ClO13
_symmetry_space_group_name_H-M   'P 1'
_cell_length_a   12.29874914
_cell_length_b   12.29874914
_cell_length_c   12.31993355
_cell_angle_alpha   90.00000000
_cell_angle_beta   90.00000000
_cell_angle_gamma   90.00000000
_symmetry_Int_Tables_number   1
_chemical_formula_structural   Cr3B7ClO13
_chemical_formula_sum   'Cr24 B56 Cl8 O104'
_cell_volume   1863.50366746
_cell_formula_units_Z   8
loop_
 _symmetry_equiv_pos_site_id
 _symmetry_equiv_pos_as_xyz
  1  'x, y, z'
loop_
 _atom_site_type_symbol
 _atom_site_label
 _atom_site_symmetry_multiplicity
 _atom_site_fract_x
 _atom_site_fract_y
 _atom_site_fract_z
 _atom_site_occupancy
  Cr  Cr0  1  0.243440  0.002292  0.255586  1
  Cr  Cr1  1  0.500000  0.000000  0.974483  1
  Cr  Cr2  1  0.756173  0.995595  0.756546  1
  Cr  Cr3  1  0.002292  0.756560  0.744414  1
  Cr  Cr4  1  0.743440  0.497708  0.244414  1
  Cr  Cr5  1  0.497708  0.256560  0.755586  1
  Cr  Cr6  1  0.502292  0.743440  0.755586  1
  Cr  Cr7  1  0.000000  0.500000  0.525517  1
  Cr  Cr8  1  0.243827  0.004405  0.756546  1
  Cr  Cr9  1  0.000000  0.000000  0.500000  1
  Cr  Cr10  1  0.256173  0.504405  0.743454  1
  Cr  Cr11  1  0.997708  0.243440  0.744414  1
  Cr  Cr12  1  0.995595  0.243827  0.243454  1
  Cr  Cr13  1  0.504405  0.743827  0.256546  1
  Cr  Cr14  1  0.256560  0.502292  0.244414  1
  Cr  Cr15  1  0.743827  0.495595  0.743454  1
  Cr  Cr16  1  0.004405  0.756173  0.243454  1
  Cr  Cr17  1  0.000000  0.000000  0.000000  1
  Cr  Cr18  1  0.500000  0.500000  0.500000  1
  Cr  Cr19  1  0.756560  0.997708  0.255586  1
  Cr  Cr20  1  0.000000  0.500000  0.025517  1
  Cr  Cr21  1  0.500000  0.000000  0.474483  1
  Cr  Cr22  1  0.495595  0.256173  0.256546  1
  Cr  Cr23  1  0.500000  0.500000  0.000000  1
  B  B24  1  0.252036  0.751699  0.248706  1
  B  B25  1  0.348472  0.849279  0.597774  1
  B  B26  1  0.828439  0.175318  0.921040  1
  B  B27  1  0.247964  0.251699  0.251294  1
  B  B28  1  0.826044  0.327398  0.073164  1
  B  B29  1  0.825322  0.828312  0.578985  1
  B  B30  1  0.251699  0.752036  0.748706  1
  B  B31  1  0.000498  0.251994  0.999398  1
  B  B32  1  0.824682  0.828439  0.078960  1
  B  B33  1  0.173956  0.672602  0.073164  1
  B  B34  1  0.747964  0.248301  0.248706  1
  B  B35  1  0.848472  0.650721  0.902226  1
  B  B36  1  0.651528  0.150721  0.597774  1
  B  B37  1  0.324682  0.671561  0.421040  1
  B  B38  1  0.752036  0.748301  0.251294  1
  B  B39  1  0.500719  0.251752  0.003960  1
  B  B40  1  0.748248  0.500719  0.996040  1
  B  B41  1  0.751699  0.747964  0.751294  1
  B  B42  1  0.675318  0.328439  0.421040  1
  B  B43  1  0.671688  0.674678  0.078985  1
  B  B44  1  0.172602  0.673956  0.573164  1
  B  B45  1  0.150721  0.348472  0.402226  1
  B  B46  1  0.251994  0.999502  0.000602  1
  B  B47  1  0.999281  0.751752  0.496040  1
  B  B48  1  0.849279  0.651528  0.402226  1
  B  B49  1  0.328439  0.324682  0.578960  1
  B  B50  1  0.673956  0.827398  0.426836  1
  B  B51  1  0.748006  0.000498  0.000602  1
  B  B52  1  0.151528  0.349279  0.902226  1
  B  B53  1  0.999502  0.748006  0.999398  1
  B  B54  1  0.251752  0.499281  0.996040  1
  B  B55  1  0.748301  0.247964  0.748706  1
  B  B56  1  0.248006  0.499502  0.499398  1
  B  B57  1  0.171688  0.825322  0.421015  1
  B  B58  1  0.248301  0.252036  0.751294  1
  B  B59  1  0.325322  0.671688  0.921015  1
  B  B60  1  0.328312  0.325322  0.078985  1
  B  B61  1  0.499502  0.751994  0.500602  1
  B  B62  1  0.171561  0.824682  0.921040  1
  B  B63  1  0.827398  0.326044  0.573164  1
  B  B64  1  0.000719  0.248248  0.496040  1
  B  B65  1  0.326044  0.172602  0.426836  1
  B  B66  1  0.751994  0.500498  0.499398  1
  B  B67  1  0.500498  0.248006  0.500602  1
  B  B68  1  0.327398  0.173956  0.926836  1
  B  B69  1  0.672602  0.826044  0.926836  1
  B  B70  1  0.499281  0.748248  0.003960  1
  B  B71  1  0.349279  0.848472  0.097774  1
  B  B72  1  0.175318  0.171561  0.078960  1
  B  B73  1  0.751752  0.000719  0.503960  1
  B  B74  1  0.828312  0.174678  0.421015  1
  B  B75  1  0.674678  0.328312  0.921015  1
  B  B76  1  0.174678  0.171688  0.578985  1
  B  B77  1  0.248248  0.999281  0.503960  1
  B  B78  1  0.671561  0.675318  0.578960  1
  B  B79  1  0.650721  0.151528  0.097774  1
  Cl  Cl80  1  0.000000  0.500000  0.743758  1
  Cl  Cl81  1  0.000000  0.500000  0.243758  1
  Cl  Cl82  1  0.500000  0.000000  0.756242  1
  Cl  Cl83  1  0.000000  0.000000  0.752105  1
  Cl  Cl84  1  0.500000  0.500000  0.252105  1
  Cl  Cl85  1  0.500000  0.500000  0.747895  1
  Cl  Cl86  1  0.500000  0.000000  0.256242  1
  Cl  Cl87  1  0.000000  0.000000  0.247895  1
  O  O88  1  0.226655  0.066806  0.600072  1
  O  O89  1  0.153050  0.567656  0.523375  1
  O  O90  1  0.073222  0.231031  0.091647  1
  O  O91  1  0.773345  0.933194  0.600072  1
  O  O92  1  0.349022  0.932902  0.523166  1
  O  O93  1  0.154447  0.773433  0.814790  1
  O  O94  1  0.726655  0.433194  0.899928  1
  O  O95  1  0.573222  0.268969  0.408353  1
  O  O96  1  0.849022  0.567098  0.976834  1
  O  O97  1  0.258619  0.241474  0.010181  1
  O  O98  1  0.067098  0.349022  0.476834  1
  O  O99  1  0.730379  0.654557  0.179820  1
  O  O100  1  0.568984  0.656813  0.521732  1
  O  O101  1  0.268969  0.426778  0.591647  1
  O  O102  1  0.241381  0.741474  0.489819  1
  O  O103  1  0.267993  0.070350  0.409212  1
  O  O104  1  0.846950  0.432344  0.523375  1
  O  O105  1  0.654447  0.726567  0.685210  1
  O  O106  1  0.154557  0.230379  0.679820  1
  O  O107  1  0.926340  0.844211  0.517875  1
  O  O108  1  0.769621  0.154557  0.320180  1
  O  O109  1  0.339840  0.233321  0.325285  1
  O  O110  1  0.160160  0.733321  0.174715  1
  O  O111  1  0.732007  0.929650  0.409212  1
  O  O112  1  0.345553  0.273433  0.685210  1
  O  O113  1  0.258526  0.241381  0.510181  1
  O  O114  1  0.156813  0.068984  0.021732  1
  O  O115  1  0.226567  0.154447  0.185210  1
  O  O116  1  0.232007  0.570350  0.090788  1
  O  O117  1  0.352499  0.775202  0.183564  1
  O  O118  1  0.654557  0.269621  0.820180  1
  O  O119  1  0.344211  0.426340  0.017875  1
  O  O120  1  0.343187  0.568984  0.478268  1
  O  O121  1  0.768969  0.073222  0.908353  1
  O  O122  1  0.567656  0.846950  0.476625  1
  O  O123  1  0.758526  0.258619  0.989819  1
  O  O124  1  0.775202  0.647501  0.816436  1
  O  O125  1  0.241474  0.741381  0.989819  1
  O  O126  1  0.345443  0.730379  0.820180  1
  O  O127  1  0.433672  0.774854  0.600961  1
  O  O128  1  0.844211  0.073660  0.482125  1
  O  O129  1  0.231031  0.926778  0.908353  1
  O  O130  1  0.653050  0.932344  0.976625  1
  O  O131  1  0.741381  0.758526  0.010181  1
  O  O132  1  0.073660  0.155789  0.517875  1
  O  O133  1  0.150978  0.432902  0.976834  1
  O  O134  1  0.066806  0.773345  0.399928  1
  O  O135  1  0.839840  0.266679  0.174715  1
  O  O136  1  0.932902  0.650978  0.476834  1
  O  O137  1  0.566806  0.726655  0.100072  1
  O  O138  1  0.656813  0.431016  0.478268  1
  O  O139  1  0.766679  0.339840  0.674715  1
  O  O140  1  0.067656  0.653050  0.023375  1
  O  O141  1  0.266679  0.160160  0.825285  1
  O  O142  1  0.426340  0.655789  0.982125  1
  O  O143  1  0.431016  0.343187  0.521732  1
  O  O144  1  0.932344  0.346950  0.023375  1
  O  O145  1  0.647501  0.224798  0.183564  1
  O  O146  1  0.274854  0.933672  0.100961  1
  O  O147  1  0.852499  0.724798  0.316436  1
  O  O148  1  0.233321  0.660160  0.674715  1
  O  O149  1  0.269621  0.345443  0.179820  1
  O  O150  1  0.725146  0.066328  0.100961  1
  O  O151  1  0.070350  0.732007  0.590788  1
  O  O152  1  0.758619  0.258526  0.489819  1
  O  O153  1  0.845553  0.226567  0.814790  1
  O  O154  1  0.433194  0.273345  0.100072  1
  O  O155  1  0.773433  0.845553  0.185210  1
  O  O156  1  0.655789  0.573660  0.017875  1
  O  O157  1  0.147501  0.275202  0.316436  1
  O  O158  1  0.726567  0.345553  0.314790  1
  O  O159  1  0.346950  0.067656  0.976625  1
  O  O160  1  0.767993  0.429650  0.090788  1
  O  O161  1  0.724798  0.147501  0.683564  1
  O  O162  1  0.275202  0.852499  0.683564  1
  O  O163  1  0.929650  0.267993  0.590788  1
  O  O164  1  0.426778  0.731031  0.408353  1
  O  O165  1  0.566328  0.225146  0.600961  1
  O  O166  1  0.843187  0.931016  0.021732  1
  O  O167  1  0.733321  0.839840  0.825285  1
  O  O168  1  0.066328  0.274854  0.899039  1
  O  O169  1  0.567098  0.150978  0.023166  1
  O  O170  1  0.660160  0.766679  0.325285  1
  O  O171  1  0.845443  0.769621  0.679820  1
  O  O172  1  0.432902  0.849022  0.023166  1
  O  O173  1  0.933672  0.725146  0.899039  1
  O  O174  1  0.224798  0.352499  0.816436  1
  O  O175  1  0.933194  0.226655  0.399928  1
  O  O176  1  0.429650  0.232007  0.909212  1
  O  O177  1  0.774854  0.566328  0.399039  1
  O  O178  1  0.432344  0.153050  0.476625  1
  O  O179  1  0.741474  0.758619  0.510181  1
  O  O180  1  0.273433  0.654447  0.314790  1
  O  O181  1  0.068984  0.843187  0.978268  1
  O  O182  1  0.573660  0.344211  0.982125  1
  O  O183  1  0.731031  0.573222  0.591647  1
  O  O184  1  0.273345  0.566806  0.899928  1
  O  O185  1  0.650978  0.067098  0.523166  1
  O  O186  1  0.230379  0.845443  0.320180  1
  O  O187  1  0.155789  0.926340  0.482125  1
  O  O188  1  0.225146  0.433672  0.399039  1
  O  O189  1  0.931016  0.156813  0.978268  1
  O  O190  1  0.926778  0.768969  0.091647  1
  O  O191  1  0.570350  0.767993  0.909212  1
