# generated using pymatgen
data_HoHO2
_symmetry_space_group_name_H-M   'P 1'
_cell_length_a   6.01452197
_cell_length_b   3.64651828
_cell_length_c   4.30362819
_cell_angle_alpha   89.94182575
_cell_angle_beta   110.04072481
_cell_angle_gamma   90.01276043
_symmetry_Int_Tables_number   1
_chemical_formula_structural   HoHO2
_chemical_formula_sum   'Ho2 H2 O4'
_cell_volume   88.67217591
_cell_formula_units_Z   2
loop_
 _symmetry_equiv_pos_site_id
 _symmetry_equiv_pos_as_xyz
  1  'x, y, z'
loop_
 _atom_site_type_symbol
 _atom_site_label
 _atom_site_symmetry_multiplicity
 _atom_site_fract_x
 _atom_site_fract_y
 _atom_site_fract_z
 _atom_site_occupancy
  Ho  Ho0  1  0.188564  0.750486  0.337634  1
  Ho  Ho1  1  0.810361  0.250110  0.663242  1
  H  H2  1  0.595195  0.750953  0.987434  1
  H  H3  1  0.397924  0.254729  0.010727  1
  O  O4  1  0.048255  0.749756  0.766802  1
  O  O5  1  0.951325  0.250193  0.234142  1
  O  O6  1  0.567026  0.749534  0.750467  1
  O  O7  1  0.431621  0.250579  0.248994  1
