# generated using pymatgen
data_MnAs2S4(NF6)4
_symmetry_space_group_name_H-M   'P 1'
_cell_length_a   7.65981310
_cell_length_b   10.60571096
_cell_length_c   14.30242011
_cell_angle_alpha   90.00000000
_cell_angle_beta   94.48990051
_cell_angle_gamma   90.00000000
_symmetry_Int_Tables_number   1
_chemical_formula_structural   MnAs2S4(NF6)4
_chemical_formula_sum   'Mn2 As4 S8 N8 F48'
_cell_volume   1158.33093695
_cell_formula_units_Z   2
loop_
 _symmetry_equiv_pos_site_id
 _symmetry_equiv_pos_as_xyz
  1  'x, y, z'
loop_
 _atom_site_type_symbol
 _atom_site_label
 _atom_site_symmetry_multiplicity
 _atom_site_fract_x
 _atom_site_fract_y
 _atom_site_fract_z
 _atom_site_occupancy
  Mn  Mn0  1  0.000000  0.000000  0.000000  1
  Mn  Mn1  1  0.500000  0.500000  0.500000  1
  As  As2  1  0.190139  0.242714  0.386481  1
  As  As3  1  0.309861  0.742714  0.113519  1
  As  As4  1  0.809861  0.757286  0.613519  1
  As  As5  1  0.690139  0.257286  0.886481  1
  S  S6  1  0.696646  0.199417  0.550732  1
  S  S7  1  0.223497  0.435928  0.684262  1
  S  S8  1  0.776503  0.564072  0.315738  1
  S  S9  1  0.303354  0.800583  0.449268  1
  S  S10  1  0.196646  0.300583  0.050732  1
  S  S11  1  0.803354  0.699417  0.949268  1
  S  S12  1  0.276503  0.935928  0.815738  1
  S  S13  1  0.723497  0.064072  0.184262  1
  N  N14  1  0.639812  0.325895  0.541246  1
  N  N15  1  0.139812  0.174105  0.041246  1
  N  N16  1  0.360188  0.674105  0.458754  1
  N  N17  1  0.343768  0.480211  0.621743  1
  N  N18  1  0.156232  0.980211  0.878257  1
  N  N19  1  0.656232  0.519789  0.378257  1
  N  N20  1  0.843768  0.019789  0.121743  1
  N  N21  1  0.860188  0.825895  0.958754  1
  F  F22  1  0.523100  0.075648  0.154930  1
  F  F23  1  0.736282  0.117189  0.464035  1
  F  F24  1  0.250705  0.694249  0.996853  1
  F  F25  1  0.801671  0.106310  0.912882  1
  F  F26  1  0.581289  0.400754  0.860490  1
  F  F27  1  0.201286  0.507810  0.778159  1
  F  F28  1  0.371279  0.332290  0.109773  1
  F  F29  1  0.241030  0.301560  0.729876  1
  F  F30  1  0.301671  0.393690  0.412882  1
  F  F31  1  0.083982  0.403592  0.095891  1
  F  F32  1  0.798714  0.492190  0.221841  1
  F  F33  1  0.976900  0.575648  0.345070  1
  F  F34  1  0.418711  0.599246  0.139510  1
  F  F35  1  0.128721  0.832290  0.390227  1
  F  F36  1  0.741030  0.198440  0.229876  1
  F  F37  1  0.997189  0.311595  0.424293  1
  F  F38  1  0.916018  0.596408  0.904109  1
  F  F39  1  0.236282  0.382811  0.964035  1
  F  F40  1  0.109957  0.682770  0.148532  1
  F  F41  1  0.497189  0.188405  0.924293  1
  F  F42  1  0.890043  0.317230  0.851468  1
  F  F43  1  0.081289  0.099246  0.360490  1
  F  F44  1  0.198329  0.893690  0.087118  1
  F  F45  1  0.258970  0.801560  0.770124  1
  F  F46  1  0.364719  0.799715  0.227819  1
  F  F47  1  0.298714  0.007810  0.721841  1
  F  F48  1  0.635281  0.200285  0.772181  1
  F  F49  1  0.390043  0.182770  0.351468  1
  F  F50  1  0.758970  0.698440  0.270124  1
  F  F51  1  0.701286  0.992190  0.278159  1
  F  F52  1  0.749295  0.305751  0.003148  1
  F  F53  1  0.864719  0.700285  0.727819  1
  F  F54  1  0.628721  0.667710  0.890227  1
  F  F55  1  0.416018  0.903592  0.404109  1
  F  F56  1  0.763718  0.617189  0.035965  1
  F  F57  1  0.135281  0.299715  0.272181  1
  F  F58  1  0.698329  0.606310  0.587118  1
  F  F59  1  0.249295  0.194249  0.503147  1
  F  F60  1  0.002811  0.688405  0.575707  1
  F  F61  1  0.023100  0.424352  0.654930  1
  F  F62  1  0.871279  0.167710  0.609773  1
  F  F63  1  0.918711  0.900754  0.639510  1
  F  F64  1  0.609957  0.817230  0.648532  1
  F  F65  1  0.750705  0.805751  0.496852  1
  F  F66  1  0.502811  0.811595  0.075707  1
  F  F67  1  0.263718  0.882811  0.535965  1
  F  F68  1  0.583982  0.096408  0.595891  1
  F  F69  1  0.476900  0.924352  0.845070  1
