# generated using pymatgen
data_Yb(DyS2)2
_symmetry_space_group_name_H-M   'P 1'
_cell_length_a   7.22533288
_cell_length_b   7.22533324
_cell_length_c   7.22533265
_cell_angle_alpha   109.40678147
_cell_angle_beta   109.60018039
_cell_angle_gamma   109.40677714
_symmetry_Int_Tables_number   1
_chemical_formula_structural   Yb(DyS2)2
_chemical_formula_sum   'Yb2 Dy4 S8'
_cell_volume   290.36886519
_cell_formula_units_Z   2
loop_
 _symmetry_equiv_pos_site_id
 _symmetry_equiv_pos_as_xyz
  1  'x, y, z'
loop_
 _atom_site_type_symbol
 _atom_site_label
 _atom_site_symmetry_multiplicity
 _atom_site_fract_x
 _atom_site_fract_y
 _atom_site_fract_z
 _atom_site_occupancy
  Yb  Yb0  1  0.125000  0.750000  0.875000  1
  Yb  Yb1  1  0.375000  0.250000  0.625000  1
  Dy  Dy2  1  0.250000  0.627450  0.377450  1
  Dy  Dy3  1  0.622550  0.372550  0.250000  1
  Dy  Dy4  1  0.750000  0.872550  0.122550  1
  Dy  Dy5  1  0.877450  0.127450  0.750000  1
  S  S6  1  0.994925  0.853623  0.494723  1
  S  S7  1  0.994723  0.353623  0.494925  1
  S  S8  1  0.505075  -0.000203  0.858698  1
  S  S9  1  0.141302  0.146377  0.141099  1
  S  S10  1  0.358698  0.499797  0.005075  1
  S  S11  1  0.641099  0.646377  0.641302  1
  S  S12  1  0.505277  0.000203  0.358901  1
  S  S13  1  0.858901  0.500203  0.005277  1
