# generated using pymatgen
data_AgSbO3
_symmetry_space_group_name_H-M   'P 1'
_cell_length_a   8.34807410
_cell_length_b   8.10239651
_cell_length_c   16.33988688
_cell_angle_alpha   108.77864838
_cell_angle_beta   109.62474153
_cell_angle_gamma   109.32234471
_symmetry_Int_Tables_number   1
_chemical_formula_structural   AgSbO3
_chemical_formula_sum   'Ag12 Sb12 O36'
_cell_volume   857.91005571
_cell_formula_units_Z   12
loop_
 _symmetry_equiv_pos_site_id
 _symmetry_equiv_pos_as_xyz
  1  'x, y, z'
loop_
 _atom_site_type_symbol
 _atom_site_label
 _atom_site_symmetry_multiplicity
 _atom_site_fract_x
 _atom_site_fract_y
 _atom_site_fract_z
 _atom_site_occupancy
  Ag  Ag0  1  0.994289  0.659594  0.500686  1
  Ag  Ag1  1  0.196935  0.197721  0.644997  1
  Ag  Ag2  1  0.969284  0.881775  0.925894  1
  Ag  Ag3  1  0.003132  0.002039  0.158416  1
  Ag  Ag4  1  0.573839  0.587645  0.790454  1
  Ag  Ag5  1  0.025243  0.327002  0.002697  1
  Ag  Ag6  1  0.210814  0.984317  0.460584  1
  Ag  Ag7  1  0.601550  0.603363  0.298568  1
  Ag  Ag8  1  0.908889  0.071837  0.443139  1
  Ag  Ag9  1  0.378059  0.018564  0.010513  1
  Ag  Ag10  1  0.609700  0.998965  0.506242  1
  Ag  Ag11  1  0.705146  0.982634  0.983391  1
  Sb  Sb12  1  0.156102  0.498903  0.836803  1
  Sb  Sb13  1  0.327133  0.842383  0.751240  1
  Sb  Sb14  1  0.159774  0.493087  0.332160  1
  Sb  Sb15  1  0.504420  0.344355  0.921718  1
  Sb  Sb16  1  0.488168  0.650642  0.583526  1
  Sb  Sb17  1  0.336962  0.834074  0.246346  1
  Sb  Sb18  1  0.661662  0.162019  0.751545  1
  Sb  Sb19  1  0.494772  0.333995  0.420164  1
  Sb  Sb20  1  0.508324  0.670329  0.083855  1
  Sb  Sb21  1  0.842113  0.503616  0.669112  1
  Sb  Sb22  1  0.668334  0.170011  0.251980  1
  Sb  Sb23  1  0.848294  0.513073  0.170795  1
  O  O24  1  0.041708  0.715916  0.663318  1
  O  O25  1  0.290112  0.675130  0.982693  1
  O  O26  1  0.004969  0.364042  0.686336  1
  O  O27  1  0.372509  0.716382  0.837771  1
  O  O28  1  0.288515  0.339710  0.815286  1
  O  O29  1  0.051274  0.723628  0.165765  1
  O  O30  1  0.334496  0.619148  0.652096  1
  O  O31  1  0.337937  0.050912  0.864056  1
  O  O32  1  0.276360  0.657502  0.478912  1
  O  O33  1  0.627160  0.000511  0.822068  1
  O  O34  1  0.003172  0.367085  0.181609  1
  O  O35  1  0.355290  0.341290  0.501993  1
  O  O36  1  0.358968  0.009307  0.682385  1
  O  O37  1  0.650823  0.945478  0.643001  1
  O  O38  1  0.380363  0.709916  0.335040  1
  O  O39  1  0.654381  0.383397  0.851378  1
  O  O40  1  0.276754  0.318182  0.308685  1
  O  O41  1  0.705775  0.660079  0.690971  1
  O  O42  1  0.340678  0.615078  0.146291  1
  O  O43  1  0.629756  0.286509  0.666482  1
  O  O44  1  0.345181  0.040079  0.358785  1
  O  O45  1  0.637228  0.992883  0.316118  1
  O  O46  1  0.616530  0.630057  0.498764  1
  O  O47  1  0.002688  0.647148  0.821112  1
  O  O48  1  0.375450  0.370237  0.005624  1
  O  O49  1  0.372744  0.006302  0.181680  1
  O  O50  1  0.714966  0.332245  0.522636  1
  O  O51  1  0.669918  0.965339  0.140310  1
  O  O52  1  0.666815  0.387296  0.359101  1
  O  O53  1  0.949824  0.293360  0.842477  1
  O  O54  1  0.726626  0.684328  0.193564  1
  O  O55  1  0.631391  0.305942  0.171125  1
  O  O56  1  0.641406  0.650971  0.000488  1
  O  O57  1  0.011331  0.647791  0.323655  1
  O  O58  1  0.721014  0.338068  0.023707  1
  O  O59  1  0.950949  0.286809  0.335893  1
