# generated using pymatgen
data_Na7In4P9O32
_symmetry_space_group_name_H-M   'P 1'
_cell_length_a   6.70941288
_cell_length_b   14.49174767
_cell_length_c   14.49174767
_cell_angle_alpha   90.00000000
_cell_angle_beta   90.00000000
_cell_angle_gamma   90.00000000
_symmetry_Int_Tables_number   1
_chemical_formula_structural   Na7In4P9O32
_chemical_formula_sum   'Na14 In8 P18 O64'
_cell_volume   1409.04883455
_cell_formula_units_Z   2
loop_
 _symmetry_equiv_pos_site_id
 _symmetry_equiv_pos_as_xyz
  1  'x, y, z'
loop_
 _atom_site_type_symbol
 _atom_site_label
 _atom_site_symmetry_multiplicity
 _atom_site_fract_x
 _atom_site_fract_y
 _atom_site_fract_z
 _atom_site_occupancy
  O  O0  1  0.609574  0.838469  0.658273  1
  O  O1  1  0.609574  0.161531  0.341727  1
  O  O2  1  0.390426  0.341727  0.838469  1
  O  O3  1  0.390426  0.658273  0.161531  1
  O  O4  1  0.109574  0.841727  0.661531  1
  O  O5  1  0.890426  0.661531  0.158273  1
  O  O6  1  0.890426  0.338469  0.841727  1
  O  O7  1  0.109574  0.158273  0.338469  1
  O  O8  1  0.431744  0.694636  0.592199  1
  O  O9  1  0.431744  0.305364  0.407801  1
  O  O10  1  0.568256  0.407801  0.694636  1
  O  O11  1  0.568256  0.592199  0.305364  1
  O  O12  1  0.931744  0.907801  0.805364  1
  O  O13  1  0.068256  0.805364  0.092199  1
  O  O14  1  0.068256  0.194636  0.907801  1
  O  O15  1  0.931744  0.092199  0.194636  1
  O  O16  1  0.789829  0.682838  0.639400  1
  O  O17  1  0.789829  0.317162  0.360600  1
  O  O18  1  0.210171  0.360600  0.682838  1
  O  O19  1  0.210171  0.639400  0.317162  1
  O  O20  1  0.289829  0.860600  0.817162  1
  O  O21  1  0.710171  0.817162  0.139400  1
  O  O22  1  0.710171  0.182838  0.860600  1
  O  O23  1  0.289829  0.139400  0.182838  1
  O  O24  1  0.677742  0.776595  0.498219  1
  O  O25  1  0.838746  0.762511  0.344065  1
  O  O26  1  0.677742  0.223405  0.501781  1
  O  O27  1  0.322258  0.498219  0.223405  1
  O  O28  1  0.177742  0.001781  0.723405  1
  O  O29  1  0.822258  0.723405  0.998219  1
  O  O30  1  0.822258  0.276595  0.001781  1
  O  O31  1  0.177742  0.998219  0.276595  1
  O  O32  1  0.059697  0.759796  0.486660  1
  O  O33  1  0.059697  0.240204  0.513340  1
  O  O34  1  0.940303  0.513340  0.759796  1
  O  O35  1  0.940303  0.486660  0.240204  1
  O  O36  1  0.559697  0.013340  0.740204  1
  O  O37  1  0.440303  0.740204  0.986660  1
  O  O38  1  0.440303  0.259796  0.013340  1
  O  O39  1  0.559697  0.986660  0.259796  1
  O  O40  1  0.142969  0.437867  0.442323  1
  O  O41  1  0.857031  0.442323  0.562133  1
  O  O42  1  0.857031  0.557677  0.437867  1
  O  O43  1  0.142969  0.562133  0.557677  1
  O  O44  1  0.357031  0.937867  0.057677  1
  O  O45  1  0.357031  0.062133  0.942323  1
  O  O46  1  0.642969  0.057677  0.062133  1
  O  O47  1  0.642969  0.942323  0.937867  1
  O  O48  1  0.385014  0.933976  0.408702  1
  O  O49  1  0.614986  0.408702  0.066024  1
  O  O50  1  0.614986  0.591298  0.933976  1
  O  O51  1  0.385014  0.066024  0.591298  1
  O  O52  1  0.114986  0.433976  0.091298  1
  O  O53  1  0.114986  0.566024  0.908702  1
  O  O54  1  0.885014  0.091298  0.566024  1
  O  O55  1  0.885014  0.908702  0.433976  1
  O  O56  1  0.338746  0.844065  0.262511  1
  O  O57  1  0.661254  0.262511  0.155935  1
  O  O58  1  0.661254  0.737489  0.844065  1
  O  O59  1  0.338746  0.155935  0.737489  1
  O  O60  1  0.161254  0.344065  0.237489  1
  O  O61  1  0.161254  0.655935  0.762511  1
  O  O62  1  0.838746  0.237489  0.655935  1
  O  O63  1  0.322258  0.501781  0.776595  1
  Na  Na64  1  0.635846  0.590844  0.759007  1
  Na  Na65  1  0.635846  0.409156  0.240993  1
  Na  Na66  1  0.364154  0.240993  0.590844  1
  Na  Na67  1  0.364154  0.759007  0.409156  1
  Na  Na68  1  0.135846  0.740993  0.909156  1
  Na  Na69  1  0.864154  0.909156  0.259007  1
  Na  Na70  1  0.864154  0.090844  0.740993  1
  Na  Na71  1  0.135846  0.259007  0.090844  1
  Na  Na72  1  0.133564  0.000000  0.500000  1
  Na  Na73  1  0.866436  0.500000  0.000000  1
  Na  Na74  1  0.366436  0.500000  0.000000  1
  Na  Na75  1  0.633564  0.000000  0.500000  1
  Na  Na76  1  0.000000  0.000000  0.000000  1
  Na  Na77  1  0.500000  0.500000  0.500000  1
  P  P78  1  0.626461  0.748435  0.604794  1
  P  P79  1  0.626461  0.251565  0.395206  1
  P  P80  1  0.373539  0.395206  0.748435  1
  P  P81  1  0.373539  0.604794  0.251565  1
  P  P82  1  0.126461  0.895206  0.751565  1
  P  P83  1  0.873539  0.751565  0.104794  1
  P  P84  1  0.873539  0.248435  0.895206  1
  P  P85  1  0.126461  0.104794  0.248435  1
  P  P86  1  0.878701  0.804518  0.440382  1
  P  P87  1  0.878701  0.195482  0.559618  1
  P  P88  1  0.121299  0.559618  0.804518  1
  P  P89  1  0.121299  0.440382  0.195482  1
  P  P90  1  0.378701  0.059618  0.695482  1
  P  P91  1  0.621299  0.695482  0.940382  1
  P  P92  1  0.621299  0.304518  0.059618  1
  P  P93  1  0.378701  0.940382  0.304518  1
  P  P94  1  0.500000  0.000000  0.000000  1
  P  P95  1  0.000000  0.500000  0.500000  1
  In  In96  1  0.611767  0.879498  0.804135  1
  In  In97  1  0.611767  0.120502  0.195865  1
  In  In98  1  0.388233  0.195865  0.879498  1
  In  In99  1  0.388233  0.804135  0.120502  1
  In  In100  1  0.111767  0.695865  0.620502  1
  In  In101  1  0.888233  0.620502  0.304135  1
  In  In102  1  0.888233  0.379498  0.695865  1
  In  In103  1  0.111767  0.304135  0.379498  1
