# generated using pymatgen
data_Bi15Ru16O55
_symmetry_space_group_name_H-M   'P 1'
_cell_length_a   7.32747843
_cell_length_b   7.35641458
_cell_length_c   58.68007409
_cell_angle_alpha   59.90660470
_cell_angle_beta   59.77240856
_cell_angle_gamma   59.87410461
_symmetry_Int_Tables_number   1
_chemical_formula_structural   Bi15Ru16O55
_chemical_formula_sum   'Bi30 Ru32 O110'
_cell_volume   2229.07404730
_cell_formula_units_Z   2
loop_
 _symmetry_equiv_pos_site_id
 _symmetry_equiv_pos_as_xyz
  1  'x, y, z'
loop_
 _atom_site_type_symbol
 _atom_site_label
 _atom_site_symmetry_multiplicity
 _atom_site_fract_x
 _atom_site_fract_y
 _atom_site_fract_z
 _atom_site_occupancy
  Bi  Bi0  1  0.461375  0.501092  0.004562  1
  Bi  Bi1  1  0.474390  0.511214  0.064333  1
  Bi  Bi2  1  0.474451  0.999705  0.064334  1
  Bi  Bi3  1  0.501069  0.501736  0.124420  1
  Bi  Bi4  1  0.507564  0.505327  0.185911  1
  Bi  Bi5  1  0.507579  -0.000156  0.185906  1
  Bi  Bi6  1  0.523150  0.500029  0.247090  1
  Bi  Bi7  1  0.501998  0.500802  0.311701  1
  Bi  Bi8  1  0.502487  0.501161  0.374392  1
  Bi  Bi9  1  0.502041  0.003509  0.311705  1
  Bi  Bi10  1  0.005023  0.507213  0.310064  1
  Bi  Bi11  1  0.501123  0.500177  0.437250  1
  Bi  Bi12  1  0.000122  0.500197  0.562435  1
  Bi  Bi13  1  0.500095  0.500272  0.499917  1
  Bi  Bi14  1  0.501132  0.000616  0.437254  1
  Bi  Bi15  1  0.500297  0.000132  0.562428  1
  Bi  Bi16  1  0.000780  0.501210  0.437089  1
  Bi  Bi17  1  0.500303  0.500138  0.562430  1
  Bi  Bi18  1  0.000049  0.499930  0.687513  1
  Bi  Bi19  1  0.500052  0.500087  0.624973  1
  Bi  Bi20  1  0.499814  0.000023  0.687527  1
  Bi  Bi21  1  0.499792  0.499945  0.687527  1
  Bi  Bi22  1  0.998927  0.498454  0.813032  1
  Bi  Bi23  1  0.499926  0.499872  0.750043  1
  Bi  Bi24  1  0.498337  0.999130  0.812906  1
  Bi  Bi25  1  0.498364  0.499354  0.812911  1
  Bi  Bi26  1  0.496349  0.498333  0.875878  1
  Bi  Bi27  1  0.493778  0.994058  0.939441  1
  Bi  Bi28  1  0.493749  0.496673  0.939445  1
  Bi  Bi29  1  0.991817  0.489626  0.941119  1
  Ru  Ru30  1  0.994301  0.998205  0.001146  1
  Ru  Ru31  1  0.501711  0.997932  0.000300  1
  Ru  Ru32  1  0.999493  0.998537  0.125461  1
  Ru  Ru33  1  0.996109  0.003255  0.062181  1
  Ru  Ru34  1  0.503162  0.999524  0.124713  1
  Ru  Ru35  1  0.005749  0.002349  0.248970  1
  Ru  Ru36  1  0.994293  0.498376  0.001144  1
  Ru  Ru37  1  0.001649  0.999565  0.312400  1
  Ru  Ru38  1  0.503267  0.000441  0.249469  1
  Ru  Ru39  1  0.999516  0.498284  0.125458  1
  Ru  Ru40  1  0.000015  0.000284  0.499949  1
  Ru  Ru41  1  0.999488  -0.000110  0.187595  1
  Ru  Ru42  1  0.005755  0.500126  0.248970  1
  Ru  Ru43  1  0.500006  0.000039  0.499987  1
  Ru  Ru44  1  -0.000153  -0.000059  0.625047  1
  Ru  Ru45  1  0.500038  0.001011  0.374742  1
  Ru  Ru46  1  0.000793  0.000066  0.437379  1
  Ru  Ru47  1  0.000425  0.500438  0.374704  1
  Ru  Ru48  1  0.999748  0.999882  0.687565  1
  Ru  Ru49  1  0.499812  -0.000109  0.625051  1
  Ru  Ru50  1  0.000447  0.001507  0.374703  1
  Ru  Ru51  1  0.000093  0.000022  0.562481  1
  Ru  Ru52  1  0.000010  0.500086  0.499949  1
  Ru  Ru53  1  -0.000153  0.499840  0.625048  1
  Ru  Ru54  1  0.499996  0.999758  0.750060  1
  Ru  Ru55  1  0.500402  0.998691  0.875282  1
  Ru  Ru56  1  0.999762  0.499985  0.750077  1
  Ru  Ru57  1  0.999231  0.999908  0.812625  1
  Ru  Ru58  1  0.999751  0.999678  0.750077  1
  Ru  Ru59  1  0.999062  0.998466  0.875317  1
  Ru  Ru60  1  0.999036  0.499975  0.875318  1
  Ru  Ru61  1  0.998915  0.001022  0.937381  1
  O  O62  1  0.094281  0.058781  0.084093  1
  O  O63  1  0.088616  0.684261  0.005359  1
  O  O64  1  0.669635  0.074534  0.009991  1
  O  O65  1  0.094277  0.674181  0.084092  1
  O  O66  1  0.336505  0.331024  0.114484  1
  O  O67  1  0.085962  0.050474  0.210038  1
  O  O68  1  0.337389  0.913927  0.041842  1
  O  O69  1  0.084178  0.682680  0.131302  1
  O  O70  1  0.669626  0.675922  0.009990  1
  O  O71  1  0.675108  0.073247  0.084796  1
  O  O72  1  0.672090  0.077026  0.134486  1
  O  O73  1  0.921649  0.313530  0.039371  1
  O  O74  1  0.600935  0.633350  0.079045  1
  O  O75  1  0.336495  0.916570  0.114485  1
  O  O76  1  0.085967  0.683248  0.210042  1
  O  O77  1  0.332121  0.921890  0.165514  1
  O  O78  1  0.338303  0.330713  0.238868  1
  O  O79  1  0.078285  0.074165  0.334080  1
  O  O80  1  0.087290  0.665468  0.260219  1
  O  O81  1  0.913706  0.322095  0.117761  1
  O  O82  1  0.671332  0.077705  0.209153  1
  O  O83  1  0.672122  0.674985  0.134483  1
  O  O84  1  0.921643  0.949834  0.039371  1
  O  O85  1  0.909755  0.322110  0.165307  1
  O  O86  1  0.625311  0.644290  0.198271  1
  O  O87  1  0.384883  0.382539  0.293756  1
  O  O88  1  0.078307  0.674906  0.334078  1
  O  O89  1  0.674347  0.079440  0.259222  1
  O  O90  1  0.338283  0.920051  0.238867  1
  O  O91  1  0.329679  0.328712  0.364851  1
  O  O92  1  0.078030  0.077728  0.458938  1
  O  O93  1  0.080197  0.670306  0.384901  1
  O  O94  1  0.329169  0.923496  0.290481  1
  O  O95  1  0.669227  0.081870  0.333376  1
  O  O96  1  0.926409  0.309487  0.244326  1
  O  O97  1  0.909722  0.945675  0.165310  1
  O  O98  1  0.674359  0.672436  0.259220  1
  O  O99  1  0.626830  0.628305  0.327071  1
  O  O100  1  0.670069  0.079949  0.384767  1
  O  O101  1  0.377001  0.376146  0.421332  1
  O  O102  1  0.920863  0.334330  0.291271  1
  O  O103  1  0.329646  0.922846  0.364853  1
  O  O104  1  0.078046  0.672714  0.458938  1
  O  O105  1  0.078633  0.079008  0.583877  1
  O  O106  1  0.329055  0.328340  0.490159  1
  O  O107  1  0.329854  0.921269  0.415955  1
  O  O108  1  0.078577  0.671239  0.509867  1
  O  O109  1  0.671034  0.079337  0.458780  1
  O  O110  1  0.670046  0.671843  0.384765  1
  O  O111  1  0.920653  0.324492  0.366296  1
  O  O112  1  0.920854  0.914618  0.291271  1
  O  O113  1  0.329034  0.921360  0.490158  1
  O  O114  1  0.921041  0.330594  0.416133  1
  O  O115  1  0.670391  0.079338  0.509896  1
  O  O116  1  0.375541  0.374729  0.546874  1
  O  O117  1  0.078634  0.671333  0.583877  1
  O  O118  1  0.624799  0.625598  0.453001  1
  O  O119  1  0.078956  0.079578  0.708868  1
  O  O120  1  0.329493  0.328837  0.615136  1
  O  O121  1  0.329875  0.920519  0.541139  1
  O  O122  1  0.078789  0.671087  0.634880  1
  O  O123  1  0.670550  0.079314  0.583849  1
  O  O124  1  0.921606  0.327720  0.490367  1
  O  O125  1  0.921032  0.919341  0.416131  1
  O  O126  1  0.670378  0.671070  0.509897  1
  O  O127  1  0.375436  0.374573  0.671925  1
  O  O128  1  0.624421  0.625267  0.578133  1
  O  O129  1  0.329495  0.920596  0.615133  1
  O  O130  1  0.078971  0.670514  0.708863  1
  O  O131  1  0.921234  0.329263  0.541125  1
  O  O132  1  0.670389  0.079365  0.634899  1
  O  O133  1  0.079852  0.081691  0.833784  1
  O  O134  1  0.330037  0.329391  0.740054  1
  O  O135  1  0.078739  0.672064  0.759645  1
  O  O136  1  0.329259  0.920688  0.666175  1
  O  O137  1  0.921144  0.328758  0.615168  1
  O  O138  1  0.669765  0.079704  0.708850  1
  O  O139  1  0.670381  0.671047  0.634898  1
  O  O140  1  0.921245  0.920529  0.541122  1
  O  O141  1  0.079845  0.668192  0.833780  1
  O  O142  1  0.671058  0.079012  0.759767  1
  O  O143  1  0.624342  0.625160  0.703169  1
  O  O144  1  0.330017  0.920189  0.740054  1
  O  O145  1  0.374817  0.374056  0.797135  1
  O  O146  1  0.921316  0.328539  0.666155  1
  O  O147  1  0.330553  0.329057  0.865207  1
  O  O148  1  0.081017  0.085098  0.958768  1
  O  O149  1  0.329081  0.920602  0.791221  1
  O  O150  1  0.079855  0.676078  0.883502  1
  O  O151  1  0.668547  0.079971  0.833935  1
  O  O152  1  0.920948  0.329111  0.740106  1
  O  O153  1  0.671034  0.671812  0.759764  1
  O  O154  1  0.921321  0.920913  0.666155  1
  O  O155  1  0.921833  0.327572  0.791076  1
  O  O156  1  0.621047  0.621990  0.829383  1
  O  O157  1  0.369333  0.368371  0.924241  1
  O  O158  1  0.330543  0.918764  0.865207  1
  O  O159  1  0.081001  0.663776  0.958770  1
  O  O160  1  0.671754  0.077119  0.884787  1
  O  O161  1  0.330341  0.330175  0.990763  1
  O  O162  1  0.330093  0.918654  0.916579  1
  O  O163  1  0.918918  0.329753  0.865197  1
  O  O164  1  0.668352  0.079262  0.959137  1
  O  O165  1  0.921850  0.921991  0.791075  1
  O  O166  1  0.671730  0.672862  0.884784  1
  O  O167  1  0.603305  0.607161  0.960300  1
  O  O168  1  0.922887  0.324306  0.915854  1
  O  O169  1  0.330345  0.913342  0.990763  1
  O  O170  1  0.922902  0.925972  0.915855  1
  O  O171  1  0.915510  0.333345  0.989724  1
