# generated using pymatgen
data_FeHO2
_symmetry_space_group_name_H-M   'P 1'
_cell_length_a   3.98962011
_cell_length_b   6.46588091
_cell_length_c   6.46588091
_cell_angle_alpha   152.20136150
_cell_angle_beta   90.00000000
_cell_angle_gamma   90.00000000
_symmetry_Int_Tables_number   1
_chemical_formula_structural   FeHO2
_chemical_formula_sum   'Fe2 H2 O4'
_cell_volume   77.78815562
_cell_formula_units_Z   2
loop_
 _symmetry_equiv_pos_site_id
 _symmetry_equiv_pos_as_xyz
  1  'x, y, z'
loop_
 _atom_site_type_symbol
 _atom_site_label
 _atom_site_symmetry_multiplicity
 _atom_site_fract_x
 _atom_site_fract_y
 _atom_site_fract_z
 _atom_site_occupancy
  Fe  Fe0  1  0.249789  0.678064  0.321936  1
  Fe  Fe1  1  0.749789  0.321936  0.678064  1
  H  H2  1  0.438864  0.019300  0.980700  1
  H  H3  1  0.938864  0.980700  0.019300  1
  O  O4  1  0.250175  0.289474  0.710526  1
  O  O5  1  0.750175  0.710526  0.289474  1
  O  O6  1  0.246669  0.071689  0.928311  1
  O  O7  1  0.746669  0.928311  0.071689  1
