# generated using pymatgen
data_TlIn(MoO4)2
_symmetry_space_group_name_H-M   'P 1'
_cell_length_a   6.00829414
_cell_length_b   9.00103085
_cell_length_c   15.19631441
_cell_angle_alpha   89.99966656
_cell_angle_beta   89.99669855
_cell_angle_gamma   90.00046139
_symmetry_Int_Tables_number   1
_chemical_formula_structural   TlIn(MoO4)2
_chemical_formula_sum   'Tl4 In4 Mo8 O32'
_cell_volume   821.82946078
_cell_formula_units_Z   4
loop_
 _symmetry_equiv_pos_site_id
 _symmetry_equiv_pos_as_xyz
  1  'x, y, z'
loop_
 _atom_site_type_symbol
 _atom_site_label
 _atom_site_symmetry_multiplicity
 _atom_site_fract_x
 _atom_site_fract_y
 _atom_site_fract_z
 _atom_site_occupancy
  Tl  Tl0  1  0.249996  0.446424  0.873082  1
  Tl  Tl1  1  0.749997  0.946424  0.626919  1
  Tl  Tl2  1  0.249998  0.053575  0.373084  1
  Tl  Tl3  1  0.749997  0.553576  0.126918  1
  In  In4  1  0.750001  0.803008  0.892324  1
  In  In5  1  0.250001  0.303008  0.607658  1
  In  In6  1  0.249998  0.196992  0.107675  1
  In  In7  1  0.749999  0.697000  0.392323  1
  Mo  Mo8  1  0.249996  0.711050  0.538247  1
  Mo  Mo9  1  0.750002  0.998831  0.217543  1
  Mo  Mo10  1  0.750005  0.211064  0.961731  1
  Mo  Mo11  1  0.250002  0.498819  0.282479  1
  Mo  Mo12  1  0.250003  0.788936  0.038253  1
  Mo  Mo13  1  0.250007  0.001178  0.782457  1
  Mo  Mo14  1  0.750001  0.288866  0.461750  1
  Mo  Mo15  1  0.750001  0.501148  0.717540  1
  O  O16  1  0.001426  0.106006  0.197494  1
  O  O17  1  0.250020  0.090689  0.674454  1
  O  O18  1  0.750000  0.854260  0.141281  1
  O  O19  1  0.998573  0.606020  0.302508  1
  O  O20  1  0.249997  0.354287  0.358707  1
  O  O21  1  0.750013  0.487833  0.462597  1
  O  O22  1  0.505756  0.215906  0.519123  1
  O  O23  1  0.250010  0.987785  0.037395  1
  O  O24  1  0.749984  0.012216  0.962611  1
  O  O25  1  0.494266  0.784099  0.480876  1
  O  O26  1  0.501429  0.606012  0.302506  1
  O  O27  1  0.505737  0.284097  0.019130  1
  O  O28  1  0.250000  0.145729  0.858710  1
  O  O29  1  0.001412  0.393998  0.697492  1
  O  O30  1  0.750004  0.590697  0.825563  1
  O  O31  1  0.249993  0.409296  0.174449  1
  O  O32  1  0.494264  0.715903  0.980873  1
  O  O33  1  0.749996  0.219904  0.353964  1
  O  O34  1  0.994262  0.284096  0.019130  1
  O  O35  1  0.750005  0.645737  0.641291  1
  O  O36  1  0.998560  0.893991  0.802509  1
  O  O37  1  0.501432  0.893989  0.802507  1
  O  O38  1  0.250000  0.780112  0.646042  1
  O  O39  1  0.498588  0.393995  0.697491  1
  O  O40  1  0.250000  0.719892  0.146039  1
  O  O41  1  0.249979  0.512225  0.537394  1
  O  O42  1  0.005734  0.784092  0.480874  1
  O  O43  1  0.750004  0.280106  0.853970  1
  O  O44  1  0.750000  0.909305  0.325549  1
  O  O45  1  0.498574  0.106008  0.197493  1
  O  O46  1  0.994242  0.215909  0.519120  1
  O  O47  1  0.005736  0.715906  0.980875  1
