# generated using pymatgen
data_HfGe2Rh
_symmetry_space_group_name_H-M   'P 1'
_cell_length_a   8.08132444
_cell_length_b   9.32461482
_cell_length_c   10.56005801
_cell_angle_alpha   89.99639589
_cell_angle_beta   90.00018165
_cell_angle_gamma   90.00017004
_symmetry_Int_Tables_number   1
_chemical_formula_structural   HfGe2Rh
_chemical_formula_sum   'Hf12 Ge24 Rh12'
_cell_volume   795.75567928
_cell_formula_units_Z   12
loop_
 _symmetry_equiv_pos_site_id
 _symmetry_equiv_pos_as_xyz
  1  'x, y, z'
loop_
 _atom_site_type_symbol
 _atom_site_label
 _atom_site_symmetry_multiplicity
 _atom_site_fract_x
 _atom_site_fract_y
 _atom_site_fract_z
 _atom_site_occupancy
  Hf  Hf0  1  0.756320  0.830523  0.453219  1
  Hf  Hf1  1  0.243688  0.330540  0.046784  1
  Hf  Hf2  1  0.756309  0.330542  0.046780  1
  Hf  Hf3  1  0.756313  0.669461  0.953214  1
  Hf  Hf4  1  0.756313  0.169476  0.546782  1
  Hf  Hf5  1  0.243688  0.669460  0.953215  1
  Hf  Hf6  1  0.243682  0.169475  0.546781  1
  Hf  Hf7  1  0.000001  0.666208  0.682574  1
  Hf  Hf8  1  0.000002  0.833782  0.182569  1
  Hf  Hf9  1  0.243685  0.830523  0.453221  1
  Hf  Hf10  1  0.000001  0.333789  0.317425  1
  Hf  Hf11  1  0.999997  0.166216  0.817432  1
  Ge  Ge12  1  0.347940  0.344204  0.317105  1
  Ge  Ge13  1  0.347945  0.155793  0.817103  1
  Ge  Ge14  1  0.500000  0.546612  0.112449  1
  Ge  Ge15  1  0.000000  0.536219  0.115732  1
  Ge  Ge16  1  0.500000  0.638589  0.405447  1
  Ge  Ge17  1  0.999999  0.130946  0.098924  1
  Ge  Ge18  1  0.347947  0.844206  0.182897  1
  Ge  Ge19  1  0.652056  0.844207  0.182898  1
  Ge  Ge20  1  0.500002  0.953387  0.612452  1
  Ge  Ge21  1  0.500003  0.046612  0.387548  1
  Ge  Ge22  1  0.500001  0.361411  0.594553  1
  Ge  Ge23  1  0.999999  0.463782  0.884267  1
  Ge  Ge24  1  0.999997  0.369077  0.598927  1
  Ge  Ge25  1  0.000001  0.036214  0.384267  1
  Ge  Ge26  1  1.000000  0.630926  0.401075  1
  Ge  Ge27  1  0.500000  0.861417  0.905451  1
  Ge  Ge28  1  0.999998  0.963785  0.615733  1
  Ge  Ge29  1  0.652062  0.655795  0.682897  1
  Ge  Ge30  1  -0.000000  0.869054  0.901074  1
  Ge  Ge31  1  0.500000  0.138583  0.094550  1
  Ge  Ge32  1  0.652055  0.155794  0.817102  1
  Ge  Ge33  1  0.500001  0.453389  0.887551  1
  Ge  Ge34  1  0.652058  0.344205  0.317105  1
  Ge  Ge35  1  0.347941  0.655796  0.682894  1
  Rh  Rh36  1  0.250401  0.099239  0.253886  1
  Rh  Rh37  1  0.749606  0.099240  0.253886  1
  Rh  Rh38  1  0.752491  0.500002  0.500002  1
  Rh  Rh39  1  0.752504  0.999999  -0.000000  1
  Rh  Rh40  1  0.250401  0.599246  0.246119  1
  Rh  Rh41  1  0.749601  0.400751  0.753887  1
  Rh  Rh42  1  0.250400  0.900761  0.746114  1
  Rh  Rh43  1  0.247484  0.000001  -0.000001  1
  Rh  Rh44  1  0.247502  0.499997  0.500000  1
  Rh  Rh45  1  0.250401  0.400754  0.753884  1
  Rh  Rh46  1  0.749603  0.599249  0.246111  1
  Rh  Rh47  1  0.749601  0.900760  0.746115  1
