# generated using pymatgen
data_In4(SnO4)3
_symmetry_space_group_name_H-M   'P 1'
_cell_length_a   6.33794193
_cell_length_b   6.29463520
_cell_length_c   12.67568138
_cell_angle_alpha   99.73676103
_cell_angle_beta   99.30582013
_cell_angle_gamma   99.39571878
_symmetry_Int_Tables_number   1
_chemical_formula_structural   In4(SnO4)3
_chemical_formula_sum   'In8 Sn6 O24'
_cell_volume   482.31623203
_cell_formula_units_Z   2
loop_
 _symmetry_equiv_pos_site_id
 _symmetry_equiv_pos_as_xyz
  1  'x, y, z'
loop_
 _atom_site_type_symbol
 _atom_site_label
 _atom_site_symmetry_multiplicity
 _atom_site_fract_x
 _atom_site_fract_y
 _atom_site_fract_z
 _atom_site_occupancy
  In  In0  1  0.134464  0.602749  0.655133  1
  In  In1  1  0.395360  0.686700  0.932342  1
  In  In2  1  0.397031  0.694064  0.433499  1
  In  In3  1  0.313503  0.136111  0.302314  1
  In  In4  1  0.604640  0.313300  0.567658  1
  In  In5  1  0.686497  0.863889  0.197686  1
  In  In6  1  0.865536  0.397251  0.844867  1
  In  In7  1  0.602969  0.305936  0.066501  1
  Sn  Sn8  1  0.003717  0.004134  0.501846  1
  Sn  Sn9  1  0.139892  0.603831  0.158187  1
  Sn  Sn10  1  0.996283  0.995866  0.998154  1
  Sn  Sn11  1  0.318410  0.139004  0.801760  1
  Sn  Sn12  1  0.681590  0.860996  0.698240  1
  Sn  Sn13  1  0.860108  0.396169  0.341813  1
  O  O14  1  0.058684  0.684066  0.954914  1
  O  O15  1  0.101412  0.950657  0.661060  1
  O  O16  1  0.047633  0.680894  0.450604  1
  O  O17  1  0.180708  0.410355  0.789580  1
  O  O18  1  0.096198  0.931118  0.154631  1
  O  O19  1  0.304361  0.092518  0.962860  1
  O  O20  1  0.166100  0.414824  0.287305  1
  O  O21  1  0.424825  0.830568  0.791573  1
  O  O22  1  0.424976  0.594249  0.591926  1
  O  O23  1  0.314741  0.089279  0.471256  1
  O  O24  1  0.408554  0.812887  0.287804  1
  O  O25  1  0.575024  0.405751  0.908074  1
  O  O26  1  0.413004  0.579023  0.091401  1
  O  O27  1  0.575175  0.169432  0.708427  1
  O  O28  1  0.695639  0.907482  0.537140  1
  O  O29  1  0.586996  0.420977  0.408599  1
  O  O30  1  0.591446  0.187113  0.212196  1
  O  O31  1  0.819292  0.589645  0.710420  1
  O  O32  1  0.685259  0.910721  0.028744  1
  O  O33  1  0.898588  0.049343  0.838940  1
  O  O34  1  0.833900  0.585176  0.212695  1
  O  O35  1  0.941316  0.315934  0.545086  1
  O  O36  1  0.903802  0.068882  0.345369  1
  O  O37  1  0.952367  0.319107  0.049396  1
