# generated using pymatgen
data_Ca2Cu2Si3(HO3)4
_symmetry_space_group_name_H-M   'P 1'
_cell_length_a   7.10363090
_cell_length_b   13.30996061
_cell_length_c   5.45221039
_cell_angle_alpha   90.00000000
_cell_angle_beta   86.80726160
_cell_angle_gamma   90.00000000
_symmetry_Int_Tables_number   1
_chemical_formula_structural   Ca2Cu2Si3(HO3)4
_chemical_formula_sum   'Ca4 Cu4 Si6 H8 O24'
_cell_volume   514.70115357
_cell_formula_units_Z   2
loop_
 _symmetry_equiv_pos_site_id
 _symmetry_equiv_pos_as_xyz
  1  'x, y, z'
loop_
 _atom_site_type_symbol
 _atom_site_label
 _atom_site_symmetry_multiplicity
 _atom_site_fract_x
 _atom_site_fract_y
 _atom_site_fract_z
 _atom_site_occupancy
  Ca  Ca0  1  0.876961  0.394534  0.044430  1
  Ca  Ca1  1  0.123039  0.894534  0.955570  1
  Ca  Ca2  1  0.123039  0.605466  0.955570  1
  Ca  Ca3  1  0.876961  0.105466  0.044430  1
  Cu  Cu4  1  0.518615  0.250000  0.223161  1
  Cu  Cu5  1  0.481385  0.750000  0.776839  1
  Cu  Cu6  1  0.439831  0.250000  0.707514  1
  Cu  Cu7  1  0.560169  0.750000  0.292486  1
  Si  Si8  1  0.222490  0.422987  0.461107  1
  Si  Si9  1  0.777510  0.922987  0.538893  1
  Si  Si10  1  0.777510  0.577013  0.538893  1
  Si  Si11  1  0.222490  0.077013  0.461107  1
  Si  Si12  1  0.914435  0.250000  0.552346  1
  Si  Si13  1  0.085565  0.750000  0.447654  1
  H  H14  1  0.359175  0.409947  0.007432  1
  H  H15  1  0.640825  0.909947  0.992568  1
  H  H16  1  0.640825  0.590053  0.992568  1
  H  H17  1  0.359175  0.090053  0.007432  1
  H  H18  1  0.541587  0.407550  0.805727  1
  H  H19  1  0.458413  0.907550  0.194273  1
  H  H20  1  0.458413  0.592450  0.194273  1
  H  H21  1  0.541587  0.092450  0.805727  1
  O  O22  1  0.772657  0.250000  0.793523  1
  O  O23  1  0.227343  0.750000  0.206477  1
  O  O24  1  0.048850  0.350497  0.582484  1
  O  O25  1  0.951150  0.850497  0.417516  1
  O  O26  1  0.951150  0.649503  0.417516  1
  O  O27  1  0.048850  0.149503  0.582484  1
  O  O28  1  0.415084  0.348730  0.453552  1
  O  O29  1  0.584916  0.848730  0.546448  1
  O  O30  1  0.584916  0.651270  0.546448  1
  O  O31  1  0.415084  0.151270  0.453552  1
  O  O32  1  0.824083  0.250000  0.284158  1
  O  O33  1  0.175917  0.750000  0.715842  1
  O  O34  1  0.186227  0.450479  0.172102  1
  O  O35  1  0.813773  0.950479  0.827898  1
  O  O36  1  0.813773  0.549521  0.827898  1
  O  O37  1  0.186227  0.049521  0.172102  1
  O  O38  1  0.748988  0.487419  0.351699  1
  O  O39  1  0.251012  0.987419  0.648301  1
  O  O40  1  0.251012  0.512581  0.648301  1
  O  O41  1  0.748988  0.012581  0.351699  1
  O  O42  1  0.477597  0.369030  0.940631  1
  O  O43  1  0.522403  0.869030  0.059369  1
  O  O44  1  0.522403  0.630970  0.059369  1
  O  O45  1  0.477597  0.130970  0.940631  1
