# generated using pymatgen
data_Na2TiSiO5
_symmetry_space_group_name_H-M   'P 1'
_cell_length_a   9.25448207
_cell_length_b   10.15382601
_cell_length_c   10.15382601
_cell_angle_alpha   90.00000000
_cell_angle_beta   90.00000000
_cell_angle_gamma   90.00000000
_symmetry_Int_Tables_number   1
_chemical_formula_structural   Na2TiSiO5
_chemical_formula_sum   'Na16 Ti8 Si8 O40'
_cell_volume   954.13879167
_cell_formula_units_Z   8
loop_
 _symmetry_equiv_pos_site_id
 _symmetry_equiv_pos_as_xyz
  1  'x, y, z'
loop_
 _atom_site_type_symbol
 _atom_site_label
 _atom_site_symmetry_multiplicity
 _atom_site_fract_x
 _atom_site_fract_y
 _atom_site_fract_z
 _atom_site_occupancy
  Na  Na0  1  0.500000  0.753176  0.498795  1
  Na  Na1  1  0.750582  0.752053  0.239425  1
  Na  Na2  1  0.000000  0.999593  0.246950  1
  Na  Na3  1  0.500000  0.753050  0.999593  1
  Na  Na4  1  0.249418  0.752053  0.239425  1
  Na  Na5  1  0.250582  0.760575  0.752053  1
  Na  Na6  1  0.000000  0.498795  0.246824  1
  Na  Na7  1  0.000000  0.000407  0.753050  1
  Na  Na8  1  0.249418  0.247947  0.760575  1
  Na  Na9  1  0.749418  0.760575  0.752053  1
  Na  Na10  1  0.500000  0.246824  0.501205  1
  Na  Na11  1  0.750582  0.247947  0.760575  1
  Na  Na12  1  0.749418  0.239425  0.247947  1
  Na  Na13  1  0.500000  0.246950  0.000407  1
  Na  Na14  1  0.000000  0.501205  0.753176  1
  Na  Na15  1  0.250582  0.239425  0.247947  1
  Ti  Ti16  1  0.000000  0.240418  0.534987  1
  Ti  Ti17  1  0.000000  0.759174  0.965454  1
  Ti  Ti18  1  0.000000  0.759582  0.465013  1
  Ti  Ti19  1  0.000000  0.240826  0.034546  1
  Ti  Ti20  1  0.500000  0.465013  0.240418  1
  Ti  Ti21  1  0.500000  0.965454  0.240826  1
  Ti  Ti22  1  0.500000  0.534987  0.759582  1
  Ti  Ti23  1  0.500000  0.034546  0.759174  1
  Si  Si24  1  0.750000  0.000000  0.000000  1
  Si  Si25  1  0.250000  0.000000  0.000000  1
  Si  Si26  1  0.248160  0.000000  0.500000  1
  Si  Si27  1  0.751840  0.000000  0.500000  1
  Si  Si28  1  0.251840  0.500000  0.000000  1
  Si  Si29  1  0.250000  0.500000  0.500000  1
  Si  Si30  1  0.750000  0.500000  0.500000  1
  Si  Si31  1  0.748160  0.500000  0.000000  1
  O  O32  1  0.350993  0.048346  0.621890  1
  O  O33  1  0.149253  0.125558  0.953531  1
  O  O34  1  0.351329  0.448842  0.378241  1
  O  O35  1  0.850891  0.125630  0.451007  1
  O  O36  1  0.649253  0.046469  0.125558  1
  O  O37  1  0.350891  0.548993  0.125630  1
  O  O38  1  0.148671  0.621759  0.448842  1
  O  O39  1  0.850747  0.125558  0.953531  1
  O  O40  1  0.351329  0.551158  0.621759  1
  O  O41  1  0.649109  0.451007  0.874370  1
  O  O42  1  0.149253  0.874442  0.046469  1
  O  O43  1  0.850993  0.378110  0.048346  1
  O  O44  1  0.000000  0.208824  0.201258  1
  O  O45  1  0.649253  0.953531  0.874442  1
  O  O46  1  0.149007  0.621890  0.951654  1
  O  O47  1  0.149007  0.378110  0.048346  1
  O  O48  1  0.000000  0.207392  0.701260  1
  O  O49  1  0.500000  0.201258  0.791176  1
  O  O50  1  0.850891  0.874370  0.548993  1
  O  O51  1  0.850993  0.621890  0.951654  1
  O  O52  1  0.149109  0.874370  0.548993  1
  O  O53  1  0.350993  0.951654  0.378110  1
  O  O54  1  0.000000  0.791176  0.798742  1
  O  O55  1  0.648671  0.551158  0.621759  1
  O  O56  1  0.500000  0.701260  0.792608  1
  O  O57  1  0.851329  0.378241  0.551158  1
  O  O58  1  0.149109  0.125630  0.451007  1
  O  O59  1  0.148671  0.378241  0.551158  1
  O  O60  1  0.350891  0.451007  0.874370  1
  O  O61  1  0.350747  0.046469  0.125558  1
  O  O62  1  0.649007  0.951654  0.378110  1
  O  O63  1  0.649109  0.548993  0.125630  1
  O  O64  1  0.648671  0.448842  0.378241  1
  O  O65  1  0.350747  0.953531  0.874442  1
  O  O66  1  0.649007  0.048346  0.621890  1
  O  O67  1  0.000000  0.792608  0.298740  1
  O  O68  1  0.850747  0.874442  0.046469  1
  O  O69  1  0.500000  0.298740  0.207392  1
  O  O70  1  0.500000  0.798742  0.208824  1
  O  O71  1  0.851329  0.621759  0.448842  1
