# generated using pymatgen
data_H12RuC4S2N2Cl2O5
_symmetry_space_group_name_H-M   'P 1'
_cell_length_a   9.00786530
_cell_length_b   13.78277181
_cell_length_c   12.01287697
_cell_angle_alpha   90.00000000
_cell_angle_beta   103.15747040
_cell_angle_gamma   90.00000000
_symmetry_Int_Tables_number   1
_chemical_formula_structural   H12RuC4S2N2Cl2O5
_chemical_formula_sum   'H48 Ru4 C16 S8 N8 Cl8 O20'
_cell_volume   1452.28588970
_cell_formula_units_Z   4
loop_
 _symmetry_equiv_pos_site_id
 _symmetry_equiv_pos_as_xyz
  1  'x, y, z'
loop_
 _atom_site_type_symbol
 _atom_site_label
 _atom_site_symmetry_multiplicity
 _atom_site_fract_x
 _atom_site_fract_y
 _atom_site_fract_z
 _atom_site_occupancy
  H  H0  1  0.088304  0.404356  0.672312  1
  H  H1  1  0.911696  0.904356  0.827688  1
  H  H2  1  0.911696  0.595644  0.327688  1
  H  H3  1  0.088304  0.095644  0.172312  1
  H  H4  1  0.171599  0.412250  0.550429  1
  H  H5  1  0.828401  0.912250  0.949571  1
  H  H6  1  0.828401  0.587750  0.449571  1
  H  H7  1  0.171599  0.087750  0.050429  1
  H  H8  1  0.239816  0.321217  0.659372  1
  H  H9  1  0.760184  0.821217  0.840628  1
  H  H10  1  0.760184  0.678783  0.340628  1
  H  H11  1  0.239816  0.178783  0.159372  1
  H  H12  1  0.248843  0.451439  0.888334  1
  H  H13  1  0.751157  0.951439  0.611666  1
  H  H14  1  0.751157  0.548561  0.111666  1
  H  H15  1  0.248843  0.048561  0.388334  1
  H  H16  1  0.364427  0.353079  0.855323  1
  H  H17  1  0.635573  0.853079  0.644677  1
  H  H18  1  0.635573  0.646921  0.144677  1
  H  H19  1  0.364427  0.146921  0.355323  1
  H  H20  1  0.452061  0.465819  0.912642  1
  H  H21  1  0.547939  0.965819  0.587358  1
  H  H22  1  0.547939  0.534181  0.087358  1
  H  H23  1  0.452061  0.034181  0.412642  1
  H  H24  1  0.805183  0.185108  0.799276  1
  H  H25  1  0.194817  0.685108  0.700724  1
  H  H26  1  0.194817  0.814892  0.200724  1
  H  H27  1  0.805183  0.314892  0.299276  1
  H  H28  1  0.677590  0.249018  0.870901  1
  H  H29  1  0.322410  0.749018  0.629099  1
  H  H30  1  0.322410  0.750982  0.129099  1
  H  H31  1  0.677590  0.250982  0.370901  1
  H  H32  1  0.661035  0.264731  0.719409  1
  H  H33  1  0.338965  0.764731  0.780591  1
  H  H34  1  0.338965  0.735269  0.280591  1
  H  H35  1  0.661035  0.235269  0.219409  1
  H  H36  1  0.000796  0.258524  0.987094  1
  H  H37  1  0.999204  0.758524  0.512906  1
  H  H38  1  0.999204  0.741476  0.012906  1
  H  H39  1  0.000796  0.241476  0.487094  1
  H  H40  1  0.046457  0.385205  0.004446  1
  H  H41  1  0.953543  0.885205  0.495554  1
  H  H42  1  0.953543  0.614795  0.995554  1
  H  H43  1  0.046457  0.114795  0.504446  1
  H  H44  1  0.865962  0.341807  0.025738  1
  H  H45  1  0.134038  0.841807  0.474262  1
  H  H46  1  0.134038  0.658193  0.974262  1
  H  H47  1  0.865962  0.158193  0.525738  1
  Ru  Ru48  1  0.682406  0.534504  0.699620  1
  Ru  Ru49  1  0.317594  0.034504  0.800380  1
  Ru  Ru50  1  0.317594  0.465496  0.300380  1
  Ru  Ru51  1  0.682406  0.965496  0.199620  1
  C  C52  1  0.193480  0.394762  0.641688  1
  C  C53  1  0.806520  0.894762  0.858312  1
  C  C54  1  0.806520  0.605238  0.358312  1
  C  C55  1  0.193480  0.105238  0.141688  1
  C  C56  1  0.351242  0.431968  0.858313  1
  C  C57  1  0.648758  0.931968  0.641687  1
  C  C58  1  0.648758  0.568032  0.141687  1
  C  C59  1  0.351242  0.068032  0.358313  1
  C  C60  1  0.739379  0.251760  0.802255  1
  C  C61  1  0.260621  0.751760  0.697745  1
  C  C62  1  0.260621  0.748240  0.197745  1
  C  C63  1  0.739379  0.248240  0.302255  1
  C  C64  1  0.954220  0.332409  0.977100  1
  C  C65  1  0.045780  0.832409  0.522900  1
  C  C66  1  0.045780  0.667591  0.022900  1
  C  C67  1  0.954220  0.167591  0.477100  1
  S  S68  1  0.332730  0.479602  0.716086  1
  S  S69  1  0.667270  0.979602  0.783914  1
  S  S70  1  0.667270  0.520398  0.283914  1
  S  S71  1  0.332730  0.020398  0.216086  1
  S  S72  1  0.870509  0.351765  0.828021  1
  S  S73  1  0.129491  0.851765  0.671979  1
  S  S74  1  0.129491  0.648235  0.171979  1
  S  S75  1  0.870509  0.148235  0.328021  1
  N  N76  1  0.607963  0.621406  0.597140  1
  N  N77  1  0.392037  0.121406  0.902860  1
  N  N78  1  0.392037  0.378594  0.402860  1
  N  N79  1  0.607963  0.878594  0.097140  1
  N  N80  1  0.891686  0.600918  0.725437  1
  N  N81  1  0.108314  0.100918  0.774563  1
  N  N82  1  0.108314  0.399082  0.274563  1
  N  N83  1  0.891686  0.899082  0.225437  1
  Cl  Cl84  1  0.759442  0.421819  0.571986  1
  Cl  Cl85  1  0.240558  0.921819  0.928014  1
  Cl  Cl86  1  0.240558  0.578181  0.428014  1
  Cl  Cl87  1  0.759442  0.078181  0.071986  1
  Cl  Cl88  1  0.614613  0.632137  0.845669  1
  Cl  Cl89  1  0.385387  0.132137  0.654331  1
  Cl  Cl90  1  0.385387  0.367863  0.154331  1
  Cl  Cl91  1  0.614613  0.867863  0.345669  1
  O  O92  1  0.479455  0.446247  0.678989  1
  O  O93  1  0.520545  0.946247  0.821011  1
  O  O94  1  0.520545  0.553753  0.321011  1
  O  O95  1  0.479455  0.053753  0.178989  1
  O  O96  1  0.766383  0.441871  0.834967  1
  O  O97  1  0.233617  0.941871  0.665033  1
  O  O98  1  0.233617  0.558129  0.165033  1
  O  O99  1  0.766383  0.058129  0.334967  1
  O  O100  1  0.566896  0.685285  0.534357  1
  O  O101  1  0.433104  0.185285  0.965643  1
  O  O102  1  0.433104  0.314715  0.465643  1
  O  O103  1  0.566896  0.814715  0.034357  1
  O  O104  1  0.007212  0.555473  0.775568  1
  O  O105  1  0.992788  0.055473  0.724432  1
  O  O106  1  0.992788  0.444527  0.224432  1
  O  O107  1  0.007212  0.944527  0.275568  1
  O  O108  1  0.901030  0.685783  0.689825  1
  O  O109  1  0.098970  0.185783  0.810175  1
  O  O110  1  0.098970  0.314217  0.310175  1
  O  O111  1  0.901030  0.814217  0.189825  1
