# generated using pymatgen
data_KEr3F10
_symmetry_space_group_name_H-M   'P 1'
_cell_length_a   8.18344641
_cell_length_b   8.18344638
_cell_length_c   27.21649015
_cell_angle_alpha   89.93606968
_cell_angle_beta   98.71170153
_cell_angle_gamma   119.99846529
_symmetry_Int_Tables_number   1
_chemical_formula_structural   KEr3F10
_chemical_formula_sum   'K8 Er24 F80'
_cell_volume   1554.34158244
_cell_formula_units_Z   8
loop_
 _symmetry_equiv_pos_site_id
 _symmetry_equiv_pos_as_xyz
  1  'x, y, z'
loop_
 _atom_site_type_symbol
 _atom_site_label
 _atom_site_symmetry_multiplicity
 _atom_site_fract_x
 _atom_site_fract_y
 _atom_site_fract_z
 _atom_site_occupancy
  K  K0  1  0.155980  0.341131  0.497112  1
  K  K1  1  0.490088  0.504954  0.995042  1
  K  K2  1  0.911432  0.210392  0.121824  1
  K  K3  1  0.902561  0.712794  0.615355  1
  K  K4  1  0.659455  0.086382  0.745837  1
  K  K5  1  0.655954  0.589314  0.245268  1
  K  K6  1  0.408035  0.963923  0.371958  1
  K  K7  1  0.076728  0.794468  0.871196  1
  Er  Er8  1  0.916261  0.975235  0.369485  1
  Er  Er9  1  0.406655  0.210884  0.617540  1
  Er  Er10  1  0.001561  0.996082  0.997643  1
  Er  Er11  1  0.644254  0.582800  0.748044  1
  Er  Er12  1  0.394249  0.453224  0.369485  1
  Er  Er13  1  0.484844  0.999236  0.999435  1
  Er  Er14  1  0.915052  0.455051  0.370103  1
  Er  Er15  1  0.398016  0.720272  0.118287  1
  Er  Er16  1  0.568495  0.301036  0.869532  1
  Er  Er17  1  0.919259  0.720151  0.118063  1
  Er  Er18  1  0.151002  0.580417  0.248465  1
  Er  Er19  1  0.654102  0.326387  0.499008  1
  Er  Er20  1  0.165244  0.103790  0.748044  1
  Er  Er21  1  0.566580  0.781512  0.869019  1
  Er  Er22  1  0.397912  0.198804  0.118063  1
  Er  Er23  1  0.668048  0.097463  0.248465  1
  Er  Er24  1  0.000199  0.514591  0.999435  1
  Er  Er25  1  0.890464  0.209014  0.618318  1
  Er  Er26  1  0.148920  0.098053  0.246974  1
  Er  Er27  1  0.164726  0.581890  0.746617  1
  Er  Er28  1  0.653458  0.845516  0.498974  1
  Er  Er29  1  0.087507  0.302439  0.869019  1
  Er  Er30  1  0.172621  0.844906  0.499008  1
  Er  Er31  1  0.409304  0.727855  0.618318  1
  F  F32  1  0.274714  0.076461  0.681641  1
  F  F33  1  0.272385  0.730716  0.681199  1
  F  F34  1  0.603141  0.736143  0.684995  1
  F  F35  1  0.951212  0.908379  0.181593  1
  F  F36  1  0.068072  0.569137  0.086242  1
  F  F37  1  0.448484  0.488271  0.599093  1
  F  F38  1  0.608536  0.907376  0.182901  1
  F  F39  1  0.200551  0.136569  0.337120  1
  F  F40  1  0.118107  0.481177  0.599284  1
  F  F41  1  0.495731  0.731647  0.780502  1
  F  F42  1  0.890143  0.537948  0.762918  1
  F  F43  1  0.120066  0.473654  0.935729  1
  F  F44  1  0.451823  0.815260  0.267082  1
  F  F45  1  0.789250  0.817074  0.931989  1
  F  F46  1  0.809691  0.165050  0.530947  1
  F  F47  1  0.115551  0.820915  0.264781  1
  F  F48  1  0.056567  0.282951  0.016228  1
  F  F49  1  0.239319  0.597407  0.836726  1
  F  F50  1  0.607575  0.234771  0.184119  1
  F  F51  1  0.275525  0.574365  0.182901  1
  F  F52  1  0.728734  0.289891  0.018624  1
  F  F53  1  0.115006  0.979826  0.434103  1
  F  F54  1  0.894564  0.871051  0.765615  1
  F  F55  1  0.517105  0.018169  0.086242  1
  F  F56  1  0.090952  0.303143  0.394095  1
  F  F57  1  0.948853  0.081855  0.684995  1
  F  F58  1  0.846473  0.355531  0.853286  1
  F  F59  1  0.950057  0.567138  0.517194  1
  F  F60  1  0.698531  0.888686  0.587216  1
  F  F61  1  0.425578  0.467714  0.893292  1
  F  F62  1  0.443866  0.149230  0.264781  1
  F  F63  1  0.253382  0.887527  0.140909  1
  F  F64  1  0.617423  0.395270  0.352530  1
  F  F65  1  0.950482  0.408814  0.681199  1
  F  F66  1  0.670180  0.432346  0.102526  1
  F  F67  1  0.459286  0.150682  0.934960  1
  F  F68  1  0.454276  0.319097  0.434103  1
  F  F69  1  0.497756  0.006813  0.853286  1
  F  F70  1  0.784278  0.475674  0.934960  1
  F  F71  1  0.497553  0.282965  0.780519  1
  F  F72  1  0.148018  0.827650  0.975668  1
  F  F73  1  0.224970  0.872776  0.762918  1
  F  F74  1  0.756003  0.136184  0.337214  1
  F  F75  1  0.048855  0.284770  0.780502  1
  F  F76  1  0.829006  0.021630  0.850636  1
  F  F77  1  0.605180  0.406927  0.681641  1
  F  F78  1  0.307137  0.413451  0.280304  1
  F  F79  1  0.670808  0.761981  0.101877  1
  F  F80  1  0.365897  0.721256  0.530947  1
  F  F81  1  0.787422  0.318873  0.435135  1
  F  F82  1  0.248765  0.886697  0.585976  1
  F  F83  1  0.331006  0.147940  0.030183  1
  F  F84  1  0.863320  0.418266  0.281586  1
  F  F85  1  0.699279  0.337211  0.585976  1
  F  F86  1  0.332697  0.698790  0.031487  1
  F  F87  1  0.621886  0.570110  0.516816  1
  F  F88  1  0.339896  0.431069  0.101877  1
  F  F89  1  0.273214  0.230381  0.181593  1
  F  F90  1  0.456074  0.648219  0.434422  1
  F  F91  1  0.201030  0.581210  0.337214  1
  F  F92  1  0.949347  0.576543  0.184119  1
  F  F93  1  0.235783  0.154689  0.836022  1
  F  F94  1  0.110822  0.150609  0.599093  1
  F  F95  1  0.309376  0.415173  0.724549  1
  F  F96  1  0.957260  0.735107  0.352530  1
  F  F97  1  0.681333  0.600239  0.836022  1
  F  F98  1  0.462075  0.815663  0.935729  1
  F  F99  1  0.971464  0.252603  0.224067  1
  F  F100  1  0.786203  0.978348  0.434422  1
  F  F101  1  0.882243  0.699177  0.030183  1
  F  F102  1  0.946707  0.894930  0.516816  1
  F  F103  1  0.114915  0.142738  0.931989  1
  F  F104  1  0.363994  0.166712  0.530706  1
  F  F105  1  0.477224  0.998312  0.475536  1
  F  F106  1  0.866853  0.973167  0.280304  1
  F  F107  1  0.582596  0.058428  0.641023  1
  F  F108  1  0.625738  0.726949  0.352687  1
  F  F109  1  0.733276  0.959661  0.016228  1
  F  F110  1  0.116262  0.647714  0.435135  1
  F  F111  1  0.069324  0.015689  0.085012  1
