# generated using pymatgen
data_AgH12C4S5N
_symmetry_space_group_name_H-M   'P 1'
_cell_length_a   10.83171521
_cell_length_b   10.83171521
_cell_length_c   9.34222698
_cell_angle_alpha   67.15634511
_cell_angle_beta   112.84365489
_cell_angle_gamma   61.30548144
_symmetry_Int_Tables_number   1
_chemical_formula_structural   AgH12C4S5N
_chemical_formula_sum   'Ag2 H24 C8 S10 N2'
_cell_volume   623.24175211
_cell_formula_units_Z   2
loop_
 _symmetry_equiv_pos_site_id
 _symmetry_equiv_pos_as_xyz
  1  'x, y, z'
loop_
 _atom_site_type_symbol
 _atom_site_label
 _atom_site_symmetry_multiplicity
 _atom_site_fract_x
 _atom_site_fract_y
 _atom_site_fract_z
 _atom_site_occupancy
  Ag  Ag0  1  0.444297  0.099616  0.725128  1
  Ag  Ag1  1  0.900384  0.555703  0.225128  1
  H  H2  1  0.435050  0.382239  0.031139  1
  H  H3  1  0.617761  0.564950  0.531139  1
  H  H4  1  0.645583  0.333105  0.179645  1
  H  H5  1  0.666895  0.354417  0.679645  1
  H  H6  1  0.574739  0.262925  0.311760  1
  H  H7  1  0.737075  0.425261  0.811760  1
  H  H8  1  0.983933  0.990158  0.483217  1
  H  H9  1  0.009843  0.016067  0.983217  1
  H  H10  1  0.910622  0.922376  0.613458  1
  H  H11  1  0.077624  0.089378  0.113458  1
  H  H12  1  0.020670  0.787104  0.557299  1
  H  H13  1  0.212896  0.979330  0.057299  1
  H  H14  1  0.627549  0.988559  0.414432  1
  H  H15  1  0.011441  0.372451  0.914432  1
  H  H16  1  0.737168  0.853112  0.357502  1
  H  H17  1  0.146888  0.262832  0.857502  1
  H  H18  1  0.488400  0.104309  0.134625  1
  H  H19  1  0.895691  0.511600  0.634625  1
  H  H20  1  0.832956  0.946180  0.179474  1
  H  H21  1  0.053820  0.167044  0.679474  1
  H  H22  1  0.583470  0.198854  0.954688  1
  H  H23  1  0.801146  0.416530  0.454688  1
  H  H24  1  0.795398  0.148945  0.105952  1
  H  H25  1  0.851055  0.204602  0.605952  1
  C  C26  1  0.583783  0.278906  0.193692  1
  C  C27  1  0.721094  0.416217  0.693692  1
  C  C28  1  0.924410  0.933366  0.499782  1
  C  C29  1  0.066634  0.075590  0.999782  1
  C  C30  1  0.636710  0.000073  0.297583  1
  C  C31  1  -0.000073  0.363290  0.797583  1
  C  C32  1  0.733457  0.094227  0.117045  1
  C  C33  1  0.905773  0.266543  0.617045  1
  S  S34  1  0.547463  0.819892  0.055505  1
  S  S35  1  0.180108  0.452537  0.555505  1
  S  S36  1  0.717224  0.023819  0.744620  1
  S  S37  1  0.976181  0.282776  0.244620  1
  S  S38  1  0.395822  0.775763  0.910583  1
  S  S39  1  0.224237  0.604178  0.410583  1
  S  S40  1  0.416670  0.783648  0.697639  1
  S  S41  1  0.216352  0.583330  0.197639  1
  S  S42  1  0.281818  0.064199  0.456480  1
  S  S43  1  0.935801  0.718182  0.956480  1
  N  N44  1  0.719281  0.076896  0.276554  1
  N  N45  1  0.923104  0.280719  0.776554  1
