# generated using pymatgen
data_As5Pb3S10
_symmetry_space_group_name_H-M   'P 1'
_cell_length_a   8.45186048
_cell_length_b   8.41436899
_cell_length_c   27.08260806
_cell_angle_alpha   84.48407028
_cell_angle_beta   90.00000000
_cell_angle_gamma   90.00000000
_symmetry_Int_Tables_number   1
_chemical_formula_structural   As5Pb3S10
_chemical_formula_sum   'As20 Pb12 S40'
_cell_volume   1917.11732170
_cell_formula_units_Z   4
loop_
 _symmetry_equiv_pos_site_id
 _symmetry_equiv_pos_as_xyz
  1  'x, y, z'
loop_
 _atom_site_type_symbol
 _atom_site_label
 _atom_site_symmetry_multiplicity
 _atom_site_fract_x
 _atom_site_fract_y
 _atom_site_fract_z
 _atom_site_occupancy
  As  As0  1  0.847073  0.185479  0.592985  1
  As  As1  1  0.010656  0.018287  0.321270  1
  As  As2  1  0.346391  0.553810  0.819101  1
  As  As3  1  0.826906  -0.112063  0.180055  1
  As  As4  1  0.651972  0.015090  0.908560  1
  As  As5  1  0.492671  0.250787  0.191983  1
  As  As6  1  0.510656  -0.018287  0.678730  1
  As  As7  1  -0.007329  0.749213  0.808017  1
  As  As8  1  0.653766  0.564891  0.911686  1
  As  As9  1  0.347073  0.814521  0.407015  1
  As  As10  1  0.848019  0.734690  0.586988  1
  As  As11  1  0.137705  0.199936  0.680582  1
  As  As12  1  0.326906  0.112063  0.819945  1
  As  As13  1  0.759090  0.182724  0.304243  1
  As  As14  1  0.348019  0.265310  0.413012  1
  As  As15  1  0.151972  -0.015090  0.091440  1
  As  As16  1  0.153766  0.435109  0.088314  1
  As  As17  1  0.637705  0.800064  0.319418  1
  As  As18  1  0.259090  0.817276  0.695757  1
  As  As19  1  0.846391  0.446190  0.180899  1
  Pb  Pb20  1  0.945091  0.245939  0.831847  1
  Pb  Pb21  1  0.584731  0.477360  0.665204  1
  Pb  Pb22  1  0.731853  0.006606  0.457292  1
  Pb  Pb23  1  0.445091  0.754061  0.168153  1
  Pb  Pb24  1  0.203981  0.481453  0.550756  1
  Pb  Pb25  1  0.084731  0.522640  0.334796  1
  Pb  Pb26  1  0.763346  0.242101  0.042917  1
  Pb  Pb27  1  0.278662  0.254624  0.954674  1
  Pb  Pb28  1  0.263346  0.757899  0.957083  1
  Pb  Pb29  1  0.703981  0.518547  0.449244  1
  Pb  Pb30  1  0.231853  -0.006606  0.542708  1
  Pb  Pb31  1  0.778662  0.745376  0.045326  1
  S  S32  1  0.858270  0.288356  0.370792  1
  S  S33  1  0.805938  0.779473  0.934404  1
  S  S34  1  0.977735  0.265765  0.135546  1
  S  S35  1  0.524248  0.582537  0.357712  1
  S  S36  1  0.098536  0.848838  0.261639  1
  S  S37  1  0.199520  0.034119  0.435658  1
  S  S38  1  0.459174  0.312041  0.856068  1
  S  S39  1  0.477735  0.734235  0.864454  1
  S  S40  1  0.598536  0.151162  0.738361  1
  S  S41  1  0.959174  0.687959  0.143932  1
  S  S42  1  -0.010576  0.239013  0.522111  1
  S  S43  1  0.652114  -0.027208  0.118414  1
  S  S44  1  0.515043  0.250076  0.480451  1
  S  S45  1  0.824708  0.075483  0.753346  1
  S  S46  1  0.699520  -0.034119  0.564342  1
  S  S47  1  0.324708  -0.075483  0.246654  1
  S  S48  1  0.377734  0.202879  0.634706  1
  S  S49  1  0.306418  0.789284  0.068558  1
  S  S50  1  0.024248  0.417463  0.642288  1
  S  S51  1  0.007116  0.495866  0.018254  1
  S  S52  1  0.305938  0.220527  0.065596  1
  S  S53  1  0.369160  0.424652  0.239145  1
  S  S54  1  0.152114  0.027208  0.881586  1
  S  S55  1  0.522181  -0.002195  0.361627  1
  S  S56  1  0.492140  0.995998  0.977105  1
  S  S57  1  0.641059  0.660711  0.748061  1
  S  S58  1  0.015043  0.749924  0.519549  1
  S  S59  1  0.141059  0.339289  0.251939  1
  S  S60  1  0.022181  0.002195  0.638373  1
  S  S61  1  0.188089  0.456987  0.436254  1
  S  S62  1  0.869160  0.575348  0.760855  1
  S  S63  1  -0.007860  0.004002  0.022895  1
  S  S64  1  0.358270  0.711644  0.629208  1
  S  S65  1  0.489424  0.760987  0.477889  1
  S  S66  1  0.507116  0.504134  0.981746  1
  S  S67  1  0.877734  0.797121  0.365294  1
  S  S68  1  0.609477  0.440560  0.135866  1
  S  S69  1  0.806418  0.210716  0.931442  1
  S  S70  1  0.109477  0.559440  0.864134  1
  S  S71  1  0.688089  0.543013  0.563746  1
