# generated using pymatgen
data_CoH6(NCl)2
_symmetry_space_group_name_H-M   'P 1'
_cell_length_a   6.80928396
_cell_length_b   6.80928396
_cell_length_c   6.80928396
_cell_angle_alpha   107.95406473
_cell_angle_beta   107.77317709
_cell_angle_gamma   112.73664855
_symmetry_Int_Tables_number   1
_chemical_formula_structural   CoH6(NCl)2
_chemical_formula_sum   'Co2 H12 N4 Cl4'
_cell_volume   242.44634212
_cell_formula_units_Z   2
loop_
 _symmetry_equiv_pos_site_id
 _symmetry_equiv_pos_as_xyz
  1  'x, y, z'
loop_
 _atom_site_type_symbol
 _atom_site_label
 _atom_site_symmetry_multiplicity
 _atom_site_fract_x
 _atom_site_fract_y
 _atom_site_fract_z
 _atom_site_occupancy
  Co  Co0  1  0.750000  0.743276  0.993276  1
  Co  Co1  1  0.250000  0.256724  0.006724  1
  H  H2  1  0.434678  0.849130  0.783808  1
  H  H3  1  0.934678  0.150870  0.585548  1
  H  H4  1  0.565322  0.150870  0.216192  1
  H  H5  1  0.065322  0.849130  0.414452  1
  H  H6  1  0.553100  0.778813  0.615068  1
  H  H7  1  0.836255  0.221187  0.774287  1
  H  H8  1  0.053100  0.438032  0.774287  1
  H  H9  1  0.336255  0.561968  0.615068  1
  H  H10  1  0.446900  0.221187  0.384932  1
  H  H11  1  0.163745  0.778813  0.225713  1
  H  H12  1  0.946900  0.561968  0.225713  1
  H  H13  1  0.663745  0.438032  0.384932  1
  N  N14  1  0.489916  0.733997  0.723913  1
  N  N15  1  0.989916  0.266003  0.755919  1
  N  N16  1  0.510084  0.266003  0.276087  1
  N  N17  1  0.010084  0.733997  0.244081  1
  Cl  Cl18  1  0.492328  0.282111  0.789783  1
  Cl  Cl19  1  0.507672  0.717889  0.210217  1
  Cl  Cl20  1  0.992328  0.202545  0.210217  1
  Cl  Cl21  1  0.007672  0.797455  0.789783  1
