# generated using pymatgen
data_NaCe(GaSe2)4
_symmetry_space_group_name_H-M   'P 1'
_cell_length_a   12.49830969
_cell_length_b   12.49831039
_cell_length_c   12.54061202
_cell_angle_alpha   105.40059158
_cell_angle_beta   105.40059245
_cell_angle_gamma   117.84428512
_symmetry_Int_Tables_number   1
_chemical_formula_structural   NaCe(GaSe2)4
_chemical_formula_sum   'Na4 Ce4 Ga16 Se32'
_cell_volume   1485.32955201
_cell_formula_units_Z   4
loop_
 _symmetry_equiv_pos_site_id
 _symmetry_equiv_pos_as_xyz
  1  'x, y, z'
loop_
 _atom_site_type_symbol
 _atom_site_label
 _atom_site_symmetry_multiplicity
 _atom_site_fract_x
 _atom_site_fract_y
 _atom_site_fract_z
 _atom_site_occupancy
  Na  Na0  1  0.621964  0.871964  0.743928  1
  Na  Na1  1  0.128036  0.378036  0.756072  1
  Na  Na2  1  0.871964  0.621964  0.243928  1
  Na  Na3  1  0.378036  0.128036  0.256072  1
  Ce  Ce4  1  0.375000  0.625000  0.250000  1
  Ce  Ce5  1  0.125000  0.875000  0.750000  1
  Ce  Ce6  1  0.875000  0.125000  0.250000  1
  Ce  Ce7  1  0.625000  0.375000  0.750000  1
  Ga  Ga8  1  0.388410  0.868363  0.004524  1
  Ga  Ga9  1  0.611590  0.131637  0.995475  1
  Ga  Ga10  1  0.360532  0.470575  0.498905  1
  Ga  Ga11  1  0.361627  0.971671  0.501095  1
  Ga  Ga12  1  0.131637  0.611590  0.495476  1
  Ga  Ga13  1  0.638373  0.028329  0.498905  1
  Ga  Ga14  1  0.529425  0.639468  0.001095  1
  Ga  Ga15  1  0.470575  0.360532  0.998905  1
  Ga  Ga16  1  0.639468  0.529425  0.501095  1
  Ga  Ga17  1  0.868363  0.388410  0.504525  1
  Ga  Ga18  1  0.136162  0.116115  0.504525  1
  Ga  Ga19  1  0.863838  0.883885  0.495476  1
  Ga  Ga20  1  0.883885  0.863838  0.995475  1
  Ga  Ga21  1  0.971671  0.361627  0.001095  1
  Ga  Ga22  1  0.028329  0.638373  0.998905  1
  Ga  Ga23  1  0.116115  0.136162  0.004524  1
  Se  Se24  1  0.909272  0.412430  0.826328  1
  Se  Se25  1  0.657485  0.342510  0.995864  1
  Se  Se26  1  0.346647  0.161621  0.504136  1
  Se  Se27  1  0.587570  0.090728  0.673672  1
  Se  Se28  1  0.657490  0.342515  0.504136  1
  Se  Se29  1  0.089732  0.593692  0.672895  1
  Se  Se30  1  0.916837  0.920797  0.327105  1
  Se  Se31  1  0.593692  0.089732  0.172895  1
  Se  Se32  1  0.817046  0.149191  0.998105  1
  Se  Se33  1  0.586102  0.582944  0.673672  1
  Se  Se34  1  0.182954  0.850809  0.001895  1
  Se  Se35  1  0.161621  0.346647  0.004136  1
  Se  Se36  1  0.850809  0.182954  0.501895  1
  Se  Se37  1  0.318941  0.151087  0.001895  1
  Se  Se38  1  0.406308  0.910268  0.827105  1
  Se  Se39  1  0.413898  0.417056  0.326328  1
  Se  Se40  1  0.417056  0.413898  0.826328  1
  Se  Se41  1  0.090728  0.587570  0.173672  1
  Se  Se42  1  0.582944  0.586102  0.173672  1
  Se  Se43  1  0.838379  0.653353  0.995864  1
  Se  Se44  1  0.079203  0.083163  0.172895  1
  Se  Se45  1  0.083163  0.079203  0.672895  1
  Se  Se46  1  0.342510  0.657485  0.495864  1
  Se  Se47  1  0.910268  0.406308  0.327105  1
  Se  Se48  1  0.342515  0.657490  0.004136  1
  Se  Se49  1  0.681059  0.848913  0.998105  1
  Se  Se50  1  0.151087  0.318941  0.501895  1
  Se  Se51  1  0.920797  0.916837  0.827105  1
  Se  Se52  1  0.848913  0.681059  0.498105  1
  Se  Se53  1  0.412430  0.909272  0.326328  1
  Se  Se54  1  0.653353  0.838379  0.495864  1
  Se  Se55  1  0.149191  0.817046  0.498105  1
