# generated using pymatgen
data_Zr5I18
_symmetry_space_group_name_H-M   'P 1'
_cell_length_a   7.68652175
_cell_length_b   68.65452199
_cell_length_c   10.24195148
_cell_angle_alpha   41.30410843
_cell_angle_beta   111.95541358
_cell_angle_gamma   120.24500614
_symmetry_Int_Tables_number   1
_chemical_formula_structural   Zr5I18
_chemical_formula_sum   'Zr15 I54'
_cell_volume   3081.78109690
_cell_formula_units_Z   3
loop_
 _symmetry_equiv_pos_site_id
 _symmetry_equiv_pos_as_xyz
  1  'x, y, z'
loop_
 _atom_site_type_symbol
 _atom_site_label
 _atom_site_symmetry_multiplicity
 _atom_site_fract_x
 _atom_site_fract_y
 _atom_site_fract_z
 _atom_site_occupancy
  Zr  Zr0  1  -0.000002  0.893942  0.952648  1
  Zr  Zr1  1  0.999255  0.828924  0.545744  1
  Zr  Zr2  1  0.004702  0.729359  0.441411  1
  Zr  Zr3  1  0.005325  0.667183  0.005009  1
  Zr  Zr4  1  0.002541  0.611575  0.501733  1
  Zr  Zr5  1  0.001701  0.557502  0.986124  1
  Zr  Zr6  1  0.999187  0.499401  0.506550  1
  Zr  Zr7  1  -0.000169  0.388761  0.501473  1
  Zr  Zr8  1  0.998095  0.444848  0.996557  1
  Zr  Zr9  1  0.996509  0.277252  0.500073  1
  Zr  Zr10  1  0.997983  0.331978  0.008788  1
  Zr  Zr11  1  0.001534  0.994539  0.047419  1
  Zr  Zr12  1  0.990604  0.159433  0.558010  1
  Zr  Zr13  1  0.992941  0.221996  0.995153  1
  Zr  Zr14  1  0.998920  0.060338  0.453070  1
  I  I15  1  0.319440  0.951221  0.758336  1
  I  I16  1  0.317832  0.973004  0.238186  1
  I  I17  1  0.315106  0.842487  0.739543  1
  I  I18  1  0.001781  0.995079  0.749308  1
  I  I19  1  0.683909  0.915510  0.761660  1
  I  I20  1  0.289152  0.860794  0.251675  1
  I  I21  1  0.680826  0.937470  0.243245  1
  I  I22  1  0.305190  0.727945  0.753256  1
  I  I23  1  -0.000078  0.880128  0.759535  1
  I  I24  1  0.676876  0.806061  0.741908  1
  I  I25  1  0.322355  0.748408  0.267043  1
  I  I26  1  0.701553  0.827739  0.253777  1
  I  I27  1  0.998322  0.894013  0.248946  1
  I  I28  1  0.317271  0.618900  0.748106  1
  I  I29  1  0.997553  0.770619  0.744063  1
  I  I30  1  0.702831  0.693889  0.758225  1
  I  I31  1  0.310951  0.637404  0.260199  1
  I  I32  1  0.999298  0.784352  0.260344  1
  I  I33  1  0.684563  0.712307  0.267557  1
  I  I34  1  0.312730  0.507774  0.747127  1
  I  I35  1  0.996886  0.659202  0.763894  1
  I  I36  1  0.686154  0.583256  0.751324  1
  I  I37  1  0.307340  0.527690  0.249618  1
  I  I38  1  0.005216  0.673805  0.256382  1
  I  I39  1  0.687127  0.603191  0.261434  1
  I  I40  1  0.313490  0.395999  0.747954  1
  I  I41  1  0.998038  0.547893  0.753625  1
  I  I42  1  0.685761  0.472458  0.750239  1
  I  I43  1  0.311278  0.417043  0.248193  1
  I  I44  1  0.689403  0.493019  0.253142  1
  I  I45  1  0.999938  0.562958  0.245315  1
  I  I46  1  0.310090  0.286402  0.737442  1
  I  I47  1  0.997548  0.436770  0.753171  1
  I  I48  1  0.690710  0.361332  0.751850  1
  I  I49  1  0.311784  0.305659  0.248026  1
  I  I50  1  0.685315  0.381675  0.252646  1
  I  I51  1  0.000614  0.451883  0.248380  1
  I  I52  1  0.313531  0.176752  0.729283  1
  I  I53  1  0.996359  0.325858  0.752766  1
  I  I54  1  0.685625  0.251249  0.740253  1
  I  I55  1  0.295755  0.195439  0.241348  1
  I  I56  1  0.683651  0.270242  0.251283  1
  I  I57  1  0.001652  0.341091  0.244762  1
  I  I58  1  0.996967  0.215403  0.744328  1
  I  I59  1  0.296269  0.060785  0.746620  1
  I  I60  1  0.675173  0.140364  0.734927  1
  I  I61  1  0.320211  0.083257  0.255298  1
  I  I62  1  0.692973  0.160945  0.246325  1
  I  I63  1  0.995075  0.229655  0.235619  1
  I  I64  1  0.994546  0.104247  0.740423  1
  I  I65  1  0.709678  0.027834  0.750173  1
  I  I66  1  0.682268  0.046306  0.261954  1
  I  I67  1  0.999085  0.118349  0.257148  1
  I  I68  1  0.003710  0.008928  0.238084  1
