# generated using pymatgen
data_GaSi4H30C10Cl
_symmetry_space_group_name_H-M   'P 1'
_cell_length_a   9.30316895
_cell_length_b   14.42584626
_cell_length_c   15.88040582
_cell_angle_alpha   90.00000000
_cell_angle_beta   90.62353627
_cell_angle_gamma   90.00000000
_symmetry_Int_Tables_number   1
_chemical_formula_structural   GaSi4H30C10Cl
_chemical_formula_sum   'Ga4 Si16 H120 C40 Cl4'
_cell_volume   2131.12088930
_cell_formula_units_Z   4
loop_
 _symmetry_equiv_pos_site_id
 _symmetry_equiv_pos_as_xyz
  1  'x, y, z'
loop_
 _atom_site_type_symbol
 _atom_site_label
 _atom_site_symmetry_multiplicity
 _atom_site_fract_x
 _atom_site_fract_y
 _atom_site_fract_z
 _atom_site_occupancy
  Ga  Ga0  1  0.895698  0.088384  0.044716  1
  Ga  Ga1  1  0.604302  0.588384  0.455284  1
  Ga  Ga2  1  0.104302  0.911616  0.955284  1
  Ga  Ga3  1  0.395698  0.411616  0.544716  1
  Si  Si4  1  0.626202  0.337105  0.742743  1
  Si  Si5  1  0.668246  0.199516  0.530275  1
  Si  Si6  1  0.506412  0.282158  0.618531  1
  Si  Si7  1  0.006412  0.217842  0.118531  1
  Si  Si8  1  0.331754  0.800484  0.469725  1
  Si  Si9  1  0.373798  0.662895  0.257257  1
  Si  Si10  1  0.691900  0.815069  0.343495  1
  Si  Si11  1  0.873798  0.837105  0.757257  1
  Si  Si12  1  0.168246  0.300484  0.030275  1
  Si  Si13  1  0.808100  0.315069  0.156505  1
  Si  Si14  1  0.831754  0.699516  0.969725  1
  Si  Si15  1  0.308100  0.184931  0.656505  1
  Si  Si16  1  0.493588  0.717842  0.381469  1
  Si  Si17  1  0.993588  0.782158  0.881469  1
  Si  Si18  1  0.191900  0.684931  0.843495  1
  Si  Si19  1  0.126202  0.162895  0.242743  1
  H  H20  1  0.377523  0.592337  0.921161  1
  H  H21  1  0.386823  0.264091  0.947601  1
  H  H22  1  0.668089  0.305984  0.021286  1
  H  H23  1  0.904064  0.692548  0.671351  1
  H  H24  1  0.134687  0.449185  0.584485  1
  H  H25  1  0.678462  0.994184  0.988355  1
  H  H26  1  0.760420  0.467757  0.676254  1
  H  H27  1  0.235985  0.807869  0.223384  1
  H  H28  1  0.739580  0.967757  0.823746  1
  H  H29  1  0.821538  0.494184  0.511645  1
  H  H30  1  0.240478  0.238674  0.368145  1
  H  H31  1  0.417561  0.707568  0.763079  1
  H  H32  1  0.824301  0.132070  0.644184  1
  H  H33  1  0.319728  0.944478  0.381508  1
  H  H34  1  0.785255  0.403550  0.021265  1
  H  H35  1  0.532281  0.526650  0.227980  1
  H  H36  1  0.259522  0.738674  0.131855  1
  H  H37  1  0.417559  0.107970  0.783395  1
  H  H38  1  0.867909  0.365410  0.680645  1
  H  H39  1  0.944348  0.934568  0.634331  1
  H  H40  1  0.143695  0.397620  0.900738  1
  H  H41  1  0.380245  0.194594  0.040031  1
  H  H42  1  0.779730  0.718054  0.224223  1
  H  H43  1  0.264015  0.307869  0.276616  1
  H  H44  1  0.643695  0.102380  0.400738  1
  H  H45  1  0.632091  0.865410  0.819355  1
  H  H46  1  0.175699  0.867930  0.355816  1
  H  H47  1  0.740478  0.261326  0.868145  1
  H  H48  1  0.656488  0.933196  0.727183  1
  H  H49  1  0.444348  0.565432  0.134331  1
  H  H50  1  0.138532  0.384846  0.488616  1
  H  H51  1  0.948412  0.458873  0.191191  1
  H  H52  1  0.521457  0.197281  0.397067  1
  H  H53  1  0.967719  0.026650  0.272020  1
  H  H54  1  0.016681  0.598532  0.039553  1
  H  H55  1  0.276888  0.039334  0.739552  1
  H  H56  1  0.021457  0.302719  0.897067  1
  H  H57  1  0.404064  0.807452  0.171351  1
  H  H58  1  0.321538  0.005816  0.011645  1
  H  H59  1  0.082441  0.607970  0.716605  1
  H  H60  1  0.343512  0.066804  0.272817  1
  H  H61  1  0.983319  0.401468  0.960447  1
  H  H62  1  0.214745  0.596450  0.978735  1
  H  H63  1  0.638532  0.115154  0.988616  1
  H  H64  1  0.555652  0.434568  0.865669  1
  H  H65  1  0.675699  0.632070  0.855816  1
  H  H66  1  0.735985  0.692131  0.723384  1
  H  H67  1  0.978543  0.697281  0.102933  1
  H  H68  1  0.831911  0.805984  0.478714  1
  H  H69  1  0.917559  0.392030  0.283395  1
  H  H70  1  0.856305  0.602380  0.099262  1
  H  H71  1  0.095365  0.872564  0.675014  1
  H  H72  1  0.764015  0.192131  0.776616  1
  H  H73  1  0.331062  0.435984  0.050855  1
  H  H74  1  0.032281  0.973350  0.727980  1
  H  H75  1  0.770023  0.333863  0.451176  1
  H  H76  1  0.819728  0.555522  0.881508  1
  H  H77  1  0.595936  0.192548  0.828649  1
  H  H78  1  0.260420  0.032243  0.176254  1
  H  H79  1  0.180272  0.444478  0.118492  1
  H  H80  1  0.776888  0.460666  0.239552  1
  H  H81  1  0.055652  0.065432  0.365669  1
  H  H82  1  0.516681  0.901468  0.539553  1
  H  H83  1  0.483319  0.098532  0.460447  1
  H  H84  1  0.627654  0.189799  0.180470  1
  H  H85  1  0.872346  0.689799  0.319530  1
  H  H86  1  0.156488  0.566804  0.227183  1
  H  H87  1  0.759522  0.761326  0.631855  1
  H  H88  1  0.270023  0.166137  0.951176  1
  H  H89  1  0.178462  0.505816  0.488355  1
  H  H90  1  0.331911  0.694016  0.978714  1
  H  H91  1  0.132091  0.634590  0.319355  1
  H  H92  1  0.467719  0.473350  0.772020  1
  H  H93  1  0.367909  0.134590  0.180645  1
  H  H94  1  0.127654  0.310201  0.680470  1
  H  H95  1  0.729977  0.833863  0.048824  1
  H  H96  1  0.220270  0.281946  0.775777  1
  H  H97  1  0.877523  0.907663  0.421161  1
  H  H98  1  0.668938  0.564016  0.949145  1
  H  H99  1  0.122477  0.092337  0.578839  1
  H  H100  1  0.229977  0.666137  0.548824  1
  H  H101  1  0.723112  0.960666  0.260448  1
  H  H102  1  0.886823  0.235909  0.447601  1
  H  H103  1  0.582439  0.292432  0.236921  1
  H  H104  1  0.365313  0.949185  0.915515  1
  H  H105  1  0.404635  0.372564  0.824986  1
  H  H106  1  0.168089  0.194016  0.521286  1
  H  H107  1  0.356305  0.897620  0.599262  1
  H  H108  1  0.239580  0.532243  0.323746  1
  H  H109  1  0.904635  0.127436  0.324986  1
  H  H110  1  0.714745  0.903550  0.478735  1
  H  H111  1  0.095936  0.307452  0.328649  1
  H  H112  1  0.285255  0.096450  0.521265  1
  H  H113  1  0.917561  0.792432  0.263079  1
  H  H114  1  0.634687  0.050815  0.084485  1
  H  H115  1  0.582441  0.892030  0.216605  1
  H  H116  1  0.831062  0.064016  0.550855  1
  H  H117  1  0.372346  0.810201  0.819530  1
  H  H118  1  0.843512  0.433196  0.772817  1
  H  H119  1  0.478543  0.802719  0.602933  1
  H  H120  1  0.865313  0.550815  0.415515  1
  H  H121  1  0.082439  0.207568  0.736921  1
  H  H122  1  0.223112  0.539334  0.760448  1
  H  H123  1  0.861468  0.615154  0.511384  1
  H  H124  1  0.619755  0.805406  0.959969  1
  H  H125  1  0.324301  0.367930  0.144184  1
  H  H126  1  0.680272  0.055522  0.618492  1
  H  H127  1  0.051588  0.541127  0.808809  1
  H  H128  1  0.448412  0.041127  0.691191  1
  H  H129  1  0.613177  0.735909  0.052399  1
  H  H130  1  0.168938  0.935984  0.449145  1
  H  H131  1  0.279730  0.781946  0.724223  1
  H  H132  1  0.595365  0.627436  0.175014  1
  H  H133  1  0.119755  0.694594  0.459969  1
  H  H134  1  0.113177  0.764091  0.552399  1
  H  H135  1  0.361468  0.884846  0.011384  1
  H  H136  1  0.720270  0.218054  0.275777  1
  H  H137  1  0.551588  0.958873  0.308809  1
  H  H138  1  0.622477  0.407663  0.078839  1
  H  H139  1  0.880245  0.305406  0.540031  1
  C  C140  1  0.259020  0.396088  0.092013  1
  C  C141  1  0.712627  0.362435  0.060235  1
  C  C142  1  0.740980  0.603912  0.907987  1
  C  C143  1  0.309187  0.941399  0.975720  1
  C  C144  1  0.672126  0.247207  0.218217  1
  C  C145  1  0.327874  0.752793  0.781783  1
  C  C146  1  0.001551  0.088656  0.307211  1
  C  C147  1  0.687035  0.236264  0.810086  1
  C  C148  1  0.498449  0.588656  0.192789  1
  C  C149  1  0.240980  0.896088  0.407987  1
  C  C150  1  0.998449  0.911344  0.692789  1
  C  C151  1  0.312965  0.763736  0.189914  1
  C  C152  1  0.569670  0.144516  0.438594  1
  C  C153  1  0.809187  0.558601  0.475720  1
  C  C154  1  0.289627  0.092420  0.215163  1
  C  C155  1  0.814813  0.276296  0.488294  1
  C  C156  1  0.314813  0.223704  0.988294  1
  C  C157  1  0.868984  0.415920  0.223796  1
  C  C158  1  0.827874  0.747207  0.281783  1
  C  C159  1  0.368984  0.084080  0.723796  1
  C  C160  1  0.812965  0.736264  0.689914  1
  C  C161  1  0.759020  0.103912  0.592013  1
  C  C162  1  0.710373  0.907580  0.784837  1
  C  C163  1  0.789627  0.407580  0.715163  1
  C  C164  1  0.190813  0.441399  0.524280  1
  C  C165  1  0.430330  0.855484  0.561407  1
  C  C166  1  0.187035  0.263736  0.310086  1
  C  C167  1  0.930330  0.644516  0.061407  1
  C  C168  1  0.172126  0.252793  0.718217  1
  C  C169  1  0.131016  0.584080  0.776204  1
  C  C170  1  0.069670  0.355484  0.938593  1
  C  C171  1  0.787373  0.862435  0.439765  1
  C  C172  1  0.185187  0.723704  0.511706  1
  C  C173  1  0.212627  0.137565  0.560235  1
  C  C174  1  0.690813  0.058601  0.024280  1
  C  C175  1  0.685187  0.776296  0.011706  1
  C  C176  1  0.631016  0.915920  0.276204  1
  C  C177  1  0.210373  0.592420  0.284837  1
  C  C178  1  0.287373  0.637565  0.939765  1
  C  C179  1  0.501551  0.411344  0.807211  1
  Cl  Cl180  1  0.995556  0.938769  0.093264  1
  Cl  Cl181  1  0.004444  0.061231  0.906736  1
  Cl  Cl182  1  0.495556  0.561231  0.593264  1
  Cl  Cl183  1  0.504444  0.438769  0.406736  1
