# generated using pymatgen
data_Ba5Ga5Pb
_symmetry_space_group_name_H-M   'P 1'
_cell_length_a   6.13733458
_cell_length_b   6.13736781
_cell_length_c   10.88734403
_cell_angle_alpha   90.00070791
_cell_angle_beta   89.99967194
_cell_angle_gamma   119.99821750
_symmetry_Int_Tables_number   1
_chemical_formula_structural   Ba5Ga5Pb
_chemical_formula_sum   'Ba5 Ga5 Pb1'
_cell_volume   355.15859491
_cell_formula_units_Z   1
loop_
 _symmetry_equiv_pos_site_id
 _symmetry_equiv_pos_as_xyz
  1  'x, y, z'
loop_
 _atom_site_type_symbol
 _atom_site_label
 _atom_site_symmetry_multiplicity
 _atom_site_fract_x
 _atom_site_fract_y
 _atom_site_fract_z
 _atom_site_occupancy
  Ba  Ba0  1  0.999998  0.999995  0.332493  1
  Ba  Ba1  1  0.666672  0.333342  0.205540  1
  Ba  Ba2  1  0.666674  0.333329  0.794462  1
  Ba  Ba3  1  0.999998  0.000005  0.667505  1
  Ba  Ba4  1  0.333328  0.666666  0.000003  1
  Ga  Ga5  1  0.333333  0.666666  0.673221  1
  Ga  Ga6  1  0.516577  0.483423  0.499999  1
  Ga  Ga7  1  0.516578  0.033156  0.499999  1
  Ga  Ga8  1  0.333333  0.666667  0.326778  1
  Ga  Ga9  1  0.966845  0.483423  0.499999  1
  Pb  Pb10  1  -0.000001  -0.000004  1.000000  1
