# generated using pymatgen
data_Sr3InP3
_symmetry_space_group_name_H-M   'P 1'
_cell_length_a   4.35851317
_cell_length_b   12.94484041
_cell_length_c   13.97890759
_cell_angle_alpha   89.99988975
_cell_angle_beta   90.00016029
_cell_angle_gamma   89.99983868
_symmetry_Int_Tables_number   1
_chemical_formula_structural   Sr3InP3
_chemical_formula_sum   'Sr12 In4 P12'
_cell_volume   788.69356454
_cell_formula_units_Z   4
loop_
 _symmetry_equiv_pos_site_id
 _symmetry_equiv_pos_as_xyz
  1  'x, y, z'
loop_
 _atom_site_type_symbol
 _atom_site_label
 _atom_site_symmetry_multiplicity
 _atom_site_fract_x
 _atom_site_fract_y
 _atom_site_fract_z
 _atom_site_occupancy
  Sr  Sr0  1  0.750000  0.643937  0.996518  1
  Sr  Sr1  1  0.249998  0.774039  0.207003  1
  Sr  Sr2  1  0.249997  0.856062  0.496520  1
  Sr  Sr3  1  0.750001  0.143937  0.503482  1
  Sr  Sr4  1  0.749997  0.927584  0.895169  1
  Sr  Sr5  1  0.250001  0.356064  0.003483  1
  Sr  Sr6  1  0.749999  0.725959  0.707001  1
  Sr  Sr7  1  0.750002  0.427583  0.604830  1
  Sr  Sr8  1  0.249998  0.572417  0.395167  1
  Sr  Sr9  1  0.250004  0.072417  0.104832  1
  Sr  Sr10  1  0.249997  0.274042  0.292997  1
  Sr  Sr11  1  0.750001  0.225960  0.792997  1
  In  In12  1  0.750001  0.447398  0.201933  1
  In  In13  1  0.750002  0.947398  0.298067  1
  In  In14  1  0.250000  0.052602  0.701933  1
  In  In15  1  0.250000  0.552602  0.798066  1
  P  P16  1  0.750001  0.258610  0.127678  1
  P  P17  1  0.250001  0.595862  0.614888  1
  P  P18  1  0.250003  0.095862  0.885112  1
  P  P19  1  0.749998  0.404139  0.385111  1
  P  P20  1  0.249998  0.241390  0.627678  1
  P  P21  1  0.249999  0.547030  0.144396  1
  P  P22  1  0.750000  0.452970  0.855604  1
  P  P23  1  0.750000  0.952969  0.644396  1
  P  P24  1  0.249999  0.047030  0.355604  1
  P  P25  1  0.750001  0.758609  0.372323  1
  P  P26  1  0.750000  0.904138  0.114888  1
  P  P27  1  0.250001  0.741390  0.872323  1
