# generated using pymatgen
data_MnH14C3NCl3O2
_symmetry_space_group_name_H-M   'P 1'
_cell_length_a   7.50529381
_cell_length_b   8.39236106
_cell_length_c   17.08788538
_cell_angle_alpha   90.00000000
_cell_angle_beta   90.00000000
_cell_angle_gamma   90.00000000
_symmetry_Int_Tables_number   1
_chemical_formula_structural   MnH14C3NCl3O2
_chemical_formula_sum   'Mn4 H56 C12 N4 Cl12 O8'
_cell_volume   1076.31695209
_cell_formula_units_Z   4
loop_
 _symmetry_equiv_pos_site_id
 _symmetry_equiv_pos_as_xyz
  1  'x, y, z'
loop_
 _atom_site_type_symbol
 _atom_site_label
 _atom_site_symmetry_multiplicity
 _atom_site_fract_x
 _atom_site_fract_y
 _atom_site_fract_z
 _atom_site_occupancy
  Mn  Mn0  1  0.000000  0.500000  0.500000  1
  Mn  Mn1  1  0.500000  0.000000  0.000000  1
  Mn  Mn2  1  0.000000  0.000000  0.000000  1
  Mn  Mn3  1  0.500000  0.500000  0.500000  1
  H  H4  1  0.530860  0.212353  0.692035  1
  H  H5  1  0.250000  0.252375  0.129761  1
  H  H6  1  0.902278  0.680983  0.017943  1
  H  H7  1  0.597722  0.680983  0.017943  1
  H  H8  1  0.097032  0.370559  0.735680  1
  H  H9  1  0.750000  0.451851  0.776009  1
  H  H10  1  0.902968  0.870559  0.764320  1
  H  H11  1  0.750000  0.752375  0.370239  1
  H  H12  1  0.369917  0.515489  0.134409  1
  H  H13  1  0.937808  0.179349  0.542305  1
  H  H14  1  0.584685  0.680179  0.716542  1
  H  H15  1  0.915315  0.819821  0.216542  1
  H  H16  1  0.630083  0.484511  0.865591  1
  H  H17  1  0.915315  0.680179  0.716542  1
  H  H18  1  0.750000  0.048149  0.276009  1
  H  H19  1  0.530860  0.287647  0.192035  1
  H  H20  1  0.750000  0.747625  0.870239  1
  H  H21  1  0.630083  0.015489  0.365591  1
  H  H22  1  0.415315  0.319821  0.283458  1
  H  H23  1  0.597032  0.870559  0.764320  1
  H  H24  1  0.030860  0.712353  0.807965  1
  H  H25  1  0.437808  0.679349  0.957695  1
  H  H26  1  0.250000  0.548149  0.223991  1
  H  H27  1  0.030860  0.787647  0.307965  1
  H  H28  1  0.130083  0.984511  0.634409  1
  H  H29  1  0.869917  0.015489  0.365591  1
  H  H30  1  0.562192  0.320651  0.042305  1
  H  H31  1  0.369917  0.984511  0.634409  1
  H  H32  1  0.250000  0.247625  0.629761  1
  H  H33  1  0.469140  0.787647  0.307965  1
  H  H34  1  0.250000  0.951851  0.723991  1
  H  H35  1  0.937808  0.320651  0.042305  1
  H  H36  1  0.437808  0.820651  0.457695  1
  H  H37  1  0.584685  0.819821  0.216542  1
  H  H38  1  0.969140  0.287647  0.192035  1
  H  H39  1  0.097722  0.180983  0.482057  1
  H  H40  1  0.969140  0.212353  0.692035  1
  H  H41  1  0.084685  0.180179  0.783458  1
  H  H42  1  0.597722  0.819017  0.517943  1
  H  H43  1  0.084685  0.319821  0.283458  1
  H  H44  1  0.402968  0.370559  0.735680  1
  H  H45  1  0.097032  0.129441  0.235680  1
  H  H46  1  0.562192  0.179349  0.542305  1
  H  H47  1  0.062192  0.820651  0.457695  1
  H  H48  1  0.062192  0.679349  0.957695  1
  H  H49  1  0.902278  0.819017  0.517943  1
  H  H50  1  0.402278  0.180983  0.482057  1
  H  H51  1  0.415315  0.180179  0.783458  1
  H  H52  1  0.402968  0.129441  0.235680  1
  H  H53  1  0.902968  0.629441  0.264320  1
  H  H54  1  0.469140  0.712353  0.807965  1
  H  H55  1  0.869917  0.484511  0.865591  1
  H  H56  1  0.402278  0.319017  0.982057  1
  H  H57  1  0.130083  0.515489  0.134409  1
  H  H58  1  0.097722  0.319017  0.982057  1
  H  H59  1  0.597032  0.629441  0.264320  1
  C  C60  1  0.250000  0.014658  0.667848  1
  C  C61  1  0.250000  0.485342  0.167848  1
  C  C62  1  0.750000  0.985342  0.332152  1
  C  C63  1  0.587117  0.758241  0.272995  1
  C  C64  1  0.412883  0.258241  0.227005  1
  C  C65  1  0.750000  0.514658  0.832152  1
  C  C66  1  0.412883  0.241759  0.727005  1
  C  C67  1  0.587117  0.741759  0.772995  1
  C  C68  1  0.912883  0.741759  0.772995  1
  C  C69  1  0.912883  0.758241  0.272995  1
  C  C70  1  0.087117  0.258241  0.227005  1
  C  C71  1  0.087117  0.241759  0.727005  1
  N  N72  1  0.250000  0.190081  0.683421  1
  N  N73  1  0.750000  0.809919  0.316579  1
  N  N74  1  0.750000  0.690081  0.816579  1
  N  N75  1  0.250000  0.309919  0.183421  1
  Cl  Cl76  1  0.250000  0.936668  0.100327  1
  Cl  Cl77  1  0.750000  0.501098  0.087109  1
  Cl  Cl78  1  0.750000  0.500487  0.600429  1
  Cl  Cl79  1  0.250000  0.001098  0.412891  1
  Cl  Cl80  1  0.750000  0.063332  0.899673  1
  Cl  Cl81  1  0.250000  0.563332  0.600327  1
  Cl  Cl82  1  0.250000  0.498902  0.912891  1
  Cl  Cl83  1  0.250000  0.499513  0.399571  1
  Cl  Cl84  1  0.750000  0.436668  0.399673  1
  Cl  Cl85  1  0.750000  0.999513  0.100429  1
  Cl  Cl86  1  0.250000  0.000487  0.899571  1
  Cl  Cl87  1  0.750000  0.998902  0.587109  1
  O  O88  1  0.540921  0.743941  0.975809  1
  O  O89  1  0.959079  0.743941  0.975809  1
  O  O90  1  0.959079  0.756059  0.475809  1
  O  O91  1  0.540921  0.756059  0.475809  1
  O  O92  1  0.459079  0.256059  0.024191  1
  O  O93  1  0.459079  0.243941  0.524191  1
  O  O94  1  0.040921  0.256059  0.024191  1
  O  O95  1  0.040921  0.243941  0.524191  1
