# generated using pymatgen
data_La11(Ni2Ge3)2
_symmetry_space_group_name_H-M   'P 1'
_cell_length_a   4.41674759
_cell_length_b   9.57922490
_cell_length_c   14.28341156
_cell_angle_alpha   106.01822658
_cell_angle_beta   90.01203345
_cell_angle_gamma   103.31954963
_symmetry_Int_Tables_number   1
_chemical_formula_structural   La11(Ni2Ge3)2
_chemical_formula_sum   'La11 Ni4 Ge6'
_cell_volume   563.91332905
_cell_formula_units_Z   1
loop_
 _symmetry_equiv_pos_site_id
 _symmetry_equiv_pos_as_xyz
  1  'x, y, z'
loop_
 _atom_site_type_symbol
 _atom_site_label
 _atom_site_symmetry_multiplicity
 _atom_site_fract_x
 _atom_site_fract_y
 _atom_site_fract_z
 _atom_site_occupancy
  La  La0  1  0.905850  0.810364  0.216010  1
  La  La1  1  0.858891  0.712199  0.649252  1
  La  La2  1  0.214745  0.431556  0.100206  1
  La  La3  1  0.548240  0.097006  0.125883  1
  La  La4  1  0.336815  0.677762  0.407614  1
  La  La5  1  0.452839  0.903047  0.875025  1
  La  La6  1  0.000531  0.999458  0.500639  1
  La  La7  1  0.143959  0.287823  0.352104  1
  La  La8  1  0.784580  0.568693  0.900290  1
  La  La9  1  0.662104  0.322380  0.592877  1
  La  La10  1  0.093870  0.188056  0.785596  1
  Ni  Ni11  1  0.750514  0.506923  0.450736  1
  Ni  Ni12  1  0.940009  0.878290  0.024630  1
  Ni  Ni13  1  0.060367  0.119297  0.976599  1
  Ni  Ni14  1  0.248181  0.496128  0.550780  1
  Ge  Ge15  1  0.627801  0.255941  0.952487  1
  Ge  Ge16  1  0.262335  0.522107  0.734250  1
  Ge  Ge17  1  0.736405  0.476293  0.266540  1
  Ge  Ge18  1  0.372632  0.744092  0.048752  1
  Ge  Ge19  1  0.515381  0.028099  0.350566  1
  Ge  Ge20  1  0.486544  0.971534  0.650689  1
