# generated using pymatgen
data_CdI2
_symmetry_space_group_name_H-M   'P 1'
_cell_length_a   4.34230165
_cell_length_b   4.34230192
_cell_length_c   103.17152189
_cell_angle_alpha   90.00000000
_cell_angle_beta   90.00000000
_cell_angle_gamma   119.99999790
_symmetry_Int_Tables_number   1
_chemical_formula_structural   CdI2
_chemical_formula_sum   'Cd14 I28'
_cell_volume   1684.73067602
_cell_formula_units_Z   14
loop_
 _symmetry_equiv_pos_site_id
 _symmetry_equiv_pos_as_xyz
  1  'x, y, z'
loop_
 _atom_site_type_symbol
 _atom_site_label
 _atom_site_symmetry_multiplicity
 _atom_site_fract_x
 _atom_site_fract_y
 _atom_site_fract_z
 _atom_site_occupancy
  Cd  Cd0  1  0.000000  0.000000  0.803569  1
  Cd  Cd1  1  0.000000  0.000000  0.517848  1
  Cd  Cd2  1  0.666667  0.333333  0.303580  1
  Cd  Cd3  1  0.666667  0.333333  0.160712  1
  Cd  Cd4  1  0.666667  0.333333  0.589282  1
  Cd  Cd5  1  0.666667  0.333333  0.374991  1
  Cd  Cd6  1  0.000000  0.000000  0.232146  1
  Cd  Cd7  1  0.000000  0.000000  0.946431  1
  Cd  Cd8  1  0.000000  0.000000  0.660713  1
  Cd  Cd9  1  0.000000  0.000000  0.732149  1
  Cd  Cd10  1  0.666667  0.333333  0.017857  1
  Cd  Cd11  1  0.666667  0.333333  0.446440  1
  Cd  Cd12  1  0.000000  0.000000  0.089284  1
  Cd  Cd13  1  0.000000  0.000000  0.874999  1
  I  I14  1  0.666667  0.333333  0.072533  1
  I  I15  1  0.333333  0.666667  0.534601  1
  I  I16  1  0.333333  0.666667  0.177467  1
  I  I17  1  0.333333  0.666667  0.106048  1
  I  I18  1  0.333333  0.666667  0.463180  1
  I  I19  1  0.666667  0.333333  0.786822  1
  I  I20  1  0.333333  0.666667  0.820331  1
  I  I21  1  0.000000  0.000000  0.286811  1
  I  I22  1  0.666667  0.333333  0.643946  1
  I  I23  1  0.333333  0.666667  0.320338  1
  I  I24  1  0.333333  0.666667  0.606048  1
  I  I25  1  0.000000  0.000000  0.143951  1
  I  I26  1  0.333333  0.666667  0.963174  1
  I  I27  1  0.000000  0.000000  0.358233  1
  I  I28  1  0.000000  0.000000  0.001120  1
  I  I29  1  0.666667  0.333333  0.858255  1
  I  I30  1  0.666667  0.333333  0.929672  1
  I  I31  1  0.333333  0.666667  0.677464  1
  I  I32  1  0.666667  0.333333  0.715396  1
  I  I33  1  0.666667  0.333333  0.215394  1
  I  I34  1  0.333333  0.666667  0.034613  1
  I  I35  1  0.333333  0.666667  0.891743  1
  I  I36  1  0.333333  0.666667  0.248907  1
  I  I37  1  0.333333  0.666667  0.391736  1
  I  I38  1  0.666667  0.333333  0.501088  1
  I  I39  1  0.000000  0.000000  0.572540  1
  I  I40  1  0.000000  0.000000  0.429677  1
  I  I41  1  0.333333  0.666667  0.748909  1
