# generated using pymatgen
data_Sr2LaF7
_symmetry_space_group_name_H-M   'P 1'
_cell_length_a   4.15040044
_cell_length_b   4.15040095
_cell_length_c   25.84033410
_cell_angle_alpha   59.84255529
_cell_angle_beta   59.84255093
_cell_angle_gamma   59.29863209
_symmetry_Int_Tables_number   1
_chemical_formula_structural   Sr2LaF7
_chemical_formula_sum   'Sr4 La2 F14'
_cell_volume   312.30676887
_cell_formula_units_Z   2
loop_
 _symmetry_equiv_pos_site_id
 _symmetry_equiv_pos_as_xyz
  1  'x, y, z'
loop_
 _atom_site_type_symbol
 _atom_site_label
 _atom_site_symmetry_multiplicity
 _atom_site_fract_x
 _atom_site_fract_y
 _atom_site_fract_z
 _atom_site_occupancy
  Sr  Sr0  1  0.011378  0.011378  0.005086  1
  Sr  Sr1  1  0.010748  0.010748  0.170891  1
  Sr  Sr2  1  0.002464  0.002464  0.333343  1
  Sr  Sr3  1  0.004465  0.004465  0.497170  1
  La  La4  1  0.996496  0.996496  0.670612  1
  La  La5  1  0.984120  0.984120  0.843812  1
  F  F6  1  0.252207  0.252207  0.214761  1
  F  F7  1  0.588492  0.588492  0.063458  1
  F  F8  1  0.248933  0.248933  0.375218  1
  F  F9  1  0.767451  0.767451  0.130269  1
  F  F10  1  0.242864  0.242864  0.544636  1
  F  F11  1  0.754532  0.754532  0.292558  1
  F  F12  1  0.304109  0.304109  0.681833  1
  F  F13  1  0.754261  0.754261  0.456850  1
  F  F14  1  0.531532  0.531532  0.731909  1
  F  F15  1  0.274413  0.274413  0.862139  1
  F  F16  1  0.773053  0.773053  0.613209  1
  F  F17  1  0.498675  0.498675  0.911044  1
  F  F18  1  0.752262  0.752262  0.788467  1
  F  F19  1  0.740543  0.740543  0.953567  1
