# generated using pymatgen
data_YbBiO3
_symmetry_space_group_name_H-M   'P 1'
_cell_length_a   8.57633724
_cell_length_b   8.51553450
_cell_length_c   9.89737409
_cell_angle_alpha   113.33685778
_cell_angle_beta   94.52343084
_cell_angle_gamma   102.84506270
_symmetry_Int_Tables_number   1
_chemical_formula_structural   YbBiO3
_chemical_formula_sum   'Yb8 Bi8 O24'
_cell_volume   635.73389895
_cell_formula_units_Z   8
loop_
 _symmetry_equiv_pos_site_id
 _symmetry_equiv_pos_as_xyz
  1  'x, y, z'
loop_
 _atom_site_type_symbol
 _atom_site_label
 _atom_site_symmetry_multiplicity
 _atom_site_fract_x
 _atom_site_fract_y
 _atom_site_fract_z
 _atom_site_occupancy
  Yb  Yb0  1  0.066881  0.866562  0.302912  1
  Yb  Yb1  1  0.158252  0.608404  0.861525  1
  Yb  Yb2  1  0.345383  0.403631  0.564011  1
  Yb  Yb3  1  0.578609  0.889300  0.795888  1
  Yb  Yb4  1  0.445806  0.145232  0.206668  1
  Yb  Yb5  1  0.711811  0.654746  0.436516  1
  Yb  Yb6  1  0.770773  0.352442  0.060229  1
  Yb  Yb7  1  0.932916  0.148729  0.718276  1
  Bi  Bi8  1  0.144912  0.803528  0.627391  1
  Bi  Bi9  1  0.989890  0.018643  0.023047  1
  Bi  Bi10  1  0.252254  0.503102  0.220698  1
  Bi  Bi11  1  0.363459  0.245486  0.876632  1
  Bi  Bi12  1  0.656937  0.764800  0.127139  1
  Bi  Bi13  1  0.518455  0.996699  0.481742  1
  Bi  Bi14  1  0.758372  0.512376  0.761042  1
  Bi  Bi15  1  0.862014  0.258688  0.382485  1
  O  O16  1  0.166628  0.902564  0.077530  1
  O  O17  1  0.164433  0.683795  0.392213  1
  O  O18  1  0.120973  0.022549  0.836446  1
  O  O19  1  0.207923  0.340485  0.740839  1
  O  O20  1  0.306174  0.688171  0.704013  1
  O  O21  1  0.335756  0.088452  0.412182  1
  O  O22  1  0.357662  0.380704  0.328778  1
  O  O23  1  0.494004  0.725105  0.315455  1
  O  O24  1  0.380609  0.013592  0.674613  1
  O  O25  1  0.601847  0.575268  0.630439  1
  O  O26  1  0.675856  0.926573  0.603032  1
  O  O27  1  0.519284  0.131348  0.984687  1
  O  O28  1  0.592045  0.441864  0.892856  1
  O  O29  1  0.783929  0.782211  0.922182  1
  O  O30  1  0.627517  0.032984  0.301969  1
  O  O31  1  0.708298  0.362935  0.292018  1
  O  O32  1  0.808660  0.658093  0.218914  1
  O  O33  1  0.895197  0.993723  0.215217  1
  O  O34  1  0.724620  0.246165  0.592273  1
  O  O35  1  0.969212  0.597726  0.662133  1
  O  O36  1  0.977949  0.892317  0.530302  1
  O  O37  1  0.831163  0.096619  0.905427  1
  O  O38  1  0.926744  0.451091  0.886639  1
  O  O39  1  0.016892  0.293298  0.183744  1
