# generated using pymatgen
data_CrCo3C16NO14
_symmetry_space_group_name_H-M   'P 1'
_cell_length_a   9.03819720
_cell_length_b   10.96724826
_cell_length_c   11.72451117
_cell_angle_alpha   90.00000000
_cell_angle_beta   90.27575491
_cell_angle_gamma   90.00000000
_symmetry_Int_Tables_number   1
_chemical_formula_structural   CrCo3C16NO14
_chemical_formula_sum   'Cr2 Co6 C32 N2 O28'
_cell_volume   1162.16877354
_cell_formula_units_Z   2
loop_
 _symmetry_equiv_pos_site_id
 _symmetry_equiv_pos_as_xyz
  1  'x, y, z'
loop_
 _atom_site_type_symbol
 _atom_site_label
 _atom_site_symmetry_multiplicity
 _atom_site_fract_x
 _atom_site_fract_y
 _atom_site_fract_z
 _atom_site_occupancy
  Cr  Cr0  1  0.912915  0.250000  0.884238  1
  Cr  Cr1  1  0.087085  0.750000  0.115762  1
  Co  Co2  1  0.246524  0.864420  0.636409  1
  Co  Co3  1  0.463485  0.750000  0.717596  1
  Co  Co4  1  0.753476  0.364420  0.363590  1
  Co  Co5  1  0.753476  0.135580  0.363590  1
  Co  Co6  1  0.246524  0.635580  0.636409  1
  Co  Co7  1  0.536515  0.250000  0.282404  1
  C  C8  1  0.945938  0.115385  0.380797  1
  C  C9  1  0.029045  0.750000  0.271088  1
  C  C10  1  0.846087  0.250000  0.041885  1
  C  C11  1  0.718802  0.504774  0.294461  1
  C  C12  1  0.292021  0.750000  0.157626  1
  C  C13  1  0.281198  0.004774  0.705539  1
  C  C14  1  0.718802  0.995226  0.294461  1
  C  C15  1  0.260156  0.750000  0.759006  1
  C  C16  1  0.153913  0.750000  0.958115  1
  C  C17  1  0.887575  0.750000  0.060808  1
  C  C18  1  0.112425  0.250000  0.939192  1
  C  C19  1  0.466005  0.370318  0.197615  1
  C  C20  1  0.917814  0.076627  0.879075  1
  C  C21  1  0.466005  0.129682  0.197615  1
  C  C22  1  0.054062  0.884615  0.619203  1
  C  C23  1  0.054062  0.615385  0.619203  1
  C  C24  1  0.316769  0.892394  0.494972  1
  C  C25  1  0.082186  0.576627  0.120925  1
  C  C26  1  0.580585  0.750000  0.592577  1
  C  C27  1  0.281198  0.495226  0.705539  1
  C  C28  1  0.533995  0.870318  0.802385  1
  C  C29  1  0.917814  0.423373  0.879075  1
  C  C30  1  0.082186  0.923373  0.120925  1
  C  C31  1  0.419415  0.250000  0.407423  1
  C  C32  1  0.739844  0.250000  0.240994  1
  C  C33  1  0.970955  0.250000  0.728912  1
  C  C34  1  0.533995  0.629682  0.802385  1
  C  C35  1  0.683231  0.392394  0.505028  1
  C  C36  1  0.945938  0.384615  0.380797  1
  C  C37  1  0.707979  0.250000  0.842374  1
  C  C38  1  0.316769  0.607606  0.494972  1
  C  C39  1  0.683231  0.107606  0.505028  1
  N  N40  1  0.800158  0.250000  0.137122  1
  N  N41  1  0.199842  0.750000  0.862878  1
  O  O42  1  0.578871  0.552847  0.860682  1
  O  O43  1  0.071695  0.401866  0.392214  1
  O  O44  1  0.074939  0.028730  0.127329  1
  O  O45  1  0.074939  0.471270  0.127329  1
  O  O46  1  0.925061  0.971270  0.872671  1
  O  O47  1  0.299370  0.097479  0.750625  1
  O  O48  1  0.361495  0.913882  0.404631  1
  O  O49  1  0.417019  0.750000  0.178997  1
  O  O50  1  0.361495  0.586118  0.404631  1
  O  O51  1  0.928305  0.598134  0.607786  1
  O  O52  1  0.653687  0.750000  0.511699  1
  O  O53  1  0.231301  0.250000  0.976072  1
  O  O54  1  0.004472  0.250000  0.633221  1
  O  O55  1  0.346313  0.250000  0.488301  1
  O  O56  1  0.638505  0.086118  0.595369  1
  O  O57  1  0.638505  0.413882  0.595369  1
  O  O58  1  0.928305  0.901866  0.607786  1
  O  O59  1  0.578871  0.947153  0.860682  1
  O  O60  1  0.582981  0.250000  0.821003  1
  O  O61  1  0.995528  0.750000  0.366779  1
  O  O62  1  0.299370  0.402521  0.750625  1
  O  O63  1  0.700630  0.597479  0.249375  1
  O  O64  1  0.421129  0.052847  0.139318  1
  O  O65  1  0.925061  0.528730  0.872671  1
  O  O66  1  0.700630  0.902521  0.249375  1
  O  O67  1  0.768699  0.750000  0.023928  1
  O  O68  1  0.071695  0.098134  0.392214  1
  O  O69  1  0.421129  0.447153  0.139318  1
