# generated using pymatgen
data_Na2CaTi2(GeO4)3
_symmetry_space_group_name_H-M   'P 1'
_cell_length_a   10.73252796
_cell_length_b   10.73252862
_cell_length_c   10.73252822
_cell_angle_alpha   109.67146331
_cell_angle_beta   109.67146448
_cell_angle_gamma   109.07147289
_symmetry_Int_Tables_number   1
_chemical_formula_structural   Na2CaTi2(GeO4)3
_chemical_formula_sum   'Na8 Ca4 Ti8 Ge12 O48'
_cell_volume   951.63057175
_cell_formula_units_Z   4
loop_
 _symmetry_equiv_pos_site_id
 _symmetry_equiv_pos_as_xyz
  1  'x, y, z'
loop_
 _atom_site_type_symbol
 _atom_site_label
 _atom_site_symmetry_multiplicity
 _atom_site_fract_x
 _atom_site_fract_y
 _atom_site_fract_z
 _atom_site_occupancy
  Na  Na0  1  0.250000  0.875974  0.625974  1
  Na  Na1  1  0.124026  0.250000  0.374026  1
  Na  Na2  1  0.250000  0.375974  0.125974  1
  Na  Na3  1  0.375974  0.750000  0.125974  1
  Na  Na4  1  0.624026  0.250000  0.874026  1
  Na  Na5  1  0.750000  0.624026  0.874026  1
  Na  Na6  1  0.875974  0.750000  0.625974  1
  Na  Na7  1  0.750000  0.124026  0.374026  1
  Ca  Ca8  1  0.125000  0.375000  0.750000  1
  Ca  Ca9  1  0.625000  0.875000  0.750000  1
  Ca  Ca10  1  0.375000  0.125000  0.250000  1
  Ca  Ca11  1  0.875000  0.625000  0.250000  1
  Ti  Ti12  1  0.000000  0.500000  0.000000  1
  Ti  Ti13  1  0.000000  0.000000  0.000000  1
  Ti  Ti14  1  0.500000  0.500000  0.500000  1
  Ti  Ti15  1  0.500000  0.000000  0.500000  1
  Ti  Ti16  1  0.500000  0.500000  0.000000  1
  Ti  Ti17  1  0.500000  0.000000  0.000000  1
  Ti  Ti18  1  0.000000  0.500000  0.500000  1
  Ti  Ti19  1  0.000000  0.000000  0.500000  1
  Ge  Ge20  1  0.124972  0.750000  0.874972  1
  Ge  Ge21  1  0.125000  0.875000  0.250000  1
  Ge  Ge22  1  0.250000  0.624972  0.374972  1
  Ge  Ge23  1  0.375000  0.625000  0.750000  1
  Ge  Ge24  1  0.250000  0.124972  0.874972  1
  Ge  Ge25  1  0.375028  0.250000  0.625028  1
  Ge  Ge26  1  0.624972  0.750000  0.374972  1
  Ge  Ge27  1  0.750000  0.375028  0.625028  1
  Ge  Ge28  1  0.625000  0.375000  0.250000  1
  Ge  Ge29  1  0.750000  0.875028  0.125028  1
  Ge  Ge30  1  0.875000  0.125000  0.750000  1
  Ge  Ge31  1  0.875028  0.250000  0.125028  1
  O  O32  1  0.099966  0.989585  0.683618  1
  O  O33  1  0.112818  0.598908  0.914980  1
  O  O34  1  0.013646  0.316395  0.896738  1
  O  O35  1  0.083651  0.694033  0.683618  1
  O  O36  1  0.080343  0.883092  0.396738  1
  O  O37  1  0.098908  0.612818  0.414980  1
  O  O38  1  0.183605  0.486354  0.603262  1
  O  O39  1  0.419657  0.816395  0.802749  1
  O  O40  1  0.302162  0.316072  0.914980  1
  O  O41  1  0.383092  0.580343  0.896738  1
  O  O42  1  0.010415  0.194033  0.110382  1
  O  O43  1  0.316395  0.919657  0.302749  1
  O  O44  1  0.183928  0.197838  0.585020  1
  O  O45  1  0.194033  0.583651  0.183618  1
  O  O46  1  0.401092  0.816072  0.513910  1
  O  O47  1  0.316072  0.901092  0.013910  1
  O  O48  1  0.305967  0.489585  0.389618  1
  O  O49  1  0.116908  0.013646  0.197251  1
  O  O50  1  0.513646  0.616908  0.697251  1
  O  O51  1  0.400034  0.083651  0.889618  1
  O  O52  1  0.510415  0.400034  0.816382  1
  O  O53  1  0.387182  0.302162  0.486090  1
  O  O54  1  0.197838  0.112818  0.013910  1
  O  O55  1  0.583651  0.900034  0.389618  1
  O  O56  1  0.416349  0.099966  0.610382  1
  O  O57  1  0.802162  0.887182  0.986090  1
  O  O58  1  0.612818  0.697838  0.513910  1
  O  O59  1  0.489585  0.599966  0.183618  1
  O  O60  1  0.599966  0.916349  0.110382  1
  O  O61  1  0.486354  0.383092  0.302749  1
  O  O62  1  0.883092  0.986354  0.802749  1
  O  O63  1  0.694033  0.510415  0.610382  1
  O  O64  1  0.683928  0.098908  0.986090  1
  O  O65  1  0.598908  0.183928  0.486090  1
  O  O66  1  0.805967  0.416349  0.816382  1
  O  O67  1  0.816072  0.802162  0.414980  1
  O  O68  1  0.989585  0.805967  0.889618  1
  O  O69  1  0.683605  0.080343  0.697251  1
  O  O70  1  0.616908  0.419657  0.103262  1
  O  O71  1  0.697838  0.683928  0.085020  1
  O  O72  1  0.580343  0.183605  0.197251  1
  O  O73  1  0.816395  0.513646  0.396738  1
  O  O74  1  0.901092  0.387182  0.585020  1
  O  O75  1  0.919657  0.116908  0.603262  1
  O  O76  1  0.916349  0.305967  0.316382  1
  O  O77  1  0.986354  0.683605  0.103262  1
  O  O78  1  0.887182  0.401092  0.085020  1
  O  O79  1  0.900034  0.010415  0.316382  1
