# generated using pymatgen
data_Re2C3I4O3
_symmetry_space_group_name_H-M   'P 1'
_cell_length_a   8.81096068
_cell_length_b   12.15722518
_cell_length_c   12.87587835
_cell_angle_alpha   95.65610056
_cell_angle_beta   90.00000000
_cell_angle_gamma   111.24615440
_symmetry_Int_Tables_number   1
_chemical_formula_structural   Re2C3I4O3
_chemical_formula_sum   'Re8 C12 I16 O12'
_cell_volume   1278.27326014
_cell_formula_units_Z   4
loop_
 _symmetry_equiv_pos_site_id
 _symmetry_equiv_pos_as_xyz
  1  'x, y, z'
loop_
 _atom_site_type_symbol
 _atom_site_label
 _atom_site_symmetry_multiplicity
 _atom_site_fract_x
 _atom_site_fract_y
 _atom_site_fract_z
 _atom_site_occupancy
  Re  Re0  1  0.355158  0.984189  0.835932  1
  Re  Re1  1  0.681156  0.676959  0.245279  1
  Re  Re2  1  0.004197  0.323041  0.254721  1
  Re  Re3  1  0.644842  0.015811  0.164068  1
  Re  Re4  1  0.318844  0.323041  0.754721  1
  Re  Re5  1  0.370969  0.015811  0.664068  1
  Re  Re6  1  0.629031  0.984189  0.335932  1
  Re  Re7  1  0.995803  0.676959  0.745279  1
  C  C8  1  0.548487  0.534241  0.164129  1
  C  C9  1  0.451513  0.465759  0.835871  1
  C  C10  1  0.783216  0.657105  0.692911  1
  C  C11  1  0.014247  0.465759  0.335871  1
  C  C12  1  0.682507  0.590023  0.361642  1
  C  C13  1  0.092484  0.409977  0.138358  1
  C  C14  1  0.873889  0.657105  0.192911  1
  C  C15  1  0.907516  0.590023  0.861642  1
  C  C16  1  0.985753  0.534241  0.664129  1
  C  C17  1  0.216784  0.342895  0.307089  1
  C  C18  1  0.126111  0.342895  0.807089  1
  C  C19  1  0.317493  0.409977  0.638358  1
  I  I20  1  0.146924  0.804912  0.574956  1
  I  I21  1  0.619685  0.949938  0.603913  1
  I  I22  1  0.129262  0.105252  0.637686  1
  I  I23  1  0.380315  0.050062  0.396087  1
  I  I24  1  0.024010  0.894748  0.862314  1
  I  I25  1  0.870738  0.894748  0.362314  1
  I  I26  1  0.575327  0.250472  0.673017  1
  I  I27  1  0.342013  0.195088  0.925044  1
  I  I28  1  0.675145  0.250472  0.173017  1
  I  I29  1  0.975990  0.105252  0.137686  1
  I  I30  1  0.324855  0.749528  0.826983  1
  I  I31  1  0.657987  0.804912  0.074956  1
  I  I32  1  0.424673  0.749528  0.326983  1
  I  I33  1  0.330252  0.949938  0.103913  1
  I  I34  1  0.853076  0.195088  0.425044  1
  I  I35  1  0.669748  0.050062  0.896087  1
  O  O36  1  0.024505  0.554245  0.385747  1
  O  O37  1  0.145908  0.464095  0.068413  1
  O  O38  1  0.470260  0.445755  0.114253  1
  O  O39  1  0.653497  0.646709  0.662216  1
  O  O40  1  0.854092  0.535905  0.931587  1
  O  O41  1  0.006789  0.353291  0.837784  1
  O  O42  1  0.681813  0.535905  0.431587  1
  O  O43  1  0.993211  0.646709  0.162216  1
  O  O44  1  0.975495  0.445755  0.614253  1
  O  O45  1  0.529740  0.554245  0.885747  1
  O  O46  1  0.346503  0.353291  0.337784  1
  O  O47  1  0.318187  0.464095  0.568413  1
