# generated using pymatgen
data_Eu(MgGe)3
_symmetry_space_group_name_H-M   'P 1'
_cell_length_a   4.48642364
_cell_length_b   4.61148266
_cell_length_c   15.62832507
_cell_angle_alpha   90.00000000
_cell_angle_beta   98.25245266
_cell_angle_gamma   90.00000000
_symmetry_Int_Tables_number   1
_chemical_formula_structural   Eu(MgGe)3
_chemical_formula_sum   'Eu2 Mg6 Ge6'
_cell_volume   319.98737065
_cell_formula_units_Z   2
loop_
 _symmetry_equiv_pos_site_id
 _symmetry_equiv_pos_as_xyz
  1  'x, y, z'
loop_
 _atom_site_type_symbol
 _atom_site_label
 _atom_site_symmetry_multiplicity
 _atom_site_fract_x
 _atom_site_fract_y
 _atom_site_fract_z
 _atom_site_occupancy
  Eu  Eu0  1  0.944031  0.250000  0.888062  1
  Eu  Eu1  1  0.055969  0.750000  0.111938  1
  Mg  Mg2  1  0.147472  0.250000  0.294944  1
  Mg  Mg3  1  0.354129  0.250000  0.708258  1
  Mg  Mg4  1  0.852528  0.750000  0.705056  1
  Mg  Mg5  1  0.749523  0.750000  0.499047  1
  Mg  Mg6  1  0.645871  0.750000  0.291742  1
  Mg  Mg7  1  0.250477  0.250000  0.500953  1
  Ge  Ge8  1  0.516249  0.250000  0.032499  1
  Ge  Ge9  1  0.597077  0.250000  0.194153  1
  Ge  Ge10  1  0.801158  0.250000  0.602316  1
  Ge  Ge11  1  0.483751  0.750000  0.967501  1
  Ge  Ge12  1  0.198842  0.750000  0.397684  1
  Ge  Ge13  1  0.402923  0.750000  0.805847  1
