# generated using pymatgen
data_K2BaNi(NO2)6
_symmetry_space_group_name_H-M   'P 1'
_cell_length_a   8.29277608
_cell_length_b   7.98599307
_cell_length_c   7.95236630
_cell_angle_alpha   61.04081780
_cell_angle_beta   58.84603568
_cell_angle_gamma   58.44922769
_symmetry_Int_Tables_number   1
_chemical_formula_structural   K2BaNi(NO2)6
_chemical_formula_sum   'K2 Ba1 Ni1 N6 O12'
_cell_volume   367.25074633
_cell_formula_units_Z   1
loop_
 _symmetry_equiv_pos_site_id
 _symmetry_equiv_pos_as_xyz
  1  'x, y, z'
loop_
 _atom_site_type_symbol
 _atom_site_label
 _atom_site_symmetry_multiplicity
 _atom_site_fract_x
 _atom_site_fract_y
 _atom_site_fract_z
 _atom_site_occupancy
  K  K0  1  0.244844  0.258548  0.255551  1
  K  K1  1  0.758943  0.744449  0.741452  1
  Ba  Ba2  1  0.485913  0.505445  0.494555  1
  Ni  Ni3  1  0.091447  0.009480  0.990520  1
  N  N4  1  0.224201  0.202442  0.797558  1
  N  N5  1  0.214943  0.796806  0.203194  1
  N  N6  1  0.169733  0.852383  0.841726  1
  N  N7  1  0.863842  0.158274  0.147617  1
  N  N8  1  0.766150  0.260036  0.739964  1
  N  N9  1  0.773632  0.752975  0.247025  1
  O  O10  1  0.169831  0.833441  0.364993  1
  O  O11  1  0.172761  0.367732  0.830671  1
  O  O12  1  0.371163  0.169329  0.632268  1
  O  O13  1  0.368265  0.635007  0.166559  1
  O  O14  1  0.799820  0.309329  0.197382  1
  O  O15  1  0.306532  0.802618  0.690671  1
  O  O16  1  0.795363  0.129247  0.668891  1
  O  O17  1  0.593500  0.331109  0.870753  1
  O  O18  1  0.605269  0.891731  0.309898  1
  O  O19  1  0.806898  0.690102  0.108269  1
  O  O20  1  0.902382  0.328227  0.671773  1
  O  O21  1  0.903249  0.668830  0.331170  1
