# generated using pymatgen
data_CaGe2
_symmetry_space_group_name_H-M   'P 1'
_cell_length_a   18.52625821
_cell_length_b   4.35769335
_cell_length_c   9.57127626
_cell_angle_alpha   153.92689858
_cell_angle_beta   165.42178914
_cell_angle_gamma   21.85718875
_symmetry_Int_Tables_number   1
_chemical_formula_structural   CaGe2
_chemical_formula_sum   'Ca1 Ge2'
_cell_volume   72.40794847
_cell_formula_units_Z   1
loop_
 _symmetry_equiv_pos_site_id
 _symmetry_equiv_pos_as_xyz
  1  'x, y, z'
loop_
 _atom_site_type_symbol
 _atom_site_label
 _atom_site_symmetry_multiplicity
 _atom_site_fract_x
 _atom_site_fract_y
 _atom_site_fract_z
 _atom_site_occupancy
  Ca  Ca0  1  0.000000  0.000000  0.000000  1
  Ge  Ge1  1  0.679543  0.743889  0.000000  1
  Ge  Ge2  1  0.320457  0.256111  1.000000  1
