# generated using pymatgen
data_SiO2
_symmetry_space_group_name_H-M   'P 1'
_cell_length_a   5.28232209
_cell_length_b   34.58005457
_cell_length_c   21.66865065
_cell_angle_alpha   90.00000000
_cell_angle_beta   90.00000000
_cell_angle_gamma   90.00000000
_symmetry_Int_Tables_number   1
_chemical_formula_structural   SiO2
_chemical_formula_sum   'Si64 O128'
_cell_volume   3958.06043310
_cell_formula_units_Z   64
loop_
 _symmetry_equiv_pos_site_id
 _symmetry_equiv_pos_as_xyz
  1  'x, y, z'
loop_
 _atom_site_type_symbol
 _atom_site_label
 _atom_site_symmetry_multiplicity
 _atom_site_fract_x
 _atom_site_fract_y
 _atom_site_fract_z
 _atom_site_occupancy
  Si  Si0  1  0.000000  0.063460  0.019199  1
  Si  Si1  1  0.000000  0.936540  0.980801  1
  Si  Si2  1  0.000000  0.063460  0.480801  1
  Si  Si3  1  0.000000  0.936540  0.519199  1
  Si  Si4  1  0.500000  0.563460  0.019199  1
  Si  Si5  1  0.500000  0.436540  0.980801  1
  Si  Si6  1  0.500000  0.563460  0.480801  1
  Si  Si7  1  0.500000  0.436540  0.519199  1
  Si  Si8  1  0.500000  0.199059  0.007121  1
  Si  Si9  1  0.500000  0.800941  0.992879  1
  Si  Si10  1  0.500000  0.199059  0.492879  1
  Si  Si11  1  0.500000  0.800941  0.507121  1
  Si  Si12  1  0.000000  0.699059  0.007121  1
  Si  Si13  1  0.000000  0.300941  0.992879  1
  Si  Si14  1  0.000000  0.699059  0.492879  1
  Si  Si15  1  0.000000  0.300941  0.507121  1
  Si  Si16  1  0.000000  0.380105  0.139891  1
  Si  Si17  1  0.000000  0.619895  0.860109  1
  Si  Si18  1  0.000000  0.380105  0.360109  1
  Si  Si19  1  0.000000  0.619895  0.639891  1
  Si  Si20  1  0.500000  0.880105  0.139891  1
  Si  Si21  1  0.500000  0.119895  0.860109  1
  Si  Si22  1  0.500000  0.880105  0.360109  1
  Si  Si23  1  0.500000  0.119895  0.639891  1
  Si  Si24  1  0.500000  0.277171  0.068177  1
  Si  Si25  1  0.500000  0.722829  0.931823  1
  Si  Si26  1  0.500000  0.277171  0.431823  1
  Si  Si27  1  0.500000  0.722829  0.568177  1
  Si  Si28  1  0.000000  0.777171  0.068177  1
  Si  Si29  1  0.000000  0.222829  0.931823  1
  Si  Si30  1  0.000000  0.777171  0.431823  1
  Si  Si31  1  0.000000  0.222829  0.568177  1
  Si  Si32  1  0.000000  0.014511  0.601204  1
  Si  Si33  1  0.000000  0.985489  0.398796  1
  Si  Si34  1  0.000000  0.014511  0.898796  1
  Si  Si35  1  0.000000  0.985489  0.101204  1
  Si  Si36  1  0.500000  0.514511  0.601204  1
  Si  Si37  1  0.500000  0.485489  0.398796  1
  Si  Si38  1  0.500000  0.514511  0.898796  1
  Si  Si39  1  0.500000  0.485489  0.101204  1
  Si  Si40  1  0.000000  0.388931  0.991668  1
  Si  Si41  1  0.000000  0.611069  0.008332  1
  Si  Si42  1  0.000000  0.388931  0.508332  1
  Si  Si43  1  0.000000  0.611069  0.491668  1
  Si  Si44  1  0.500000  0.888931  0.991668  1
  Si  Si45  1  0.500000  0.111069  0.008332  1
  Si  Si46  1  0.500000  0.888931  0.508332  1
  Si  Si47  1  0.500000  0.111069  0.491668  1
  Si  Si48  1  0.500000  0.331386  0.176906  1
  Si  Si49  1  0.500000  0.668614  0.823094  1
  Si  Si50  1  0.500000  0.331386  0.323094  1
  Si  Si51  1  0.500000  0.668614  0.676906  1
  Si  Si52  1  0.000000  0.831386  0.176906  1
  Si  Si53  1  0.000000  0.168614  0.823094  1
  Si  Si54  1  0.000000  0.831386  0.323094  1
  Si  Si55  1  0.000000  0.168614  0.676906  1
  Si  Si56  1  0.000000  0.467428  0.178739  1
  Si  Si57  1  0.000000  0.532572  0.821261  1
  Si  Si58  1  0.000000  0.467428  0.321261  1
  Si  Si59  1  0.000000  0.532572  0.678739  1
  Si  Si60  1  0.500000  0.967428  0.178739  1
  Si  Si61  1  0.500000  0.032572  0.821261  1
  Si  Si62  1  0.500000  0.967428  0.321261  1
  Si  Si63  1  0.500000  0.032572  0.678739  1
  O  O64  1  0.000000  0.051017  0.946545  1
  O  O65  1  0.000000  0.948983  0.053455  1
  O  O66  1  0.000000  0.051017  0.553455  1
  O  O67  1  0.000000  0.948983  0.446545  1
  O  O68  1  0.500000  0.551017  0.946545  1
  O  O69  1  0.500000  0.448983  0.053455  1
  O  O70  1  0.500000  0.551017  0.553455  1
  O  O71  1  0.500000  0.448983  0.446545  1
  O  O72  1  0.250245  0.089059  0.033975  1
  O  O73  1  0.250245  0.910941  0.966025  1
  O  O74  1  0.749755  0.089059  0.466025  1
  O  O75  1  0.749755  0.910941  0.533975  1
  O  O76  1  0.749755  0.910941  0.966025  1
  O  O77  1  0.749755  0.089059  0.033975  1
  O  O78  1  0.250245  0.910941  0.533975  1
  O  O79  1  0.250245  0.089059  0.466025  1
  O  O80  1  0.750245  0.589059  0.033975  1
  O  O81  1  0.750245  0.410941  0.966025  1
  O  O82  1  0.249755  0.589059  0.466025  1
  O  O83  1  0.249755  0.410941  0.533975  1
  O  O84  1  0.249755  0.410941  0.966025  1
  O  O85  1  0.249755  0.589059  0.033975  1
  O  O86  1  0.750245  0.410941  0.533975  1
  O  O87  1  0.750245  0.589059  0.466025  1
  O  O88  1  0.000000  0.025481  0.062551  1
  O  O89  1  0.000000  0.974519  0.937449  1
  O  O90  1  0.000000  0.025481  0.437449  1
  O  O91  1  0.000000  0.974519  0.562551  1
  O  O92  1  0.500000  0.525481  0.062551  1
  O  O93  1  0.500000  0.474519  0.937449  1
  O  O94  1  0.500000  0.525481  0.437449  1
  O  O95  1  0.500000  0.474519  0.562551  1
  O  O96  1  0.249946  0.205327  0.965047  1
  O  O97  1  0.249946  0.794673  0.034953  1
  O  O98  1  0.750054  0.205327  0.534953  1
  O  O99  1  0.750054  0.794673  0.465047  1
  O  O100  1  0.750054  0.794673  0.034953  1
  O  O101  1  0.750054  0.205327  0.965047  1
  O  O102  1  0.249946  0.794673  0.465047  1
  O  O103  1  0.249946  0.205327  0.534953  1
  O  O104  1  0.749946  0.705327  0.965047  1
  O  O105  1  0.749946  0.294673  0.034953  1
  O  O106  1  0.250054  0.705327  0.534953  1
  O  O107  1  0.250054  0.294673  0.465047  1
  O  O108  1  0.250054  0.294673  0.034953  1
  O  O109  1  0.250054  0.705327  0.965047  1
  O  O110  1  0.749946  0.294673  0.465047  1
  O  O111  1  0.749946  0.705327  0.534953  1
  O  O112  1  0.500000  0.230078  0.063810  1
  O  O113  1  0.500000  0.769922  0.936190  1
  O  O114  1  0.500000  0.230078  0.436190  1
  O  O115  1  0.500000  0.769922  0.563810  1
  O  O116  1  0.000000  0.730078  0.063810  1
  O  O117  1  0.000000  0.269922  0.936190  1
  O  O118  1  0.000000  0.730078  0.436190  1
  O  O119  1  0.000000  0.269922  0.563810  1
  O  O120  1  0.500000  0.155372  0.034304  1
  O  O121  1  0.500000  0.844628  0.965696  1
  O  O122  1  0.500000  0.155372  0.465696  1
  O  O123  1  0.500000  0.844628  0.534304  1
  O  O124  1  0.000000  0.655372  0.034304  1
  O  O125  1  0.000000  0.344628  0.965696  1
  O  O126  1  0.000000  0.655372  0.465696  1
  O  O127  1  0.000000  0.344628  0.534304  1
  O  O128  1  0.000000  0.420445  0.177903  1
  O  O129  1  0.000000  0.579555  0.822097  1
  O  O130  1  0.000000  0.420445  0.322097  1
  O  O131  1  0.000000  0.579555  0.677903  1
  O  O132  1  0.500000  0.920445  0.177903  1
  O  O133  1  0.500000  0.079555  0.822097  1
  O  O134  1  0.500000  0.920445  0.322097  1
  O  O135  1  0.500000  0.079555  0.677903  1
  O  O136  1  0.249994  0.355773  0.158200  1
  O  O137  1  0.249994  0.644227  0.841800  1
  O  O138  1  0.750006  0.355773  0.341800  1
  O  O139  1  0.750006  0.644227  0.658200  1
  O  O140  1  0.750006  0.644227  0.841800  1
  O  O141  1  0.750006  0.355773  0.158200  1
  O  O142  1  0.249994  0.644227  0.658200  1
  O  O143  1  0.249994  0.355773  0.341800  1
  O  O144  1  0.749994  0.855773  0.158200  1
  O  O145  1  0.749994  0.144227  0.841800  1
  O  O146  1  0.250006  0.855773  0.341800  1
  O  O147  1  0.250006  0.144227  0.658200  1
  O  O148  1  0.250006  0.144227  0.841800  1
  O  O149  1  0.250006  0.855773  0.158200  1
  O  O150  1  0.749994  0.144227  0.658200  1
  O  O151  1  0.749994  0.855773  0.341800  1
  O  O152  1  0.000000  0.389189  0.066501  1
  O  O153  1  0.000000  0.610811  0.933499  1
  O  O154  1  0.000000  0.389189  0.433499  1
  O  O155  1  0.000000  0.610811  0.566501  1
  O  O156  1  0.500000  0.889189  0.066501  1
  O  O157  1  0.500000  0.110811  0.933499  1
  O  O158  1  0.500000  0.889189  0.433499  1
  O  O159  1  0.500000  0.110811  0.566501  1
  O  O160  1  0.500000  0.290226  0.139980  1
  O  O161  1  0.500000  0.709774  0.860020  1
  O  O162  1  0.500000  0.290226  0.360020  1
  O  O163  1  0.500000  0.709774  0.639980  1
  O  O164  1  0.000000  0.790226  0.139980  1
  O  O165  1  0.000000  0.209774  0.860020  1
  O  O166  1  0.000000  0.790226  0.360020  1
  O  O167  1  0.000000  0.209774  0.639980  1
  O  O168  1  0.249880  0.016223  0.644209  1
  O  O169  1  0.249880  0.983777  0.355791  1
  O  O170  1  0.750120  0.016223  0.855791  1
  O  O171  1  0.750120  0.983777  0.144209  1
  O  O172  1  0.750120  0.983777  0.355791  1
  O  O173  1  0.750120  0.016223  0.644209  1
  O  O174  1  0.249880  0.983777  0.144209  1
  O  O175  1  0.249880  0.016223  0.855791  1
  O  O176  1  0.749880  0.516223  0.644209  1
  O  O177  1  0.749880  0.483777  0.355791  1
  O  O178  1  0.250120  0.516223  0.855791  1
  O  O179  1  0.250120  0.483777  0.144209  1
  O  O180  1  0.250120  0.483777  0.355791  1
  O  O181  1  0.250120  0.516223  0.644209  1
  O  O182  1  0.749880  0.483777  0.144209  1
  O  O183  1  0.749880  0.516223  0.855791  1
  O  O184  1  0.500000  0.322032  0.250000  1
  O  O185  1  0.500000  0.677968  0.750000  1
  O  O186  1  0.000000  0.822032  0.250000  1
  O  O187  1  0.000000  0.177968  0.750000  1
  O  O188  1  0.000000  0.482204  0.250000  1
  O  O189  1  0.000000  0.517796  0.750000  1
  O  O190  1  0.500000  0.982204  0.250000  1
  O  O191  1  0.500000  0.017796  0.750000  1
