# generated using pymatgen
data_SrCu3(RuO3)4
_symmetry_space_group_name_H-M   'P 1'
_cell_length_a   6.52844135
_cell_length_b   6.52737951
_cell_length_c   6.52918279
_cell_angle_alpha   109.46548779
_cell_angle_beta   109.49588474
_cell_angle_gamma   109.45726642
_symmetry_Int_Tables_number   1
_chemical_formula_structural   SrCu3(RuO3)4
_chemical_formula_sum   'Sr1 Cu3 Ru4 O12'
_cell_volume   214.16997579
_cell_formula_units_Z   1
loop_
 _symmetry_equiv_pos_site_id
 _symmetry_equiv_pos_as_xyz
  1  'x, y, z'
loop_
 _atom_site_type_symbol
 _atom_site_label
 _atom_site_symmetry_multiplicity
 _atom_site_fract_x
 _atom_site_fract_y
 _atom_site_fract_z
 _atom_site_occupancy
  Sr  Sr0  1  0.999991  0.999997  0.999994  1
  Cu  Cu1  1  0.500000  0.000000  0.500000  1
  Cu  Cu2  1  0.500000  0.499999  0.999999  1
  Cu  Cu3  1  0.000000  0.500000  0.500001  1
  Ru  Ru4  1  0.000001  1.000000  0.500001  1
  Ru  Ru5  1  0.500002  0.000001  0.000001  1
  Ru  Ru6  1  0.500000  0.500001  0.500000  1
  Ru  Ru7  1  0.000001  0.499999  0.000001  1
  O  O8  1  0.689580  0.825584  0.515058  1
  O  O9  1  0.825668  0.136194  0.310664  1
  O  O10  1  0.310535  0.825605  0.136061  1
  O  O11  1  0.310420  0.174414  0.484942  1
  O  O12  1  0.136027  0.310422  0.825499  1
  O  O13  1  0.174332  0.863807  0.689340  1
  O  O14  1  0.174378  0.484949  0.310686  1
  O  O15  1  0.863975  0.689580  0.174503  1
  O  O16  1  0.484907  0.310492  0.174442  1
  O  O17  1  0.689468  0.174397  0.863939  1
  O  O18  1  0.825625  0.515054  0.689316  1
  O  O19  1  0.515090  0.689503  0.825555  1
