# generated using pymatgen
data_Pb(C2N3)2
_symmetry_space_group_name_H-M   'P 1'
_cell_length_a   4.05065775
_cell_length_b   12.17051790
_cell_length_c   13.68576061
_cell_angle_alpha   90.00000000
_cell_angle_beta   90.00000000
_cell_angle_gamma   90.00000000
_symmetry_Int_Tables_number   1
_chemical_formula_structural   Pb(C2N3)2
_chemical_formula_sum   'Pb4 C16 N24'
_cell_volume   674.68887432
_cell_formula_units_Z   4
loop_
 _symmetry_equiv_pos_site_id
 _symmetry_equiv_pos_as_xyz
  1  'x, y, z'
loop_
 _atom_site_type_symbol
 _atom_site_label
 _atom_site_symmetry_multiplicity
 _atom_site_fract_x
 _atom_site_fract_y
 _atom_site_fract_z
 _atom_site_occupancy
  Pb  Pb0  1  0.750000  0.880128  0.284395  1
  Pb  Pb1  1  0.250000  0.119872  0.715605  1
  Pb  Pb2  1  0.250000  0.380128  0.215605  1
  Pb  Pb3  1  0.750000  0.619872  0.784395  1
  C  C4  1  0.250000  0.676782  0.174398  1
  C  C5  1  0.750000  0.645704  0.500996  1
  C  C6  1  0.750000  0.323218  0.825602  1
  C  C7  1  0.750000  0.108605  0.481988  1
  C  C8  1  0.250000  0.423513  0.654813  1
  C  C9  1  0.750000  0.576487  0.345187  1
  C  C10  1  0.250000  0.145704  0.999004  1
  C  C11  1  0.250000  0.608604  0.018012  1
  C  C12  1  0.250000  0.354296  0.499004  1
  C  C13  1  0.750000  0.923513  0.845187  1
  C  C14  1  0.750000  0.176782  0.325602  1
  C  C15  1  0.750000  0.391396  0.981988  1
  C  C16  1  0.250000  0.823218  0.674398  1
  C  C17  1  0.250000  0.891396  0.518012  1
  C  C18  1  0.750000  0.854296  0.000996  1
  C  C19  1  0.250000  0.076487  0.154813  1
  N  N20  1  0.250000  0.343393  0.593734  1
  N  N21  1  0.250000  0.491779  0.717002  1
  N  N22  1  0.750000  0.244287  0.262993  1
  N  N23  1  0.750000  0.857383  0.087083  1
  N  N24  1  0.250000  0.008221  0.217002  1
  N  N25  1  0.750000  0.388487  0.068434  1
  N  N26  1  0.750000  0.656607  0.406266  1
  N  N27  1  0.750000  0.508221  0.282998  1
  N  N28  1  0.250000  0.611513  0.931566  1
  N  N29  1  0.250000  0.597295  0.112285  1
  N  N30  1  0.750000  0.111513  0.568434  1
  N  N31  1  0.750000  0.097295  0.387715  1
  N  N32  1  0.250000  0.902705  0.612285  1
  N  N33  1  0.250000  0.888487  0.431566  1
  N  N34  1  0.250000  0.357383  0.412917  1
  N  N35  1  0.750000  0.255713  0.762993  1
  N  N36  1  0.750000  0.843393  0.906266  1
  N  N37  1  0.750000  0.991779  0.782998  1
  N  N38  1  0.250000  0.142617  0.912917  1
  N  N39  1  0.250000  0.755713  0.737007  1
  N  N40  1  0.750000  0.402705  0.887715  1
  N  N41  1  0.750000  0.642617  0.587083  1
  N  N42  1  0.250000  0.156607  0.093734  1
  N  N43  1  0.250000  0.744287  0.237007  1
