# generated using pymatgen
data_KH5O3
_symmetry_space_group_name_H-M   'P 1'
_cell_length_a   7.38659866
_cell_length_b   7.38659858
_cell_length_c   8.31915572
_cell_angle_alpha   115.17983503
_cell_angle_beta   115.17983466
_cell_angle_gamma   89.39830115
_symmetry_Int_Tables_number   1
_chemical_formula_structural   KH5O3
_chemical_formula_sum   'K4 H20 O12'
_cell_volume   363.59674707
_cell_formula_units_Z   4
loop_
 _symmetry_equiv_pos_site_id
 _symmetry_equiv_pos_as_xyz
  1  'x, y, z'
loop_
 _atom_site_type_symbol
 _atom_site_label
 _atom_site_symmetry_multiplicity
 _atom_site_fract_x
 _atom_site_fract_y
 _atom_site_fract_z
 _atom_site_occupancy
  K  K0  1  0.238542  0.487305  0.481788  1
  K  K1  1  0.495316  0.243505  0.984966  1
  K  K2  1  0.512695  0.761458  0.018212  1
  K  K3  1  0.756495  0.504684  0.515034  1
  H  H4  1  0.097047  0.447044  0.834953  1
  H  H5  1  0.101987  0.921993  0.850410  1
  H  H6  1  0.078007  0.898013  0.649590  1
  H  H7  1  0.079135  0.236118  0.652249  1
  H  H8  1  0.996722  0.186819  0.981764  1
  H  H9  1  0.303453  -0.000537  0.498058  1
  H  H10  1  0.256086  0.115684  0.161092  1
  H  H11  1  0.246529  0.579534  0.150345  1
  H  H12  1  0.423955  0.090250  0.346100  1
  H  H13  1  0.420466  0.753471  0.349655  1
  H  H14  1  0.552956  0.902953  0.665047  1
  H  H15  1  0.553288  0.250180  0.665925  1
  H  H16  1  0.749820  0.446712  0.834075  1
  H  H17  1  0.763882  0.920865  0.847751  1
  H  H18  1  0.000537  0.696547  0.001942  1
  H  H19  1  0.813181  0.003278  0.518236  1
  H  H20  1  0.884316  0.743914  0.338908  1
  H  H21  1  0.877778  0.089322  0.335615  1
  H  H22  1  0.910678  0.122222  0.164385  1
  H  H23  1  0.909750  0.576045  0.153900  1
  O  O24  1  0.152757  0.847243  0.750000  1
  O  O25  1  0.161908  0.379981  0.744294  1
  O  O26  1  0.011503  0.069613  0.009915  1
  O  O27  1  0.442827  0.001020  0.513415  1
  O  O28  1  0.596287  0.403713  0.750000  1
  O  O29  1  0.620019  0.838092  0.755706  1
  O  O30  1  0.408783  0.144348  0.250409  1
  O  O31  1  0.395520  0.604480  0.250000  1
  O  O32  1  0.998980  0.557173  0.986585  1
  O  O33  1  0.930387  0.988497  0.490085  1
  O  O34  1  0.855652  0.591217  0.249591  1
  O  O35  1  0.838356  0.161644  0.250000  1
