# generated using pymatgen
data_IF7
_symmetry_space_group_name_H-M   'P 1'
_cell_length_a   5.55839990
_cell_length_b   5.55840006
_cell_length_c   9.50864595
_cell_angle_alpha   90.00000000
_cell_angle_beta   90.00000000
_cell_angle_gamma   107.32245283
_symmetry_Int_Tables_number   1
_chemical_formula_structural   IF7
_chemical_formula_sum   'I2 F14'
_cell_volume   280.45281440
_cell_formula_units_Z   2
loop_
 _symmetry_equiv_pos_site_id
 _symmetry_equiv_pos_as_xyz
  1  'x, y, z'
loop_
 _atom_site_type_symbol
 _atom_site_label
 _atom_site_symmetry_multiplicity
 _atom_site_fract_x
 _atom_site_fract_y
 _atom_site_fract_z
 _atom_site_occupancy
  I  I0  1  0.633677  0.633677  0.000000  1
  I  I1  1  0.133677  0.133677  0.500000  1
  F  F2  1  0.826675  0.615144  0.837216  1
  F  F3  1  0.814920  0.986072  0.414368  1
  F  F4  1  0.314920  0.486072  0.085632  1
  F  F5  1  0.304733  0.967038  0.388333  1
  F  F6  1  0.967038  0.304733  0.611667  1
  F  F7  1  0.467038  0.804733  0.888333  1
  F  F8  1  0.804733  0.467038  0.111667  1
  F  F9  1  0.115144  0.326675  0.337216  1
  F  F10  1  0.923541  0.923541  0.000000  1
  F  F11  1  0.486073  0.314920  0.914368  1
  F  F12  1  0.423541  0.423541  0.500000  1
  F  F13  1  0.326675  0.115144  0.662784  1
  F  F14  1  0.615144  0.826675  0.162784  1
  F  F15  1  0.986073  0.814920  0.585632  1
