# generated using pymatgen
data_Na2CdH4(SO5)2
_symmetry_space_group_name_H-M   'P 1'
_cell_length_a   5.97151926
_cell_length_b   13.20658613
_cell_length_c   5.64887086
_cell_angle_alpha   90.00000000
_cell_angle_beta   106.00276468
_cell_angle_gamma   90.00000000
_symmetry_Int_Tables_number   1
_chemical_formula_structural   Na2CdH4(SO5)2
_chemical_formula_sum   'Na4 Cd2 H8 S4 O20'
_cell_volume   428.22565208
_cell_formula_units_Z   2
loop_
 _symmetry_equiv_pos_site_id
 _symmetry_equiv_pos_as_xyz
  1  'x, y, z'
loop_
 _atom_site_type_symbol
 _atom_site_label
 _atom_site_symmetry_multiplicity
 _atom_site_fract_x
 _atom_site_fract_y
 _atom_site_fract_z
 _atom_site_occupancy
  Na  Na0  1  0.579006  0.382529  0.763784  1
  Na  Na1  1  0.420994  0.882529  0.736216  1
  Na  Na2  1  0.420994  0.617471  0.236216  1
  Na  Na3  1  0.579006  0.117471  0.263784  1
  Cd  Cd4  1  0.000000  0.500000  0.500000  1
  Cd  Cd5  1  0.000000  0.000000  0.000000  1
  H  H6  1  0.905288  0.290115  0.517659  1
  H  H7  1  0.094712  0.790115  0.982341  1
  H  H8  1  0.094712  0.709885  0.482341  1
  H  H9  1  0.905288  0.209885  0.017659  1
  H  H10  1  0.685874  0.340413  0.324542  1
  H  H11  1  0.314126  0.840413  0.175458  1
  H  H12  1  0.314126  0.659587  0.675458  1
  H  H13  1  0.685874  0.159587  0.824542  1
  S  S14  1  0.238130  0.381610  0.081251  1
  S  S15  1  0.761870  0.881610  0.418749  1
  S  S16  1  0.761870  0.618390  0.918749  1
  S  S17  1  0.238130  0.118390  0.581251  1
  O  O18  1  0.006459  0.332790  0.025449  1
  O  O19  1  0.993541  0.832790  0.474551  1
  O  O20  1  0.993541  0.667210  0.974551  1
  O  O21  1  0.006459  0.167210  0.525449  1
  O  O22  1  0.287310  0.438686  0.321844  1
  O  O23  1  0.712690  0.938686  0.178156  1
  O  O24  1  0.712690  0.561314  0.678156  1
  O  O25  1  0.287310  0.061314  0.821844  1
  O  O26  1  0.246446  0.457349  0.883459  1
  O  O27  1  0.753554  0.957349  0.616541  1
  O  O28  1  0.753554  0.542651  0.116541  1
  O  O29  1  0.246446  0.042651  0.383459  1
  O  O30  1  0.428641  0.307343  0.095946  1
  O  O31  1  0.571359  0.807343  0.404054  1
  O  O32  1  0.571359  0.692657  0.904054  1
  O  O33  1  0.428641  0.192657  0.595946  1
  O  O34  1  0.802815  0.351330  0.486148  1
  O  O35  1  0.197185  0.851330  0.013852  1
  O  O36  1  0.197185  0.648670  0.513852  1
  O  O37  1  0.802815  0.148670  0.986148  1
