# generated using pymatgen
data_Eu3Ga2
_symmetry_space_group_name_H-M   'P 1'
_cell_length_a   5.98148310
_cell_length_b   5.98148307
_cell_length_c   8.53683364
_cell_angle_alpha   76.85355254
_cell_angle_beta   76.85355264
_cell_angle_gamma   88.91789173
_symmetry_Int_Tables_number   1
_chemical_formula_structural   Eu3Ga2
_chemical_formula_sum   'Eu6 Ga4'
_cell_volume   289.45845937
_cell_formula_units_Z   2
loop_
 _symmetry_equiv_pos_site_id
 _symmetry_equiv_pos_as_xyz
  1  'x, y, z'
loop_
 _atom_site_type_symbol
 _atom_site_label
 _atom_site_symmetry_multiplicity
 _atom_site_fract_x
 _atom_site_fract_y
 _atom_site_fract_z
 _atom_site_occupancy
  Eu  Eu0  1  0.664043  0.744145  0.030417  1
  Eu  Eu1  1  0.255855  0.335957  0.469583  1
  Eu  Eu2  1  0.335957  0.255855  0.969583  1
  Eu  Eu3  1  0.824745  0.175255  0.250000  1
  Eu  Eu4  1  0.175255  0.824745  0.750000  1
  Eu  Eu5  1  0.744145  0.664043  0.530417  1
  Ga  Ga6  1  0.883656  0.306161  0.841137  1
  Ga  Ga7  1  0.693839  0.116344  0.658863  1
  Ga  Ga8  1  0.306161  0.883656  0.341137  1
  Ga  Ga9  1  0.116344  0.693839  0.158863  1
