# generated using pymatgen
data_SiO2
_symmetry_space_group_name_H-M   'P 1'
_cell_length_a   8.48946860
_cell_length_b   13.22997806
_cell_length_c   29.20676185
_cell_angle_alpha   90.00000000
_cell_angle_beta   90.00000000
_cell_angle_gamma   108.71386079
_symmetry_Int_Tables_number   1
_chemical_formula_structural   SiO2
_chemical_formula_sum   'Si56 O112'
_cell_volume   3106.94714787
_cell_formula_units_Z   56
loop_
 _symmetry_equiv_pos_site_id
 _symmetry_equiv_pos_as_xyz
  1  'x, y, z'
loop_
 _atom_site_type_symbol
 _atom_site_label
 _atom_site_symmetry_multiplicity
 _atom_site_fract_x
 _atom_site_fract_y
 _atom_site_fract_z
 _atom_site_occupancy
  Si  Si0  1  0.581645  0.538853  0.450278  1
  Si  Si1  1  0.159938  0.953865  0.393739  1
  Si  Si2  1  0.798220  0.224287  0.545932  1
  Si  Si3  1  0.957208  0.538853  0.450278  1
  Si  Si4  1  0.659938  0.953865  0.106261  1
  Si  Si5  1  0.081645  0.538853  0.049722  1
  Si  Si6  1  0.736153  0.844135  0.948999  1
  Si  Si7  1  0.358572  0.351062  0.394050  1
  Si  Si8  1  0.073933  0.775713  0.045932  1
  Si  Si9  1  0.607982  0.844135  0.551001  1
  Si  Si10  1  0.141428  0.648938  0.894050  1
  Si  Si11  1  0.037986  0.714377  0.799650  1
  Si  Si12  1  0.492490  0.351062  0.105950  1
  Si  Si13  1  0.805226  0.972231  0.799704  1
  Si  Si14  1  0.107982  0.844135  0.948999  1
  Si  Si15  1  0.462014  0.285623  0.299650  1
  Si  Si16  1  0.206073  0.046136  0.606261  1
  Si  Si17  1  0.892018  0.155865  0.051001  1
  Si  Si18  1  0.823610  0.285623  0.299650  1
  Si  Si19  1  0.194774  0.027769  0.200296  1
  Si  Si20  1  0.201780  0.775713  0.454068  1
  Si  Si21  1  0.793927  0.953865  0.393739  1
  Si  Si22  1  0.573933  0.775713  0.454068  1
  Si  Si23  1  0.340062  0.046136  0.893739  1
  Si  Si24  1  0.542792  0.461147  0.950278  1
  Si  Si25  1  0.176390  0.714377  0.700350  1
  Si  Si26  1  0.706073  0.046136  0.893739  1
  Si  Si27  1  0.293927  0.953865  0.106261  1
  Si  Si28  1  0.007510  0.648938  0.605950  1
  Si  Si29  1  0.667005  0.972231  0.700296  1
  Si  Si30  1  0.298220  0.224287  0.954068  1
  Si  Si31  1  0.392018  0.155865  0.448999  1
  Si  Si32  1  0.840062  0.046136  0.606261  1
  Si  Si33  1  0.418355  0.461147  0.549722  1
  Si  Si34  1  0.305226  0.972231  0.700296  1
  Si  Si35  1  0.763847  0.155865  0.448999  1
  Si  Si36  1  0.457208  0.538853  0.049722  1
  Si  Si37  1  0.992490  0.351062  0.394050  1
  Si  Si38  1  0.832995  0.027769  0.200296  1
  Si  Si39  1  0.426067  0.224287  0.545932  1
  Si  Si40  1  0.918355  0.461147  0.950278  1
  Si  Si41  1  0.263847  0.155865  0.051001  1
  Si  Si42  1  0.676390  0.714377  0.799650  1
  Si  Si43  1  0.537986  0.714377  0.700350  1
  Si  Si44  1  0.926067  0.224287  0.954068  1
  Si  Si45  1  0.042792  0.461147  0.549722  1
  Si  Si46  1  0.962014  0.285623  0.200350  1
  Si  Si47  1  0.323610  0.285623  0.200350  1
  Si  Si48  1  0.236153  0.844135  0.551001  1
  Si  Si49  1  0.701780  0.775713  0.045932  1
  Si  Si50  1  0.858572  0.351062  0.105950  1
  Si  Si51  1  0.641428  0.648938  0.605950  1
  Si  Si52  1  0.332995  0.027769  0.299704  1
  Si  Si53  1  0.167005  0.972231  0.799704  1
  Si  Si54  1  0.694774  0.027769  0.299704  1
  Si  Si55  1  0.507510  0.648938  0.894050  1
  O  O56  1  0.891819  0.156817  0.194688  1
  O  O57  1  0.957774  0.340645  0.339166  1
  O  O58  1  0.240720  0.481440  0.553688  1
  O  O59  1  0.300214  0.026705  0.839378  1
  O  O60  1  0.124029  0.248059  0.962942  1
  O  O61  1  0.699786  0.973295  0.160622  1
  O  O62  1  0.617129  0.659355  0.660834  1
  O  O63  1  0.337172  0.267727  0.078753  1
  O  O64  1  0.800214  0.026705  0.660622  1
  O  O65  1  0.607846  0.664767  0.443188  1
  O  O66  1  0.193014  0.938164  0.577737  1
  O  O67  1  0.958446  0.472008  0.089779  1
  O  O68  1  0.513562  0.472008  0.089779  1
  O  O69  1  0.542226  0.659355  0.839166  1
  O  O70  1  0.254850  0.061836  0.422263  1
  O  O71  1  0.759280  0.518560  0.446312  1
  O  O72  1  0.773508  0.973295  0.339378  1
  O  O73  1  0.041554  0.527992  0.910221  1
  O  O74  1  0.836366  0.672733  0.804340  1
  O  O75  1  0.746728  0.993457  0.250000  1
  O  O76  1  0.338470  0.676940  0.905503  1
  O  O77  1  0.117129  0.659355  0.839166  1
  O  O78  1  0.391819  0.156817  0.305312  1
  O  O79  1  0.541554  0.527992  0.589779  1
  O  O80  1  0.246728  0.993457  0.250000  1
  O  O81  1  0.253272  0.006543  0.750000  1
  O  O82  1  0.538729  0.077459  0.902034  1
  O  O83  1  0.726492  0.026705  0.839378  1
  O  O84  1  0.961271  0.922541  0.402034  1
  O  O85  1  0.264998  0.156817  0.194688  1
  O  O86  1  0.838470  0.676940  0.594497  1
  O  O87  1  0.063038  0.126075  0.046453  1
  O  O88  1  0.392154  0.335233  0.556812  1
  O  O89  1  0.753272  0.006543  0.750000  1
  O  O90  1  0.443079  0.335233  0.943188  1
  O  O91  1  0.846208  0.169388  0.500029  1
  O  O92  1  0.663634  0.327267  0.304340  1
  O  O93  1  0.676820  0.830612  0.499971  1
  O  O94  1  0.569445  0.732273  0.578753  1
  O  O95  1  0.038729  0.077459  0.597966  1
  O  O96  1  0.259280  0.518560  0.053688  1
  O  O97  1  0.486438  0.527992  0.910221  1
  O  O98  1  0.986438  0.527992  0.589779  1
  O  O99  1  0.661530  0.323060  0.094497  1
  O  O100  1  0.006810  0.013619  0.804353  1
  O  O101  1  0.892154  0.335233  0.943188  1
  O  O102  1  0.943079  0.335233  0.556812  1
  O  O103  1  0.764998  0.156817  0.305312  1
  O  O104  1  0.662828  0.732273  0.921247  1
  O  O105  1  0.273508  0.973295  0.160622  1
  O  O106  1  0.133822  0.856434  0.088896  1
  O  O107  1  0.108181  0.843183  0.805312  1
  O  O108  1  0.000000  0.500000  0.500000  1
  O  O109  1  0.777388  0.143566  0.588896  1
  O  O110  1  0.153792  0.830612  0.499971  1
  O  O111  1  0.624029  0.248059  0.537058  1
  O  O112  1  0.458446  0.472008  0.410221  1
  O  O113  1  0.277388  0.143566  0.911104  1
  O  O114  1  0.745150  0.938164  0.577737  1
  O  O115  1  0.346208  0.169388  0.999971  1
  O  O116  1  0.199786  0.973295  0.339378  1
  O  O117  1  0.162828  0.732273  0.578753  1
  O  O118  1  0.235002  0.843183  0.694688  1
  O  O119  1  0.506810  0.013619  0.695647  1
  O  O120  1  0.089997  0.679993  0.750000  1
  O  O121  1  0.875971  0.751941  0.037058  1
  O  O122  1  0.176820  0.830612  0.000029  1
  O  O123  1  0.163634  0.327267  0.195660  1
  O  O124  1  0.161530  0.323060  0.405503  1
  O  O125  1  0.837172  0.267727  0.421247  1
  O  O126  1  0.430555  0.267727  0.421247  1
  O  O127  1  0.823180  0.169388  0.999971  1
  O  O128  1  0.382871  0.340645  0.339166  1
  O  O129  1  0.410003  0.320007  0.250000  1
  O  O130  1  0.993190  0.986381  0.195647  1
  O  O131  1  0.754850  0.061836  0.077737  1
  O  O132  1  0.436962  0.873925  0.546453  1
  O  O133  1  0.375971  0.751941  0.462942  1
  O  O134  1  0.500000  0.500000  0.000000  1
  O  O135  1  0.306986  0.061836  0.077737  1
  O  O136  1  0.633822  0.856434  0.411104  1
  O  O137  1  0.693014  0.938164  0.922263  1
  O  O138  1  0.653792  0.830612  0.000029  1
  O  O139  1  0.500000  0.500000  0.500000  1
  O  O140  1  0.735002  0.843183  0.805312  1
  O  O141  1  0.806986  0.061836  0.422263  1
  O  O142  1  0.882871  0.340645  0.160834  1
  O  O143  1  0.107846  0.664767  0.056812  1
  O  O144  1  0.336366  0.672733  0.695660  1
  O  O145  1  0.222612  0.856434  0.411104  1
  O  O146  1  0.461271  0.922541  0.097966  1
  O  O147  1  0.589997  0.679993  0.750000  1
  O  O148  1  0.556921  0.664767  0.056812  1
  O  O149  1  0.866178  0.143566  0.911104  1
  O  O150  1  0.323180  0.169388  0.500029  1
  O  O151  1  0.069445  0.732273  0.921247  1
  O  O152  1  0.056921  0.664767  0.443188  1
  O  O153  1  0.740720  0.481440  0.946312  1
  O  O154  1  0.366178  0.143566  0.588896  1
  O  O155  1  0.930555  0.267727  0.078753  1
  O  O156  1  0.608181  0.843183  0.694688  1
  O  O157  1  0.000000  0.500000  0.000000  1
  O  O158  1  0.493190  0.986381  0.304353  1
  O  O159  1  0.457774  0.340645  0.160834  1
  O  O160  1  0.722612  0.856434  0.088896  1
  O  O161  1  0.226492  0.026705  0.660622  1
  O  O162  1  0.042226  0.659355  0.660834  1
  O  O163  1  0.013562  0.472008  0.410221  1
  O  O164  1  0.936962  0.873925  0.953547  1
  O  O165  1  0.910003  0.320007  0.250000  1
  O  O166  1  0.563038  0.126075  0.453547  1
  O  O167  1  0.245150  0.938164  0.922263  1
