# generated using pymatgen
data_Ce25Ni49P33
_symmetry_space_group_name_H-M   'P 1'
_cell_length_a   22.20964141
_cell_length_b   22.20964131
_cell_length_c   3.90894202
_cell_angle_alpha   90.00000000
_cell_angle_beta   90.00000000
_cell_angle_gamma   120.00000017
_symmetry_Int_Tables_number   1
_chemical_formula_structural   Ce25Ni49P33
_chemical_formula_sum   'Ce25 Ni49 P33'
_cell_volume   1669.83265949
_cell_formula_units_Z   1
loop_
 _symmetry_equiv_pos_site_id
 _symmetry_equiv_pos_as_xyz
  1  'x, y, z'
loop_
 _atom_site_type_symbol
 _atom_site_label
 _atom_site_symmetry_multiplicity
 _atom_site_fract_x
 _atom_site_fract_y
 _atom_site_fract_z
 _atom_site_occupancy
  Ce  Ce0  1  0.454413  0.727206  0.500000  1
  Ce  Ce1  1  0.093414  0.367233  0.500000  1
  Ce  Ce2  1  0.664024  0.513975  0.000000  1
  Ce  Ce3  1  0.632767  0.906586  0.500000  1
  Ce  Ce4  1  0.272794  0.727206  0.500000  1
  Ce  Ce5  1  0.486025  0.150049  0.000000  1
  Ce  Ce6  1  0.272794  0.545587  0.500000  1
  Ce  Ce7  1  0.849951  0.513975  0.000000  1
  Ce  Ce8  1  0.273819  0.906586  0.500000  1
  Ce  Ce9  1  0.453136  0.546864  0.500000  1
  Ce  Ce10  1  0.849951  0.335976  0.000000  1
  Ce  Ce11  1  0.486025  0.335976  0.000000  1
  Ce  Ce12  1  0.273819  0.367233  0.500000  1
  Ce  Ce13  1  0.817631  0.908815  0.500000  1
  Ce  Ce14  1  0.845957  0.154043  0.000000  1
  Ce  Ce15  1  0.664024  0.150049  0.000000  1
  Ce  Ce16  1  0.091185  0.182369  0.500000  1
  Ce  Ce17  1  0.453136  0.906272  0.500000  1
  Ce  Ce18  1  0.666667  0.333333  0.500000  1
  Ce  Ce19  1  0.093414  0.726181  0.500000  1
  Ce  Ce20  1  0.093728  0.546864  0.500000  1
  Ce  Ce21  1  0.845957  0.691914  0.000000  1
  Ce  Ce22  1  0.091185  0.908815  0.500000  1
  Ce  Ce23  1  0.308086  0.154043  0.000000  1
  Ce  Ce24  1  0.632767  0.726181  0.500000  1
  Ni  Ni25  1  0.153428  0.846572  0.000000  1
  Ni  Ni26  1  0.971274  0.576442  0.500000  1
  Ni  Ni27  1  0.605168  0.576442  0.500000  1
  Ni  Ni28  1  0.513430  0.486570  0.000000  1
  Ni  Ni29  1  0.970372  0.664081  0.000000  1
  Ni  Ni30  1  0.971274  0.394832  0.500000  1
  Ni  Ni31  1  0.335919  0.029628  0.000000  1
  Ni  Ni32  1  0.970451  0.216289  0.500000  1
  Ni  Ni33  1  0.605168  0.028726  0.500000  1
  Ni  Ni34  1  0.153994  0.667266  0.000000  1
  Ni  Ni35  1  0.036028  0.963972  0.000000  1
  Ni  Ni36  1  0.970372  0.306290  0.000000  1
  Ni  Ni37  1  0.245838  0.029549  0.500000  1
  Ni  Ni38  1  0.036028  0.072056  0.000000  1
  Ni  Ni39  1  0.693710  0.664081  0.000000  1
  Ni  Ni40  1  0.971795  0.135870  0.000000  1
  Ni  Ni41  1  0.164075  0.135870  0.000000  1
  Ni  Ni42  1  0.164075  0.028205  0.000000  1
  Ni  Ni43  1  0.333333  0.666667  0.000000  1
  Ni  Ni44  1  0.332734  0.846006  0.000000  1
  Ni  Ni45  1  0.693710  0.029628  0.000000  1
  Ni  Ni46  1  0.864130  0.835925  0.000000  1
  Ni  Ni47  1  0.513272  0.846006  0.000000  1
  Ni  Ni48  1  0.791115  0.582231  0.500000  1
  Ni  Ni49  1  0.423558  0.028726  0.500000  1
  Ni  Ni50  1  0.335919  0.306290  0.000000  1
  Ni  Ni51  1  0.417769  0.208885  0.500000  1
  Ni  Ni52  1  0.971795  0.835925  0.000000  1
  Ni  Ni53  1  0.513272  0.667266  0.000000  1
  Ni  Ni54  1  0.791115  0.208885  0.500000  1
  Ni  Ni55  1  0.959558  0.919115  0.500000  1
  Ni  Ni56  1  0.927944  0.963972  0.000000  1
  Ni  Ni57  1  0.959558  0.040442  0.500000  1
  Ni  Ni58  1  0.513430  0.026860  0.000000  1
  Ni  Ni59  1  0.783711  0.754162  0.500000  1
  Ni  Ni60  1  0.783711  0.029549  0.500000  1
  Ni  Ni61  1  0.602646  0.397354  0.500000  1
  Ni  Ni62  1  0.973140  0.486570  0.000000  1
  Ni  Ni63  1  0.602646  0.205293  0.500000  1
  Ni  Ni64  1  0.153994  0.486728  0.000000  1
  Ni  Ni65  1  0.423558  0.394832  0.500000  1
  Ni  Ni66  1  0.794707  0.397354  0.500000  1
  Ni  Ni67  1  0.332734  0.486728  0.000000  1
  Ni  Ni68  1  0.970451  0.754162  0.500000  1
  Ni  Ni69  1  0.693144  0.846572  0.000000  1
  Ni  Ni70  1  0.153428  0.306856  0.000000  1
  Ni  Ni71  1  0.080885  0.040442  0.500000  1
  Ni  Ni72  1  0.245838  0.216289  0.500000  1
  Ni  Ni73  1  0.864130  0.028205  0.000000  1
  P  P74  1  0.725885  0.633372  0.500000  1
  P  P75  1  0.544394  0.455606  0.500000  1
  P  P76  1  0.214500  0.251243  0.000000  1
  P  P77  1  0.035977  0.608208  0.000000  1
  P  P78  1  0.391792  0.427770  0.000000  1
  P  P79  1  0.366628  0.274115  0.500000  1
  P  P80  1  0.392737  0.607263  0.000000  1
  P  P81  1  0.529268  0.264634  0.500000  1
  P  P82  1  0.391792  0.964023  0.000000  1
  P  P83  1  0.036743  0.251243  0.000000  1
  P  P84  1  0.213182  0.786818  0.000000  1
  P  P85  1  0.902964  0.097036  0.500000  1
  P  P86  1  0.911212  0.455606  0.500000  1
  P  P87  1  0.214527  0.607263  0.000000  1
  P  P88  1  0.735366  0.470732  0.500000  1
  P  P89  1  0.194072  0.097036  0.500000  1
  P  P90  1  0.735366  0.264634  0.500000  1
  P  P91  1  0.366628  0.092513  0.500000  1
  P  P92  1  0.725885  0.092513  0.500000  1
  P  P93  1  0.213182  0.426365  0.000000  1
  P  P94  1  0.907487  0.633372  0.500000  1
  P  P95  1  0.035977  0.427770  0.000000  1
  P  P96  1  0.572230  0.608208  0.000000  1
  P  P97  1  0.902964  0.805928  0.500000  1
  P  P98  1  0.572230  0.964023  0.000000  1
  P  P99  1  0.907487  0.274115  0.500000  1
  P  P100  1  0.544394  0.088788  0.500000  1
  P  P101  1  0.392737  0.785473  0.000000  1
  P  P102  1  0.748757  0.785501  0.000000  1
  P  P103  1  0.748757  0.963257  0.000000  1
  P  P104  1  0.214500  0.963257  0.000000  1
  P  P105  1  0.036743  0.785501  0.000000  1
  P  P106  1  0.573635  0.786818  0.000000  1
