# generated using pymatgen
data_EuTl(MoO4)2
_symmetry_space_group_name_H-M   'P 1'
_cell_length_a   5.26453340
_cell_length_b   8.48482579
_cell_length_c   19.06998470
_cell_angle_alpha   90.00015760
_cell_angle_beta   90.00300400
_cell_angle_gamma   89.99004491
_symmetry_Int_Tables_number   1
_chemical_formula_structural   EuTl(MoO4)2
_chemical_formula_sum   'Eu4 Tl4 Mo8 O32'
_cell_volume   851.83043480
_cell_formula_units_Z   4
loop_
 _symmetry_equiv_pos_site_id
 _symmetry_equiv_pos_as_xyz
  1  'x, y, z'
loop_
 _atom_site_type_symbol
 _atom_site_label
 _atom_site_symmetry_multiplicity
 _atom_site_fract_x
 _atom_site_fract_y
 _atom_site_fract_z
 _atom_site_occupancy
  Eu  Eu0  1  0.999966  0.249991  0.006733  1
  Eu  Eu1  1  0.000006  0.750005  0.993244  1
  Eu  Eu2  1  0.500000  0.749991  0.493328  1
  Eu  Eu3  1  0.500003  0.250016  0.506695  1
  Tl  Tl4  1  0.000003  0.249998  0.769557  1
  Tl  Tl5  1  0.999998  0.749997  0.230459  1
  Tl  Tl6  1  0.499998  0.750003  0.730083  1
  Tl  Tl7  1  0.500003  0.250001  0.269926  1
  Mo  Mo8  1  0.021252  0.516988  0.600971  1
  Mo  Mo9  1  0.978705  0.482774  0.399023  1
  Mo  Mo10  1  0.521335  0.982997  0.100836  1
  Mo  Mo11  1  0.521320  0.482676  0.899178  1
  Mo  Mo12  1  0.021291  0.017225  0.399021  1
  Mo  Mo13  1  0.478681  0.017324  0.899178  1
  Mo  Mo14  1  0.478644  0.516995  0.100836  1
  Mo  Mo15  1  0.978753  0.983012  0.600971  1
  O  O16  1  0.744149  0.495864  0.038618  1
  O  O17  1  0.776129  0.152231  0.596866  1
  O  O18  1  0.734309  0.815086  0.089596  1
  O  O19  1  0.756049  0.996271  0.461373  1
  O  O20  1  0.255829  0.004118  0.038610  1
  O  O21  1  0.275648  0.347576  0.096701  1
  O  O22  1  0.255835  0.503672  0.961425  1
  O  O23  1  0.734689  0.314906  0.910446  1
  O  O24  1  0.600082  0.523330  0.186974  1
  O  O25  1  0.234583  0.185045  0.410245  1
  O  O26  1  0.100618  0.976571  0.687131  1
  O  O27  1  0.724328  0.152417  0.096707  1
  O  O28  1  0.723819  0.652161  0.903248  1
  O  O29  1  0.243963  0.003843  0.538629  1
  O  O30  1  0.265703  0.684921  0.089587  1
  O  O31  1  0.899401  0.523426  0.687129  1
  O  O32  1  0.399884  0.476094  0.813010  1
  O  O33  1  0.744186  0.996345  0.961433  1
  O  O34  1  0.234536  0.685048  0.589775  1
  O  O35  1  0.600101  0.023897  0.813013  1
  O  O36  1  0.100591  0.476353  0.312848  1
  O  O37  1  0.223877  0.347770  0.596871  1
  O  O38  1  0.276172  0.847844  0.903243  1
  O  O39  1  0.765426  0.314952  0.410240  1
  O  O40  1  0.899398  0.023649  0.312847  1
  O  O41  1  0.265369  0.185116  0.910448  1
  O  O42  1  0.223799  0.847804  0.403104  1
  O  O43  1  0.765463  0.814955  0.589771  1
  O  O44  1  0.776203  0.652194  0.403099  1
  O  O45  1  0.399908  0.976663  0.186973  1
  O  O46  1  0.243966  0.503726  0.461379  1
  O  O47  1  0.756027  0.496159  0.538623  1
