# generated using pymatgen
data_Li3YbCl6
_symmetry_space_group_name_H-M   'P 1'
_cell_length_a   9.95456264
_cell_length_b   8.15791278
_cell_length_c   11.37044714
_cell_angle_alpha   89.99602081
_cell_angle_beta   90.00402845
_cell_angle_gamma   90.00058253
_symmetry_Int_Tables_number   1
_chemical_formula_structural   Li3YbCl6
_chemical_formula_sum   'Li12 Yb4 Cl24'
_cell_volume   923.37642631
_cell_formula_units_Z   4
loop_
 _symmetry_equiv_pos_site_id
 _symmetry_equiv_pos_as_xyz
  1  'x, y, z'
loop_
 _atom_site_type_symbol
 _atom_site_label
 _atom_site_symmetry_multiplicity
 _atom_site_fract_x
 _atom_site_fract_y
 _atom_site_fract_z
 _atom_site_occupancy
  Yb  Yb0  1  0.833293  0.222079  0.532414  1
  Yb  Yb1  1  0.666747  0.222141  0.032461  1
  Yb  Yb2  1  0.333364  0.722004  -0.032511  1
  Yb  Yb3  1  0.166618  0.722007  0.467659  1
  Li  Li4  1  0.946506  0.487416  0.136391  1
  Li  Li5  1  0.305873  0.172239  0.051883  1
  Li  Li6  1  0.961296  0.972537  0.216047  1
  Li  Li7  1  0.538756  0.972584  0.715984  1
  Li  Li8  1  0.194236  0.172222  0.551970  1
  Li  Li9  1  0.553466  0.487328  0.636346  1
  Li  Li10  1  0.805636  0.672386  0.448068  1
  Li  Li11  1  0.446312  0.987429  0.363651  1
  Li  Li12  1  0.461283  0.472676  0.283853  1
  Li  Li13  1  0.038744  0.472540  0.783918  1
  Li  Li14  1  0.053714  0.987440  0.863642  1
  Li  Li15  1  0.694412  0.672406  0.948029  1
  Cl  Cl16  1  0.355777  0.963145  0.559828  1
  Cl  Cl17  1  0.314646  0.503819  0.606098  1
  Cl  Cl18  1  0.351872  0.745341  0.294230  1
  Cl  Cl19  1  0.465986  0.183014  0.208315  1
  Cl  Cl20  1  0.256527  0.378849  0.903718  1
  Cl  Cl21  1  0.459225  0.029921  0.926370  1
  Cl  Cl22  1  0.040902  0.029851  0.426349  1
  Cl  Cl23  1  0.243188  0.378788  0.403726  1
  Cl  Cl24  1  0.033984  0.182895  0.708228  1
  Cl  Cl25  1  0.147998  0.745402  0.794142  1
  Cl  Cl26  1  0.185297  0.504052  0.106071  1
  Cl  Cl27  1  0.144281  0.963025  0.059774  1
  Cl  Cl28  1  0.814911  0.004103  0.893950  1
  Cl  Cl29  1  0.855900  0.463160  0.940225  1
  Cl  Cl30  1  0.852025  0.245406  0.205861  1
  Cl  Cl31  1  0.965991  0.682822  0.291739  1
  Cl  Cl32  1  0.958906  0.530016  0.573765  1
  Cl  Cl33  1  0.756373  0.878979  0.596259  1
  Cl  Cl34  1  0.743702  0.878999  0.096290  1
  Cl  Cl35  1  0.541047  0.529985  0.073658  1
  Cl  Cl36  1  0.534009  0.682891  0.791719  1
  Cl  Cl37  1  0.647975  0.245397  0.705768  1
  Cl  Cl38  1  0.644092  0.463098  0.440191  1
  Cl  Cl39  1  0.685126  0.004007  0.393923  1
