# generated using pymatgen
data_Co4Sn(CO)16
_symmetry_space_group_name_H-M   'P 1'
_cell_length_a   12.47294063
_cell_length_b   12.47294103
_cell_length_c   12.47294138
_cell_angle_alpha   59.99999908
_cell_angle_beta   59.99999801
_cell_angle_gamma   59.99999976
_symmetry_Int_Tables_number   1
_chemical_formula_structural   Co4Sn(CO)16
_chemical_formula_sum   'Co8 Sn2 C32 O32'
_cell_volume   1372.11842928
_cell_formula_units_Z   2
loop_
 _symmetry_equiv_pos_site_id
 _symmetry_equiv_pos_as_xyz
  1  'x, y, z'
loop_
 _atom_site_type_symbol
 _atom_site_label
 _atom_site_symmetry_multiplicity
 _atom_site_fract_x
 _atom_site_fract_y
 _atom_site_fract_z
 _atom_site_occupancy
  Co  Co0  1  0.911021  0.266937  0.911021  1
  Co  Co1  1  0.411021  0.411021  0.411021  1
  Co  Co2  1  0.911021  0.911021  0.911021  1
  Co  Co3  1  0.411021  0.411021  0.766937  1
  Co  Co4  1  0.266937  0.911021  0.911021  1
  Co  Co5  1  0.911021  0.911021  0.266937  1
  Co  Co6  1  0.766937  0.411021  0.411021  1
  Co  Co7  1  0.411021  0.766937  0.411021  1
  Sn  Sn8  1  0.000000  0.000000  0.000000  1
  Sn  Sn9  1  0.500000  0.500000  0.500000  1
  C  C10  1  0.762090  0.041627  0.254585  1
  C  C11  1  0.941698  0.041627  0.762090  1
  C  C12  1  0.940440  0.353187  0.353187  1
  C  C13  1  0.541627  0.262090  0.754585  1
  C  C14  1  0.353187  0.353187  0.353187  1
  C  C15  1  0.441698  0.541627  0.754585  1
  C  C16  1  0.041627  0.941698  0.254585  1
  C  C17  1  0.853187  0.853187  0.440440  1
  C  C18  1  0.853187  0.853187  0.853187  1
  C  C19  1  0.262090  0.541627  0.441698  1
  C  C20  1  0.941698  0.762090  0.254585  1
  C  C21  1  0.941698  0.254585  0.041627  1
  C  C22  1  0.041627  0.254585  0.762090  1
  C  C23  1  0.853187  0.440440  0.853187  1
  C  C24  1  0.440440  0.853187  0.853187  1
  C  C25  1  0.262090  0.754585  0.541627  1
  C  C26  1  0.541627  0.754585  0.441698  1
  C  C27  1  0.254585  0.762090  0.041627  1
  C  C28  1  0.353187  0.353187  0.940440  1
  C  C29  1  0.441698  0.262090  0.541627  1
  C  C30  1  0.041627  0.762090  0.941698  1
  C  C31  1  0.254585  0.041627  0.941698  1
  C  C32  1  0.541627  0.441698  0.262090  1
  C  C33  1  0.762090  0.254585  0.941698  1
  C  C34  1  0.762090  0.941698  0.041627  1
  C  C35  1  0.254585  0.941698  0.762090  1
  C  C36  1  0.754585  0.441698  0.541627  1
  C  C37  1  0.754585  0.541627  0.262090  1
  C  C38  1  0.353187  0.940440  0.353187  1
  C  C39  1  0.754585  0.262090  0.441698  1
  C  C40  1  0.262090  0.441698  0.754585  1
  C  C41  1  0.441698  0.754585  0.262090  1
  O  O42  1  0.160373  0.759399  0.623601  1
  O  O43  1  0.315423  0.053730  0.315423  1
  O  O44  1  0.160373  0.456627  0.759399  1
  O  O45  1  0.660373  0.956627  0.123601  1
  O  O46  1  0.815423  0.815423  0.815423  1
  O  O47  1  0.815423  0.815423  0.553730  1
  O  O48  1  0.956627  0.123601  0.660373  1
  O  O49  1  0.456627  0.623601  0.759399  1
  O  O50  1  0.456627  0.160373  0.623601  1
  O  O51  1  0.623601  0.456627  0.160373  1
  O  O52  1  0.956627  0.259399  0.123601  1
  O  O53  1  0.553730  0.815423  0.815423  1
  O  O54  1  0.660373  0.259399  0.956627  1
  O  O55  1  0.623601  0.759399  0.456627  1
  O  O56  1  0.759399  0.623601  0.160373  1
  O  O57  1  0.456627  0.759399  0.160373  1
  O  O58  1  0.259399  0.660373  0.123601  1
  O  O59  1  0.053730  0.315423  0.315423  1
  O  O60  1  0.660373  0.123601  0.259399  1
  O  O61  1  0.315423  0.315423  0.053730  1
  O  O62  1  0.259399  0.123601  0.956627  1
  O  O63  1  0.123601  0.259399  0.660373  1
  O  O64  1  0.759399  0.160373  0.456627  1
  O  O65  1  0.160373  0.623601  0.456627  1
  O  O66  1  0.956627  0.660373  0.259399  1
  O  O67  1  0.259399  0.956627  0.660373  1
  O  O68  1  0.123601  0.956627  0.259399  1
  O  O69  1  0.759399  0.456627  0.623601  1
  O  O70  1  0.815423  0.553730  0.815423  1
  O  O71  1  0.623601  0.160373  0.759399  1
  O  O72  1  0.315423  0.315423  0.315423  1
  O  O73  1  0.123601  0.660373  0.956627  1
