# generated using pymatgen
data_Pd7O8
_symmetry_space_group_name_H-M   'P 1'
_cell_length_a   5.78594670
_cell_length_b   34.41926332
_cell_length_c   7.78731166
_cell_angle_alpha   47.50173141
_cell_angle_beta   89.99999987
_cell_angle_gamma   90.00005858
_symmetry_Int_Tables_number   1
_chemical_formula_structural   Pd7O8
_chemical_formula_sum   'Pd42 O48'
_cell_volume   1143.42179302
_cell_formula_units_Z   6
loop_
 _symmetry_equiv_pos_site_id
 _symmetry_equiv_pos_as_xyz
  1  'x, y, z'
loop_
 _atom_site_type_symbol
 _atom_site_label
 _atom_site_symmetry_multiplicity
 _atom_site_fract_x
 _atom_site_fract_y
 _atom_site_fract_z
 _atom_site_occupancy
  Pd  Pd0  1  -0.000000  0.000769  0.994662  1
  Pd  Pd1  1  1.000000  0.710054  0.248519  1
  Pd  Pd2  1  0.000000  0.788775  0.758167  1
  Pd  Pd3  1  0.250059  0.083320  0.500103  1
  Pd  Pd4  1  0.250352  0.249990  0.504211  1
  Pd  Pd5  1  0.248458  0.417286  0.498205  1
  Pd  Pd6  1  0.247443  0.583400  0.499866  1
  Pd  Pd7  1  0.248554  0.749422  0.501567  1
  Pd  Pd8  1  0.250268  0.916610  0.495889  1
  Pd  Pd9  1  0.500000  0.334686  0.498212  1
  Pd  Pd10  1  0.500000  0.500241  0.498351  1
  Pd  Pd11  1  0.500000  0.666492  0.501407  1
  Pd  Pd12  1  0.500000  0.832006  0.501728  1
  Pd  Pd13  1  0.500000  0.044415  0.987640  1
  Pd  Pd14  1  0.500000  0.122080  0.012833  1
  Pd  Pd15  1  0.500000  0.206928  0.007174  1
  Pd  Pd16  1  0.500000  0.291547  0.999775  1
  Pd  Pd17  1  0.500000  0.372679  0.013024  1
  Pd  Pd18  1  0.500000  0.461608  0.982810  1
  Pd  Pd19  1  0.500000  0.539026  0.014180  1
  Pd  Pd20  1  0.500000  0.705080  0.017350  1
  Pd  Pd21  1  0.500000  0.627667  0.985921  1
  Pd  Pd22  1  0.500000  0.875082  0.000275  1
  Pd  Pd23  1  0.500000  0.794002  0.986965  1
  Pd  Pd24  1  0.500000  0.959765  0.992868  1
  Pd  Pd25  1  0.749941  0.083319  0.500103  1
  Pd  Pd26  1  0.751542  0.417286  0.498206  1
  Pd  Pd27  1  0.749649  0.249990  0.504210  1
  Pd  Pd28  1  0.752557  0.583400  0.499866  1
  Pd  Pd29  1  0.751446  0.749422  0.501567  1
  Pd  Pd30  1  0.749731  0.916610  0.495889  1
  Pd  Pd31  1  1.000000  0.039135  0.249702  1
  Pd  Pd32  1  1.000000  0.209094  0.246321  1
  Pd  Pd33  1  0.000001  0.165842  0.005498  1
  Pd  Pd34  1  0.000001  0.377899  0.242019  1
  Pd  Pd35  1  1.000000  0.543829  0.245182  1
  Pd  Pd36  1  0.000000  0.127397  0.750416  1
  Pd  Pd37  1  1.000000  0.872960  0.252907  1
  Pd  Pd38  1  0.000001  0.293649  0.747265  1
  Pd  Pd39  1  0.000000  0.456672  0.751370  1
  Pd  Pd40  1  0.000000  0.622948  0.754333  1
  Pd  Pd41  1  0.000000  0.957527  0.754175  1
  O  O42  1  0.225441  0.164281  0.223778  1
  O  O43  1  0.271330  0.332101  0.289676  1
  O  O44  1  0.270566  0.498316  0.291961  1
  O  O45  1  0.225296  0.002288  0.776472  1
  O  O46  1  0.270517  0.664499  0.295278  1
  O  O47  1  0.274884  0.830399  0.290636  1
  O  O48  1  0.229175  0.167987  0.785462  1
  O  O49  1  0.274681  0.336292  0.709126  1
  O  O50  1  0.228924  0.998676  0.214532  1
  O  O51  1  0.270580  0.502241  0.704462  1
  O  O52  1  0.252370  0.250999  0.760643  1
  O  O53  1  0.256008  0.076141  0.264243  1
  O  O54  1  0.270594  0.668422  0.707922  1
  O  O55  1  0.271518  0.834517  0.710496  1
  O  O56  1  0.255728  0.090398  0.736010  1
  O  O57  1  0.249926  0.250176  0.246892  1
  O  O58  1  0.257286  0.585616  0.234869  1
  O  O59  1  0.249928  0.421849  0.225924  1
  O  O60  1  0.257654  0.581279  0.764349  1
  O  O61  1  0.257163  0.752174  0.235676  1
  O  O62  1  0.256699  0.414344  0.764832  1
  O  O63  1  0.252816  0.915553  0.239973  1
  O  O64  1  0.250381  0.745042  0.773213  1
  O  O65  1  0.250104  0.916464  0.753192  1
  O  O66  1  0.743985  0.076139  0.264250  1
  O  O67  1  0.744274  0.090398  0.736011  1
  O  O68  1  0.771075  0.998675  0.214532  1
  O  O69  1  0.774559  0.164280  0.223779  1
  O  O70  1  0.750064  0.421847  0.225932  1
  O  O71  1  0.742713  0.585616  0.234870  1
  O  O72  1  0.750073  0.250176  0.246893  1
  O  O73  1  0.728670  0.332100  0.289678  1
  O  O74  1  0.729433  0.498315  0.291961  1
  O  O75  1  0.743303  0.414343  0.764833  1
  O  O76  1  0.742837  0.752174  0.235676  1
  O  O77  1  0.747180  0.915552  0.239975  1
  O  O78  1  0.747641  0.250996  0.760651  1
  O  O79  1  0.742346  0.581279  0.764349  1
  O  O80  1  0.729483  0.664498  0.295278  1
  O  O81  1  0.749622  0.745041  0.773216  1
  O  O82  1  0.749895  0.916465  0.753191  1
  O  O83  1  0.774705  0.002288  0.776473  1
  O  O84  1  0.770827  0.167987  0.785463  1
  O  O85  1  0.725116  0.830399  0.290636  1
  O  O86  1  0.725319  0.336292  0.709127  1
  O  O87  1  0.729421  0.502241  0.704462  1
  O  O88  1  0.729406  0.668422  0.707922  1
  O  O89  1  0.728482  0.834517  0.710497  1
