# generated using pymatgen
data_Gd(CrSi)2
_symmetry_space_group_name_H-M   'P 1'
_cell_length_a   3.85327744
_cell_length_b   3.87780907
_cell_length_c   6.02575034
_cell_angle_alpha   108.47550439
_cell_angle_beta   108.85785119
_cell_angle_gamma   90.01814596
_symmetry_Int_Tables_number   1
_chemical_formula_structural   Gd(CrSi)2
_chemical_formula_sum   'Gd1 Cr2 Si2'
_cell_volume   80.28265861
_cell_formula_units_Z   1
loop_
 _symmetry_equiv_pos_site_id
 _symmetry_equiv_pos_as_xyz
  1  'x, y, z'
loop_
 _atom_site_type_symbol
 _atom_site_label
 _atom_site_symmetry_multiplicity
 _atom_site_fract_x
 _atom_site_fract_y
 _atom_site_fract_z
 _atom_site_occupancy
  Gd  Gd0  1  0.998823  0.005730  0.999532  1
  Cr  Cr1  1  0.253794  0.760924  0.500341  1
  Cr  Cr2  1  0.747234  0.250912  0.498180  1
  Si  Si3  1  0.618047  0.619722  0.231784  1
  Si  Si4  1  0.382208  0.392150  0.766681  1
