# generated using pymatgen
data_Mg3H13C9NO13
_symmetry_space_group_name_H-M   'P 1'
_cell_length_a   10.10060312
_cell_length_b   11.60431543
_cell_length_c   14.82626276
_cell_angle_alpha   91.25272023
_cell_angle_beta   90.00000000
_cell_angle_gamma   90.00000000
_symmetry_Int_Tables_number   1
_chemical_formula_structural   Mg3H13C9NO13
_chemical_formula_sum   'Mg12 H52 C36 N4 O52'
_cell_volume   1737.37957574
_cell_formula_units_Z   4
loop_
 _symmetry_equiv_pos_site_id
 _symmetry_equiv_pos_as_xyz
  1  'x, y, z'
loop_
 _atom_site_type_symbol
 _atom_site_label
 _atom_site_symmetry_multiplicity
 _atom_site_fract_x
 _atom_site_fract_y
 _atom_site_fract_z
 _atom_site_occupancy
  Mg  Mg0  1  0.387288  0.760943  0.190612  1
  Mg  Mg1  1  0.612712  0.239057  0.809388  1
  Mg  Mg2  1  0.079211  0.755079  0.135053  1
  Mg  Mg3  1  0.112712  0.260943  0.690612  1
  Mg  Mg4  1  0.887288  0.739057  0.309388  1
  Mg  Mg5  1  0.500000  0.000000  0.500000  1
  Mg  Mg6  1  0.920789  0.244921  0.864947  1
  Mg  Mg7  1  0.420789  0.255079  0.635053  1
  Mg  Mg8  1  0.000000  0.500000  0.000000  1
  Mg  Mg9  1  0.500000  0.500000  0.500000  1
  Mg  Mg10  1  0.579211  0.744921  0.364947  1
  Mg  Mg11  1  0.000000  0.000000  0.000000  1
  H  H12  1  0.460370  0.026926  0.230611  1
  H  H13  1  0.341036  0.808338  0.576788  1
  H  H14  1  0.251548  0.766885  0.899289  1
  H  H15  1  0.884417  0.632204  0.607155  1
  H  H16  1  0.554483  0.464211  0.215637  1
  H  H17  1  0.445517  0.535789  0.784363  1
  H  H18  1  0.150983  0.129813  0.216596  1
  H  H19  1  0.751548  0.733115  0.600711  1
  H  H20  1  0.611114  0.439056  0.958510  1
  H  H21  1  0.781085  0.925529  0.681134  1
  H  H22  1  0.349017  0.629813  0.716596  1
  H  H23  1  0.539630  0.973074  0.769389  1
  H  H24  1  0.650983  0.370187  0.283404  1
  H  H25  1  0.888886  0.939056  0.458510  1
  H  H26  1  0.751670  0.152329  0.622695  1
  H  H27  1  0.248330  0.847671  0.377305  1
  H  H28  1  0.849017  0.870187  0.783404  1
  H  H29  1  0.115583  0.367796  0.392845  1
  H  H30  1  0.212037  0.513317  0.524041  1
  H  H31  1  0.216382  0.031152  0.773041  1
  H  H32  1  0.712037  0.986683  0.975959  1
  H  H33  1  0.615583  0.132204  0.107155  1
  H  H34  1  0.054483  0.035789  0.284363  1
  H  H35  1  0.039630  0.526926  0.730611  1
  H  H36  1  0.841036  0.691662  0.923212  1
  H  H37  1  0.583379  0.783559  0.900599  1
  H  H38  1  0.209092  0.329099  0.294194  1
  H  H39  1  0.718915  0.425529  0.181134  1
  H  H40  1  0.790908  0.670901  0.705806  1
  H  H41  1  0.748330  0.652329  0.122695  1
  H  H42  1  0.783618  0.968848  0.226959  1
  H  H43  1  0.748452  0.233115  0.100711  1
  H  H44  1  0.251670  0.347671  0.877305  1
  H  H45  1  0.158964  0.308338  0.076788  1
  H  H46  1  0.709092  0.170901  0.205806  1
  H  H47  1  0.281085  0.574471  0.818866  1
  H  H48  1  0.083379  0.716441  0.599401  1
  H  H49  1  0.111114  0.060944  0.541490  1
  H  H50  1  0.388886  0.560944  0.041490  1
  H  H51  1  0.787963  0.486683  0.475959  1
  H  H52  1  0.416621  0.216441  0.099401  1
  H  H53  1  0.283618  0.531152  0.273041  1
  H  H54  1  0.945517  0.964211  0.715637  1
  H  H55  1  0.287963  0.013317  0.024041  1
  H  H56  1  0.658964  0.191662  0.423212  1
  H  H57  1  0.248452  0.266885  0.399289  1
  H  H58  1  0.218915  0.074471  0.318866  1
  H  H59  1  0.290908  0.829099  0.794194  1
  H  H60  1  0.916621  0.283559  0.400599  1
  H  H61  1  0.716382  0.468848  0.726959  1
  H  H62  1  0.960370  0.473074  0.269389  1
  H  H63  1  0.384417  0.867796  0.892845  1
  C  C64  1  0.229202  0.436577  0.564873  1
  C  C65  1  0.016170  0.479626  0.792480  1
  C  C66  1  0.270798  0.936577  0.064873  1
  C  C67  1  0.406574  0.757320  0.531710  1
  C  C68  1  0.944034  0.204422  0.360958  1
  C  C69  1  0.717375  0.420167  0.949676  1
  C  C70  1  0.483830  0.979626  0.292480  1
  C  C71  1  0.832291  0.181839  0.667659  1
  C  C72  1  0.165778  0.296496  0.357047  1
  C  C73  1  0.217375  0.079833  0.550324  1
  C  C74  1  0.332291  0.318161  0.832341  1
  C  C75  1  0.983830  0.520374  0.207520  1
  C  C76  1  0.593426  0.242680  0.468290  1
  C  C77  1  0.444034  0.295578  0.139042  1
  C  C78  1  0.627900  0.394994  0.213820  1
  C  C79  1  0.372100  0.605006  0.786180  1
  C  C80  1  0.055966  0.795578  0.639042  1
  C  C81  1  0.138667  0.057634  0.821452  1
  C  C82  1  0.861333  0.942366  0.178548  1
  C  C83  1  0.127900  0.105006  0.286180  1
  C  C84  1  0.167709  0.818161  0.332341  1
  C  C85  1  0.782625  0.920167  0.449676  1
  C  C86  1  0.872100  0.894994  0.713820  1
  C  C87  1  0.361333  0.557634  0.321452  1
  C  C88  1  0.093426  0.257320  0.031710  1
  C  C89  1  0.516170  0.020374  0.707520  1
  C  C90  1  0.282625  0.579833  0.050324  1
  C  C91  1  0.638667  0.442366  0.678548  1
  C  C92  1  0.906574  0.742680  0.968290  1
  C  C93  1  0.834222  0.703504  0.642953  1
  C  C94  1  0.334222  0.796496  0.857047  1
  C  C95  1  0.555966  0.704422  0.860958  1
  C  C96  1  0.770798  0.563423  0.435127  1
  C  C97  1  0.665778  0.203504  0.142953  1
  C  C98  1  0.667709  0.681839  0.167659  1
  C  C99  1  0.729202  0.063423  0.935127  1
  N  N100  1  0.426187  0.702410  0.837409  1
  N  N101  1  0.073813  0.202410  0.337409  1
  N  N102  1  0.926187  0.797590  0.662591  1
  N  N103  1  0.573813  0.297590  0.162591  1
  O  O104  1  0.093717  0.150078  0.039157  1
  O  O105  1  0.078171  0.152722  0.804120  1
  O  O106  1  0.869429  0.606637  0.396765  1
  O  O107  1  0.302628  0.303256  0.748364  1
  O  O108  1  0.997625  0.463878  0.135638  1
  O  O109  1  0.201829  0.524525  0.002672  1
  O  O110  1  0.593717  0.349922  0.460843  1
  O  O111  1  0.006308  0.369359  0.782544  1
  O  O112  1  0.976316  0.685574  0.025209  1
  O  O113  1  0.360826  0.371229  0.157185  1
  O  O114  1  0.502375  0.963878  0.635638  1
  O  O115  1  0.055970  0.802843  0.367285  1
  O  O116  1  0.197372  0.803256  0.248364  1
  O  O117  1  0.921829  0.847278  0.195880  1
  O  O118  1  0.421829  0.652722  0.304120  1
  O  O119  1  0.578171  0.347278  0.695880  1
  O  O120  1  0.523684  0.185574  0.525209  1
  O  O121  1  0.406283  0.650078  0.539157  1
  O  O122  1  0.383264  0.494192  0.386605  1
  O  O123  1  0.493692  0.869359  0.282544  1
  O  O124  1  0.701829  0.975475  0.497328  1
  O  O125  1  0.630571  0.106637  0.896765  1
  O  O126  1  0.555970  0.697157  0.132715  1
  O  O127  1  0.616736  0.505808  0.613395  1
  O  O128  1  0.002375  0.536122  0.864362  1
  O  O129  1  0.298171  0.024525  0.502672  1
  O  O130  1  0.349355  0.400301  0.568409  1
  O  O131  1  0.497625  0.036122  0.364362  1
  O  O132  1  0.860826  0.128771  0.342815  1
  O  O133  1  0.150645  0.900301  0.068409  1
  O  O134  1  0.802628  0.196744  0.751636  1
  O  O135  1  0.444030  0.302843  0.867285  1
  O  O136  1  0.506308  0.130641  0.717456  1
  O  O137  1  0.476316  0.814426  0.474791  1
  O  O138  1  0.116736  0.994192  0.886605  1
  O  O139  1  0.798171  0.475475  0.997328  1
  O  O140  1  0.130571  0.393363  0.603235  1
  O  O141  1  0.697372  0.696744  0.251636  1
  O  O142  1  0.023684  0.314426  0.974791  1
  O  O143  1  0.906283  0.849922  0.960843  1
  O  O144  1  0.245982  0.159615  0.609626  1
  O  O145  1  0.944030  0.197157  0.632715  1
  O  O146  1  0.139174  0.871229  0.657185  1
  O  O147  1  0.883264  0.005808  0.113395  1
  O  O148  1  0.849355  0.099699  0.931591  1
  O  O149  1  0.639174  0.628771  0.842815  1
  O  O150  1  0.650645  0.599699  0.431591  1
  O  O151  1  0.993692  0.630641  0.217456  1
  O  O152  1  0.369429  0.893363  0.103235  1
  O  O153  1  0.745982  0.340385  0.890374  1
  O  O154  1  0.254018  0.659615  0.109626  1
  O  O155  1  0.754018  0.840385  0.390374  1
