# generated using pymatgen
data_VSnH9(CO)3
_symmetry_space_group_name_H-M   'P 1'
_cell_length_a   11.43066783
_cell_length_b   11.70548130
_cell_length_c   13.66133325
_cell_angle_alpha   90.00000000
_cell_angle_beta   113.62847997
_cell_angle_gamma   90.00000000
_symmetry_Int_Tables_number   1
_chemical_formula_structural   VSnH9(CO)3
_chemical_formula_sum   'V8 Sn8 H72 C24 O24'
_cell_volume   1674.66138152
_cell_formula_units_Z   8
loop_
 _symmetry_equiv_pos_site_id
 _symmetry_equiv_pos_as_xyz
  1  'x, y, z'
loop_
 _atom_site_type_symbol
 _atom_site_label
 _atom_site_symmetry_multiplicity
 _atom_site_fract_x
 _atom_site_fract_y
 _atom_site_fract_z
 _atom_site_occupancy
  V  V0  1  0.268017  0.766400  0.817338  1
  V  V1  1  0.052678  0.291220  0.333562  1
  V  V2  1  0.552678  0.208780  0.333562  1
  V  V3  1  0.731983  0.233600  0.182662  1
  V  V4  1  0.768017  0.733600  0.817338  1
  V  V5  1  0.231983  0.266400  0.182662  1
  V  V6  1  0.947322  0.708780  0.666438  1
  V  V7  1  0.447322  0.791220  0.666438  1
  Sn  Sn8  1  0.254720  0.532100  0.021486  1
  Sn  Sn9  1  0.788011  0.427815  0.540850  1
  Sn  Sn10  1  0.745280  0.467900  0.978514  1
  Sn  Sn11  1  0.245280  0.032100  0.978514  1
  Sn  Sn12  1  0.754720  0.967900  0.021486  1
  Sn  Sn13  1  0.711989  0.927815  0.459150  1
  Sn  Sn14  1  0.288011  0.072185  0.540850  1
  Sn  Sn15  1  0.211989  0.572185  0.459150  1
  H  H16  1  0.226999  0.396715  0.594158  1
  H  H17  1  0.887659  0.216177  0.602885  1
  H  H18  1  0.838883  0.480511  0.368425  1
  H  H19  1  0.923023  0.567967  0.154806  1
  H  H20  1  0.223895  0.442989  0.828802  1
  H  H21  1  0.512675  0.793522  0.446716  1
  H  H22  1  0.012675  0.706478  0.446716  1
  H  H23  1  0.502644  0.821127  0.314658  1
  H  H24  1  0.808418  0.910533  0.307368  1
  H  H25  1  0.421777  0.201600  0.017444  1
  H  H26  1  0.112341  0.783823  0.397115  1
  H  H27  1  0.661117  0.980511  0.631575  1
  H  H28  1  0.576977  0.067967  0.845194  1
  H  H29  1  0.064252  0.062452  0.565855  1
  H  H30  1  0.670133  0.489526  0.331786  1
  H  H31  1  0.665369  0.552118  0.639476  1
  H  H32  1  0.078223  0.701600  0.982556  1
  H  H33  1  0.487325  0.206478  0.553284  1
  H  H34  1  0.334631  0.447882  0.360524  1
  H  H35  1  0.497356  0.178873  0.685342  1
  H  H36  1  0.691582  0.410533  0.692632  1
  H  H37  1  0.997356  0.321127  0.685342  1
  H  H38  1  0.202488  0.331959  0.911130  1
  H  H39  1  0.935748  0.937548  0.434145  1
  H  H40  1  0.970264  0.897848  0.186620  1
  H  H41  1  0.797512  0.668041  0.088870  1
  H  H42  1  0.674659  0.804134  0.122948  1
  H  H43  1  0.825341  0.304134  0.877052  1
  H  H44  1  0.170133  0.010474  0.331786  1
  H  H45  1  0.012232  0.955291  0.842054  1
  H  H46  1  0.008524  0.933761  0.075633  1
  H  H47  1  0.165369  0.947882  0.639476  1
  H  H48  1  0.529736  0.397848  0.813380  1
  H  H49  1  0.612341  0.716177  0.397115  1
  H  H50  1  0.273001  0.896715  0.405842  1
  H  H51  1  0.726999  0.103285  0.594158  1
  H  H52  1  0.076977  0.432033  0.845194  1
  H  H53  1  0.991476  0.066239  0.924367  1
  H  H54  1  0.329867  0.510474  0.668214  1
  H  H55  1  0.987325  0.293522  0.553284  1
  H  H56  1  0.276105  0.942989  0.171198  1
  H  H57  1  0.987768  0.044709  0.157946  1
  H  H58  1  0.578223  0.798400  0.982556  1
  H  H59  1  0.508524  0.566239  0.075633  1
  H  H60  1  0.435748  0.562452  0.434145  1
  H  H61  1  0.470264  0.602152  0.186620  1
  H  H62  1  0.423023  0.932033  0.154806  1
  H  H63  1  0.702488  0.168041  0.911130  1
  H  H64  1  0.029736  0.102152  0.813380  1
  H  H65  1  0.950077  0.406031  0.936571  1
  H  H66  1  0.387659  0.283823  0.602885  1
  H  H67  1  0.487768  0.455291  0.157946  1
  H  H68  1  0.549923  0.906031  0.063429  1
  H  H69  1  0.338883  0.019489  0.368425  1
  H  H70  1  0.049923  0.593969  0.063429  1
  H  H71  1  0.491476  0.433761  0.924367  1
  H  H72  1  0.174659  0.695866  0.122948  1
  H  H73  1  0.450077  0.093969  0.936571  1
  H  H74  1  0.829867  0.989526  0.668214  1
  H  H75  1  0.834631  0.052118  0.360524  1
  H  H76  1  0.776105  0.557011  0.171198  1
  H  H77  1  0.564252  0.437548  0.565855  1
  H  H78  1  0.297512  0.831959  0.088870  1
  H  H79  1  0.161117  0.519489  0.631575  1
  H  H80  1  0.512232  0.544709  0.842054  1
  H  H81  1  0.308418  0.589467  0.307368  1
  H  H82  1  0.325341  0.195866  0.877052  1
  H  H83  1  0.773001  0.603285  0.405842  1
  H  H84  1  0.723895  0.057011  0.828802  1
  H  H85  1  0.002644  0.678873  0.314658  1
  H  H86  1  0.191582  0.089467  0.692632  1
  H  H87  1  0.921777  0.298400  0.017444  1
  C  C88  1  0.955243  0.960320  0.122870  1
  C  C89  1  0.764187  0.510639  0.393388  1
  C  C90  1  0.566991  0.798756  0.396481  1
  C  C91  1  0.933009  0.298756  0.603519  1
  C  C92  1  0.066991  0.701244  0.396481  1
  C  C93  1  0.544757  0.460320  0.877130  1
  C  C94  1  0.433009  0.201244  0.603519  1
  C  C95  1  0.455243  0.539680  0.122870  1
  C  C96  1  0.123404  0.644747  0.051225  1
  C  C97  1  0.264187  0.989361  0.393388  1
  C  C98  1  0.180700  0.420695  0.884838  1
  C  C99  1  0.044757  0.039680  0.877130  1
  C  C100  1  0.161631  0.038674  0.619223  1
  C  C101  1  0.235813  0.489361  0.606612  1
  C  C102  1  0.680700  0.079305  0.884838  1
  C  C103  1  0.319300  0.920695  0.115162  1
  C  C104  1  0.661631  0.461326  0.619223  1
  C  C105  1  0.876596  0.355253  0.948775  1
  C  C106  1  0.623404  0.855253  0.051225  1
  C  C107  1  0.819300  0.579305  0.115162  1
  C  C108  1  0.376596  0.144747  0.948775  1
  C  C109  1  0.735813  0.010639  0.606612  1
  C  C110  1  0.838369  0.961326  0.380777  1
  C  C111  1  0.338369  0.538674  0.380777  1
  O  O112  1  0.288074  0.668738  0.912302  1
  O  O113  1  0.141426  0.217538  0.443445  1
  O  O114  1  0.641426  0.282462  0.443445  1
  O  O115  1  0.858574  0.782462  0.556555  1
  O  O116  1  0.896448  0.747413  0.771012  1
  O  O117  1  0.396448  0.752587  0.771012  1
  O  O118  1  0.211926  0.168738  0.087698  1
  O  O119  1  0.424280  0.932696  0.640222  1
  O  O120  1  0.575720  0.067304  0.359778  1
  O  O121  1  0.228840  0.397852  0.131477  1
  O  O122  1  0.271160  0.897852  0.868523  1
  O  O123  1  0.075720  0.432696  0.359778  1
  O  O124  1  0.103552  0.252587  0.228988  1
  O  O125  1  0.788074  0.831262  0.912302  1
  O  O126  1  0.711926  0.331262  0.087698  1
  O  O127  1  0.924280  0.567304  0.640222  1
  O  O128  1  0.884358  0.255291  0.292719  1
  O  O129  1  0.384358  0.244709  0.292719  1
  O  O130  1  0.728840  0.102148  0.131477  1
  O  O131  1  0.358574  0.717538  0.556555  1
  O  O132  1  0.115642  0.744709  0.707281  1
  O  O133  1  0.603552  0.247413  0.228988  1
  O  O134  1  0.771160  0.602148  0.868523  1
  O  O135  1  0.615642  0.755291  0.707281  1
