# generated using pymatgen
data_Nb12I21Br
_symmetry_space_group_name_H-M   'P 1'
_cell_length_a   11.71366016
_cell_length_b   13.86182063
_cell_length_c   15.52193550
_cell_angle_alpha   90.00000000
_cell_angle_beta   90.00000000
_cell_angle_gamma   90.00000000
_symmetry_Int_Tables_number   1
_chemical_formula_structural   Nb12I21Br
_chemical_formula_sum   'Nb24 I42 Br2'
_cell_volume   2520.33789431
_cell_formula_units_Z   2
loop_
 _symmetry_equiv_pos_site_id
 _symmetry_equiv_pos_as_xyz
  1  'x, y, z'
loop_
 _atom_site_type_symbol
 _atom_site_label
 _atom_site_symmetry_multiplicity
 _atom_site_fract_x
 _atom_site_fract_y
 _atom_site_fract_z
 _atom_site_occupancy
  Nb  Nb0  1  0.068511  0.379018  0.548816  1
  Nb  Nb1  1  0.068511  0.879018  0.951184  1
  Nb  Nb2  1  0.100806  0.479461  0.392106  1
  Nb  Nb3  1  0.100806  0.979461  0.107894  1
  Nb  Nb4  1  0.129707  0.079649  0.950785  1
  Nb  Nb5  1  0.129707  0.579649  0.549215  1
  Nb  Nb6  1  0.370293  0.079649  0.549215  1
  Nb  Nb7  1  0.370293  0.579649  0.950785  1
  Nb  Nb8  1  0.399194  0.979461  0.392106  1
  Nb  Nb9  1  0.399194  0.479461  0.107894  1
  Nb  Nb10  1  0.431489  0.379018  0.951184  1
  Nb  Nb11  1  0.431489  0.879018  0.548816  1
  Nb  Nb12  1  0.565488  0.122285  0.446426  1
  Nb  Nb13  1  0.565488  0.622285  0.053574  1
  Nb  Nb14  1  0.596092  0.522903  0.897524  1
  Nb  Nb15  1  0.596092  0.022903  0.602476  1
  Nb  Nb16  1  0.625307  0.421327  0.053914  1
  Nb  Nb17  1  0.625307  0.921327  0.446086  1
  Nb  Nb18  1  0.874693  0.421327  0.446086  1
  Nb  Nb19  1  0.874693  0.921327  0.053914  1
  Nb  Nb20  1  0.903908  0.022903  0.897524  1
  Nb  Nb21  1  0.903908  0.522903  0.602476  1
  Nb  Nb22  1  0.934512  0.122285  0.053574  1
  Nb  Nb23  1  0.934512  0.622285  0.446426  1
  I  I24  1  0.033519  0.278591  0.385778  1
  I  I25  1  0.033519  0.778591  0.114222  1
  I  I26  1  0.093952  0.478249  0.712823  1
  I  I27  1  0.093952  0.978249  0.787177  1
  I  I28  1  0.156689  0.681403  0.386314  1
  I  I29  1  0.156689  0.181403  0.113686  1
  I  I30  1  0.174598  0.197400  0.619043  1
  I  I31  1  0.174598  0.697400  0.880957  1
  I  I32  1  0.204030  0.936494  0.500866  1
  I  I33  1  0.204030  0.436494  0.999134  1
  I  I34  1  0.295970  0.436494  0.500866  1
  I  I35  1  0.295970  0.936494  0.999134  1
  I  I36  1  0.325402  0.197400  0.880957  1
  I  I37  1  0.325402  0.697400  0.619043  1
  I  I38  1  0.343311  0.181403  0.386314  1
  I  I39  1  0.343311  0.681403  0.113686  1
  I  I40  1  0.406048  0.478249  0.787177  1
  I  I41  1  0.406048  0.978249  0.712823  1
  I  I42  1  0.466481  0.778591  0.385778  1
  I  I43  1  0.466481  0.278591  0.114222  1
  I  I44  1  0.527745  0.723894  0.891553  1
  I  I45  1  0.527745  0.223894  0.608447  1
  I  I46  1  0.590610  0.023098  0.282587  1
  I  I47  1  0.590610  0.523098  0.217413  1
  I  I48  1  0.654225  0.321481  0.890214  1
  I  I49  1  0.654225  0.821481  0.609786  1
  I  I50  1  0.677519  0.302663  0.378687  1
  I  I51  1  0.677519  0.802663  0.121313  1
  I  I52  1  0.707585  0.563635  0.493917  1
  I  I53  1  0.707585  0.063635  0.006083  1
  I  I54  1  0.750000  0.072492  0.750000  1
  I  I55  1  0.750000  0.572492  0.750000  1
  I  I56  1  0.792415  0.563635  0.006083  1
  I  I57  1  0.792415  0.063635  0.493917  1
  I  I58  1  0.822481  0.302663  0.121313  1
  I  I59  1  0.822481  0.802663  0.378687  1
  I  I60  1  0.845775  0.821481  0.890214  1
  I  I61  1  0.845775  0.321481  0.609786  1
  I  I62  1  0.909390  0.023098  0.217413  1
  I  I63  1  0.909390  0.523098  0.282587  1
  I  I64  1  0.972255  0.223894  0.891553  1
  I  I65  1  0.972255  0.723894  0.608447  1
  Br  Br66  1  0.250000  0.442606  0.250000  1
  Br  Br67  1  0.250000  0.942606  0.250000  1
