# generated using pymatgen
data_Al(HO)3
_symmetry_space_group_name_H-M   'P 1'
_cell_length_a   8.86588514
_cell_length_b   5.04203089
_cell_length_c   9.74343670
_cell_angle_alpha   90.03700010
_cell_angle_beta   90.84260073
_cell_angle_gamma   90.12266744
_symmetry_Int_Tables_number   1
_chemical_formula_structural   Al(HO)3
_chemical_formula_sum   'Al8 H24 O24'
_cell_volume   435.50356172
_cell_formula_units_Z   8
loop_
 _symmetry_equiv_pos_site_id
 _symmetry_equiv_pos_as_xyz
  1  'x, y, z'
loop_
 _atom_site_type_symbol
 _atom_site_label
 _atom_site_symmetry_multiplicity
 _atom_site_fract_x
 _atom_site_fract_y
 _atom_site_fract_z
 _atom_site_occupancy
  Al  Al0  1  0.328560  0.019131  0.502939  1
  Al  Al1  1  0.838375  0.467859  0.000454  1
  Al  Al2  1  0.660699  0.960160  0.498919  1
  Al  Al3  1  0.171669  0.525049  -0.000183  1
  Al  Al4  1  0.157376  0.511933  0.503270  1
  Al  Al5  1  0.666603  0.974185  0.002779  1
  Al  Al6  1  0.830259  0.464831  0.498876  1
  Al  Al7  1  0.341110  0.021271  0.000528  1
  H  H8  1  0.406677  0.627543  0.626039  1
  H  H9  1  0.916279  0.864365  0.122026  1
  H  H10  1  0.597672  0.384765  0.369720  1
  H  H11  1  0.108609  0.101313  0.868668  1
  H  H12  1  0.808867  0.159286  0.701487  1
  H  H13  1  0.320674  0.329481  0.203110  1
  H  H14  1  0.079055  0.942693  0.395134  1
  H  H15  1  0.588301  0.541115  0.897111  1
  H  H16  1  0.973138  0.820541  0.606264  1
  H  H17  1  0.483995  0.662819  0.107718  1
  H  H18  1  0.000361  0.389481  0.297940  1
  H  H19  1  0.505458  0.091050  0.797987  1
  H  H20  1  0.536650  0.305239  0.618659  1
  H  H21  1  0.048720  0.185235  0.118903  1
  H  H22  1  0.482905  0.870665  0.299217  1
  H  H23  1  0.992456  0.609192  0.796147  1
  H  H24  1  0.205188  0.217290  0.704350  1
  H  H25  1  0.703522  0.274948  0.204725  1
  H  H26  1  0.794569  0.772818  0.292803  1
  H  H27  1  0.294600  0.714512  0.796052  1
  H  H28  1  0.685347  0.659420  0.706471  1
  H  H29  1  0.191411  0.830744  0.207333  1
  H  H30  1  0.395540  0.482107  0.393194  1
  H  H31  1  0.899388  0.000335  0.887178  1
  O  O32  1  0.307032  0.706053  0.615560  1
  O  O33  1  0.818109  0.780358  0.111926  1
  O  O34  1  0.685510  0.272822  0.384434  1
  O  O35  1  0.196417  0.211604  0.886202  1
  O  O36  1  0.814755  0.146764  0.600692  1
  O  O37  1  0.328248  0.340347  0.102559  1
  O  O38  1  0.172220  0.837727  0.398775  1
  O  O39  1  0.680685  0.649030  0.896129  1
  O  O40  1  0.989212  0.628152  0.611540  1
  O  O41  1  0.499632  0.855593  0.112272  1
  O  O42  1  0.000340  0.356291  0.397856  1
  O  O43  1  0.509931  0.127126  0.897554  1
  O  O44  1  0.504719  0.119897  0.610176  1
  O  O45  1  0.015648  0.369092  0.109137  1
  O  O46  1  0.480806  0.842352  0.399802  1
  O  O47  1  0.992262  0.641255  0.896762  1
  O  O48  1  0.186281  0.200835  0.604828  1
  O  O49  1  0.696627  0.285576  0.103714  1
  O  O50  1  0.797962  0.775013  0.394383  1
  O  O51  1  0.308553  0.710836  0.896499  1
  O  O52  1  0.668971  0.640309  0.605905  1
  O  O53  1  0.179526  0.846476  0.106453  1
  O  O54  1  0.316019  0.344103  0.392225  1
  O  O55  1  0.822429  0.140659  0.891406  1
