# generated using pymatgen
data_SiO2
_symmetry_space_group_name_H-M   'P 1'
_cell_length_a   8.22589510
_cell_length_b   9.26117423
_cell_length_c   17.42097937
_cell_angle_alpha   90.00000000
_cell_angle_beta   90.00000000
_cell_angle_gamma   90.00000000
_symmetry_Int_Tables_number   1
_chemical_formula_structural   SiO2
_chemical_formula_sum   'Si24 O48'
_cell_volume   1327.15542909
_cell_formula_units_Z   24
loop_
 _symmetry_equiv_pos_site_id
 _symmetry_equiv_pos_as_xyz
  1  'x, y, z'
loop_
 _atom_site_type_symbol
 _atom_site_label
 _atom_site_symmetry_multiplicity
 _atom_site_fract_x
 _atom_site_fract_y
 _atom_site_fract_z
 _atom_site_occupancy
  Si  Si0  1  0.634852  0.129784  0.068667  1
  Si  Si1  1  0.634852  0.870216  0.431333  1
  Si  Si2  1  0.865148  0.129784  0.931333  1
  Si  Si3  1  0.365148  0.370216  0.068667  1
  Si  Si4  1  0.134852  0.629784  0.568667  1
  Si  Si5  1  0.134852  0.370216  0.931333  1
  Si  Si6  1  0.365148  0.629784  0.431333  1
  Si  Si7  1  0.865148  0.870216  0.568667  1
  Si  Si8  1  0.063349  0.911791  0.028209  1
  Si  Si9  1  0.063349  0.088209  0.471791  1
  Si  Si10  1  0.436651  0.911791  0.971791  1
  Si  Si11  1  0.936651  0.588209  0.028209  1
  Si  Si12  1  0.563349  0.411791  0.528209  1
  Si  Si13  1  0.563349  0.588209  0.971791  1
  Si  Si14  1  0.936651  0.411791  0.471791  1
  Si  Si15  1  0.436651  0.088209  0.528209  1
  Si  Si16  1  0.936083  0.912800  0.329785  1
  Si  Si17  1  0.936083  0.087200  0.170215  1
  Si  Si18  1  0.563917  0.912800  0.670215  1
  Si  Si19  1  0.063917  0.587200  0.329785  1
  Si  Si20  1  0.436083  0.412800  0.829785  1
  Si  Si21  1  0.436083  0.587200  0.670215  1
  Si  Si22  1  0.063917  0.412800  0.170215  1
  Si  Si23  1  0.563917  0.087200  0.829785  1
  O  O24  1  0.750000  0.194285  0.000000  1
  O  O25  1  0.750000  0.805715  0.500000  1
  O  O26  1  0.250000  0.305715  0.000000  1
  O  O27  1  0.250000  0.694285  0.500000  1
  O  O28  1  0.546972  0.982116  0.039896  1
  O  O29  1  0.546972  0.017884  0.460104  1
  O  O30  1  0.953028  0.982116  0.960104  1
  O  O31  1  0.453028  0.517884  0.039896  1
  O  O32  1  0.046972  0.482116  0.539896  1
  O  O33  1  0.046972  0.517884  0.960104  1
  O  O34  1  0.453028  0.482116  0.460104  1
  O  O35  1  0.953028  0.017884  0.539896  1
  O  O36  1  0.746477  0.091670  0.142572  1
  O  O37  1  0.746477  0.908330  0.357428  1
  O  O38  1  0.753523  0.091670  0.857428  1
  O  O39  1  0.253523  0.408330  0.142572  1
  O  O40  1  0.246477  0.591670  0.642572  1
  O  O41  1  0.246477  0.408330  0.857428  1
  O  O42  1  0.253523  0.591670  0.357428  1
  O  O43  1  0.753523  0.908330  0.642572  1
  O  O44  1  0.500000  0.250000  0.092115  1
  O  O45  1  0.500000  0.750000  0.407885  1
  O  O46  1  0.000000  0.250000  0.907885  1
  O  O47  1  0.000000  0.750000  0.592115  1
  O  O48  1  0.049037  0.009764  0.105261  1
  O  O49  1  0.049037  0.990236  0.394739  1
  O  O50  1  0.450963  0.009764  0.894739  1
  O  O51  1  0.950963  0.490236  0.105261  1
  O  O52  1  0.549037  0.509764  0.605261  1
  O  O53  1  0.549037  0.490236  0.894739  1
  O  O54  1  0.950963  0.509764  0.394739  1
  O  O55  1  0.450963  0.990236  0.605261  1
  O  O56  1  0.250000  0.905444  0.000000  1
  O  O57  1  0.250000  0.094556  0.500000  1
  O  O58  1  0.750000  0.594556  0.000000  1
  O  O59  1  0.750000  0.405444  0.500000  1
  O  O60  1  0.000000  0.750000  0.046959  1
  O  O61  1  0.000000  0.250000  0.453041  1
  O  O62  1  0.500000  0.750000  0.953041  1
  O  O63  1  0.500000  0.250000  0.546959  1
  O  O64  1  0.000000  0.750000  0.315807  1
  O  O65  1  0.000000  0.250000  0.184193  1
  O  O66  1  0.500000  0.750000  0.684193  1
  O  O67  1  0.500000  0.250000  0.815807  1
  O  O68  1  0.949251  0.000000  0.250000  1
  O  O69  1  0.550749  0.000000  0.750000  1
  O  O70  1  0.050749  0.500000  0.250000  1
  O  O71  1  0.449251  0.500000  0.750000  1
