# generated using pymatgen
data_Tc6BiO18
_symmetry_space_group_name_H-M   'P 1'
_cell_length_a   7.26508077
_cell_length_b   21.76378982
_cell_length_c   19.20200534
_cell_angle_alpha   19.14588897
_cell_angle_beta   55.61448224
_cell_angle_gamma   60.12702116
_symmetry_Int_Tables_number   1
_chemical_formula_structural   Tc6BiO18
_chemical_formula_sum   'Tc12 Bi2 O36'
_cell_volume   814.69535978
_cell_formula_units_Z   2
loop_
 _symmetry_equiv_pos_site_id
 _symmetry_equiv_pos_as_xyz
  1  'x, y, z'
loop_
 _atom_site_type_symbol
 _atom_site_label
 _atom_site_symmetry_multiplicity
 _atom_site_fract_x
 _atom_site_fract_y
 _atom_site_fract_z
 _atom_site_occupancy
  Tc  Tc0  1  0.995434  0.991861  0.006148  1
  Tc  Tc1  1  0.498619  0.017426  0.980692  1
  Tc  Tc2  1  0.507847  0.334259  0.993513  1
  Tc  Tc3  1  0.001883  0.166151  0.997905  1
  Tc  Tc4  1  0.500811  0.653001  0.012365  1
  Tc  Tc5  1  0.000568  0.339974  0.992327  1
  Tc  Tc6  1  0.977004  0.998600  0.501302  1
  Tc  Tc7  1  0.013577  0.499297  0.998399  1
  Tc  Tc8  1  0.989656  0.658839  0.012641  1
  Tc  Tc9  1  0.005226  0.334849  0.499281  1
  Tc  Tc10  1  0.008896  0.835049  0.993777  1
  Tc  Tc11  1  0.998407  0.668211  0.500624  1
  Bi  Bi12  1  0.448350  0.995799  0.506261  1
  Bi  Bi13  1  0.498955  0.537818  0.463889  1
  O  O14  1  0.049220  0.205749  0.042958  1
  O  O15  1  0.331484  0.085549  0.334806  1
  O  O16  1  0.054356  0.522664  0.060090  1
  O  O17  1  0.696085  0.195694  0.054080  1
  O  O18  1  0.040593  0.093743  0.711428  1
  O  O19  1  0.667256  0.299019  0.088635  1
  O  O20  1  0.302950  0.442812  0.307405  1
  O  O21  1  0.056284  0.224989  0.696959  1
  O  O22  1  0.057425  0.849227  0.069635  1
  O  O23  1  0.689116  0.525685  0.054024  1
  O  O24  1  0.939879  0.091573  0.321553  1
  O  O25  1  0.950563  0.222731  0.311399  1
  O  O26  1  0.700841  0.646478  0.052967  1
  O  O27  1  0.307713  0.017366  0.948329  1
  O  O28  1  0.094934  0.451436  0.656885  1
  O  O29  1  0.327533  0.154897  0.929174  1
  O  O30  1  0.336238  0.747933  0.330911  1
  O  O31  1  0.054705  0.557145  0.691989  1
  O  O32  1  0.663213  0.820798  0.099624  1
  O  O33  1  0.947157  0.447721  0.304330  1
  O  O34  1  0.680970  0.235456  0.679560  1
  O  O35  1  0.914049  0.557995  0.331326  1
  O  O36  1  0.299705  0.349405  0.950869  1
  O  O37  1  0.050053  0.772827  0.693207  1
  O  O38  1  0.692401  0.979261  0.053233  1
  O  O39  1  0.309657  0.472612  0.943577  1
  O  O40  1  0.089147  0.911319  0.668599  1
  O  O41  1  0.699640  0.553758  0.694503  1
  O  O42  1  0.947118  0.148943  0.934020  1
  O  O43  1  0.946516  0.784548  0.298680  1
  O  O44  1  0.960030  0.901823  0.297479  1
  O  O45  1  0.327452  0.698849  0.910704  1
  O  O46  1  0.300171  0.797837  0.949262  1
  O  O47  1  0.677506  0.905000  0.681513  1
  O  O48  1  0.936987  0.470252  0.949179  1
  O  O49  1  0.941621  0.807494  0.941724  1
