# generated using pymatgen
data_Al(HO)3
_symmetry_space_group_name_H-M   'P 1'
_cell_length_a   8.82433495
_cell_length_b   5.12620794
_cell_length_c   9.45065387
_cell_angle_alpha   87.87473543
_cell_angle_beta   92.09550540
_cell_angle_gamma   87.01189897
_symmetry_Int_Tables_number   1
_chemical_formula_structural   Al(HO)3
_chemical_formula_sum   'Al8 H24 O24'
_cell_volume   426.31139839
_cell_formula_units_Z   8
loop_
 _symmetry_equiv_pos_site_id
 _symmetry_equiv_pos_as_xyz
  1  'x, y, z'
loop_
 _atom_site_type_symbol
 _atom_site_label
 _atom_site_symmetry_multiplicity
 _atom_site_fract_x
 _atom_site_fract_y
 _atom_site_fract_z
 _atom_site_occupancy
  Al  Al0  1  0.349221  0.960845  0.498421  1
  Al  Al1  1  0.677151  0.030657  0.492867  1
  Al  Al2  1  0.832610  0.493405  0.489840  1
  Al  Al3  1  0.177545  0.477585  0.494231  1
  Al  Al4  1  0.808922  0.009738  0.997603  1
  Al  Al5  1  0.171179  0.066499  0.990041  1
  Al  Al6  1  0.322207  0.541421  0.990862  1
  Al  Al7  1  0.654690  0.521120  0.991082  1
  H  H8  1  0.014632  0.473913  0.689409  1
  H  H9  1  0.010988  0.240649  0.318206  1
  H  H10  1  0.555131  0.669100  0.392031  1
  H  H11  1  0.474119  0.301011  0.615097  1
  H  H12  1  0.106004  0.067532  0.619484  1
  H  H13  1  0.927506  0.907939  0.434520  1
  H  H14  1  0.353024  0.635257  0.705769  1
  H  H15  1  0.814666  0.189722  0.706105  1
  H  H16  1  0.215406  0.804071  0.290352  1
  H  H17  1  0.421853  0.361887  0.381972  1
  H  H18  1  0.615641  0.631591  0.643484  1
  H  H19  1  0.952778  0.351967  0.918576  1
  H  H20  1  0.927558  0.793363  0.226933  1
  H  H21  1  0.022573  0.648737  0.110133  1
  H  H22  1  0.513198  0.361427  0.193091  1
  H  H23  1  0.473392  0.854797  0.859178  1
  H  H24  1  0.607236  0.176397  0.801468  1
  H  H25  1  0.401001  0.918108  0.130312  1
  H  H26  1  0.226119  0.327103  0.204427  1
  H  H27  1  0.783144  0.722196  0.785633  1
  H  H28  1  0.760762  0.302375  0.208735  1
  H  H29  1  0.104615  0.737602  0.809775  1
  H  H30  1  0.269348  0.230476  0.774803  1
  H  H31  1  0.649380  0.844991  0.195967  1
  O  O32  1  0.019201  0.599955  0.610074  1
  O  O33  1  0.007970  0.372145  0.389233  1
  O  O34  1  0.520980  0.856833  0.390944  1
  O  O35  1  0.506250  0.115201  0.612061  1
  O  O36  1  0.202763  0.150536  0.609494  1
  O  O37  1  0.836890  0.833906  0.392723  1
  O  O38  1  0.675988  0.345983  0.387263  1
  O  O39  1  0.341055  0.632663  0.602298  1
  O  O40  1  0.832015  0.181365  0.604814  1
  O  O41  1  0.196743  0.801954  0.392265  1
  O  O42  1  0.321582  0.287010  0.383868  1
  O  O43  1  0.710284  0.702888  0.614429  1
  O  O44  1  0.980616  0.165193  0.913335  1
  O  O45  1  0.973953  0.820768  0.132340  1
  O  O46  1  0.491093  0.390410  0.091483  1
  O  O47  1  0.478422  0.664675  0.874187  1
  O  O48  1  0.681217  0.229329  0.873187  1
  O  O49  1  0.303226  0.847292  0.105837  1
  O  O50  1  0.181817  0.356603  0.106689  1
  O  O51  1  0.804220  0.707506  0.890466  1
  O  O52  1  0.794515  0.307322  0.109324  1
  O  O53  1  0.166065  0.754979  0.896165  1
  O  O54  1  0.296117  0.246902  0.877343  1
  O  O55  1  0.664705  0.827664  0.095170  1
