# generated using pymatgen
data_RbCS(OF)3
_symmetry_space_group_name_H-M   'P 1'
_cell_length_a   5.29117434
_cell_length_b   15.79189186
_cell_length_c   15.79189238
_cell_angle_alpha   100.14967345
_cell_angle_beta   97.89538050
_cell_angle_gamma   97.89537763
_symmetry_Int_Tables_number   1
_chemical_formula_structural   RbCS(OF)3
_chemical_formula_sum   'Rb8 C8 S8 O24 F24'
_cell_volume   1268.78349039
_cell_formula_units_Z   8
loop_
 _symmetry_equiv_pos_site_id
 _symmetry_equiv_pos_as_xyz
  1  'x, y, z'
loop_
 _atom_site_type_symbol
 _atom_site_label
 _atom_site_symmetry_multiplicity
 _atom_site_fract_x
 _atom_site_fract_y
 _atom_site_fract_z
 _atom_site_occupancy
  Rb  Rb0  1  0.508254  0.887138  0.132022  1
  Rb  Rb1  1  0.489025  0.089402  0.598658  1
  Rb  Rb2  1  0.489025  0.598658  0.089402  1
  Rb  Rb3  1  0.515772  0.872557  0.872557  1
  Rb  Rb4  1  0.494103  0.599277  0.347834  1
  Rb  Rb5  1  0.490648  0.321216  0.321216  1
  Rb  Rb6  1  0.508254  0.132022  0.887138  1
  Rb  Rb7  1  0.494103  0.347834  0.599277  1
  C  C8  1  0.117239  0.369418  0.792344  1
  C  C9  1  0.889496  0.074453  0.380313  1
  C  C10  1  0.117239  0.792344  0.369418  1
  C  C11  1  0.889496  0.380313  0.074453  1
  C  C12  1  0.838189  0.864402  0.638533  1
  C  C13  1  0.167665  0.128905  0.128905  1
  C  C14  1  0.192012  0.578875  0.578875  1
  C  C15  1  0.838189  0.638533  0.864402  1
  S  S16  1  0.113641  0.034687  0.034687  1
  S  S17  1  0.094264  0.759740  0.247070  1
  S  S18  1  0.947132  0.436311  0.191570  1
  S  S19  1  0.947132  0.191570  0.436311  1
  S  S20  1  0.915627  0.727460  0.964116  1
  S  S21  1  0.915627  0.964116  0.727460  1
  S  S22  1  0.094264  0.247070  0.759740  1
  S  S23  1  0.036192  0.487353  0.487353  1
  O  O24  1  0.992361  0.213669  0.831056  1
  O  O25  1  0.658471  0.741561  0.982824  1
  O  O26  1  0.058513  0.934668  0.799532  1
  O  O27  1  0.377393  0.022409  0.022409  1
  O  O28  1  0.185194  0.196498  0.497213  1
  O  O29  1  0.257984  0.454768  0.454768  1
  O  O30  1  0.923938  0.675592  0.226843  1
  O  O31  1  0.973433  0.239455  0.366026  1
  O  O32  1  0.716765  0.201246  0.476108  1
  O  O33  1  0.063817  0.689654  0.028436  1
  O  O34  1  0.058513  0.799532  0.934668  1
  O  O35  1  0.185194  0.497213  0.196498  1
  O  O36  1  0.970731  0.066786  0.964622  1
  O  O37  1  0.992361  0.831056  0.213669  1
  O  O38  1  0.063817  0.028436  0.689654  1
  O  O39  1  0.885424  0.529658  0.427942  1
  O  O40  1  0.658471  0.982824  0.741561  1
  O  O41  1  0.363545  0.754759  0.236335  1
  O  O42  1  0.885424  0.427942  0.529658  1
  O  O43  1  0.970731  0.964622  0.066786  1
  O  O44  1  0.716765  0.476108  0.201246  1
  O  O45  1  0.923938  0.226843  0.675592  1
  O  O46  1  0.363545  0.236335  0.754759  1
  O  O47  1  0.973433  0.366026  0.239455  1
  F  F48  1  0.737641  0.561650  0.884181  1
  F  F49  1  0.113460  0.048655  0.362413  1
  F  F50  1  0.287704  0.749821  0.412135  1
  F  F51  1  0.287704  0.412135  0.749821  1
  F  F52  1  0.884339  0.770306  0.394337  1
  F  F53  1  0.789306  0.432631  0.022589  1
  F  F54  1  0.198200  0.878744  0.399554  1
  F  F55  1  0.720215  0.059205  0.304230  1
  F  F56  1  0.344459  0.548709  0.639696  1
  F  F57  1  0.661744  0.802654  0.657897  1
  F  F58  1  0.304404  0.110715  0.201313  1
  F  F59  1  0.661744  0.657897  0.802654  1
  F  F60  1  0.884339  0.394337  0.770306  1
  F  F61  1  0.304404  0.201313  0.110715  1
  F  F62  1  0.053430  0.829153  0.626674  1
  F  F63  1  0.016750  0.618575  0.618575  1
  F  F64  1  0.053430  0.626674  0.829153  1
  F  F65  1  0.939087  0.148430  0.148430  1
  F  F66  1  0.737641  0.884181  0.561650  1
  F  F67  1  0.789306  0.022589  0.432631  1
  F  F68  1  0.720215  0.304230  0.059205  1
  F  F69  1  0.198200  0.399554  0.878744  1
  F  F70  1  0.344459  0.639696  0.548709  1
  F  F71  1  0.113460  0.362413  0.048655  1
