# generated using pymatgen
data_Hf(ClO4)4
_symmetry_space_group_name_H-M   'P 1'
_cell_length_a   7.67893652
_cell_length_b   7.67893660
_cell_length_c   13.35713516
_cell_angle_alpha   74.70514528
_cell_angle_beta   74.70514516
_cell_angle_gamma   63.47069070
_symmetry_Int_Tables_number   1
_chemical_formula_structural   Hf(ClO4)4
_chemical_formula_sum   'Hf2 Cl8 O32'
_cell_volume   669.93439955
_cell_formula_units_Z   2
loop_
 _symmetry_equiv_pos_site_id
 _symmetry_equiv_pos_as_xyz
  1  'x, y, z'
loop_
 _atom_site_type_symbol
 _atom_site_label
 _atom_site_symmetry_multiplicity
 _atom_site_fract_x
 _atom_site_fract_y
 _atom_site_fract_z
 _atom_site_occupancy
  Hf  Hf0  1  0.403717  0.347495  0.595091  1
  Hf  Hf1  1  0.347495  0.403717  0.095091  1
  Cl  Cl2  1  0.699070  0.168538  0.427208  1
  Cl  Cl3  1  0.409951  0.997257  0.163505  1
  Cl  Cl4  1  0.742391  0.369862  0.000397  1
  Cl  Cl5  1  0.577758  0.046484  0.764240  1
  Cl  Cl6  1  0.369862  0.742391  0.500397  1
  Cl  Cl7  1  0.168538  0.699070  0.927208  1
  Cl  Cl8  1  0.997257  0.409951  0.663505  1
  Cl  Cl9  1  0.046484  0.577758  0.264240  1
  O  O10  1  0.603351  0.308134  0.968016  1
  O  O11  1  0.264036  0.945238  0.238634  1
  O  O12  1  0.836097  0.580468  0.628545  1
  O  O13  1  0.042090  0.476057  0.180188  1
  O  O14  1  0.318618  0.145858  0.070706  1
  O  O15  1  0.260841  0.710655  0.013392  1
  O  O16  1  0.474337  0.008353  0.866604  1
  O  O17  1  0.546296  0.264741  0.734931  1
  O  O18  1  0.446357  0.610236  0.601205  1
  O  O19  1  0.965032  0.826803  0.936989  1
  O  O20  1  0.710655  0.260841  0.513392  1
  O  O21  1  0.726440  0.281585  0.326328  1
  O  O22  1  0.917141  0.203608  0.023878  1
  O  O23  1  0.308134  0.603351  0.468016  1
  O  O24  1  0.467279  0.130302  0.205672  1
  O  O25  1  0.525637  0.774587  0.423899  1
  O  O26  1  0.145858  0.318618  0.570706  1
  O  O27  1  0.921421  0.781839  0.247135  1
  O  O28  1  0.195452  0.483188  0.961537  1
  O  O29  1  0.580468  0.836097  0.128545  1
  O  O30  1  0.610236  0.446357  0.101205  1
  O  O31  1  0.203608  0.917141  0.523878  1
  O  O32  1  0.264741  0.546296  0.234931  1
  O  O33  1  0.008353  0.474337  0.366604  1
  O  O34  1  0.826803  0.965032  0.436989  1
  O  O35  1  0.774587  0.525637  0.923899  1
  O  O36  1  0.281585  0.726440  0.826328  1
  O  O37  1  0.476057  0.042090  0.680188  1
  O  O38  1  0.483188  0.195452  0.461537  1
  O  O39  1  0.781839  0.921421  0.747135  1
  O  O40  1  0.945238  0.264036  0.738634  1
  O  O41  1  0.130302  0.467279  0.705672  1
