# generated using pymatgen
data_LaNb2CuBrO7
_symmetry_space_group_name_H-M   'P 1'
_cell_length_a   3.94674637
_cell_length_b   3.94674433
_cell_length_c   11.81499768
_cell_angle_alpha   90.00019779
_cell_angle_beta   89.99993920
_cell_angle_gamma   89.99992930
_symmetry_Int_Tables_number   1
_chemical_formula_structural   LaNb2CuBrO7
_chemical_formula_sum   'La1 Nb2 Cu1 Br1 O7'
_cell_volume   184.03984237
_cell_formula_units_Z   1
loop_
 _symmetry_equiv_pos_site_id
 _symmetry_equiv_pos_as_xyz
  1  'x, y, z'
loop_
 _atom_site_type_symbol
 _atom_site_label
 _atom_site_symmetry_multiplicity
 _atom_site_fract_x
 _atom_site_fract_y
 _atom_site_fract_z
 _atom_site_occupancy
  La  La0  1  0.000005  -0.000001  -0.000003  1
  Nb  Nb1  1  0.499999  0.500000  0.808694  1
  Nb  Nb2  1  0.500001  0.500000  0.191307  1
  Cu  Cu3  1  0.499999  0.500002  0.500000  1
  Br  Br4  1  0.999999  0.999996  0.500000  1
  O  O5  1  0.000002  0.500008  0.155244  1
  O  O6  1  0.500002  0.000000  0.155244  1
  O  O7  1  0.499998  0.499997  0.343972  1
  O  O8  1  0.499996  -0.000003  0.844757  1
  O  O9  1  0.999997  0.500002  0.844756  1
  O  O10  1  0.499999  0.499998  0.656029  1
  O  O11  1  0.500002  0.500001  0.000000  1
