# generated using pymatgen
data_Cr2CoSe4
_symmetry_space_group_name_H-M   'P 1'
_cell_length_a   5.10000256
_cell_length_b   6.44424835
_cell_length_c   6.89730694
_cell_angle_alpha   136.67044729
_cell_angle_beta   116.37023709
_cell_angle_gamma   69.11022573
_symmetry_Int_Tables_number   1
_chemical_formula_structural   Cr2CoSe4
_chemical_formula_sum   'Cr2 Co1 Se4'
_cell_volume   139.15679054
_cell_formula_units_Z   1
loop_
 _symmetry_equiv_pos_site_id
 _symmetry_equiv_pos_as_xyz
  1  'x, y, z'
loop_
 _atom_site_type_symbol
 _atom_site_label
 _atom_site_symmetry_multiplicity
 _atom_site_fract_x
 _atom_site_fract_y
 _atom_site_fract_z
 _atom_site_occupancy
  Cr  Cr0  1  0.640517  0.612442  0.376712  1
  Cr  Cr1  1  0.359483  0.387558  0.623288  1
  Co  Co2  1  0.000000  0.000000  0.000000  1
  Se  Se3  1  0.514192  0.130934  0.823580  1
  Se  Se4  1  0.868810  0.502522  0.699112  1
  Se  Se5  1  0.131190  0.497478  0.300888  1
  Se  Se6  1  0.485808  0.869066  0.176420  1
