# generated using pymatgen
data_Na2FeSn(PO4)3
_symmetry_space_group_name_H-M   'P 1'
_cell_length_a   8.98070484
_cell_length_b   8.98644663
_cell_length_c   17.97638877
_cell_angle_alpha   58.92042857
_cell_angle_beta   58.97427931
_cell_angle_gamma   58.98582267
_symmetry_Int_Tables_number   1
_chemical_formula_structural   Na2FeSn(PO4)3
_chemical_formula_sum   'Na8 Fe4 Sn4 P12 O48'
_cell_volume   1001.51624086
_cell_formula_units_Z   4
loop_
 _symmetry_equiv_pos_site_id
 _symmetry_equiv_pos_as_xyz
  1  'x, y, z'
loop_
 _atom_site_type_symbol
 _atom_site_label
 _atom_site_symmetry_multiplicity
 _atom_site_fract_x
 _atom_site_fract_y
 _atom_site_fract_z
 _atom_site_occupancy
  Na  Na0  1  0.492403  0.510700  0.250307  1
  Na  Na1  1  0.622828  0.250331  0.438262  1
  Na  Na2  1  0.883354  0.629907  0.124490  1
  Na  Na3  1  0.009623  0.998373  0.493723  1
  Na  Na4  1  0.499376  0.498997  0.750854  1
  Na  Na5  1  0.245700  0.882434  0.816601  1
  Na  Na6  1  0.629246  0.245111  0.943431  1
  Na  Na7  1  0.879006  0.620816  0.624577  1
  Fe  Fe8  1  0.643804  0.657088  0.323766  1
  Fe  Fe9  1  0.860125  0.849937  0.419896  1
  Fe  Fe10  1  0.650826  0.651393  0.827492  1
  Fe  Fe11  1  0.847837  0.850996  0.927896  1
  Sn  Sn12  1  0.140827  0.137694  0.071867  1
  Sn  Sn13  1  0.355912  0.352948  0.178883  1
  Sn  Sn14  1  0.143061  0.145094  0.570765  1
  Sn  Sn15  1  0.356096  0.357489  0.677924  1
  P  P16  1  0.039242  0.747138  0.229684  1
  P  P17  1  0.462902  0.040513  0.375361  1
  P  P18  1  0.749976  0.459761  0.021143  1
  P  P19  1  0.250342  0.545190  0.477309  1
  P  P20  1  0.538199  0.955554  0.126271  1
  P  P21  1  0.039719  0.751050  0.730437  1
  P  P22  1  0.958558  0.247582  0.271160  1
  P  P23  1  0.460382  0.041099  0.875231  1
  P  P24  1  0.749782  0.462165  0.518984  1
  P  P25  1  0.249756  0.538984  0.978865  1
  P  P26  1  0.542758  0.956882  0.625121  1
  P  P27  1  0.956354  0.249821  0.770909  1
  O  O28  1  0.123429  0.283000  0.257583  1
  O  O29  1  0.278524  0.512498  0.063249  1
  O  O30  1  0.059322  0.915025  0.140864  1
  O  O31  1  0.514120  0.126907  0.138031  1
  O  O32  1  0.006588  0.783659  0.312682  1
  O  O33  1  0.223417  0.579623  0.220301  1
  O  O34  1  0.277168  0.060029  0.458839  1
  O  O35  1  0.440772  0.223282  0.291620  1
  O  O36  1  0.580499  0.440398  0.111957  1
  O  O37  1  0.222912  0.372983  0.492484  1
  O  O38  1  0.077120  0.719478  0.470488  1
  O  O39  1  0.370753  0.986154  0.110187  1
  O  O40  1  0.620612  0.014960  0.397250  1
  O  O41  1  0.127318  0.277997  0.756067  1
  O  O42  1  0.916987  0.281418  0.030408  1
  O  O43  1  0.787149  0.624369  0.005893  1
  O  O44  1  0.422888  0.559966  0.390238  1
  O  O45  1  0.277284  0.514847  0.563699  1
  O  O46  1  0.568563  0.775406  0.209071  1
  O  O47  1  0.060162  0.917754  0.637995  1
  O  O48  1  0.512416  0.127473  0.639711  1
  O  O49  1  0.715215  0.933484  0.040266  1
  O  O50  1  0.011277  0.791847  0.810560  1
  O  O51  1  0.778293  0.417877  0.281716  1
  O  O52  1  0.223694  0.583199  0.719821  1
  O  O53  1  0.987936  0.221524  0.185528  1
  O  O54  1  0.281266  0.060620  0.957959  1
  O  O55  1  0.494918  0.877233  0.355843  1
  O  O56  1  0.930745  0.081961  0.362042  1
  O  O57  1  0.440792  0.224358  0.790205  1
  O  O58  1  0.707272  0.488923  0.439532  1
  O  O59  1  0.582719  0.440221  0.611839  1
  O  O60  1  0.225998  0.366526  0.993472  1
  O  O61  1  0.080522  0.715175  0.966521  1
  O  O62  1  0.879028  0.704486  0.243980  1
  O  O63  1  0.371509  0.986661  0.611211  1
  O  O64  1  0.624986  0.012732  0.892934  1
  O  O65  1  0.916555  0.276690  0.529750  1
  O  O66  1  0.791242  0.621472  0.506255  1
  O  O67  1  0.420838  0.562697  0.889047  1
  O  O68  1  0.562703  0.777928  0.710378  1
  O  O69  1  0.721556  0.935755  0.541269  1
  O  O70  1  0.777986  0.420602  0.781688  1
  O  O71  1  0.985269  0.227158  0.683941  1
  O  O72  1  0.490068  0.880638  0.852948  1
  O  O73  1  0.933769  0.080195  0.858088  1
  O  O74  1  0.707768  0.489147  0.940037  1
  O  O75  1  0.880079  0.708216  0.743546  1
