# generated using pymatgen
data_SiO2
_symmetry_space_group_name_H-M   'P 1'
_cell_length_a   9.89288450
_cell_length_b   9.89288450
_cell_length_c   10.19918070
_cell_angle_alpha   90.00000000
_cell_angle_beta   90.00000000
_cell_angle_gamma   90.00000000
_symmetry_Int_Tables_number   1
_chemical_formula_structural   SiO2
_chemical_formula_sum   'Si16 O32'
_cell_volume   998.18528584
_cell_formula_units_Z   16
loop_
 _symmetry_equiv_pos_site_id
 _symmetry_equiv_pos_as_xyz
  1  'x, y, z'
loop_
 _atom_site_type_symbol
 _atom_site_label
 _atom_site_symmetry_multiplicity
 _atom_site_fract_x
 _atom_site_fract_y
 _atom_site_fract_z
 _atom_site_occupancy
  Si  Si0  1  0.158800  0.591200  0.125000  1
  Si  Si1  1  0.658800  0.908800  0.375000  1
  Si  Si2  1  0.841200  0.091200  0.875000  1
  Si  Si3  1  0.158800  0.408800  0.875000  1
  Si  Si4  1  0.841200  0.908800  0.125000  1
  Si  Si5  1  0.658800  0.091200  0.625000  1
  Si  Si6  1  0.841200  0.408800  0.875000  1
  Si  Si7  1  0.341200  0.091200  0.625000  1
  Si  Si8  1  0.158800  0.908800  0.125000  1
  Si  Si9  1  0.841200  0.591200  0.125000  1
  Si  Si10  1  0.158800  0.091200  0.875000  1
  Si  Si11  1  0.341200  0.908800  0.375000  1
  Si  Si12  1  0.341200  0.591200  0.375000  1
  Si  Si13  1  0.341200  0.408800  0.625000  1
  Si  Si14  1  0.658800  0.408800  0.625000  1
  Si  Si15  1  0.658800  0.591200  0.375000  1
  O  O16  1  0.000000  0.565815  0.159847  1
  O  O17  1  0.684185  0.750000  0.409847  1
  O  O18  1  0.815815  0.250000  0.909847  1
  O  O19  1  0.000000  0.434185  0.840153  1
  O  O20  1  0.000000  0.065815  0.840153  1
  O  O21  1  0.000000  0.934185  0.159847  1
  O  O22  1  0.815815  0.750000  0.090153  1
  O  O23  1  0.684185  0.250000  0.590153  1
  O  O24  1  0.315815  0.250000  0.590153  1
  O  O25  1  0.184185  0.750000  0.090153  1
  O  O26  1  0.184185  0.250000  0.909847  1
  O  O27  1  0.315815  0.750000  0.409847  1
  O  O28  1  0.500000  0.065815  0.659847  1
  O  O29  1  0.500000  0.934185  0.340153  1
  O  O30  1  0.500000  0.565815  0.340153  1
  O  O31  1  0.500000  0.434185  0.659847  1
  O  O32  1  0.250000  0.547209  0.250000  1
  O  O33  1  0.702791  0.000000  0.500000  1
  O  O34  1  0.797209  0.000000  0.000000  1
  O  O35  1  0.250000  0.452791  0.750000  1
  O  O36  1  0.750000  0.047209  0.750000  1
  O  O37  1  0.750000  0.952791  0.250000  1
  O  O38  1  0.750000  0.452791  0.750000  1
  O  O39  1  0.297209  0.000000  0.500000  1
  O  O40  1  0.202791  0.000000  0.000000  1
  O  O41  1  0.750000  0.547209  0.250000  1
  O  O42  1  0.250000  0.952791  0.250000  1
  O  O43  1  0.250000  0.047209  0.750000  1
  O  O44  1  0.202791  0.500000  0.000000  1
  O  O45  1  0.297209  0.500000  0.500000  1
  O  O46  1  0.797209  0.500000  0.000000  1
  O  O47  1  0.702791  0.500000  0.500000  1
