# generated using pymatgen
data_C7F3
_symmetry_space_group_name_H-M   'P 1'
_cell_length_a   11.06877674
_cell_length_b   11.46539586
_cell_length_c   20.52810967
_cell_angle_alpha   82.33476680
_cell_angle_beta   77.00459656
_cell_angle_gamma   65.54613846
_symmetry_Int_Tables_number   1
_chemical_formula_structural   C7F3
_chemical_formula_sum   'C140 F60'
_cell_volume   2308.35757317
_cell_formula_units_Z   20
loop_
 _symmetry_equiv_pos_site_id
 _symmetry_equiv_pos_as_xyz
  1  'x, y, z'
loop_
 _atom_site_type_symbol
 _atom_site_label
 _atom_site_symmetry_multiplicity
 _atom_site_fract_x
 _atom_site_fract_y
 _atom_site_fract_z
 _atom_site_occupancy
  C  C0  1  0.416267  0.072155  0.268347  1
  C  C1  1  0.738739  0.035555  0.729112  1
  C  C2  1  0.101216  0.818962  0.392375  1
  C  C3  1  0.386520  0.625079  0.184624  1
  C  C4  1  0.941075  0.605678  0.248024  1
  C  C5  1  0.530294  0.458683  0.246866  1
  C  C6  1  0.437503  0.483284  0.628206  1
  C  C7  1  0.566527  0.279776  0.986010  1
  C  C8  1  0.085707  0.439590  0.854165  1
  C  C9  1  0.141751  0.562520  0.752226  1
  C  C10  1  0.186637  0.195665  0.229474  1
  C  C11  1  0.514363  0.039008  0.154609  1
  C  C12  1  0.869216  0.836955  0.226656  1
  C  C13  1  0.678639  0.358962  0.746869  1
  C  C14  1  0.447878  0.720611  0.408262  1
  C  C15  1  0.858249  0.437480  0.247774  1
  C  C16  1  0.625683  0.511897  0.132180  1
  C  C17  1  0.616953  0.621942  0.085514  1
  C  C18  1  0.251952  0.763504  0.277025  1
  C  C19  1  0.508674  0.141181  0.917935  1
  C  C20  1  0.189140  0.252151  0.659478  1
  C  C21  1  0.339604  0.961490  0.378173  1
  C  C22  1  0.390058  0.025885  0.164314  1
  C  C23  1  0.744611  0.571434  0.479290  1
  C  C24  1  0.320074  0.434097  0.315533  1
  C  C25  1  0.898784  0.181038  0.607625  1
  C  C26  1  0.826720  0.538600  0.115445  1
  C  C27  1  0.208767  0.047145  0.816241  1
  C  C28  1  0.642223  0.307849  0.623220  1
  C  C29  1  0.625804  0.269172  0.859759  1
  C  C30  1  0.882693  0.619918  0.316270  1
  C  C31  1  0.756257  0.459706  0.149952  1
  C  C32  1  0.752019  0.762792  0.054682  1
  C  C33  1  0.249598  0.870681  0.233375  1
  C  C34  1  0.380134  0.934096  0.130387  1
  C  C35  1  0.697677  0.750569  0.391025  1
  C  C36  1  0.810860  0.747849  0.340522  1
  C  C37  1  0.833291  0.787276  0.100121  1
  C  C38  1  0.552426  0.159186  0.594425  1
  C  C39  1  0.261261  0.964445  0.270888  1
  C  C40  1  0.660100  0.019131  0.234503  1
  C  C41  1  0.229660  0.589056  0.784633  1
  C  C42  1  0.753018  0.949231  0.563465  1
  C  C43  1  0.242783  0.796337  0.348731  1
  C  C44  1  0.130784  0.163045  0.773344  1
  C  C45  1  0.748048  0.236496  0.722975  1
  C  C46  1  0.187802  0.227062  0.020752  1
  C  C47  1  0.090104  0.648812  0.090481  1
  C  C48  1  0.812198  0.772938  0.979248  1
  C  C49  1  0.573827  0.606781  0.405353  1
  C  C50  1  0.485226  0.487660  0.819441  1
  C  C51  1  0.183800  0.460972  0.648180  1
  C  C52  1  0.691806  0.933296  0.765233  1
  C  C53  1  0.485637  0.960992  0.845391  1
  C  C54  1  0.058925  0.394322  0.751976  1
  C  C55  1  0.679926  0.565903  0.684467  1
  C  C56  1  0.323175  0.035302  0.700093  1
  C  C57  1  0.436381  0.034711  0.651519  1
  C  C58  1  0.374196  0.730828  0.140241  1
  C  C59  1  0.804164  0.449465  0.318022  1
  C  C60  1  0.239075  0.094657  0.873718  1
  C  C61  1  0.262772  0.362627  0.924678  1
  C  C62  1  0.374456  0.038954  0.890158  1
  C  C63  1  0.737228  0.637373  0.075322  1
  C  C64  1  0.321361  0.641038  0.253131  1
  C  C65  1  0.813363  0.804335  0.770526  1
  C  C66  1  0.137217  0.954174  0.841133  1
  C  C67  1  0.279107  0.724115  0.627936  1
  C  C68  1  0.612706  0.872930  0.072336  1
  C  C69  1  0.803100  0.853938  0.295776  1
  C  C70  1  0.433473  0.720224  0.013990  1
  C  C71  1  0.862783  0.045826  0.158867  1
  C  C72  1  0.692587  0.144799  0.834686  1
  C  C73  1  0.914293  0.560410  0.145835  1
  C  C74  1  0.166709  0.212724  0.899879  1
  C  C75  1  0.424586  0.144117  0.605836  1
  C  C76  1  0.343272  0.592308  0.735665  1
  C  C77  1  0.469706  0.541317  0.753134  1
  C  C78  1  0.071623  0.487921  0.786967  1
  C  C79  1  0.383047  0.378058  0.914486  1
  C  C80  1  0.928377  0.512079  0.213033  1
  C  C81  1  0.791233  0.952855  0.183759  1
  C  C82  1  0.816200  0.539028  0.351820  1
  C  C83  1  0.267513  0.921982  0.335866  1
  C  C84  1  0.770340  0.410944  0.215367  1
  C  C85  1  0.583733  0.927845  0.731653  1
  C  C86  1  0.563619  0.965289  0.348481  1
  C  C87  1  0.682585  0.409670  0.334948  1
  C  C88  1  0.760925  0.905343  0.126282  1
  C  C89  1  0.552122  0.279389  0.591738  1
  C  C90  1  0.482650  0.729277  0.077523  1
  C  C91  1  0.491326  0.858819  0.082065  1
  C  C92  1  0.705734  0.613174  0.409447  1
  C  C93  1  0.255389  0.428566  0.520710  1
  C  C94  1  0.572311  0.429906  0.646366  1
  C  C95  1  0.247981  0.237208  0.945318  1
  C  C96  1  0.562497  0.516716  0.371794  1
  C  C97  1  0.732487  0.078018  0.664134  1
  C  C98  1  0.426173  0.393219  0.594647  1
  C  C99  1  0.294266  0.386826  0.590553  1
  C  C100  1  0.568602  0.977651  0.667620  1
  C  C101  1  0.757217  0.203663  0.651269  1
  C  C102  1  0.944559  0.681895  0.131297  1
  C  C103  1  0.317415  0.590330  0.665052  1
  C  C104  1  0.055441  0.318105  0.868703  1
  C  C105  1  0.909896  0.351188  0.909519  1
  C  C106  1  0.308194  0.066704  0.234767  1
  C  C107  1  0.447574  0.840814  0.405575  1
  C  C108  1  0.750402  0.129319  0.766625  1
  C  C109  1  0.532652  0.066361  0.218574  1
  C  C110  1  0.196900  0.146062  0.704224  1
  C  C111  1  0.063835  0.284940  0.796815  1
  C  C112  1  0.431398  0.022349  0.332380  1
  C  C113  1  0.467348  0.933639  0.781426  1
  C  C114  1  0.387294  0.127070  0.927664  1
  C  C115  1  0.602922  0.476404  0.703812  1
  C  C116  1  0.514774  0.512340  0.180559  1
  C  C117  1  0.660396  0.038510  0.621827  1
  C  C118  1  0.936165  0.715060  0.203185  1
  C  C119  1  0.246982  0.050769  0.436535  1
  C  C120  1  0.195836  0.550535  0.681978  1
  C  C121  1  0.575414  0.855883  0.394164  1
  C  C122  1  0.609942  0.974115  0.835686  1
  C  C123  1  0.517350  0.270723  0.922477  1
  C  C124  1  0.613480  0.374921  0.815376  1
  C  C125  1  0.625544  0.961046  0.109842  1
  C  C126  1  0.427689  0.570094  0.353634  1
  C  C127  1  0.676825  0.964698  0.299907  1
  C  C128  1  0.720893  0.275885  0.372064  1
  C  C129  1  0.117307  0.380082  0.683730  1
  C  C130  1  0.619866  0.065904  0.869613  1
  C  C131  1  0.173280  0.461400  0.884555  1
  C  C132  1  0.656728  0.407692  0.264335  1
  C  C133  1  0.243743  0.540294  0.850048  1
  C  C134  1  0.339900  0.980869  0.765497  1
  C  C135  1  0.307413  0.855201  0.165314  1
  C  C136  1  0.397078  0.523596  0.296188  1
  C  C137  1  0.302323  0.249431  0.608975  1
  C  C138  1  0.357777  0.692151  0.376780  1
  C  C139  1  0.374317  0.488103  0.867820  1
  F  F140  1  0.841140  0.878901  0.964169  1
  F  F141  1  0.831775  0.187374  0.335704  1
  F  F142  1  0.927026  0.669263  0.959733  1
  F  F143  1  0.889768  0.086265  0.211145  1
  F  F144  1  0.158860  0.121099  0.035831  1
  F  F145  1  0.283455  0.414012  0.260278  1
  F  F146  1  0.018956  0.009112  0.883959  1
  F  F147  1  0.996253  0.074412  0.630362  1
  F  F148  1  0.854563  0.846666  0.584849  1
  F  F149  1  0.528607  0.707155  0.957670  1
  F  F150  1  0.141092  0.413526  0.518087  1
  F  F151  1  0.782475  0.151735  0.126617  1
  F  F152  1  0.109022  0.598203  0.031190  1
  F  F153  1  0.322184  0.827082  0.004400  1
  F  F154  1  0.356597  0.355200  0.473328  1
  F  F155  1  0.205952  0.483710  0.361769  1
  F  F156  1  0.182397  0.560674  0.125327  1
  F  F157  1  0.890978  0.401797  0.968810  1
  F  F158  1  0.877100  0.755036  0.709647  1
  F  F159  1  0.145437  0.153334  0.415151  1
  F  F160  1  0.677816  0.172918  0.995600  1
  F  F161  1  0.765936  0.447262  0.496278  1
  F  F162  1  0.399775  0.617331  0.020023  1
  F  F163  1  0.397507  0.317436  0.339757  1
  F  F164  1  0.096925  0.834139  0.457134  1
  F  F165  1  0.817603  0.439326  0.874673  1
  F  F166  1  0.250221  0.722599  0.567483  1
  F  F167  1  0.234064  0.552738  0.503722  1
  F  F168  1  0.679433  0.904611  0.536195  1
  F  F169  1  0.072974  0.330737  0.040267  1
  F  F170  1  0.003747  0.925588  0.369638  1
  F  F171  1  0.118594  0.754512  0.077668  1
  F  F172  1  0.905395  0.820833  0.798809  1
  F  F173  1  0.749779  0.277401  0.432517  1
  F  F174  1  0.716545  0.585988  0.739722  1
  F  F175  1  0.858908  0.586474  0.481913  1
  F  F176  1  0.981044  0.990888  0.116041  1
  F  F177  1  0.933169  0.281297  0.609098  1
  F  F178  1  0.775177  0.715930  0.809544  1
  F  F179  1  0.471393  0.292845  0.042330  1
  F  F180  1  0.168225  0.812626  0.664296  1
  F  F181  1  0.602493  0.682564  0.660243  1
  F  F182  1  0.276807  0.218505  0.058818  1
  F  F183  1  0.066831  0.718703  0.390902  1
  F  F184  1  0.807958  0.012043  0.513319  1
  F  F185  1  0.903075  0.165861  0.542866  1
  F  F186  1  0.122900  0.244964  0.290353  1
  F  F187  1  0.794048  0.516290  0.638231  1
  F  F188  1  0.881406  0.245488  0.922332  1
  F  F189  1  0.192042  0.987957  0.486681  1
  F  F190  1  0.643403  0.644800  0.526672  1
  F  F191  1  0.217525  0.848265  0.873383  1
  F  F192  1  0.380070  0.766337  0.617536  1
  F  F193  1  0.723193  0.781495  0.941182  1
  F  F194  1  0.600225  0.382669  0.979977  1
  F  F195  1  0.224823  0.284070  0.190456  1
  F  F196  1  0.094605  0.179167  0.201191  1
  F  F197  1  0.619930  0.233663  0.382464  1
  F  F198  1  0.110232  0.913735  0.788855  1
  F  F199  1  0.320567  0.095389  0.463805  1
