# generated using pymatgen
data_Pu2InNi2
_symmetry_space_group_name_H-M   'P 1'
_cell_length_a   3.48154464
_cell_length_b   7.32458793
_cell_length_c   7.32458793
_cell_angle_alpha   90.00000000
_cell_angle_beta   90.00000000
_cell_angle_gamma   90.00000000
_symmetry_Int_Tables_number   1
_chemical_formula_structural   Pu2InNi2
_chemical_formula_sum   'Pu4 In2 Ni4'
_cell_volume   186.78343674
_cell_formula_units_Z   2
loop_
 _symmetry_equiv_pos_site_id
 _symmetry_equiv_pos_as_xyz
  1  'x, y, z'
loop_
 _atom_site_type_symbol
 _atom_site_label
 _atom_site_symmetry_multiplicity
 _atom_site_fract_x
 _atom_site_fract_y
 _atom_site_fract_z
 _atom_site_occupancy
  Pu  Pu0  1  0.500000  0.165348  0.665348  1
  Pu  Pu1  1  0.500000  0.334652  0.165348  1
  Pu  Pu2  1  0.500000  0.665348  0.834652  1
  Pu  Pu3  1  0.500000  0.834652  0.334652  1
  In  In4  1  0.000000  0.000000  0.000000  1
  In  In5  1  0.000000  0.500000  0.500000  1
  Ni  Ni6  1  0.000000  0.132627  0.367373  1
  Ni  Ni7  1  0.000000  0.367373  0.867373  1
  Ni  Ni8  1  0.000000  0.867373  0.632627  1
  Ni  Ni9  1  0.000000  0.632627  0.132627  1
