# generated using pymatgen
data_K3Ce2(NO3)9
_symmetry_space_group_name_H-M   'P 1'
_cell_length_a   13.67257622
_cell_length_b   13.67257622
_cell_length_c   13.67257622
_cell_angle_alpha   90.00000000
_cell_angle_beta   90.00000000
_cell_angle_gamma   90.00000000
_symmetry_Int_Tables_number   1
_chemical_formula_structural   K3Ce2(NO3)9
_chemical_formula_sum   'K12 Ce8 N36 O108'
_cell_volume   2555.94238139
_cell_formula_units_Z   4
loop_
 _symmetry_equiv_pos_site_id
 _symmetry_equiv_pos_as_xyz
  1  'x, y, z'
loop_
 _atom_site_type_symbol
 _atom_site_label
 _atom_site_symmetry_multiplicity
 _atom_site_fract_x
 _atom_site_fract_y
 _atom_site_fract_z
 _atom_site_occupancy
  K  K0  1  0.187470  0.562530  0.375000  1
  K  K1  1  0.562530  0.375000  0.187470  1
  K  K2  1  0.937470  0.625000  0.687470  1
  K  K3  1  0.375000  0.187470  0.562530  1
  K  K4  1  0.812530  0.062530  0.125000  1
  K  K5  1  0.687470  0.937470  0.625000  1
  K  K6  1  0.125000  0.812530  0.062530  1
  K  K7  1  0.437470  0.875000  0.312530  1
  K  K8  1  0.625000  0.687470  0.937470  1
  K  K9  1  0.875000  0.312530  0.437470  1
  K  K10  1  0.062530  0.125000  0.812530  1
  K  K11  1  0.312530  0.437470  0.875000  1
  Ce  Ce12  1  0.549130  0.549130  0.549130  1
  Ce  Ce13  1  0.950870  0.450870  0.049130  1
  Ce  Ce14  1  0.049130  0.950870  0.450870  1
  Ce  Ce15  1  0.450870  0.049130  0.950870  1
  Ce  Ce16  1  0.299130  0.799130  0.700870  1
  Ce  Ce17  1  0.799130  0.700870  0.299130  1
  Ce  Ce18  1  0.700870  0.299130  0.799130  1
  Ce  Ce19  1  0.200870  0.200870  0.200870  1
  N  N20  1  0.610806  0.162499  0.649419  1
  N  N21  1  0.875000  0.487256  0.262744  1
  N  N22  1  0.762745  0.625000  0.512745  1
  N  N23  1  0.100581  0.587501  0.139194  1
  N  N24  1  0.337501  0.350581  0.110806  1
  N  N25  1  0.889194  0.837501  0.149419  1
  N  N26  1  0.625000  0.512745  0.762745  1
  N  N27  1  0.587501  0.139194  0.100581  1
  N  N28  1  0.125000  0.987255  0.237256  1
  N  N29  1  0.912499  0.860806  0.600581  1
  N  N30  1  0.737255  0.375000  0.012745  1
  N  N31  1  0.139194  0.100581  0.587501  1
  N  N32  1  0.110806  0.337501  0.350581  1
  N  N33  1  0.375000  0.012745  0.737255  1
  N  N34  1  0.087501  0.360806  0.899419  1
  N  N35  1  0.899419  0.087501  0.360806  1
  N  N36  1  0.412499  0.639194  0.399419  1
  N  N37  1  0.487256  0.262744  0.875000  1
  N  N38  1  0.389194  0.662499  0.850581  1
  N  N39  1  0.649419  0.610806  0.162499  1
  N  N40  1  0.837501  0.149419  0.889194  1
  N  N41  1  0.237256  0.125000  0.987255  1
  N  N42  1  0.162499  0.649419  0.610806  1
  N  N43  1  0.512745  0.762745  0.625000  1
  N  N44  1  0.600581  0.912499  0.860806  1
  N  N45  1  0.662499  0.850581  0.389194  1
  N  N46  1  0.012745  0.737255  0.375000  1
  N  N47  1  0.149419  0.889194  0.837501  1
  N  N48  1  0.360806  0.899419  0.087501  1
  N  N49  1  0.860806  0.600581  0.912499  1
  N  N50  1  0.399419  0.412499  0.639194  1
  N  N51  1  0.850581  0.389194  0.662499  1
  N  N52  1  0.987255  0.237256  0.125000  1
  N  N53  1  0.639194  0.399419  0.412499  1
  N  N54  1  0.350581  0.110806  0.337501  1
  N  N55  1  0.262744  0.875000  0.487256  1
  O  O56  1  0.145051  0.321422  0.841048  1
  O  O57  1  0.332756  0.074467  0.253055  1
  O  O58  1  0.832756  0.425533  0.746945  1
  O  O59  1  0.321422  0.841048  0.145051  1
  O  O60  1  0.571422  0.104949  0.591048  1
  O  O61  1  0.908952  0.428578  0.604949  1
  O  O62  1  0.110037  0.439829  0.944688  1
  O  O63  1  0.054184  0.304184  0.125000  1
  O  O64  1  0.996945  0.824467  0.582756  1
  O  O65  1  0.658952  0.854949  0.821422  1
  O  O66  1  0.741410  0.592919  0.595959  1
  O  O67  1  0.574467  0.246945  0.667244  1
  O  O68  1  0.139963  0.694688  0.689829  1
  O  O69  1  0.092919  0.904041  0.258590  1
  O  O70  1  0.360037  0.305312  0.189829  1
  O  O71  1  0.991410  0.654041  0.342919  1
  O  O72  1  0.657081  0.491410  0.845959  1
  O  O73  1  0.074467  0.253055  0.332756  1
  O  O74  1  0.253055  0.332756  0.074467  1
  O  O75  1  0.645051  0.178578  0.158952  1
  O  O76  1  0.158952  0.645051  0.178578  1
  O  O77  1  0.354949  0.678578  0.341048  1
  O  O78  1  0.428578  0.604949  0.908952  1
  O  O79  1  0.824467  0.582756  0.996945  1
  O  O80  1  0.560171  0.444688  0.389963  1
  O  O81  1  0.555312  0.889963  0.939829  1
  O  O82  1  0.907081  0.404041  0.241410  1
  O  O83  1  0.944688  0.110037  0.439829  1
  O  O84  1  0.625000  0.445816  0.695816  1
  O  O85  1  0.928578  0.895051  0.091048  1
  O  O86  1  0.675533  0.417244  0.496945  1
  O  O87  1  0.895051  0.091048  0.928578  1
  O  O88  1  0.939829  0.555312  0.889963  1
  O  O89  1  0.305312  0.189829  0.360037  1
  O  O90  1  0.845959  0.657081  0.491410  1
  O  O91  1  0.095959  0.758590  0.407081  1
  O  O92  1  0.695816  0.625000  0.445816  1
  O  O93  1  0.154041  0.157081  0.008590  1
  O  O94  1  0.258590  0.092919  0.904041  1
  O  O95  1  0.810171  0.860037  0.194688  1
  O  O96  1  0.125000  0.054184  0.304184  1
  O  O97  1  0.595959  0.741410  0.592919  1
  O  O98  1  0.604949  0.908952  0.428578  1
  O  O99  1  0.194688  0.810171  0.860037  1
  O  O100  1  0.407081  0.095959  0.758590  1
  O  O101  1  0.854949  0.821422  0.658952  1
  O  O102  1  0.324467  0.917244  0.003055  1
  O  O103  1  0.491410  0.845959  0.657081  1
  O  O104  1  0.246945  0.667244  0.574467  1
  O  O105  1  0.104949  0.591048  0.571422  1
  O  O106  1  0.841048  0.145051  0.321422  1
  O  O107  1  0.842919  0.508590  0.345959  1
  O  O108  1  0.417244  0.496945  0.675533  1
  O  O109  1  0.610037  0.060171  0.055312  1
  O  O110  1  0.804184  0.375000  0.945816  1
  O  O111  1  0.945816  0.804184  0.375000  1
  O  O112  1  0.060171  0.055312  0.610037  1
  O  O113  1  0.178578  0.158952  0.645051  1
  O  O114  1  0.342919  0.991410  0.654041  1
  O  O115  1  0.055312  0.610037  0.060171  1
  O  O116  1  0.667244  0.574467  0.246945  1
  O  O117  1  0.445816  0.695816  0.625000  1
  O  O118  1  0.345959  0.842919  0.508590  1
  O  O119  1  0.758590  0.407081  0.095959  1
  O  O120  1  0.341048  0.354949  0.678578  1
  O  O121  1  0.821422  0.658952  0.854949  1
  O  O122  1  0.167244  0.925533  0.753055  1
  O  O123  1  0.375000  0.945816  0.804184  1
  O  O124  1  0.554184  0.195816  0.875000  1
  O  O125  1  0.425533  0.746945  0.832756  1
  O  O126  1  0.304184  0.125000  0.054184  1
  O  O127  1  0.875000  0.554184  0.195816  1
  O  O128  1  0.889963  0.939829  0.555312  1
  O  O129  1  0.591048  0.571422  0.104949  1
  O  O130  1  0.175533  0.082756  0.503055  1
  O  O131  1  0.389963  0.560171  0.444688  1
  O  O132  1  0.503055  0.175533  0.082756  1
  O  O133  1  0.195816  0.875000  0.554184  1
  O  O134  1  0.404041  0.241410  0.907081  1
  O  O135  1  0.189829  0.360037  0.305312  1
  O  O136  1  0.582756  0.996945  0.824467  1
  O  O137  1  0.904041  0.258590  0.092919  1
  O  O138  1  0.082756  0.503055  0.175533  1
  O  O139  1  0.753055  0.167244  0.925533  1
  O  O140  1  0.395051  0.408952  0.071422  1
  O  O141  1  0.925533  0.753055  0.167244  1
  O  O142  1  0.805312  0.310171  0.639963  1
  O  O143  1  0.746945  0.832756  0.425533  1
  O  O144  1  0.654041  0.342919  0.991410  1
  O  O145  1  0.639963  0.805312  0.310171  1
  O  O146  1  0.071422  0.395051  0.408952  1
  O  O147  1  0.091048  0.928578  0.895051  1
  O  O148  1  0.508590  0.345959  0.842919  1
  O  O149  1  0.003055  0.324467  0.917244  1
  O  O150  1  0.689829  0.139963  0.694688  1
  O  O151  1  0.444688  0.389963  0.560171  1
  O  O152  1  0.917244  0.003055  0.324467  1
  O  O153  1  0.439829  0.944688  0.110037  1
  O  O154  1  0.241410  0.907081  0.404041  1
  O  O155  1  0.008590  0.154041  0.157081  1
  O  O156  1  0.310171  0.639963  0.805312  1
  O  O157  1  0.157081  0.008590  0.154041  1
  O  O158  1  0.678578  0.341048  0.354949  1
  O  O159  1  0.860037  0.194688  0.810171  1
  O  O160  1  0.592919  0.595959  0.741410  1
  O  O161  1  0.694688  0.689829  0.139963  1
  O  O162  1  0.496945  0.675533  0.417244  1
  O  O163  1  0.408952  0.071422  0.395051  1
