# generated using pymatgen
data_H4S(NO)2
_symmetry_space_group_name_H-M   'P 1'
_cell_length_a   9.72379890
_cell_length_b   8.87187467
_cell_length_c   5.15482050
_cell_angle_alpha   83.40511597
_cell_angle_beta   65.24451470
_cell_angle_gamma   31.75329884
_symmetry_Int_Tables_number   1
_chemical_formula_structural   H4S(NO)2
_chemical_formula_sum   'H8 S2 N4 O4'
_cell_volume   183.46232790
_cell_formula_units_Z   2
loop_
 _symmetry_equiv_pos_site_id
 _symmetry_equiv_pos_as_xyz
  1  'x, y, z'
loop_
 _atom_site_type_symbol
 _atom_site_label
 _atom_site_symmetry_multiplicity
 _atom_site_fract_x
 _atom_site_fract_y
 _atom_site_fract_z
 _atom_site_occupancy
  H  H0  1  0.688044  0.720827  0.101087  1
  H  H1  1  0.487403  0.108616  0.721646  1
  H  H2  1  0.137957  0.767830  0.565509  1
  H  H3  1  0.526360  0.571922  0.763816  1
  H  H4  1  0.429697  0.862942  0.061623  1
  H  H5  1  0.656756  0.048858  0.860765  1
  H  H6  1  0.196261  0.599282  0.815824  1
  H  H7  1  0.379876  0.830105  0.606264  1
  S  S8  1  0.243828  0.257566  0.255792  1
  S  S9  1  0.992379  0.009029  0.008102  1
  N  N10  1  0.446718  0.916082  0.199708  1
  N  N11  1  0.443680  0.196198  0.916274  1
  N  N12  1  0.053030  0.810310  0.803341  1
  N  N13  1  0.329148  0.812751  0.814608  1
  O  O14  1  0.935341  0.494733  0.325579  1
  O  O15  1  0.237129  0.336194  0.497488  1
  O  O16  1  0.921152  0.007376  0.316558  1
  O  O17  1  0.751227  0.321225  0.014068  1
