# generated using pymatgen
data_SiO2
_symmetry_space_group_name_H-M   'P 1'
_cell_length_a   7.23926663
_cell_length_b   7.23926663
_cell_length_c   12.20666691
_cell_angle_alpha   90.00000000
_cell_angle_beta   90.00000000
_cell_angle_gamma   90.00000000
_symmetry_Int_Tables_number   1
_chemical_formula_structural   SiO2
_chemical_formula_sum   'Si10 O20'
_cell_volume   639.71456498
_cell_formula_units_Z   10
loop_
 _symmetry_equiv_pos_site_id
 _symmetry_equiv_pos_as_xyz
  1  'x, y, z'
loop_
 _atom_site_type_symbol
 _atom_site_label
 _atom_site_symmetry_multiplicity
 _atom_site_fract_x
 _atom_site_fract_y
 _atom_site_fract_z
 _atom_site_occupancy
  Si  Si0  1  0.000000  0.000000  0.000000  1
  Si  Si1  1  0.500000  0.500000  0.500000  1
  Si  Si2  1  0.206402  0.000000  0.788584  1
  Si  Si3  1  0.000000  0.793598  0.211416  1
  Si  Si4  1  0.000000  0.206402  0.211416  1
  Si  Si5  1  0.793598  0.000000  0.788584  1
  Si  Si6  1  0.706402  0.500000  0.288584  1
  Si  Si7  1  0.500000  0.293598  0.711416  1
  Si  Si8  1  0.500000  0.706402  0.711416  1
  Si  Si9  1  0.293598  0.500000  0.288584  1
  O  O10  1  0.000000  0.183898  0.077721  1
  O  O11  1  0.183898  0.000000  0.922279  1
  O  O12  1  0.816102  0.000000  0.922279  1
  O  O13  1  0.000000  0.816102  0.077721  1
  O  O14  1  0.500000  0.683898  0.577721  1
  O  O15  1  0.683898  0.500000  0.422279  1
  O  O16  1  0.316102  0.500000  0.422279  1
  O  O17  1  0.500000  0.316102  0.577721  1
  O  O18  1  0.000000  0.000000  0.734823  1
  O  O19  1  0.000000  0.000000  0.265177  1
  O  O20  1  0.500000  0.500000  0.234823  1
  O  O21  1  0.500000  0.500000  0.765177  1
  O  O22  1  0.316061  0.816061  0.750000  1
  O  O23  1  0.816061  0.683939  0.250000  1
  O  O24  1  0.183939  0.316061  0.250000  1
  O  O25  1  0.683939  0.183939  0.750000  1
  O  O26  1  0.816061  0.316061  0.250000  1
  O  O27  1  0.183939  0.683939  0.250000  1
  O  O28  1  0.683939  0.816061  0.750000  1
  O  O29  1  0.316061  0.183939  0.750000  1
