# generated using pymatgen
data_NaHNO2
_symmetry_space_group_name_H-M   'P 1'
_cell_length_a   6.35869050
_cell_length_b   9.88712438
_cell_length_c   6.80839344
_cell_angle_alpha   90.00012488
_cell_angle_beta   90.00040193
_cell_angle_gamma   89.99976002
_symmetry_Int_Tables_number   1
_chemical_formula_structural   NaHNO2
_chemical_formula_sum   'Na8 H8 N8 O16'
_cell_volume   428.03800285
_cell_formula_units_Z   8
loop_
 _symmetry_equiv_pos_site_id
 _symmetry_equiv_pos_as_xyz
  1  'x, y, z'
loop_
 _atom_site_type_symbol
 _atom_site_label
 _atom_site_symmetry_multiplicity
 _atom_site_fract_x
 _atom_site_fract_y
 _atom_site_fract_z
 _atom_site_occupancy
  Na  Na0  1  -0.000007  0.499987  0.500021  1
  Na  Na1  1  0.000014  0.499986  0.000009  1
  Na  Na2  1  -0.000017  0.999986  0.499999  1
  Na  Na3  1  -0.000006  0.999999  -0.000011  1
  Na  Na4  1  0.341166  0.250005  0.499992  1
  Na  Na5  1  0.658838  0.750009  -0.000010  1
  Na  Na6  1  0.658847  0.750002  0.499994  1
  Na  Na7  1  0.341152  0.250002  -0.000007  1
  H  H8  1  0.838448  0.224111  0.606497  1
  H  H9  1  0.161560  0.775891  0.106501  1
  H  H10  1  0.838443  0.275891  0.393500  1
  H  H11  1  0.161557  0.724111  0.893501  1
  H  H12  1  0.161557  0.775891  0.393500  1
  H  H13  1  0.838443  0.224111  0.893501  1
  H  H14  1  0.161556  0.724111  0.606499  1
  H  H15  1  0.838445  0.275891  0.106500  1
  N  N16  1  0.579304  0.024914  0.749998  1
  N  N17  1  0.420693  0.975086  0.250000  1
  N  N18  1  0.579304  0.475084  0.250004  1
  N  N19  1  0.420697  0.524914  0.749998  1
  N  N20  1  0.389833  0.975474  0.749997  1
  N  N21  1  0.610165  0.024532  0.250002  1
  N  N22  1  0.389831  0.524532  0.250000  1
  N  N23  1  0.610170  0.475473  0.749999  1
  O  O24  1  0.739274  0.939870  0.750001  1
  O  O25  1  0.260726  0.060126  0.250003  1
  O  O26  1  0.739273  0.560124  0.249993  1
  O  O27  1  0.260726  0.439873  0.750007  1
  O  O28  1  0.618202  0.156969  0.749997  1
  O  O29  1  0.381808  0.843030  0.250004  1
  O  O30  1  0.618193  0.343029  0.250000  1
  O  O31  1  0.381806  0.656970  0.750000  1
  O  O32  1  0.240779  0.071548  0.750009  1
  O  O33  1  0.759214  0.928456  0.249997  1
  O  O34  1  0.240786  0.428453  0.250002  1
  O  O35  1  0.759214  0.571552  0.750000  1
  O  O36  1  0.937113  0.250000  0.500001  1
  O  O37  1  0.062890  0.750001  -0.000000  1
  O  O38  1  0.062889  0.750002  0.500000  1
  O  O39  1  0.937112  0.250001  0.999999  1
