# generated using pymatgen
data_Y4InIr
_symmetry_space_group_name_H-M   'P 1'
_cell_length_a   9.72437984
_cell_length_b   9.72439821
_cell_length_c   9.72437206
_cell_angle_alpha   59.99992365
_cell_angle_beta   59.99997332
_cell_angle_gamma   59.99991629
_symmetry_Int_Tables_number   1
_chemical_formula_structural   Y4InIr
_chemical_formula_sum   'Y16 In4 Ir4'
_cell_volume   650.23539322
_cell_formula_units_Z   4
loop_
 _symmetry_equiv_pos_site_id
 _symmetry_equiv_pos_as_xyz
  1  'x, y, z'
loop_
 _atom_site_type_symbol
 _atom_site_label
 _atom_site_symmetry_multiplicity
 _atom_site_fract_x
 _atom_site_fract_y
 _atom_site_fract_z
 _atom_site_occupancy
  Y  Y0  1  0.191601  0.808398  0.191601  1
  Y  Y1  1  0.059639  0.059639  0.440361  1
  Y  Y2  1  0.440361  0.059639  0.440362  1
  Y  Y3  1  0.191602  0.191602  0.808398  1
  Y  Y4  1  0.808398  0.191601  0.808399  1
  Y  Y5  1  0.651267  0.651268  0.651267  1
  Y  Y6  1  0.059638  0.440362  0.440362  1
  Y  Y7  1  0.440361  0.440361  0.059639  1
  Y  Y8  1  0.808399  0.808398  0.191602  1
  Y  Y9  1  0.651267  0.651267  0.046198  1
  Y  Y10  1  0.440360  0.059639  0.059638  1
  Y  Y11  1  0.651267  0.046198  0.651268  1
  Y  Y12  1  0.808399  0.191602  0.191602  1
  Y  Y13  1  0.191602  0.808399  0.808398  1
  Y  Y14  1  0.059640  0.440361  0.059638  1
  Y  Y15  1  0.046198  0.651267  0.651267  1
  In  In16  1  0.416851  0.749446  0.416851  1
  In  In17  1  0.416851  0.416851  0.416851  1
  In  In18  1  0.416852  0.416850  0.749446  1
  In  In19  1  0.749446  0.416851  0.416851  1
  Ir  Ir20  1  0.858998  0.858996  0.423009  1
  Ir  Ir21  1  0.423010  0.858997  0.858997  1
  Ir  Ir22  1  0.858997  0.858998  0.858998  1
  Ir  Ir23  1  0.858997  0.423009  0.858997  1
