# generated using pymatgen
data_La3Co29(Si2B5)2
_symmetry_space_group_name_H-M   'P 1'
_cell_length_a   7.86928518
_cell_length_b   11.22728898
_cell_length_c   11.22728898
_cell_angle_alpha   90.00000000
_cell_angle_beta   90.00000000
_cell_angle_gamma   90.00000000
_symmetry_Int_Tables_number   1
_chemical_formula_structural   La3Co29(Si2B5)2
_chemical_formula_sum   'La6 Co58 Si8 B20'
_cell_volume   991.93927590
_cell_formula_units_Z   2
loop_
 _symmetry_equiv_pos_site_id
 _symmetry_equiv_pos_as_xyz
  1  'x, y, z'
loop_
 _atom_site_type_symbol
 _atom_site_label
 _atom_site_symmetry_multiplicity
 _atom_site_fract_x
 _atom_site_fract_y
 _atom_site_fract_z
 _atom_site_occupancy
  La  La0  1  0.000000  0.500000  0.500000  1
  La  La1  1  0.000000  0.500000  0.000000  1
  La  La2  1  0.500000  0.250000  0.750000  1
  La  La3  1  0.000000  0.000000  0.000000  1
  La  La4  1  0.500000  0.750000  0.250000  1
  La  La5  1  0.000000  0.000000  0.500000  1
  Co  Co6  1  0.525973  0.750000  0.975139  1
  Co  Co7  1  0.252012  0.363754  0.136246  1
  Co  Co8  1  0.888555  0.639930  0.250000  1
  Co  Co9  1  0.111445  0.139930  0.750000  1
  Co  Co10  1  0.302712  0.640775  0.640775  1
  Co  Co11  1  0.662675  0.411922  0.925180  1
  Co  Co12  1  0.525973  0.750000  0.524861  1
  Co  Co13  1  0.971225  0.086037  0.250000  1
  Co  Co14  1  0.111445  0.750000  0.139930  1
  Co  Co15  1  0.662675  0.574820  0.411922  1
  Co  Co16  1  0.337325  0.911922  0.425180  1
  Co  Co17  1  0.474027  0.024861  0.250000  1
  Co  Co18  1  0.337325  0.425180  0.911922  1
  Co  Co19  1  0.747988  0.636246  0.636246  1
  Co  Co20  1  0.662675  0.088078  0.574820  1
  Co  Co21  1  0.971225  0.250000  0.413963  1
  Co  Co22  1  0.662675  0.088078  0.925180  1
  Co  Co23  1  0.697288  0.140775  0.140775  1
  Co  Co24  1  0.747988  0.636246  0.863754  1
  Co  Co25  1  0.028775  0.913963  0.750000  1
  Co  Co26  1  0.525973  0.975139  0.750000  1
  Co  Co27  1  0.525973  0.524861  0.750000  1
  Co  Co28  1  0.028775  0.586037  0.750000  1
  Co  Co29  1  0.662675  0.925180  0.088078  1
  Co  Co30  1  0.662675  0.925180  0.411922  1
  Co  Co31  1  0.971225  0.413963  0.250000  1
  Co  Co32  1  0.474027  0.250000  0.024861  1
  Co  Co33  1  0.474027  0.250000  0.475139  1
  Co  Co34  1  0.662675  0.411922  0.574820  1
  Co  Co35  1  0.337325  0.911922  0.074820  1
  Co  Co36  1  0.302712  0.640775  0.859225  1
  Co  Co37  1  0.888555  0.250000  0.860070  1
  Co  Co38  1  0.252012  0.136246  0.136246  1
  Co  Co39  1  0.747988  0.863754  0.863754  1
  Co  Co40  1  0.337325  0.074820  0.588078  1
  Co  Co41  1  0.467557  0.250000  0.250000  1
  Co  Co42  1  0.888555  0.860070  0.250000  1
  Co  Co43  1  0.302712  0.859225  0.640775  1
  Co  Co44  1  0.474027  0.475139  0.250000  1
  Co  Co45  1  0.028775  0.750000  0.586037  1
  Co  Co46  1  0.252012  0.363754  0.363754  1
  Co  Co47  1  0.971225  0.250000  0.086037  1
  Co  Co48  1  0.888555  0.250000  0.639930  1
  Co  Co49  1  0.337325  0.588078  0.074820  1
  Co  Co50  1  0.111445  0.750000  0.360070  1
  Co  Co51  1  0.697288  0.140775  0.359225  1
  Co  Co52  1  0.337325  0.588078  0.425180  1
  Co  Co53  1  0.028775  0.750000  0.913963  1
  Co  Co54  1  0.302712  0.859225  0.859225  1
  Co  Co55  1  0.662675  0.574820  0.088078  1
  Co  Co56  1  0.252012  0.136246  0.363754  1
  Co  Co57  1  0.337325  0.425180  0.588078  1
  Co  Co58  1  0.532443  0.750000  0.750000  1
  Co  Co59  1  0.111445  0.360070  0.750000  1
  Co  Co60  1  0.697288  0.359225  0.359225  1
  Co  Co61  1  0.697288  0.359225  0.140775  1
  Co  Co62  1  0.337325  0.074820  0.911922  1
  Co  Co63  1  0.747988  0.863754  0.636246  1
  Si  Si64  1  0.175430  0.250000  0.930777  1
  Si  Si65  1  0.175430  0.569223  0.250000  1
  Si  Si66  1  0.824570  0.750000  0.069223  1
  Si  Si67  1  0.175430  0.930777  0.250000  1
  Si  Si68  1  0.175430  0.250000  0.569223  1
  Si  Si69  1  0.824570  0.750000  0.430777  1
  Si  Si70  1  0.824570  0.069223  0.750000  1
  Si  Si71  1  0.824570  0.430777  0.750000  1
  B  B72  1  0.517762  0.564182  0.935818  1
  B  B73  1  0.482238  0.064182  0.064182  1
  B  B74  1  0.261758  0.494264  0.750000  1
  B  B75  1  0.738242  0.994264  0.250000  1
  B  B76  1  0.852208  0.250000  0.250000  1
  B  B77  1  0.105034  0.250000  0.250000  1
  B  B78  1  0.738242  0.505736  0.250000  1
  B  B79  1  0.261758  0.750000  0.005736  1
  B  B80  1  0.482238  0.064182  0.435818  1
  B  B81  1  0.738242  0.250000  0.994264  1
  B  B82  1  0.482238  0.435818  0.064182  1
  B  B83  1  0.517762  0.935818  0.935818  1
  B  B84  1  0.894966  0.750000  0.750000  1
  B  B85  1  0.261758  0.005736  0.750000  1
  B  B86  1  0.738242  0.250000  0.505736  1
  B  B87  1  0.147792  0.750000  0.750000  1
  B  B88  1  0.517762  0.564182  0.564182  1
  B  B89  1  0.517762  0.935818  0.564182  1
  B  B90  1  0.261758  0.750000  0.494264  1
  B  B91  1  0.482238  0.435818  0.435818  1
