# generated using pymatgen
data_H2SO4
_symmetry_space_group_name_H-M   'P 1'
_cell_length_a   4.77861844
_cell_length_b   4.77861844
_cell_length_c   9.34527941
_cell_angle_alpha   67.85213858
_cell_angle_beta   112.14786142
_cell_angle_gamma   118.48429935
_symmetry_Int_Tables_number   1
_chemical_formula_structural   H2SO4
_chemical_formula_sum   'H4 S2 O8'
_cell_volume   168.55465640
_cell_formula_units_Z   2
loop_
 _symmetry_equiv_pos_site_id
 _symmetry_equiv_pos_as_xyz
  1  'x, y, z'
loop_
 _atom_site_type_symbol
 _atom_site_label
 _atom_site_symmetry_multiplicity
 _atom_site_fract_x
 _atom_site_fract_y
 _atom_site_fract_z
 _atom_site_occupancy
  H  H0  1  0.470928  0.215669  0.144873  1
  H  H1  1  0.215669  0.470928  0.355127  1
  H  H2  1  0.381451  0.884301  0.840504  1
  H  H3  1  0.884301  0.381451  0.659496  1
  S  S4  1  0.887072  0.887072  0.750000  1
  S  S5  1  0.077102  0.077102  0.250000  1
  O  O6  1  0.666950  0.803442  0.844905  1
  O  O7  1  0.803442  0.666950  0.655095  1
  O  O8  1  0.272736  0.267967  0.118079  1
  O  O9  1  0.267967  0.272736  0.381921  1
  O  O10  1  0.224200  0.929470  0.869787  1
  O  O11  1  0.929470  0.224200  0.630213  1
  O  O12  1  0.758614  0.091443  0.175548  1
  O  O13  1  0.091443  0.758614  0.324452  1
