# generated using pymatgen
data_GaHO2
_symmetry_space_group_name_H-M   'P 1'
_cell_length_a   6.21239207
_cell_length_b   5.24559293
_cell_length_c   6.06586953
_cell_angle_alpha   66.16425445
_cell_angle_beta   50.56601810
_cell_angle_gamma   63.26972744
_symmetry_Int_Tables_number   1
_chemical_formula_structural   GaHO2
_chemical_formula_sum   'Ga4 H4 O8'
_cell_volume   134.33410614
_cell_formula_units_Z   4
loop_
 _symmetry_equiv_pos_site_id
 _symmetry_equiv_pos_as_xyz
  1  'x, y, z'
loop_
 _atom_site_type_symbol
 _atom_site_label
 _atom_site_symmetry_multiplicity
 _atom_site_fract_x
 _atom_site_fract_y
 _atom_site_fract_z
 _atom_site_occupancy
  Ga  Ga0  1  0.077925  0.064469  0.669929  1
  Ga  Ga1  1  0.687677  0.669929  0.064469  1
  Ga  Ga2  1  0.935531  0.922075  0.312323  1
  Ga  Ga3  1  0.330071  0.312323  0.922075  1
  H  H4  1  0.473615  0.209457  0.493286  1
  H  H5  1  0.506714  0.676357  0.526385  1
  H  H6  1  0.790543  0.526385  0.676357  1
  H  H7  1  0.323643  0.493286  0.209457  1
  O  O8  1  0.013920  0.737002  0.005399  1
  O  O9  1  0.743679  0.005399  0.737002  1
  O  O10  1  0.994601  0.256321  0.986080  1
  O  O11  1  0.262998  0.986080  0.256321  1
  O  O12  1  0.503043  0.007525  0.496752  1
  O  O13  1  0.503248  0.507320  0.496957  1
  O  O14  1  0.992475  0.496957  0.507320  1
  O  O15  1  0.492680  0.496752  0.007525  1
