# generated using pymatgen
data_Si2Ni5P3
_symmetry_space_group_name_H-M   'P 1'
_cell_length_a   4.91299876
_cell_length_b   5.94242944
_cell_length_c   34.27215939
_cell_angle_alpha   90.00000000
_cell_angle_beta   90.00000000
_cell_angle_gamma   90.00000000
_symmetry_Int_Tables_number   1
_chemical_formula_structural   Si2Ni5P3
_chemical_formula_sum   'Si16 Ni40 P24'
_cell_volume   1000.58078178
_cell_formula_units_Z   8
loop_
 _symmetry_equiv_pos_site_id
 _symmetry_equiv_pos_as_xyz
  1  'x, y, z'
loop_
 _atom_site_type_symbol
 _atom_site_label
 _atom_site_symmetry_multiplicity
 _atom_site_fract_x
 _atom_site_fract_y
 _atom_site_fract_z
 _atom_site_occupancy
  Si  Si0  1  0.695911  0.417667  0.876206  1
  Si  Si1  1  0.804089  0.917667  0.123794  1
  Si  Si2  1  0.804089  0.417667  0.376206  1
  Si  Si3  1  0.219523  0.090114  0.773015  1
  Si  Si4  1  0.219523  0.590114  0.726985  1
  Si  Si5  1  0.195911  0.082333  0.876206  1
  Si  Si6  1  0.695911  0.917667  0.623794  1
  Si  Si7  1  0.280477  0.590114  0.226985  1
  Si  Si8  1  0.195911  0.582333  0.623794  1
  Si  Si9  1  0.780477  0.909886  0.226985  1
  Si  Si10  1  0.780477  0.409886  0.273015  1
  Si  Si11  1  0.304089  0.582333  0.123794  1
  Si  Si12  1  0.719523  0.409886  0.773015  1
  Si  Si13  1  0.719523  0.909886  0.726985  1
  Si  Si14  1  0.304089  0.082333  0.376206  1
  Si  Si15  1  0.280477  0.090114  0.273015  1
  Ni  Ni16  1  0.004665  0.199163  0.326200  1
  Ni  Ni17  1  0.511550  0.300613  0.024026  1
  Ni  Ni18  1  0.492021  0.705199  0.371973  1
  Ni  Ni19  1  0.992021  0.794801  0.371973  1
  Ni  Ni20  1  0.499815  0.718101  0.280939  1
  Ni  Ni21  1  0.011550  0.199387  0.024026  1
  Ni  Ni22  1  0.992021  0.294801  0.128027  1
  Ni  Ni23  1  0.498722  0.788806  0.567820  1
  Ni  Ni24  1  0.007979  0.705199  0.871973  1
  Ni  Ni25  1  0.495335  0.699163  0.673800  1
  Ni  Ni26  1  0.488450  0.199387  0.524026  1
  Ni  Ni27  1  0.498722  0.288806  0.932180  1
  Ni  Ni28  1  0.000185  0.718101  0.780939  1
  Ni  Ni29  1  0.504665  0.300837  0.326200  1
  Ni  Ni30  1  0.501278  0.211194  0.432180  1
  Ni  Ni31  1  0.011550  0.699387  0.475974  1
  Ni  Ni32  1  0.000185  0.218101  0.719061  1
  Ni  Ni33  1  0.988450  0.300613  0.524026  1
  Ni  Ni34  1  0.995335  0.300837  0.826200  1
  Ni  Ni35  1  0.499815  0.218101  0.219061  1
  Ni  Ni36  1  0.488450  0.699387  0.975974  1
  Ni  Ni37  1  0.999815  0.281899  0.219061  1
  Ni  Ni38  1  0.500185  0.281899  0.719061  1
  Ni  Ni39  1  0.492021  0.205199  0.128027  1
  Ni  Ni40  1  0.507979  0.794801  0.871973  1
  Ni  Ni41  1  0.999815  0.781899  0.280939  1
  Ni  Ni42  1  0.001278  0.788806  0.067820  1
  Ni  Ni43  1  0.001278  0.288806  0.432180  1
  Ni  Ni44  1  0.998722  0.711194  0.567820  1
  Ni  Ni45  1  0.501278  0.711194  0.067820  1
  Ni  Ni46  1  0.500185  0.781899  0.780939  1
  Ni  Ni47  1  0.504665  0.800837  0.173800  1
  Ni  Ni48  1  0.988450  0.800613  0.975974  1
  Ni  Ni49  1  0.495335  0.199163  0.826200  1
  Ni  Ni50  1  0.995335  0.800837  0.673800  1
  Ni  Ni51  1  0.007979  0.205199  0.628027  1
  Ni  Ni52  1  0.998722  0.211194  0.932180  1
  Ni  Ni53  1  0.511550  0.800613  0.475974  1
  Ni  Ni54  1  0.507979  0.294801  0.628027  1
  Ni  Ni55  1  0.004665  0.699163  0.173800  1
  P  P56  1  0.205365  0.072587  0.574509  1
  P  P57  1  0.685964  0.936609  0.326648  1
  P  P58  1  0.813291  0.434454  0.976665  1
  P  P59  1  0.185964  0.063391  0.173352  1
  P  P60  1  0.685964  0.436609  0.173352  1
  P  P61  1  0.314036  0.063391  0.673352  1
  P  P62  1  0.686709  0.934454  0.023335  1
  P  P63  1  0.705365  0.927413  0.925491  1
  P  P64  1  0.813291  0.934454  0.523335  1
  P  P65  1  0.186709  0.065546  0.476665  1
  P  P66  1  0.185964  0.563391  0.326648  1
  P  P67  1  0.794635  0.427413  0.074509  1
  P  P68  1  0.205365  0.572587  0.925491  1
  P  P69  1  0.705365  0.427413  0.574509  1
  P  P70  1  0.313291  0.065546  0.976665  1
  P  P71  1  0.294635  0.572587  0.425491  1
  P  P72  1  0.814036  0.436609  0.673352  1
  P  P73  1  0.294635  0.072587  0.074509  1
  P  P74  1  0.186709  0.565546  0.023335  1
  P  P75  1  0.686709  0.434454  0.476665  1
  P  P76  1  0.313291  0.565546  0.523335  1
  P  P77  1  0.794635  0.927413  0.425491  1
  P  P78  1  0.314036  0.563391  0.826648  1
  P  P79  1  0.814036  0.936609  0.826648  1
