# generated using pymatgen
data_Os4C13(SO6)2
_symmetry_space_group_name_H-M   'P 1'
_cell_length_a   7.72664168
_cell_length_b   10.12924475
_cell_length_c   14.97611516
_cell_angle_alpha   95.65127371
_cell_angle_beta   92.91010735
_cell_angle_gamma   108.77866363
_symmetry_Int_Tables_number   1
_chemical_formula_structural   Os4C13(SO6)2
_chemical_formula_sum   'Os8 C26 S4 O24'
_cell_volume   1100.08197322
_cell_formula_units_Z   2
loop_
 _symmetry_equiv_pos_site_id
 _symmetry_equiv_pos_as_xyz
  1  'x, y, z'
loop_
 _atom_site_type_symbol
 _atom_site_label
 _atom_site_symmetry_multiplicity
 _atom_site_fract_x
 _atom_site_fract_y
 _atom_site_fract_z
 _atom_site_occupancy
  Os  Os0  1  0.461751  0.635294  0.664487  1
  Os  Os1  1  0.822642  0.226400  0.133386  1
  Os  Os2  1  0.846266  0.489264  0.232810  1
  Os  Os3  1  0.153734  0.510736  0.767190  1
  Os  Os4  1  0.538249  0.364706  0.335513  1
  Os  Os5  1  0.320873  0.865782  0.701608  1
  Os  Os6  1  0.177358  0.773600  0.866614  1
  Os  Os7  1  0.679127  0.134218  0.298392  1
  C  C8  1  0.938852  0.418081  0.824927  1
  C  C9  1  0.677967  0.128600  0.425252  1
  C  C10  1  0.567089  0.997494  0.725393  1
  C  C11  1  0.700709  0.578346  0.169188  1
  C  C12  1  0.339668  0.252216  0.396669  1
  C  C13  1  0.990353  0.679973  0.939102  1
  C  C14  1  0.118065  0.942770  0.892074  1
  C  C15  1  0.380727  0.716468  0.788734  1
  C  C16  1  0.922657  0.632152  0.333425  1
  C  C17  1  0.783186  0.985658  0.287218  1
  C  C18  1  0.299291  0.421654  0.830812  1
  C  C19  1  0.432911  0.002506  0.274607  1
  C  C20  1  0.358052  0.820545  0.967709  1
  C  C21  1  0.077343  0.367848  0.666575  1
  C  C22  1  0.660332  0.747784  0.603331  1
  C  C23  1  0.532107  0.469579  0.661324  1
  C  C24  1  0.467893  0.530420  0.338676  1
  C  C25  1  0.216814  0.014342  0.712782  1
  C  C26  1  0.619273  0.283532  0.211266  1
  C  C27  1  0.702628  0.427747  0.441823  1
  C  C28  1  0.009647  0.320027  0.060898  1
  C  C29  1  0.641948  0.179455  0.032291  1
  C  C30  1  0.322033  0.871400  0.574748  1
  C  C31  1  0.297372  0.572253  0.558177  1
  C  C32  1  0.881935  0.057230  0.107926  1
  C  C33  1  0.061148  0.581919  0.175073  1
  S  S34  1  0.976814  0.314265  0.284303  1
  S  S35  1  0.023186  0.685735  0.715697  1
  S  S36  1  0.607026  0.729420  0.819738  1
  S  S37  1  0.392974  0.270580  0.180262  1
  O  O38  1  0.809055  0.356678  0.858060  1
  O  O39  1  0.124043  0.377057  0.017344  1
  O  O40  1  0.918771  0.955943  0.090071  1
  O  O41  1  0.609517  0.629390  0.130920  1
  O  O42  1  0.570745  0.368034  0.662567  1
  O  O43  1  0.081229  0.044057  0.909929  1
  O  O44  1  0.323758  0.878431  0.497795  1
  O  O45  1  0.283961  0.925236  0.261705  1
  O  O46  1  0.190945  0.643322  0.141940  1
  O  O47  1  0.027144  0.282289  0.604679  1
  O  O48  1  0.469674  0.847171  0.027760  1
  O  O49  1  0.676242  0.121569  0.502205  1
  O  O50  1  0.530326  0.152829  0.972240  1
  O  O51  1  0.201048  0.532808  0.491888  1
  O  O52  1  0.798952  0.467192  0.508112  1
  O  O53  1  0.972856  0.717711  0.395321  1
  O  O54  1  0.429255  0.631966  0.337433  1
  O  O55  1  0.716039  0.074764  0.738295  1
  O  O56  1  0.159504  0.107369  0.718103  1
  O  O57  1  0.221963  0.182368  0.433507  1
  O  O58  1  0.390483  0.370610  0.869080  1
  O  O59  1  0.875957  0.622943  0.982656  1
  O  O60  1  0.840496  0.892631  0.281897  1
  O  O61  1  0.778037  0.817632  0.566493  1
