# generated using pymatgen
data_Os3C8(SO4)2
_symmetry_space_group_name_H-M   'P 1'
_cell_length_a   12.27606914
_cell_length_b   14.03463844
_cell_length_c   18.40163067
_cell_angle_alpha   106.41989315
_cell_angle_beta   90.00002611
_cell_angle_gamma   89.99997482
_symmetry_Int_Tables_number   1
_chemical_formula_structural   Os3C8(SO4)2
_chemical_formula_sum   'Os24 C64 S16 O64'
_cell_volume   3041.11769350
_cell_formula_units_Z   8
loop_
 _symmetry_equiv_pos_site_id
 _symmetry_equiv_pos_as_xyz
  1  'x, y, z'
loop_
 _atom_site_type_symbol
 _atom_site_label
 _atom_site_symmetry_multiplicity
 _atom_site_fract_x
 _atom_site_fract_y
 _atom_site_fract_z
 _atom_site_occupancy
  Os  Os0  1  0.707958  0.062586  0.806429  1
  Os  Os1  1  0.710627  0.045807  0.194520  1
  Os  Os2  1  0.289373  0.954193  0.805480  1
  Os  Os3  1  0.207958  0.437413  0.693571  1
  Os  Os4  1  0.792042  0.562587  0.306429  1
  Os  Os5  1  0.461662  0.085852  0.799118  1
  Os  Os6  1  0.199570  0.726906  0.038680  1
  Os  Os7  1  0.210627  0.454193  0.305480  1
  Os  Os8  1  0.961662  0.414148  0.700882  1
  Os  Os9  1  0.087467  0.256692  0.600873  1
  Os  Os10  1  0.789373  0.545807  0.694520  1
  Os  Os11  1  0.412533  0.756691  0.100873  1
  Os  Os12  1  0.125156  0.677857  0.455946  1
  Os  Os13  1  0.800430  0.273094  0.961320  1
  Os  Os14  1  0.300431  0.226906  0.538680  1
  Os  Os15  1  0.587467  0.243309  0.899127  1
  Os  Os16  1  0.874844  0.322143  0.544054  1
  Os  Os17  1  0.625157  0.822143  0.044054  1
  Os  Os18  1  0.699569  0.773094  0.461320  1
  Os  Os19  1  0.038338  0.585852  0.299118  1
  Os  Os20  1  0.292042  0.937414  0.193571  1
  Os  Os21  1  0.374843  0.177857  0.955946  1
  Os  Os22  1  0.538338  0.914148  0.200882  1
  Os  Os23  1  0.912533  0.743308  0.399127  1
  C  C24  1  0.850763  0.404084  0.963427  1
  C  C25  1  0.667156  0.685405  0.022600  1
  C  C26  1  0.055493  0.775374  0.042197  1
  C  C27  1  0.696846  0.562240  0.781744  1
  C  C28  1  0.261521  0.142026  0.014021  1
  C  C29  1  0.472042  0.207024  0.041222  1
  C  C30  1  0.676665  0.579862  0.636370  1
  C  C31  1  0.843129  0.431119  0.300546  1
  C  C32  1  0.710278  0.800511  0.569038  1
  C  C33  1  0.527958  0.792976  0.958778  1
  C  C34  1  0.534120  0.025180  0.287174  1
  C  C35  1  0.586223  0.353268  0.986307  1
  C  C36  1  0.196846  0.937760  0.718256  1
  C  C37  1  0.513894  0.839706  0.270489  1
  C  C38  1  0.413777  0.646732  0.013693  1
  C  C39  1  0.738479  0.857974  0.985979  1
  C  C40  1  0.156871  0.568881  0.699454  1
  C  C41  1  0.555493  0.724627  0.457803  1
  C  C42  1  0.513446  0.328035  0.851967  1
  C  C43  1  0.238479  0.642026  0.514021  1
  C  C44  1  0.913777  0.853269  0.486308  1
  C  C45  1  0.965880  0.525179  0.787174  1
  C  C46  1  0.944507  0.224626  0.957803  1
  C  C47  1  0.210278  0.699489  0.930962  1
  C  C48  1  0.149237  0.595916  0.036573  1
  C  C49  1  0.296076  0.955067  0.300301  1
  C  C50  1  0.167156  0.814595  0.477400  1
  C  C51  1  0.486106  0.160294  0.729511  1
  C  C52  1  0.703924  0.044933  0.699699  1
  C  C53  1  0.789722  0.300511  0.069038  1
  C  C54  1  0.649237  0.904084  0.463427  1
  C  C55  1  0.332844  0.314595  0.977400  1
  C  C56  1  0.796076  0.544933  0.199699  1
  C  C57  1  0.844303  0.680108  0.731465  1
  C  C58  1  0.465880  0.974820  0.712826  1
  C  C59  1  0.986106  0.339707  0.770488  1
  C  C60  1  0.155697  0.319892  0.268535  1
  C  C61  1  0.034120  0.474821  0.212826  1
  C  C62  1  0.656871  0.931119  0.800546  1
  C  C63  1  0.323335  0.420138  0.363630  1
  C  C64  1  0.203924  0.455067  0.800301  1
  C  C65  1  0.823335  0.079862  0.136370  1
  C  C66  1  0.027958  0.707024  0.541222  1
  C  C67  1  0.832844  0.185405  0.522600  1
  C  C68  1  0.356994  0.473809  0.692297  1
  C  C69  1  0.486554  0.671965  0.148033  1
  C  C70  1  0.655697  0.180108  0.231465  1
  C  C71  1  0.803154  0.062240  0.281744  1
  C  C72  1  0.972042  0.292976  0.458778  1
  C  C73  1  0.013894  0.660293  0.229512  1
  C  C74  1  0.086223  0.146731  0.513692  1
  C  C75  1  0.143005  0.973809  0.192297  1
  C  C76  1  0.289722  0.199489  0.430962  1
  C  C77  1  0.986555  0.828036  0.351966  1
  C  C78  1  0.761521  0.357974  0.485979  1
  C  C79  1  0.343129  0.068881  0.199454  1
  C  C80  1  0.344303  0.819892  0.768535  1
  C  C81  1  0.856995  0.026191  0.807703  1
  C  C82  1  0.176665  0.920138  0.863630  1
  C  C83  1  0.350763  0.095916  0.536573  1
  C  C84  1  0.643006  0.526191  0.307703  1
  C  C85  1  0.444507  0.275373  0.542197  1
  C  C86  1  0.303154  0.437760  0.218256  1
  C  C87  1  0.013445  0.171964  0.648034  1
  S  S88  1  0.307484  0.877533  0.055086  1
  S  S89  1  0.721364  0.867946  0.164926  1
  S  S90  1  0.250831  0.262401  0.669871  1
  S  S91  1  0.192517  0.377533  0.555086  1
  S  S92  1  0.249170  0.762401  0.169871  1
  S  S93  1  0.066625  0.505712  0.399807  1
  S  S94  1  0.933375  0.494288  0.600193  1
  S  S95  1  0.221364  0.632054  0.335073  1
  S  S96  1  0.749169  0.737599  0.330129  1
  S  S97  1  0.278636  0.132054  0.835074  1
  S  S98  1  0.778636  0.367946  0.664927  1
  S  S99  1  0.807483  0.622467  0.444914  1
  S  S100  1  0.566625  0.994288  0.100193  1
  S  S101  1  0.433375  0.005712  0.899807  1
  S  S102  1  0.692516  0.122467  0.944914  1
  S  S103  1  0.750830  0.237599  0.830129  1
  O  O104  1  0.359960  0.428244  0.166208  1
  O  O105  1  0.202148  0.460582  0.864407  1
  O  O106  1  0.116348  0.519148  0.038053  1
  O  O107  1  0.479208  0.911654  0.656047  1
  O  O108  1  0.803032  0.879409  0.947169  1
  O  O109  1  0.780614  0.312923  0.133829  1
  O  O110  1  0.122538  0.239948  0.244072  1
  O  O111  1  0.072453  0.078207  0.460716  1
  O  O112  1  0.530630  0.615875  0.174324  1
  O  O113  1  0.719386  0.812923  0.633829  1
  O  O114  1  0.030630  0.884125  0.325676  1
  O  O115  1  0.032512  0.193147  0.953372  1
  O  O116  1  0.696968  0.379409  0.447169  1
  O  O117  1  0.805607  0.103137  0.510356  1
  O  O118  1  0.196968  0.120591  0.052831  1
  O  O119  1  0.025724  0.273283  0.404520  1
  O  O120  1  0.868835  0.350547  0.297682  1
  O  O121  1  0.631165  0.850547  0.797682  1
  O  O122  1  0.506737  0.199085  0.682626  1
  O  O123  1  0.883652  0.480852  0.961947  1
  O  O124  1  0.551977  0.504757  0.309474  1
  O  O125  1  0.640040  0.571756  0.833792  1
  O  O126  1  0.467488  0.693147  0.453372  1
  O  O127  1  0.297852  0.960582  0.364407  1
  O  O128  1  0.392357  0.400974  0.400388  1
  O  O129  1  0.140040  0.928244  0.666208  1
  O  O130  1  0.448023  0.495243  0.690526  1
  O  O131  1  0.948023  0.004757  0.809474  1
  O  O132  1  0.967488  0.806853  0.046628  1
  O  O133  1  0.305607  0.396863  0.989644  1
  O  O134  1  0.694393  0.603137  0.010356  1
  O  O135  1  0.622538  0.260052  0.255928  1
  O  O136  1  0.797852  0.539418  0.135593  1
  O  O137  1  0.532512  0.306853  0.546628  1
  O  O138  1  0.525724  0.226717  0.095480  1
  O  O139  1  0.474276  0.773283  0.904520  1
  O  O140  1  0.993263  0.699085  0.182626  1
  O  O141  1  0.219386  0.687077  0.866171  1
  O  O142  1  0.020792  0.411654  0.156047  1
  O  O143  1  0.877462  0.760052  0.755928  1
  O  O144  1  0.280614  0.187077  0.366171  1
  O  O145  1  0.927547  0.921793  0.539284  1
  O  O146  1  0.303032  0.620591  0.552831  1
  O  O147  1  0.006737  0.300915  0.817374  1
  O  O148  1  0.427547  0.578207  0.960715  1
  O  O149  1  0.520792  0.088346  0.343953  1
  O  O150  1  0.107643  0.900974  0.900388  1
  O  O151  1  0.702148  0.039418  0.635593  1
  O  O152  1  0.131165  0.649453  0.702318  1
  O  O153  1  0.051977  0.995243  0.190526  1
  O  O154  1  0.607643  0.599026  0.599611  1
  O  O155  1  0.368835  0.149453  0.202318  1
  O  O156  1  0.892357  0.099026  0.099612  1
  O  O157  1  0.616348  0.980852  0.461947  1
  O  O158  1  0.383652  0.019148  0.538053  1
  O  O159  1  0.979208  0.588346  0.843953  1
  O  O160  1  0.377462  0.739948  0.744072  1
  O  O161  1  0.859960  0.071756  0.333792  1
  O  O162  1  0.493263  0.800915  0.317374  1
  O  O163  1  0.469370  0.384125  0.825676  1
  O  O164  1  0.194393  0.896863  0.489644  1
  O  O165  1  0.572453  0.421793  0.039285  1
  O  O166  1  0.974276  0.726717  0.595480  1
  O  O167  1  0.969370  0.115875  0.674324  1
