# generated using pymatgen
data_Hg3SeO6
_symmetry_space_group_name_H-M   'P 1'
_cell_length_a   7.42760306
_cell_length_b   7.55450193
_cell_length_c   10.11900228
_cell_angle_alpha   90.20995537
_cell_angle_beta   89.36551541
_cell_angle_gamma   119.18425449
_symmetry_Int_Tables_number   1
_chemical_formula_structural   Hg3SeO6
_chemical_formula_sum   'Hg9 Se3 O18'
_cell_volume   495.68626799
_cell_formula_units_Z   3
loop_
 _symmetry_equiv_pos_site_id
 _symmetry_equiv_pos_as_xyz
  1  'x, y, z'
loop_
 _atom_site_type_symbol
 _atom_site_label
 _atom_site_symmetry_multiplicity
 _atom_site_fract_x
 _atom_site_fract_y
 _atom_site_fract_z
 _atom_site_occupancy
  Hg  Hg0  1  0.349325  0.994491  0.658178  1
  Hg  Hg1  1  0.191276  0.671385  0.959782  1
  Hg  Hg2  1  0.048391  0.374445  0.297696  1
  Hg  Hg3  1  0.359653  0.516050  0.647468  1
  Hg  Hg4  1  0.526365  0.861798  0.299517  1
  Hg  Hg5  1  0.554134  0.374220  0.343890  1
  Hg  Hg6  1  0.700986  0.702680  0.007321  1
  Hg  Hg7  1  0.754234  0.425966  0.738828  1
  Hg  Hg8  1  0.656331  0.175532  0.026767  1
  Se  Se9  1  0.046658  0.893130  0.330301  1
  Se  Se10  1  0.215908  0.194280  0.993567  1
  Se  Se11  1  0.852868  0.899264  0.602702  1
  O  O12  1  0.138561  0.743346  0.269381  1
  O  O13  1  0.231999  0.698186  0.722220  1
  O  O14  1  0.353126  0.424828  0.921522  1
  O  O15  1  0.365169  0.522854  0.353047  1
  O  O16  1  0.508398  0.842853  0.047780  1
  O  O17  1  0.625100  0.869242  0.545798  1
  O  O18  1  0.306274  0.192378  0.145089  1
  O  O19  1  0.460508  0.296094  0.594419  1
  O  O20  1  0.841875  0.846412  0.233983  1
  O  O21  1  0.780470  0.741146  0.735816  1
  O  O22  1  0.898088  0.736216  0.476607  1
  O  O23  1  0.835464  0.503726  0.963987  1
  O  O24  1  0.716963  0.216015  0.268440  1
  O  O25  1  0.256082  0.028411  0.902512  1
  O  O26  1  0.898648  0.401266  0.527924  1
  O  O27  1  0.911185  0.226874  0.711306  1
  O  O28  1  0.968752  0.278545  0.576603  1
  O  O29  1  0.969208  0.133369  -0.000151  1
