# generated using pymatgen
data_Mn3(SiTe3)2
_symmetry_space_group_name_H-M   'P 1'
_cell_length_a   7.01441641
_cell_length_b   7.01441676
_cell_length_c   11.48677120
_cell_angle_alpha   90.00000000
_cell_angle_beta   90.00000000
_cell_angle_gamma   119.99999831
_symmetry_Int_Tables_number   1
_chemical_formula_structural   Mn3(SiTe3)2
_chemical_formula_sum   'Mn6 Si4 Te12'
_cell_volume   489.45381697
_cell_formula_units_Z   2
loop_
 _symmetry_equiv_pos_site_id
 _symmetry_equiv_pos_as_xyz
  1  'x, y, z'
loop_
 _atom_site_type_symbol
 _atom_site_label
 _atom_site_symmetry_multiplicity
 _atom_site_fract_x
 _atom_site_fract_y
 _atom_site_fract_z
 _atom_site_occupancy
  Mn  Mn0  1  0.333333  0.666667  0.508319  1
  Mn  Mn1  1  0.333333  0.666667  0.250000  1
  Mn  Mn2  1  0.666667  0.333333  0.008319  1
  Mn  Mn3  1  0.333333  0.666667  0.991681  1
  Mn  Mn4  1  0.666667  0.333333  0.750000  1
  Mn  Mn5  1  0.666667  0.333333  0.491681  1
  Si  Si6  1  0.000000  0.000000  0.145790  1
  Si  Si7  1  0.000000  0.000000  0.354210  1
  Si  Si8  1  0.000000  0.000000  0.645790  1
  Si  Si9  1  0.000000  0.000000  0.854210  1
  Te  Te10  1  0.377424  0.016438  0.882615  1
  Te  Te11  1  0.360986  0.983562  0.382615  1
  Te  Te12  1  0.016438  0.639014  0.117385  1
  Te  Te13  1  0.377424  0.360986  0.617385  1
  Te  Te14  1  0.983562  0.622576  0.617385  1
  Te  Te15  1  0.360986  0.377424  0.117385  1
  Te  Te16  1  0.639014  0.622576  0.882615  1
  Te  Te17  1  0.016438  0.377424  0.382615  1
  Te  Te18  1  0.622576  0.639014  0.382615  1
  Te  Te19  1  0.983562  0.360986  0.882615  1
  Te  Te20  1  0.639014  0.016438  0.617385  1
  Te  Te21  1  0.622576  0.983562  0.117385  1
