# generated using pymatgen
data_Ga2Fe2Bi2O9
_symmetry_space_group_name_H-M   'P 1'
_cell_length_a   5.97525272
_cell_length_b   7.95133683
_cell_length_c   8.32873676
_cell_angle_alpha   90.00000000
_cell_angle_beta   90.00000000
_cell_angle_gamma   90.00000000
_symmetry_Int_Tables_number   1
_chemical_formula_structural   Ga2Fe2Bi2O9
_chemical_formula_sum   'Ga4 Fe4 Bi4 O18'
_cell_volume   395.70866958
_cell_formula_units_Z   2
loop_
 _symmetry_equiv_pos_site_id
 _symmetry_equiv_pos_as_xyz
  1  'x, y, z'
loop_
 _atom_site_type_symbol
 _atom_site_label
 _atom_site_symmetry_multiplicity
 _atom_site_fract_x
 _atom_site_fract_y
 _atom_site_fract_z
 _atom_site_occupancy
  Ga  Ga0  1  0.500000  0.649507  0.833488  1
  Ga  Ga1  1  0.500000  0.850493  0.333488  1
  Ga  Ga2  1  0.500000  0.149507  0.666512  1
  Ga  Ga3  1  0.500000  0.350493  0.166512  1
  Fe  Fe4  1  0.744681  0.500000  0.500000  1
  Fe  Fe5  1  0.255319  0.000000  0.000000  1
  Fe  Fe6  1  0.744681  0.000000  0.000000  1
  Fe  Fe7  1  0.255319  0.500000  0.500000  1
  Bi  Bi8  1  0.000000  0.668663  0.167383  1
  Bi  Bi9  1  0.000000  0.331337  0.832617  1
  Bi  Bi10  1  0.000000  0.168663  0.332617  1
  Bi  Bi11  1  0.000000  0.831337  0.667383  1
  O  O12  1  0.242443  0.628606  0.704288  1
  O  O13  1  0.757557  0.371394  0.295712  1
  O  O14  1  0.242443  0.128606  0.795712  1
  O  O15  1  0.000000  0.354046  0.567927  1
  O  O16  1  0.000000  0.645954  0.432073  1
  O  O17  1  0.757557  0.128606  0.795712  1
  O  O18  1  0.242443  0.371394  0.295712  1
  O  O19  1  0.500000  0.000000  0.500000  1
  O  O20  1  0.757557  0.871394  0.204288  1
  O  O21  1  0.000000  0.854046  0.932073  1
  O  O22  1  0.500000  0.371370  0.591439  1
  O  O23  1  0.500000  0.871370  0.908561  1
  O  O24  1  0.000000  0.145954  0.067927  1
  O  O25  1  0.500000  0.128630  0.091439  1
  O  O26  1  0.500000  0.500000  0.000000  1
  O  O27  1  0.500000  0.628630  0.408561  1
  O  O28  1  0.757557  0.628606  0.704288  1
  O  O29  1  0.242443  0.871394  0.204288  1
