# generated using pymatgen
data_Rb3Ce2(NO3)9
_symmetry_space_group_name_H-M   'P 1'
_cell_length_a   13.97611268
_cell_length_b   13.97611268
_cell_length_c   13.97611268
_cell_angle_alpha   90.00000000
_cell_angle_beta   90.00000000
_cell_angle_gamma   90.00000000
_symmetry_Int_Tables_number   1
_chemical_formula_structural   Rb3Ce2(NO3)9
_chemical_formula_sum   'Rb12 Ce8 N36 O108'
_cell_volume   2729.97820758
_cell_formula_units_Z   4
loop_
 _symmetry_equiv_pos_site_id
 _symmetry_equiv_pos_as_xyz
  1  'x, y, z'
loop_
 _atom_site_type_symbol
 _atom_site_label
 _atom_site_symmetry_multiplicity
 _atom_site_fract_x
 _atom_site_fract_y
 _atom_site_fract_z
 _atom_site_occupancy
  Rb  Rb0  1  0.304504  0.445496  0.875000  1
  Rb  Rb1  1  0.125000  0.804504  0.054504  1
  Rb  Rb2  1  0.375000  0.195496  0.554504  1
  Rb  Rb3  1  0.554504  0.375000  0.195496  1
  Rb  Rb4  1  0.195496  0.554504  0.375000  1
  Rb  Rb5  1  0.054504  0.125000  0.804504  1
  Rb  Rb6  1  0.625000  0.695496  0.945496  1
  Rb  Rb7  1  0.875000  0.304504  0.445496  1
  Rb  Rb8  1  0.695496  0.945496  0.625000  1
  Rb  Rb9  1  0.445496  0.875000  0.304504  1
  Rb  Rb10  1  0.804504  0.054504  0.125000  1
  Rb  Rb11  1  0.945496  0.625000  0.695496  1
  Ce  Ce12  1  0.694933  0.305067  0.805067  1
  Ce  Ce13  1  0.194933  0.194933  0.194933  1
  Ce  Ce14  1  0.305067  0.805067  0.694933  1
  Ce  Ce15  1  0.805067  0.694933  0.305067  1
  Ce  Ce16  1  0.944933  0.444933  0.055067  1
  Ce  Ce17  1  0.444933  0.055067  0.944933  1
  Ce  Ce18  1  0.055067  0.944933  0.444933  1
  Ce  Ce19  1  0.555067  0.555067  0.555067  1
  N  N20  1  0.766164  0.625000  0.516164  1
  N  N21  1  0.846310  0.388322  0.672922  1
  N  N22  1  0.077078  0.361678  0.903690  1
  N  N23  1  0.233836  0.125000  0.983836  1
  N  N24  1  0.327078  0.346310  0.111678  1
  N  N25  1  0.422922  0.638322  0.403690  1
  N  N26  1  0.983836  0.233836  0.125000  1
  N  N27  1  0.346310  0.111678  0.327078  1
  N  N28  1  0.638322  0.403690  0.422922  1
  N  N29  1  0.375000  0.016164  0.733836  1
  N  N30  1  0.861678  0.596310  0.922922  1
  N  N31  1  0.388322  0.672922  0.846310  1
  N  N32  1  0.361678  0.903690  0.077078  1
  N  N33  1  0.516164  0.766164  0.625000  1
  N  N34  1  0.125000  0.983836  0.233836  1
  N  N35  1  0.153690  0.888322  0.827078  1
  N  N36  1  0.266164  0.875000  0.483836  1
  N  N37  1  0.172922  0.653690  0.611678  1
  N  N38  1  0.403690  0.422922  0.638322  1
  N  N39  1  0.596310  0.922922  0.861678  1
  N  N40  1  0.096310  0.577078  0.138322  1
  N  N41  1  0.733836  0.375000  0.016164  1
  N  N42  1  0.903690  0.077078  0.361678  1
  N  N43  1  0.827078  0.153690  0.888322  1
  N  N44  1  0.653690  0.611678  0.172922  1
  N  N45  1  0.138322  0.096310  0.577078  1
  N  N46  1  0.483836  0.266164  0.875000  1
  N  N47  1  0.611678  0.172922  0.653690  1
  N  N48  1  0.888322  0.827078  0.153690  1
  N  N49  1  0.922922  0.861678  0.596310  1
  N  N50  1  0.875000  0.483836  0.266164  1
  N  N51  1  0.625000  0.516164  0.766164  1
  N  N52  1  0.672922  0.846310  0.388322  1
  N  N53  1  0.111678  0.327078  0.346310  1
  N  N54  1  0.577078  0.138322  0.096310  1
  N  N55  1  0.016164  0.733836  0.375000  1
  O  O56  1  0.005455  0.151587  0.154360  1
  O  O57  1  0.326573  0.074891  0.245524  1
  O  O58  1  0.448588  0.400232  0.561700  1
  O  O59  1  0.076573  0.495524  0.175109  1
  O  O60  1  0.698588  0.688300  0.150232  1
  O  O61  1  0.811700  0.849768  0.198588  1
  O  O62  1  0.404360  0.098413  0.755455  1
  O  O63  1  0.051412  0.599768  0.061700  1
  O  O64  1  0.074515  0.381770  0.406317  1
  O  O65  1  0.173427  0.925109  0.745524  1
  O  O66  1  0.900232  0.938300  0.551412  1
  O  O67  1  0.650232  0.801412  0.311700  1
  O  O68  1  0.595640  0.598413  0.744545  1
  O  O69  1  0.425485  0.618230  0.906317  1
  O  O70  1  0.995524  0.324891  0.923427  1
  O  O71  1  0.188300  0.349768  0.301412  1
  O  O72  1  0.549191  0.200809  0.875000  1
  O  O73  1  0.098413  0.755455  0.404360  1
  O  O74  1  0.368230  0.675485  0.343683  1
  O  O75  1  0.675109  0.423427  0.504476  1
  O  O76  1  0.004476  0.824891  0.576573  1
  O  O77  1  0.875000  0.549191  0.200809  1
  O  O78  1  0.450809  0.700809  0.625000  1
  O  O79  1  0.656317  0.868230  0.824515  1
  O  O80  1  0.401587  0.244545  0.904360  1
  O  O81  1  0.118230  0.593683  0.574515  1
  O  O82  1  0.688300  0.150232  0.698588  1
  O  O83  1  0.700809  0.625000  0.450809  1
  O  O84  1  0.574891  0.254476  0.673427  1
  O  O85  1  0.301412  0.188300  0.349768  1
  O  O86  1  0.618230  0.906317  0.425485  1
  O  O87  1  0.175485  0.156317  0.631770  1
  O  O88  1  0.754476  0.826573  0.425109  1
  O  O89  1  0.631770  0.175485  0.156317  1
  O  O90  1  0.673427  0.574891  0.254476  1
  O  O91  1  0.154360  0.005455  0.151587  1
  O  O92  1  0.061700  0.051412  0.599768  1
  O  O93  1  0.848413  0.654360  0.494545  1
  O  O94  1  0.125000  0.049191  0.299191  1
  O  O95  1  0.095640  0.901587  0.255455  1
  O  O96  1  0.245524  0.326573  0.074891  1
  O  O97  1  0.745524  0.173427  0.925109  1
  O  O98  1  0.994545  0.651587  0.345640  1
  O  O99  1  0.901587  0.255455  0.095640  1
  O  O100  1  0.868230  0.824515  0.656317  1
  O  O101  1  0.948588  0.099768  0.438300  1
  O  O102  1  0.425109  0.754476  0.826573  1
  O  O103  1  0.505455  0.348413  0.845640  1
  O  O104  1  0.801412  0.311700  0.650232  1
  O  O105  1  0.625000  0.450809  0.700809  1
  O  O106  1  0.381770  0.406317  0.074515  1
  O  O107  1  0.345640  0.994545  0.651587  1
  O  O108  1  0.406317  0.074515  0.381770  1
  O  O109  1  0.175109  0.076573  0.495524  1
  O  O110  1  0.324891  0.923427  0.995524  1
  O  O111  1  0.598413  0.744545  0.595640  1
  O  O112  1  0.311700  0.650232  0.801412  1
  O  O113  1  0.349768  0.301412  0.188300  1
  O  O114  1  0.654360  0.494545  0.848413  1
  O  O115  1  0.504476  0.675109  0.423427  1
  O  O116  1  0.200809  0.875000  0.549191  1
  O  O117  1  0.906317  0.425485  0.618230  1
  O  O118  1  0.400232  0.561700  0.448588  1
  O  O119  1  0.299191  0.125000  0.049191  1
  O  O120  1  0.923427  0.995524  0.324891  1
  O  O121  1  0.824891  0.576573  0.004476  1
  O  O122  1  0.576573  0.004476  0.824891  1
  O  O123  1  0.151587  0.154360  0.005455  1
  O  O124  1  0.324515  0.843683  0.131770  1
  O  O125  1  0.495524  0.175109  0.076573  1
  O  O126  1  0.938300  0.551412  0.900232  1
  O  O127  1  0.845640  0.505455  0.348413  1
  O  O128  1  0.755455  0.404360  0.098413  1
  O  O129  1  0.198588  0.811700  0.849768  1
  O  O130  1  0.093683  0.925485  0.881770  1
  O  O131  1  0.375000  0.950809  0.799191  1
  O  O132  1  0.551412  0.900232  0.938300  1
  O  O133  1  0.244545  0.904360  0.401587  1
  O  O134  1  0.150232  0.698588  0.688300  1
  O  O135  1  0.423427  0.504476  0.675109  1
  O  O136  1  0.593683  0.574515  0.118230  1
  O  O137  1  0.254476  0.673427  0.574891  1
  O  O138  1  0.438300  0.948588  0.099768  1
  O  O139  1  0.074891  0.245524  0.326573  1
  O  O140  1  0.826573  0.425109  0.754476  1
  O  O141  1  0.675485  0.343683  0.368230  1
  O  O142  1  0.131770  0.324515  0.843683  1
  O  O143  1  0.574515  0.118230  0.593683  1
  O  O144  1  0.843683  0.131770  0.324515  1
  O  O145  1  0.494545  0.848413  0.654360  1
  O  O146  1  0.156317  0.631770  0.175485  1
  O  O147  1  0.799191  0.375000  0.950809  1
  O  O148  1  0.950809  0.799191  0.375000  1
  O  O149  1  0.904360  0.401587  0.244545  1
  O  O150  1  0.744545  0.595640  0.598413  1
  O  O151  1  0.255455  0.095640  0.901587  1
  O  O152  1  0.925485  0.881770  0.093683  1
  O  O153  1  0.881770  0.093683  0.925485  1
  O  O154  1  0.561700  0.448588  0.400232  1
  O  O155  1  0.049191  0.299191  0.125000  1
  O  O156  1  0.651587  0.345640  0.994545  1
  O  O157  1  0.348413  0.845640  0.505455  1
  O  O158  1  0.925109  0.745524  0.173427  1
  O  O159  1  0.343683  0.368230  0.675485  1
  O  O160  1  0.824515  0.656317  0.868230  1
  O  O161  1  0.099768  0.438300  0.948588  1
  O  O162  1  0.849768  0.198588  0.811700  1
  O  O163  1  0.599768  0.061700  0.051412  1
