# generated using pymatgen
data_CdI2
_symmetry_space_group_name_H-M   'P 1'
_cell_length_a   4.33968292
_cell_length_b   4.33968319
_cell_length_c   125.10129009
_cell_angle_alpha   90.00000000
_cell_angle_beta   90.00000000
_cell_angle_gamma   119.99999797
_symmetry_Int_Tables_number   1
_chemical_formula_structural   CdI2
_chemical_formula_sum   'Cd17 I34'
_cell_volume   2040.36776265
_cell_formula_units_Z   17
loop_
 _symmetry_equiv_pos_site_id
 _symmetry_equiv_pos_as_xyz
  1  'x, y, z'
loop_
 _atom_site_type_symbol
 _atom_site_label
 _atom_site_symmetry_multiplicity
 _atom_site_fract_x
 _atom_site_fract_y
 _atom_site_fract_z
 _atom_site_occupancy
  Cd  Cd0  1  0.666667  0.333333  0.485292  1
  Cd  Cd1  1  0.666667  0.333333  0.779425  1
  Cd  Cd2  1  0.000000  0.000000  0.661756  1
  Cd  Cd3  1  0.666667  0.333333  0.191155  1
  Cd  Cd4  1  0.000000  0.000000  0.544110  1
  Cd  Cd5  1  0.666667  0.333333  0.720604  1
  Cd  Cd6  1  0.000000  0.000000  0.955883  1
  Cd  Cd7  1  0.666667  0.333333  0.897047  1
  Cd  Cd8  1  0.666667  0.333333  0.426479  1
  Cd  Cd9  1  0.000000  0.000000  0.838237  1
  Cd  Cd10  1  0.666667  0.333333  0.132364  1
  Cd  Cd11  1  0.666667  0.333333  0.014725  1
  Cd  Cd12  1  0.666667  0.333333  0.308810  1
  Cd  Cd13  1  0.000000  0.000000  0.073530  1
  Cd  Cd14  1  0.000000  0.000000  0.249995  1
  Cd  Cd15  1  0.000000  0.000000  0.367659  1
  Cd  Cd16  1  0.666667  0.333333  0.602933  1
  I  I17  1  0.000000  0.000000  0.412667  1
  I  I18  1  0.333333  0.666667  0.322617  1
  I  I19  1  0.333333  0.666667  0.440294  1
  I  I20  1  0.333333  0.666667  0.557918  1
  I  I21  1  0.666667  0.333333  0.942076  1
  I  I22  1  0.000000  0.000000  0.706795  1
  I  I23  1  0.333333  0.666667  0.146169  1
  I  I24  1  0.666667  0.333333  0.353845  1
  I  I25  1  0.666667  0.333333  0.647949  1
  I  I26  1  0.000000  0.000000  0.294996  1
  I  I27  1  0.000000  0.000000  0.883238  1
  I  I28  1  0.333333  0.666667  0.969683  1
  I  I29  1  0.333333  0.666667  0.204961  1
  I  I30  1  0.000000  0.000000  0.471482  1
  I  I31  1  0.333333  0.666667  0.675558  1
  I  I32  1  0.000000  0.000000  0.118568  1
  I  I33  1  0.333333  0.666667  0.381463  1
  I  I34  1  0.666667  0.333333  0.059716  1
  I  I35  1  0.333333  0.666667  0.028533  1
  I  I36  1  0.000000  0.000000  0.765627  1
  I  I37  1  0.000000  0.000000  0.000920  1
  I  I38  1  0.666667  0.333333  0.530310  1
  I  I39  1  0.000000  0.000000  0.177342  1
  I  I40  1  0.333333  0.666667  0.616745  1
  I  I41  1  0.666667  0.333333  0.236190  1
  I  I42  1  0.333333  0.666667  0.910858  1
  I  I43  1  0.333333  0.666667  0.087331  1
  I  I44  1  0.333333  0.666667  0.793231  1
  I  I45  1  0.666667  0.333333  0.824436  1
  I  I46  1  0.000000  0.000000  0.589129  1
  I  I47  1  0.333333  0.666667  0.734414  1
  I  I48  1  0.333333  0.666667  0.263801  1
  I  I49  1  0.333333  0.666667  0.852040  1
  I  I50  1  0.333333  0.666667  0.499094  1
