# generated using pymatgen
data_Cs3Cu2(BiS2)5
_symmetry_space_group_name_H-M   'P 1'
_cell_length_a   4.11449963
_cell_length_b   15.21054544
_cell_length_c   18.19946480
_cell_angle_alpha   90.00000000
_cell_angle_beta   90.00000000
_cell_angle_gamma   90.00000000
_symmetry_Int_Tables_number   1
_chemical_formula_structural   Cs3Cu2(BiS2)5
_chemical_formula_sum   'Cs6 Cu4 Bi10 S20'
_cell_volume   1138.99136641
_cell_formula_units_Z   2
loop_
 _symmetry_equiv_pos_site_id
 _symmetry_equiv_pos_as_xyz
  1  'x, y, z'
loop_
 _atom_site_type_symbol
 _atom_site_label
 _atom_site_symmetry_multiplicity
 _atom_site_fract_x
 _atom_site_fract_y
 _atom_site_fract_z
 _atom_site_occupancy
  Cs  Cs0  1  0.000000  0.000000  0.500000  1
  Cs  Cs1  1  0.000000  0.522440  0.752320  1
  Cs  Cs2  1  0.500000  0.977560  0.252320  1
  Cs  Cs3  1  0.000000  0.477560  0.247680  1
  Cs  Cs4  1  0.500000  0.022440  0.747680  1
  Cs  Cs5  1  0.500000  0.500000  0.000000  1
  Cu  Cu6  1  0.000000  0.779508  0.759657  1
  Cu  Cu7  1  0.500000  0.279508  0.740343  1
  Cu  Cu8  1  0.000000  0.220492  0.240343  1
  Cu  Cu9  1  0.500000  0.720492  0.259657  1
  Bi  Bi10  1  0.000000  0.711316  0.409748  1
  Bi  Bi11  1  0.500000  0.244245  0.394342  1
  Bi  Bi12  1  0.000000  0.288684  0.590252  1
  Bi  Bi13  1  0.500000  0.755755  0.605658  1
  Bi  Bi14  1  0.000000  0.255755  0.894342  1
  Bi  Bi15  1  0.500000  0.211316  0.090252  1
  Bi  Bi16  1  0.500000  0.788684  0.909748  1
  Bi  Bi17  1  0.000000  0.744245  0.105658  1
  Bi  Bi18  1  0.000000  0.000000  0.000000  1
  Bi  Bi19  1  0.500000  0.500000  0.500000  1
  S  S20  1  0.500000  0.361395  0.849210  1
  S  S21  1  0.500000  0.596862  0.365701  1
  S  S22  1  0.000000  0.385562  0.441571  1
  S  S23  1  0.000000  0.861395  0.650790  1
  S  S24  1  0.500000  0.821998  0.470912  1
  S  S25  1  0.500000  0.403138  0.634299  1
  S  S26  1  0.000000  0.903138  0.865701  1
  S  S27  1  0.000000  0.792806  0.279180  1
  S  S28  1  0.000000  0.096862  0.134299  1
  S  S29  1  0.500000  0.707194  0.779180  1
  S  S30  1  0.500000  0.114438  0.941571  1
  S  S31  1  0.500000  0.292806  0.220820  1
  S  S32  1  0.000000  0.207194  0.720820  1
  S  S33  1  0.000000  0.321998  0.029088  1
  S  S34  1  0.000000  0.678002  0.970912  1
  S  S35  1  0.500000  0.885562  0.058429  1
  S  S36  1  0.500000  0.638605  0.150790  1
  S  S37  1  0.000000  0.138605  0.349210  1
  S  S38  1  0.500000  0.178002  0.529088  1
  S  S39  1  0.000000  0.614438  0.558429  1
