# generated using pymatgen
data_NaHSO4
_symmetry_space_group_name_H-M   'P 1'
_cell_length_a   8.90224921
_cell_length_b   7.60294918
_cell_length_c   5.18827529
_cell_angle_alpha   90.00000000
_cell_angle_beta   100.25745425
_cell_angle_gamma   90.00000000
_symmetry_Int_Tables_number   1
_chemical_formula_structural   NaHSO4
_chemical_formula_sum   'Na4 H4 S4 O16'
_cell_volume   345.54744532
_cell_formula_units_Z   4
loop_
 _symmetry_equiv_pos_site_id
 _symmetry_equiv_pos_as_xyz
  1  'x, y, z'
loop_
 _atom_site_type_symbol
 _atom_site_label
 _atom_site_symmetry_multiplicity
 _atom_site_fract_x
 _atom_site_fract_y
 _atom_site_fract_z
 _atom_site_occupancy
  Na  Na0  1  0.298516  0.990731  0.285409  1
  Na  Na1  1  0.798516  0.509269  0.785409  1
  Na  Na2  1  0.701484  0.009269  0.714591  1
  Na  Na3  1  0.201484  0.490731  0.214591  1
  H  H4  1  0.127025  0.038526  0.746391  1
  H  H5  1  0.627025  0.461474  0.246391  1
  H  H6  1  0.872975  0.961474  0.253609  1
  H  H7  1  0.372975  0.538526  0.753609  1
  S  S8  1  0.063788  0.773741  0.659290  1
  S  S9  1  0.563788  0.726259  0.159290  1
  S  S10  1  0.936212  0.226259  0.340710  1
  S  S11  1  0.436212  0.273741  0.840710  1
  O  O12  1  0.165627  0.756838  0.467054  1
  O  O13  1  0.665627  0.743162  0.967054  1
  O  O14  1  0.834373  0.243162  0.532946  1
  O  O15  1  0.334373  0.256838  0.032946  1
  O  O16  1  0.907998  0.829885  0.541453  1
  O  O17  1  0.407998  0.670115  0.041453  1
  O  O18  1  0.092002  0.170115  0.458547  1
  O  O19  1  0.592002  0.329885  0.958547  1
  O  O20  1  0.133503  0.928687  0.855570  1
  O  O21  1  0.633503  0.571313  0.355570  1
  O  O22  1  0.866497  0.071313  0.144430  1
  O  O23  1  0.366497  0.428687  0.644430  1
  O  O24  1  0.062108  0.620154  0.825723  1
  O  O25  1  0.562108  0.879846  0.325723  1
  O  O26  1  0.937892  0.379846  0.174277  1
  O  O27  1  0.437892  0.120154  0.674277  1
