# generated using pymatgen
data_Sm5(Mo3Se4)12
_symmetry_space_group_name_H-M   'P 1'
_cell_length_a   6.80680360
_cell_length_b   81.56737828
_cell_length_c   9.70325193
_cell_angle_alpha   44.45443178
_cell_angle_beta   88.56073263
_cell_angle_gamma   88.94602682
_symmetry_Int_Tables_number   1
_chemical_formula_structural   Sm5(Mo3Se4)12
_chemical_formula_sum   'Sm10 Mo72 Se96'
_cell_volume   3771.81111280
_cell_formula_units_Z   2
loop_
 _symmetry_equiv_pos_site_id
 _symmetry_equiv_pos_as_xyz
  1  'x, y, z'
loop_
 _atom_site_type_symbol
 _atom_site_label
 _atom_site_symmetry_multiplicity
 _atom_site_fract_x
 _atom_site_fract_y
 _atom_site_fract_z
 _atom_site_occupancy
  Sm  Sm0  1  0.000000  0.083333  0.000004  1
  Sm  Sm1  1  0.999864  0.249821  0.001278  1
  Sm  Sm2  1  0.999722  0.333307  0.000216  1
  Sm  Sm3  1  0.000064  0.416681  0.999890  1
  Sm  Sm4  1  -0.000001  0.500001  0.999988  1
  Sm  Sm5  1  0.000015  0.583339  -0.000039  1
  Sm  Sm6  1  0.999989  0.666661  0.000035  1
  Sm  Sm7  1  0.999918  0.749978  0.000160  1
  Sm  Sm8  1  0.000304  0.833366  0.999737  1
  Sm  Sm9  1  0.000125  0.916845  0.998723  1
  Mo  Mo10  1  0.232799  0.072060  0.559494  1
  Mo  Mo11  1  0.234659  0.155424  0.557066  1
  Mo  Mo12  1  0.232886  0.238484  0.559976  1
  Mo  Mo13  1  0.233926  0.321880  0.559957  1
  Mo  Mo14  1  0.234492  0.405284  0.559852  1
  Mo  Mo15  1  0.234354  0.488596  0.559974  1
  Mo  Mo16  1  0.234297  0.571927  0.560013  1
  Mo  Mo17  1  0.234214  0.655277  0.559848  1
  Mo  Mo18  1  0.234946  0.738630  0.559763  1
  Mo  Mo19  1  0.234107  0.821909  0.560055  1
  Mo  Mo20  1  0.424088  0.026841  0.233323  1
  Mo  Mo21  1  0.233360  0.905443  0.559849  1
  Mo  Mo22  1  0.422662  0.110435  0.235733  1
  Mo  Mo23  1  0.444508  0.015681  0.577828  1
  Mo  Mo24  1  0.234559  0.988809  0.556838  1
  Mo  Mo25  1  0.424337  0.193493  0.233315  1
  Mo  Mo26  1  0.439272  0.099209  0.575207  1
  Mo  Mo27  1  0.423704  0.277094  0.234677  1
  Mo  Mo28  1  0.444336  0.182289  0.578287  1
  Mo  Mo29  1  0.423413  0.360412  0.234826  1
  Mo  Mo30  1  0.440456  0.265767  0.576982  1
  Mo  Mo31  1  0.423292  0.443753  0.234786  1
  Mo  Mo32  1  0.440549  0.349028  0.576626  1
  Mo  Mo33  1  0.423278  0.527103  0.234796  1
  Mo  Mo34  1  0.440139  0.432388  0.577014  1
  Mo  Mo35  1  0.423305  0.610445  0.234672  1
  Mo  Mo36  1  0.440120  0.515725  0.576816  1
  Mo  Mo37  1  0.423324  0.693766  0.234742  1
  Mo  Mo38  1  0.560694  0.067451  0.424823  1
  Mo  Mo39  1  0.440099  0.599066  0.576814  1
  Mo  Mo40  1  0.423207  0.777068  0.235277  1
  Mo  Mo41  1  0.555466  0.150985  0.422269  1
  Mo  Mo42  1  0.440202  0.682418  0.576783  1
  Mo  Mo43  1  0.577277  0.056233  0.764263  1
  Mo  Mo44  1  0.423336  0.860425  0.234860  1
  Mo  Mo45  1  0.561665  0.234088  0.424907  1
  Mo  Mo46  1  0.440200  0.765723  0.576735  1
  Mo  Mo47  1  0.575857  0.139832  0.766544  1
  Mo  Mo48  1  0.422194  0.943887  0.234882  1
  Mo  Mo49  1  0.559704  0.317630  0.423565  1
  Mo  Mo50  1  0.440201  0.849025  0.576547  1
  Mo  Mo51  1  0.577852  0.222781  0.765411  1
  Mo  Mo52  1  0.559836  0.400917  0.423224  1
  Mo  Mo53  1  0.438321  0.932559  0.574943  1
  Mo  Mo54  1  0.576605  0.306233  0.765178  1
  Mo  Mo55  1  0.559845  0.484271  0.423192  1
  Mo  Mo56  1  0.576804  0.389561  0.765174  1
  Mo  Mo57  1  0.559875  0.567596  0.423218  1
  Mo  Mo58  1  0.576672  0.472905  0.765185  1
  Mo  Mo59  1  0.559987  0.650935  0.423085  1
  Mo  Mo60  1  0.576676  0.556223  0.765291  1
  Mo  Mo61  1  0.559813  0.734307  0.423002  1
  Mo  Mo62  1  0.576792  0.639551  0.765349  1
  Mo  Mo63  1  0.559417  0.817633  0.423391  1
  Mo  Mo64  1  0.576655  0.722944  0.764810  1
  Mo  Mo65  1  0.559497  0.900917  0.422916  1
  Mo  Mo66  1  0.576619  0.806266  0.765045  1
  Mo  Mo67  1  0.765459  0.011237  0.442972  1
  Mo  Mo68  1  0.555657  0.984372  0.421733  1
  Mo  Mo69  1  0.576222  0.889590  0.765252  1
  Mo  Mo70  1  0.767227  0.094604  0.440553  1
  Mo  Mo71  1  0.575652  0.973164  0.766718  1
  Mo  Mo72  1  0.765408  0.177849  0.443228  1
  Mo  Mo73  1  0.766663  0.261239  0.440066  1
  Mo  Mo74  1  0.766012  0.344747  0.440032  1
  Mo  Mo75  1  0.765527  0.428052  0.440120  1
  Mo  Mo76  1  0.765692  0.511398  0.440090  1
  Mo  Mo77  1  0.765755  0.594734  0.440025  1
  Mo  Mo78  1  0.765631  0.678081  0.439937  1
  Mo  Mo79  1  0.764981  0.761374  0.440212  1
  Mo  Mo80  1  0.766080  0.844770  0.440118  1
  Mo  Mo81  1  0.766959  0.928208  0.440016  1
  Se  Se82  1  0.122757  0.031719  0.376178  1
  Se  Se83  1  0.123697  0.114726  0.374908  1
  Se  Se84  1  0.122900  0.198381  0.376219  1
  Se  Se85  1  0.123062  0.281907  0.373838  1
  Se  Se86  1  0.122262  0.365179  0.373260  1
  Se  Se87  1  0.122254  0.448531  0.373446  1
  Se  Se88  1  0.235283  0.000102  0.235040  1
  Se  Se89  1  0.122219  0.531850  0.373476  1
  Se  Se90  1  0.240044  0.083148  0.240632  1
  Se  Se91  1  0.122210  0.615196  0.373418  1
  Se  Se92  1  0.234987  0.166817  0.234842  1
  Se  Se93  1  0.122139  0.698544  0.373326  1
  Se  Se94  1  0.241926  0.062253  0.877536  1
  Se  Se95  1  0.239853  0.249912  0.240006  1
  Se  Se96  1  0.122463  0.781855  0.373436  1
  Se  Se97  1  0.249453  0.145688  0.875884  1
  Se  Se98  1  0.238921  0.333336  0.239959  1
  Se  Se99  1  0.122186  0.865176  0.373320  1
  Se  Se100  1  0.241872  0.229027  0.876519  1
  Se  Se101  1  0.239622  0.416641  0.239634  1
  Se  Se102  1  0.122987  0.948077  0.373967  1
  Se  Se103  1  0.243820  0.312343  0.877736  1
  Se  Se104  1  0.239535  0.499979  0.239701  1
  Se  Se105  1  0.244294  0.395739  0.877778  1
  Se  Se106  1  0.239576  0.583314  0.239635  1
  Se  Se107  1  0.244312  0.479058  0.877723  1
  Se  Se108  1  0.239429  0.666653  0.239591  1
  Se  Se109  1  0.244348  0.562381  0.877828  1
  Se  Se110  1  0.376155  0.031053  0.750829  1
  Se  Se111  1  0.239766  0.749975  0.239709  1
  Se  Se112  1  0.244229  0.645726  0.877807  1
  Se  Se113  1  0.373999  0.113828  0.757300  1
  Se  Se114  1  0.239372  0.833273  0.240103  1
  Se  Se115  1  0.244349  0.729077  0.877754  1
  Se  Se116  1  0.375255  0.197693  0.751244  1
  Se  Se117  1  0.239756  0.916549  0.240301  1
  Se  Se118  1  0.244255  0.812350  0.877672  1
  Se  Se119  1  0.373362  0.280472  0.756693  1
  Se  Se120  1  0.244021  0.895635  0.878668  1
  Se  Se121  1  0.373370  0.363845  0.755759  1
  Se  Se122  1  0.249730  0.979041  0.875847  1
  Se  Se123  1  0.373342  0.447201  0.755865  1
  Se  Se124  1  0.373387  0.530521  0.755895  1
  Se  Se125  1  0.373430  0.613851  0.755932  1
  Se  Se126  1  0.373452  0.697213  0.755682  1
  Se  Se127  1  0.373216  0.780534  0.755836  1
  Se  Se128  1  0.374075  0.863790  0.755993  1
  Se  Se129  1  0.373855  0.947202  0.756964  1
  Se  Se130  1  0.626003  0.052841  0.242686  1
  Se  Se131  1  0.623832  0.135614  0.249185  1
  Se  Se132  1  0.626151  0.219465  0.242993  1
  Se  Se133  1  0.625922  0.302878  0.244028  1
  Se  Se134  1  0.626701  0.386134  0.244057  1
  Se  Se135  1  0.626568  0.469475  0.244194  1
  Se  Se136  1  0.626556  0.552799  0.244177  1
  Se  Se137  1  0.750563  0.020976  0.124105  1
  Se  Se138  1  0.626633  0.636145  0.244071  1
  Se  Se139  1  0.758076  0.104415  0.122444  1
  Se  Se140  1  0.626758  0.719477  0.244153  1
  Se  Se141  1  0.750240  0.187627  0.124160  1
  Se  Se142  1  0.759946  0.083516  0.759385  1
  Se  Se143  1  0.626589  0.802798  0.244402  1
  Se  Se144  1  0.756089  0.271039  0.121251  1
  Se  Se145  1  0.764704  0.166567  0.764936  1
  Se  Se146  1  0.626639  0.886198  0.243318  1
  Se  Se147  1  0.755815  0.354315  0.122371  1
  Se  Se148  1  0.760264  0.250117  0.759767  1
  Se  Se149  1  0.624802  0.968968  0.248714  1
  Se  Se150  1  0.755759  0.437600  0.122164  1
  Se  Se151  1  0.760671  0.333390  0.759881  1
  Se  Se152  1  0.755679  0.520943  0.122259  1
  Se  Se153  1  0.760322  0.416688  0.760404  1
  Se  Se154  1  0.755671  0.604280  0.122213  1
  Se  Se155  1  0.760480  0.500018  0.760316  1
  Se  Se156  1  0.755679  0.687613  0.122177  1
  Se  Se157  1  0.876337  0.051937  0.625111  1
  Se  Se158  1  0.760459  0.583352  0.760350  1
  Se  Se159  1  0.755562  0.770912  0.122332  1
  Se  Se160  1  0.877258  0.134948  0.623837  1
  Se  Se161  1  0.760511  0.666691  0.760399  1
  Se  Se162  1  0.756160  0.854313  0.122295  1
  Se  Se163  1  0.877147  0.218597  0.625891  1
  Se  Se164  1  0.760267  0.750025  0.760340  1
  Se  Se165  1  0.758085  0.937649  0.123486  1
  Se  Se166  1  0.877795  0.301488  0.626721  1
  Se  Se167  1  0.761122  0.833324  0.760082  1
  Se  Se168  1  0.877732  0.384794  0.626556  1
  Se  Se169  1  0.760130  0.916765  0.759847  1
  Se  Se170  1  0.877808  0.468140  0.626577  1
  Se  Se171  1  0.765043  0.999852  0.765158  1
  Se  Se172  1  0.877783  0.551471  0.626580  1
  Se  Se173  1  0.877815  0.634809  0.626516  1
  Se  Se174  1  0.877604  0.718148  0.626581  1
  Se  Se175  1  0.877744  0.801477  0.626830  1
  Se  Se176  1  0.876978  0.884764  0.626186  1
  Se  Se177  1  0.877085  0.968290  0.623758  1
