# generated using pymatgen
data_Ag13(BiI4)14
_symmetry_space_group_name_H-M   'P 1'
_cell_length_a   9.02745747
_cell_length_b   9.05907600
_cell_length_c   62.63167763
_cell_angle_alpha   60.31875893
_cell_angle_beta   60.34209270
_cell_angle_gamma   58.21055648
_symmetry_Int_Tables_number   1
_chemical_formula_structural   Ag13(BiI4)14
_chemical_formula_sum   'Ag13 Bi14 I56'
_cell_volume   3587.60035843
_cell_formula_units_Z   1
loop_
 _symmetry_equiv_pos_site_id
 _symmetry_equiv_pos_as_xyz
  1  'x, y, z'
loop_
 _atom_site_type_symbol
 _atom_site_label
 _atom_site_symmetry_multiplicity
 _atom_site_fract_x
 _atom_site_fract_y
 _atom_site_fract_z
 _atom_site_occupancy
  Ag  Ag0  1  0.500000  0.000000  0.000000  1
  Ag  Ag1  1  0.001754  0.504209  0.141685  1
  Ag  Ag2  1  0.503673  0.999684  0.142007  1
  Ag  Ag3  1  0.500891  0.000252  0.285475  1
  Ag  Ag4  1  0.000409  0.500989  0.285448  1
  Ag  Ag5  1  0.999860  0.499553  0.571481  1
  Ag  Ag6  1  0.499584  0.999935  0.571492  1
  Ag  Ag7  1  0.500416  0.000065  0.428508  1
  Ag  Ag8  1  0.000140  0.500447  0.428519  1
  Ag  Ag9  1  0.499109  0.999748  0.714526  1
  Ag  Ag10  1  0.999591  0.499011  0.714552  1
  Ag  Ag11  1  0.496327  0.000316  0.857993  1
  Ag  Ag12  1  0.998246  0.495791  0.858315  1
  Bi  Bi13  1  0.000000  0.000000  0.000000  1
  Bi  Bi14  1  0.003593  0.007422  0.069748  1
  Bi  Bi15  1  0.000673  0.998909  0.142383  1
  Bi  Bi16  1  0.000114  0.999607  0.285553  1
  Bi  Bi17  1  0.999837  0.000160  0.356989  1
  Bi  Bi18  1  0.999990  0.999997  0.571486  1
  Bi  Bi19  1  0.000163  0.999840  0.643011  1
  Bi  Bi20  1  0.999609  0.000400  0.213892  1
  Bi  Bi21  1  0.000000  0.000000  0.500000  1
  Bi  Bi22  1  0.999886  0.000393  0.714447  1
  Bi  Bi23  1  0.000010  0.000003  0.428514  1
  Bi  Bi24  1  0.996407  0.992578  0.930252  1
  Bi  Bi25  1  0.000391  0.999600  0.786108  1
  Bi  Bi26  1  0.999327  0.001091  0.857617  1
  I  I27  1  0.248926  0.224224  0.035704  1
  I  I28  1  0.236043  0.737061  0.037733  1
  I  I29  1  0.239325  0.237283  0.111535  1
  I  I30  1  0.749546  0.245997  0.036323  1
  I  I31  1  0.255450  0.754024  0.107073  1
  I  I32  1  0.237980  0.237588  0.176955  1
  I  I33  1  0.759660  0.258002  0.105900  1
  I  I34  1  0.241756  0.742808  0.179953  1
  I  I35  1  0.238321  0.238139  0.254436  1
  I  I36  1  0.744748  0.781196  0.030894  1
  I  I37  1  0.759837  0.761069  0.108867  1
  I  I38  1  0.742605  0.243000  0.179860  1
  I  I39  1  0.256686  0.756084  0.249383  1
  I  I40  1  0.237881  0.237831  0.320398  1
  I  I41  1  0.756175  0.256644  0.249196  1
  I  I42  1  0.760356  0.762593  0.174558  1
  I  I43  1  0.243009  0.743126  0.322609  1
  I  I44  1  0.238410  0.238186  0.397249  1
  I  I45  1  0.743023  0.242952  0.322483  1
  I  I46  1  0.760730  0.760936  0.251292  1
  I  I47  1  0.256717  0.756781  0.392035  1
  I  I48  1  0.238296  0.238276  0.463154  1
  I  I49  1  0.756701  0.256566  0.391909  1
  I  I50  1  0.761442  0.761743  0.317174  1
  I  I51  1  0.242977  0.743382  0.465365  1
  I  I52  1  0.238445  0.238210  0.540007  1
  I  I53  1  0.743094  0.242944  0.465240  1
  I  I54  1  0.761232  0.761268  0.394077  1
  I  I55  1  0.256906  0.757056  0.534760  1
  I  I56  1  0.238768  0.238732  0.605923  1
  I  I57  1  0.757023  0.256618  0.534635  1
  I  I58  1  0.761555  0.761790  0.459993  1
  I  I59  1  0.243299  0.743434  0.608091  1
  I  I60  1  0.238558  0.238257  0.682826  1
  I  I61  1  0.761704  0.761724  0.536846  1
  I  I62  1  0.743283  0.243219  0.607965  1
  I  I63  1  0.256977  0.757048  0.677517  1
  I  I64  1  0.239270  0.239064  0.748708  1
  I  I65  1  0.756991  0.256874  0.677391  1
  I  I66  1  0.761590  0.761814  0.602751  1
  I  I67  1  0.243825  0.743356  0.750804  1
  I  I68  1  0.239644  0.237407  0.825442  1
  I  I69  1  0.762119  0.762169  0.679602  1
  I  I70  1  0.743314  0.243916  0.750617  1
  I  I71  1  0.240163  0.238931  0.891133  1
  I  I72  1  0.257395  0.757000  0.820141  1
  I  I73  1  0.758244  0.257192  0.820047  1
  I  I74  1  0.761679  0.761861  0.745564  1
  I  I75  1  0.240340  0.741998  0.894100  1
  I  I76  1  0.255252  0.218804  0.969106  1
  I  I77  1  0.744550  0.245976  0.892927  1
  I  I78  1  0.762020  0.762412  0.823045  1
  I  I79  1  0.250454  0.754003  0.963677  1
  I  I80  1  0.763957  0.262939  0.962267  1
  I  I81  1  0.760675  0.762717  0.888465  1
  I  I82  1  0.751074  0.775776  0.964296  1
