# generated using pymatgen
data_AsH3CNOF9
_symmetry_space_group_name_H-M   'P 1'
_cell_length_a   5.23087458
_cell_length_b   8.44333565
_cell_length_c   8.89453321
_cell_angle_alpha   90.15286365
_cell_angle_beta   94.03739159
_cell_angle_gamma   104.09095789
_symmetry_Int_Tables_number   1
_chemical_formula_structural   AsH3CNOF9
_chemical_formula_sum   'As2 H6 C2 N2 O2 F18'
_cell_volume   379.99071671
_cell_formula_units_Z   2
loop_
 _symmetry_equiv_pos_site_id
 _symmetry_equiv_pos_as_xyz
  1  'x, y, z'
loop_
 _atom_site_type_symbol
 _atom_site_label
 _atom_site_symmetry_multiplicity
 _atom_site_fract_x
 _atom_site_fract_y
 _atom_site_fract_z
 _atom_site_occupancy
  As  As0  1  0.985395  0.748382  0.661454  1
  As  As1  1  0.014605  0.251618  0.338546  1
  H  H2  1  0.365255  0.707419  0.359593  1
  H  H3  1  0.634745  0.292581  0.640407  1
  H  H4  1  0.606764  0.868992  0.307615  1
  H  H5  1  0.393236  0.131008  0.692385  1
  H  H6  1  0.561735  0.543599  0.255006  1
  H  H7  1  0.438265  0.456401  0.744994  1
  C  C8  1  0.313949  0.777114  0.132465  1
  C  C9  1  0.686051  0.222886  0.867535  1
  N  N10  1  0.484478  0.754564  0.272806  1
  N  N11  1  0.515522  0.245436  0.727194  1
  O  O12  1  0.656282  0.657412  0.237626  1
  O  O13  1  0.343718  0.342588  0.762374  1
  F  F14  1  0.133311  0.757158  0.486566  1
  F  F15  1  0.866689  0.242842  0.513434  1
  F  F16  1  0.205575  0.940635  0.717269  1
  F  F17  1  0.794425  0.059365  0.282731  1
  F  F18  1  0.764459  0.556816  0.606323  1
  F  F19  1  0.235541  0.443184  0.393677  1
  F  F20  1  0.757147  0.851097  0.577293  1
  F  F21  1  0.242853  0.148903  0.422707  1
  F  F22  1  0.220008  0.646494  0.738817  1
  F  F23  1  0.779992  0.353506  0.261183  1
  F  F24  1  0.841565  0.741963  0.834039  1
  F  F25  1  0.158435  0.258037  0.165961  1
  F  F26  1  0.473392  0.833989  0.024717  1
  F  F27  1  0.526608  0.166011  0.975283  1
  F  F28  1  0.175606  0.884116  0.167187  1
  F  F29  1  0.824394  0.115884  0.832813  1
  F  F30  1  0.156421  0.631315  0.092454  1
  F  F31  1  0.843579  0.368685  0.907546  1
