# generated using pymatgen
data_Sm4AlSi5(NO)7
_symmetry_space_group_name_H-M   'P 1'
_cell_length_a   6.97112281
_cell_length_b   6.83529004
_cell_length_c   19.97813866
_cell_angle_alpha   83.12059963
_cell_angle_beta   87.56162110
_cell_angle_gamma   90.34241593
_symmetry_Int_Tables_number   1
_chemical_formula_structural   Sm4AlSi5(NO)7
_chemical_formula_sum   'Sm12 Al3 Si15 N21 O21'
_cell_volume   944.18307661
_cell_formula_units_Z   3
loop_
 _symmetry_equiv_pos_site_id
 _symmetry_equiv_pos_as_xyz
  1  'x, y, z'
loop_
 _atom_site_type_symbol
 _atom_site_label
 _atom_site_symmetry_multiplicity
 _atom_site_fract_x
 _atom_site_fract_y
 _atom_site_fract_z
 _atom_site_occupancy
  Sm  Sm0  1  0.375617  0.297022  0.274804  1
  Sm  Sm1  1  0.390478  0.360519  0.578979  1
  Sm  Sm2  1  0.440415  0.626372  0.111018  1
  Sm  Sm3  1  0.369336  0.773927  0.390245  1
  Sm  Sm4  1  0.391948  0.238654  0.934683  1
  Sm  Sm5  1  0.370612  0.664128  0.740436  1
  Sm  Sm6  1  0.598206  0.125413  0.085254  1
  Sm  Sm7  1  0.643638  0.190642  0.432794  1
  Sm  Sm8  1  0.613780  0.247749  0.754801  1
  Sm  Sm9  1  0.683256  0.816416  0.592534  1
  Sm  Sm10  1  0.657017  0.791784  0.247260  1
  Sm  Sm11  1  0.597666  0.711167  0.911317  1
  Al  Al12  1  -0.030201  0.962800  0.328691  1
  Al  Al13  1  0.790431  0.338939  0.611208  1
  Al  Al14  1  0.869793  0.394866  0.988670  1
  Si  Si15  1  -0.071437  0.007807  0.948993  1
  Si  Si16  1  0.034264  0.520084  0.170477  1
  Si  Si17  1  0.029928  0.932344  0.655979  1
  Si  Si18  1  0.005512  0.411251  0.826229  1
  Si  Si19  1  0.904494  0.728564  0.025932  1
  Si  Si20  1  0.851243  0.337518  0.297003  1
  Si  Si21  1  0.826447  0.558048  0.379536  1
  Si  Si22  1  0.829813  0.730726  0.735055  1
  Si  Si23  1  0.120682  0.132756  0.104589  1
  Si  Si24  1  0.168692  0.124014  0.447559  1
  Si  Si25  1  0.206815  0.872385  0.210126  1
  Si  Si26  1  0.159629  0.120971  0.735513  1
  Si  Si27  1  0.246730  0.903568  0.540270  1
  Si  Si28  1  0.198278  0.835506  0.864311  1
  Si  Si29  1  0.063388  0.516645  0.504482  1
  N  N30  1  0.589832  0.561026  0.353928  1
  N  N31  1  0.636951  0.496781  0.661250  1
  N  N32  1  0.210689  0.617615  0.210491  1
  N  N33  1  0.259126  0.421840  0.838566  1
  N  N34  1  0.249134  0.674608  0.510410  1
  N  N35  1  0.290549  0.592589  0.876637  1
  N  N36  1  0.666867  0.157629  0.305768  1
  N  N37  1  0.829917  0.525507  0.472599  1
  N  N38  1  0.687990  0.959705  0.343996  1
  N  N39  1  0.678999  0.008111  0.969347  1
  N  N40  1  0.630101  0.467760  0.183975  1
  N  N41  1  0.815132  0.467059  0.214876  1
  N  N42  1  0.663169  0.832315  0.025570  1
  N  N43  1  0.777175  0.072203  0.657903  1
  N  N44  1  0.671955  0.601764  0.798606  1
  N  N45  1  0.681026  0.435905  0.521724  1
  N  N46  1  0.754659  0.449626  0.849234  1
  N  N47  1  0.678571  0.944576  0.714751  1
  N  N48  1  0.440588  0.917309  0.163689  1
  N  N49  1  0.470638  0.030454  0.536529  1
  N  N50  1  0.286781  0.968455  0.791471  1
  O  O51  1  0.610007  0.417594  -0.005469  1
  O  O52  1  0.294987  0.163244  0.043828  1
  O  O53  1  0.295714  0.930207  0.284158  1
  O  O54  1  0.170092  0.341716  0.141563  1
  O  O55  1  0.347989  0.130594  0.389255  1
  O  O56  1  0.260947  0.823868  0.636629  1
  O  O57  1  0.191591  0.357883  0.464466  1
  O  O58  1  0.309899  0.295735  0.699372  1
  O  O59  1  0.310320  0.914300  0.927050  1
  O  O60  1  0.005349  0.946623  0.569756  1
  O  O61  1  0.966469  0.898555  0.239235  1
  O  O62  1  0.961030  0.887362  0.879492  1
  O  O63  1  0.963539  0.082783  0.414079  1
  O  O64  1  0.920048  0.222229  0.063258  1
  O  O65  1  0.978976  0.233146  0.775335  1
  O  O66  1  -0.021010  0.673303  0.103013  1
  O  O67  1  0.017689  0.711490  0.370118  1
  O  O68  1  0.028669  0.629057  0.773079  1
  O  O69  1  0.054598  0.219001  0.290572  1
  O  O70  1  0.030135  0.399845  0.583373  1
  O  O71  1  -0.003355  0.246044  0.927764  1
