# generated using pymatgen
data_NaSr2CrF8
_symmetry_space_group_name_H-M   'P 1'
_cell_length_a   6.35573201
_cell_length_b   7.88256422
_cell_length_c   14.12557266
_cell_angle_alpha   98.90530773
_cell_angle_beta   90.00000000
_cell_angle_gamma   90.00000000
_symmetry_Int_Tables_number   1
_chemical_formula_structural   NaSr2CrF8
_chemical_formula_sum   'Na4 Sr8 Cr4 F32'
_cell_volume   699.15289160
_cell_formula_units_Z   4
loop_
 _symmetry_equiv_pos_site_id
 _symmetry_equiv_pos_as_xyz
  1  'x, y, z'
loop_
 _atom_site_type_symbol
 _atom_site_label
 _atom_site_symmetry_multiplicity
 _atom_site_fract_x
 _atom_site_fract_y
 _atom_site_fract_z
 _atom_site_occupancy
  Na  Na0  1  0.326775  0.299722  0.440683  1
  Na  Na1  1  0.673225  0.700278  0.559317  1
  Na  Na2  1  0.173225  0.799722  0.940683  1
  Na  Na3  1  0.826775  0.200278  0.059317  1
  Sr  Sr4  1  0.657282  0.441494  0.855749  1
  Sr  Sr5  1  0.842718  0.941494  0.355749  1
  Sr  Sr6  1  0.220900  0.599828  0.697273  1
  Sr  Sr7  1  0.157282  0.058506  0.644251  1
  Sr  Sr8  1  0.279100  0.099828  0.197273  1
  Sr  Sr9  1  0.779100  0.400172  0.302727  1
  Sr  Sr10  1  0.342718  0.558506  0.144251  1
  Sr  Sr11  1  0.720900  0.900172  0.802727  1
  Cr  Cr12  1  0.222009  0.209285  0.902727  1
  Cr  Cr13  1  0.777991  0.790715  0.097273  1
  Cr  Cr14  1  0.277991  0.709285  0.402727  1
  Cr  Cr15  1  0.722009  0.290715  0.597273  1
  F  F16  1  0.314580  0.425581  0.972711  1
  F  F17  1  0.685420  0.574419  0.027289  1
  F  F18  1  0.301838  0.596442  0.515559  1
  F  F19  1  0.517903  0.144406  0.889508  1
  F  F20  1  0.445876  0.697649  0.843296  1
  F  F21  1  0.235375  0.811852  0.284336  1
  F  F22  1  0.569880  0.773700  0.417995  1
  F  F23  1  0.876226  0.002172  0.177512  1
  F  F24  1  0.198162  0.096442  0.015559  1
  F  F25  1  0.814580  0.074419  0.527289  1
  F  F26  1  0.555559  0.142174  0.326107  1
  F  F27  1  0.430120  0.226300  0.582005  1
  F  F28  1  0.764625  0.188148  0.715664  1
  F  F29  1  0.801838  0.903558  0.984441  1
  F  F30  1  0.554124  0.302351  0.156704  1
  F  F31  1  0.264625  0.311852  0.784336  1
  F  F32  1  0.054124  0.197649  0.343296  1
  F  F33  1  0.945876  0.802351  0.656704  1
  F  F34  1  0.017903  0.355594  0.610492  1
  F  F35  1  0.735375  0.688148  0.215664  1
  F  F36  1  0.944441  0.642174  0.826107  1
  F  F37  1  0.123774  0.997828  0.822488  1
  F  F38  1  0.982097  0.644406  0.389508  1
  F  F39  1  0.055559  0.357826  0.173893  1
  F  F40  1  0.930120  0.273700  0.917995  1
  F  F41  1  0.623774  0.502172  0.677512  1
  F  F42  1  0.185420  0.925581  0.472711  1
  F  F43  1  0.482097  0.855594  0.110492  1
  F  F44  1  0.069880  0.726300  0.082005  1
  F  F45  1  0.444441  0.857826  0.673893  1
  F  F46  1  0.376226  0.497828  0.322488  1
  F  F47  1  0.698162  0.403558  0.484441  1
