# generated using pymatgen
data_Rb6LiNd11Se12(Cl4O9)4
_symmetry_space_group_name_H-M   'P 1'
_cell_length_a   16.01923292
_cell_length_b   16.01923306
_cell_length_c   16.92745761
_cell_angle_alpha   118.24046330
_cell_angle_beta   118.24046357
_cell_angle_gamma   89.99999861
_symmetry_Int_Tables_number   1
_chemical_formula_structural   Rb6LiNd11Se12(Cl4O9)4
_chemical_formula_sum   'Rb12 Li2 Nd22 Se24 Cl32 O72'
_cell_volume   3227.96707377
_cell_formula_units_Z   2
loop_
 _symmetry_equiv_pos_site_id
 _symmetry_equiv_pos_as_xyz
  1  'x, y, z'
loop_
 _atom_site_type_symbol
 _atom_site_label
 _atom_site_symmetry_multiplicity
 _atom_site_fract_x
 _atom_site_fract_y
 _atom_site_fract_z
 _atom_site_occupancy
  Rb  Rb0  1  0.620258  0.629666  0.000000  1
  Rb  Rb1  1  0.629666  0.379742  0.000000  1
  Rb  Rb2  1  0.376655  0.876655  0.000000  1
  Rb  Rb3  1  0.623345  0.123345  1.000000  1
  Rb  Rb4  1  0.876655  0.623345  1.000000  1
  Rb  Rb5  1  0.120258  0.870334  1.000000  1
  Rb  Rb6  1  0.370334  0.620258  1.000000  1
  Rb  Rb7  1  0.879742  0.129666  0.000000  1
  Rb  Rb8  1  0.129666  0.120258  1.000000  1
  Rb  Rb9  1  0.379742  0.370334  0.000000  1
  Rb  Rb10  1  0.870334  0.879742  0.000000  1
  Rb  Rb11  1  0.123345  0.376655  0.000000  1
  Li  Li12  1  0.250000  0.750000  0.500000  1
  Li  Li13  1  0.750000  0.250000  0.500000  1
  Nd  Nd14  1  0.254160  0.996679  0.750839  1
  Nd  Nd15  1  0.754160  0.254160  0.750839  1
  Nd  Nd16  1  0.507048  0.250000  0.500000  1
  Nd  Nd17  1  0.250000  0.250000  0.500000  1
  Nd  Nd18  1  0.750000  0.007048  0.500000  1
  Nd  Nd19  1  0.000000  0.500000  0.500000  1
  Nd  Nd20  1  0.003321  0.503321  0.249161  1
  Nd  Nd21  1  0.000000  0.000000  0.500000  1
  Nd  Nd22  1  0.503321  0.245840  0.249161  1
  Nd  Nd23  1  0.492952  0.750000  0.500000  1
  Nd  Nd24  1  0.250000  0.992952  0.500000  1
  Nd  Nd25  1  0.992952  0.250000  0.500000  1
  Nd  Nd26  1  0.245840  0.745840  0.249161  1
  Nd  Nd27  1  0.750000  0.750000  0.500000  1
  Nd  Nd28  1  0.500000  0.500000  0.500000  1
  Nd  Nd29  1  0.496679  0.754160  0.750839  1
  Nd  Nd30  1  0.007048  0.750000  0.500000  1
  Nd  Nd31  1  0.745840  0.003321  0.249161  1
  Nd  Nd32  1  0.500000  0.000000  0.500000  1
  Nd  Nd33  1  0.996679  0.496679  0.750839  1
  Nd  Nd34  1  0.750000  0.492952  0.500000  1
  Nd  Nd35  1  0.250000  0.507048  0.500000  1
  Se  Se36  1  0.063769  0.779406  0.343175  1
  Se  Se37  1  0.281683  0.010741  0.320394  1
  Se  Se38  1  0.779406  0.279406  0.343175  1
  Se  Se39  1  0.436231  0.936231  0.656825  1
  Se  Se40  1  0.989259  0.961289  0.679606  1
  Se  Se41  1  0.781683  0.809653  0.320394  1
  Se  Se42  1  0.489259  0.218317  0.679606  1
  Se  Se43  1  0.190347  0.461289  0.679606  1
  Se  Se44  1  0.220594  0.720594  0.656825  1
  Se  Se45  1  0.010741  0.038711  0.320394  1
  Se  Se46  1  0.218317  0.190347  0.679606  1
  Se  Se47  1  0.718317  0.989259  0.679606  1
  Se  Se48  1  0.720594  0.436231  0.656825  1
  Se  Se49  1  0.538711  0.510741  0.320394  1
  Se  Se50  1  0.461289  0.489259  0.679606  1
  Se  Se51  1  0.936231  0.220594  0.656825  1
  Se  Se52  1  0.038711  0.309653  0.320394  1
  Se  Se53  1  0.961289  0.690347  0.679606  1
  Se  Se54  1  0.809653  0.538711  0.320394  1
  Se  Se55  1  0.309653  0.281683  0.320394  1
  Se  Se56  1  0.690347  0.718317  0.679606  1
  Se  Se57  1  0.510741  0.781683  0.320394  1
  Se  Se58  1  0.279406  0.563769  0.343175  1
  Se  Se59  1  0.563769  0.063769  0.343175  1
  Cl  Cl60  1  0.315624  0.815624  0.153462  1
  Cl  Cl61  1  0.923422  0.423422  0.846844  1
  Cl  Cl62  1  0.422761  0.422761  0.845521  1
  Cl  Cl63  1  0.815624  0.837838  0.153462  1
  Cl  Cl64  1  0.076578  0.576578  0.153156  1
  Cl  Cl65  1  0.432579  0.690585  0.849675  1
  Cl  Cl66  1  0.159090  0.432579  0.849675  1
  Cl  Cl67  1  0.184376  0.162162  0.846538  1
  Cl  Cl68  1  0.577239  0.577239  0.154479  1
  Cl  Cl69  1  0.922761  0.922761  0.845521  1
  Cl  Cl70  1  0.162162  0.662162  0.846538  1
  Cl  Cl71  1  0.576578  0.076578  0.153156  1
  Cl  Cl72  1  0.684376  0.184376  0.846538  1
  Cl  Cl73  1  0.690585  0.417097  0.849675  1
  Cl  Cl74  1  0.659090  0.917097  0.849675  1
  Cl  Cl75  1  0.077239  0.077239  0.154479  1
  Cl  Cl76  1  0.840910  0.567421  0.150325  1
  Cl  Cl77  1  0.582903  0.840910  0.150325  1
  Cl  Cl78  1  0.309415  0.582903  0.150325  1
  Cl  Cl79  1  0.067421  0.340910  0.150325  1
  Cl  Cl80  1  0.917097  0.190585  0.849675  1
  Cl  Cl81  1  0.932579  0.659090  0.849675  1
  Cl  Cl82  1  0.337838  0.315624  0.153462  1
  Cl  Cl83  1  0.190585  0.932579  0.849675  1
  Cl  Cl84  1  0.340910  0.082903  0.150325  1
  Cl  Cl85  1  0.423422  0.923422  0.846844  1
  Cl  Cl86  1  0.837838  0.337838  0.153462  1
  Cl  Cl87  1  0.082903  0.809415  0.150325  1
  Cl  Cl88  1  0.567421  0.309415  0.150325  1
  Cl  Cl89  1  0.809415  0.067421  0.150325  1
  Cl  Cl90  1  0.417097  0.159090  0.849675  1
  Cl  Cl91  1  0.662162  0.684376  0.846538  1
  O  O92  1  0.594005  0.923084  0.604324  1
  O  O93  1  0.063143  0.440992  0.634549  1
  O  O94  1  0.683209  0.063857  0.370837  1
  O  O95  1  0.693557  0.071405  0.634549  1
  O  O96  1  0.818760  0.489682  0.395676  1
  O  O97  1  0.306980  0.683209  0.370837  1
  O  O98  1  0.175925  0.337982  0.600851  1
  O  O99  1  0.318760  0.405995  0.395676  1
  O  O100  1  0.662018  0.575074  0.399149  1
  O  O101  1  0.262869  0.175925  0.600851  1
  O  O102  1  0.936143  0.312372  0.629163  1
  O  O103  1  0.625582  0.405292  0.530875  1
  O  O104  1  0.428595  0.806443  0.365451  1
  O  O105  1  0.193557  0.063143  0.634549  1
  O  O106  1  0.936857  0.559008  0.365451  1
  O  O107  1  0.576916  0.905995  0.395676  1
  O  O108  1  0.424926  0.262869  0.600851  1
  O  O109  1  0.806980  0.187628  0.370837  1
  O  O110  1  0.324075  0.237131  0.399149  1
  O  O111  1  0.125582  0.625582  0.530875  1
  O  O112  1  0.824075  0.662018  0.399149  1
  O  O113  1  0.681240  0.594005  0.604324  1
  O  O114  1  0.237131  0.075074  0.399149  1
  O  O115  1  0.812372  0.436143  0.629163  1
  O  O116  1  0.575074  0.737131  0.399149  1
  O  O117  1  0.181240  0.510318  0.604324  1
  O  O118  1  0.693020  0.316791  0.629163  1
  O  O119  1  0.094708  0.874418  0.469125  1
  O  O120  1  0.924926  0.837982  0.600851  1
  O  O121  1  0.405995  0.076916  0.395676  1
  O  O122  1  0.489682  0.576916  0.395676  1
  O  O123  1  0.563143  0.693557  0.634549  1
  O  O124  1  0.374418  0.594708  0.469125  1
  O  O125  1  0.306443  0.928595  0.365451  1
  O  O126  1  0.423084  0.094005  0.604324  1
  O  O127  1  0.436857  0.306443  0.365451  1
  O  O128  1  0.312372  0.693020  0.629163  1
  O  O129  1  0.337982  0.424926  0.600851  1
  O  O130  1  0.316791  0.936143  0.629163  1
  O  O131  1  0.837982  0.675925  0.600851  1
  O  O132  1  0.594708  0.094708  0.469125  1
  O  O133  1  0.059008  0.436857  0.365451  1
  O  O134  1  0.571405  0.193557  0.634549  1
  O  O135  1  0.405292  0.905292  0.530875  1
  O  O136  1  0.989682  0.318760  0.395676  1
  O  O137  1  0.010318  0.681240  0.604324  1
  O  O138  1  0.905995  0.818760  0.395676  1
  O  O139  1  0.806443  0.936857  0.365451  1
  O  O140  1  0.675925  0.762869  0.600851  1
  O  O141  1  0.063857  0.687628  0.370837  1
  O  O142  1  0.436143  0.816791  0.629163  1
  O  O143  1  0.162018  0.324075  0.399149  1
  O  O144  1  0.187628  0.563857  0.370837  1
  O  O145  1  0.687628  0.306980  0.370837  1
  O  O146  1  0.563857  0.183209  0.370837  1
  O  O147  1  0.071405  0.940992  0.634549  1
  O  O148  1  0.940992  0.563143  0.634549  1
  O  O149  1  0.440992  0.571405  0.634549  1
  O  O150  1  0.737131  0.824075  0.399149  1
  O  O151  1  0.905292  0.125582  0.530875  1
  O  O152  1  0.193020  0.812372  0.629163  1
  O  O153  1  0.816791  0.193020  0.629163  1
  O  O154  1  0.183209  0.806980  0.370837  1
  O  O155  1  0.874418  0.374418  0.469125  1
  O  O156  1  0.923084  0.010318  0.604324  1
  O  O157  1  0.559008  0.428595  0.365451  1
  O  O158  1  0.094005  0.181240  0.604324  1
  O  O159  1  0.928595  0.059008  0.365451  1
  O  O160  1  0.076916  0.989682  0.395676  1
  O  O161  1  0.762869  0.924926  0.600851  1
  O  O162  1  0.075074  0.162018  0.399149  1
  O  O163  1  0.510318  0.423084  0.604324  1
