# generated using pymatgen
data_SbH3C2(O2F3)2
_symmetry_space_group_name_H-M   'P 1'
_cell_length_a   7.97636124
_cell_length_b   7.97636124
_cell_length_c   8.60192260
_cell_angle_alpha   57.12467402
_cell_angle_beta   122.87532598
_cell_angle_gamma   110.03521022
_symmetry_Int_Tables_number   1
_chemical_formula_structural   SbH3C2(O2F3)2
_chemical_formula_sum   'Sb2 H6 C4 O8 F12'
_cell_volume   385.12928144
_cell_formula_units_Z   2
loop_
 _symmetry_equiv_pos_site_id
 _symmetry_equiv_pos_as_xyz
  1  'x, y, z'
loop_
 _atom_site_type_symbol
 _atom_site_label
 _atom_site_symmetry_multiplicity
 _atom_site_fract_x
 _atom_site_fract_y
 _atom_site_fract_z
 _atom_site_occupancy
  Sb  Sb0  1  0.145165  0.143636  0.501812  1
  Sb  Sb1  1  0.856364  0.854835  0.001812  1
  H  H2  1  0.434315  0.071364  0.975803  1
  H  H3  1  0.928636  0.565685  0.475803  1
  H  H4  1  0.624681  0.098711  0.481596  1
  H  H5  1  0.901289  0.375319  0.981596  1
  H  H6  1  0.385323  0.605896  0.311404  1
  H  H7  1  0.394104  0.614677  0.811404  1
  C  C8  1  0.524870  0.068178  0.237581  1
  C  C9  1  0.931822  0.475130  0.737581  1
  C  C10  1  0.489772  0.838970  0.356627  1
  C  C11  1  0.161030  0.510228  0.856627  1
  O  O12  1  0.487191  0.159339  0.046362  1
  O  O13  1  0.840661  0.512809  0.546362  1
  O  O14  1  0.593960  0.176883  0.329589  1
  O  O15  1  0.823117  0.406040  0.829589  1
  O  O16  1  0.414205  0.752908  0.234765  1
  O  O17  1  0.247092  0.585795  0.734765  1
  O  O18  1  0.531349  0.763240  0.539171  1
  O  O19  1  0.236760  0.468651  0.039171  1
  F  F20  1  0.043966  0.242258  0.591168  1
  F  F21  1  0.757742  0.956034  0.091168  1
  F  F22  1  0.250554  0.040440  0.420842  1
  F  F23  1  0.959560  0.749446  0.920842  1
  F  F24  1  0.330572  0.996616  0.791118  1
  F  F25  1  0.003384  0.669428  0.291119  1
  F  F26  1  0.954469  0.296293  0.216962  1
  F  F27  1  0.703707  0.045531  0.716962  1
  F  F28  1  0.947433  0.924314  0.518843  1
  F  F29  1  0.075686  0.052567  0.018843  1
  F  F30  1  0.340728  0.367108  0.479956  1
  F  F31  1  0.632892  0.659272  0.979956  1
