# generated using pymatgen
data_Na8Al11Si13(AgO16)3
_symmetry_space_group_name_H-M   'P 1'
_cell_length_a   12.77223833
_cell_length_b   12.39927356
_cell_length_c   12.06695071
_cell_angle_alpha   90.04370665
_cell_angle_beta   88.51488114
_cell_angle_gamma   89.84611403
_symmetry_Int_Tables_number   1
_chemical_formula_structural   Na8Al11Si13(AgO16)3
_chemical_formula_sum   'Na8 Al11 Si13 Ag3 O48'
_cell_volume   1910.35099676
_cell_formula_units_Z   1
loop_
 _symmetry_equiv_pos_site_id
 _symmetry_equiv_pos_as_xyz
  1  'x, y, z'
loop_
 _atom_site_type_symbol
 _atom_site_label
 _atom_site_symmetry_multiplicity
 _atom_site_fract_x
 _atom_site_fract_y
 _atom_site_fract_z
 _atom_site_occupancy
  Na  Na0  1  0.207593  0.210766  0.195852  1
  Na  Na1  1  0.613953  0.998699  0.556333  1
  Na  Na2  1  0.568075  0.389035  0.997576  1
  Na  Na3  1  0.592147  0.604644  0.002045  1
  Na  Na4  1  0.786181  0.189739  0.817457  1
  Na  Na5  1  0.785256  0.190015  0.193235  1
  Na  Na6  1  0.781630  0.812085  0.187830  1
  Na  Na7  1  0.783101  0.815087  0.823309  1
  Al  Al8  1  0.180137  0.369043  0.997916  1
  Al  Al9  1  0.379789  0.001643  0.795840  1
  Al  Al10  1  0.373953  0.810687  0.997203  1
  Al  Al11  1  0.611568  0.999669  0.206824  1
  Al  Al12  1  0.619232  0.175429  0.006808  1
  Al  Al13  1  0.614654  0.000215  0.804056  1
  Al  Al14  1  0.613740  0.820600  0.006584  1
  Al  Al15  1  0.824619  0.995847  0.365944  1
  Al  Al16  1  0.838337  0.996044  0.643786  1
  Al  Al17  1  0.814228  0.373237  0.002374  1
  Al  Al18  1  0.819882  0.631388  0.001561  1
  Si  Si19  1  0.992149  0.184015  0.366818  1
  Si  Si20  1  0.994389  0.371914  0.187678  1
  Si  Si21  1  0.997015  0.186660  0.632576  1
  Si  Si22  1  0.996333  0.625888  0.187605  1
  Si  Si23  1  0.003943  0.370444  0.812987  1
  Si  Si24  1  0.000264  0.816490  0.366052  1
  Si  Si25  1  0.007695  0.627630  0.812524  1
  Si  Si26  1  0.008027  0.814550  0.632770  1
  Si  Si27  1  0.176010  0.006056  0.625556  1
  Si  Si28  1  0.179357  0.626319  0.996732  1
  Si  Si29  1  0.169313  0.006320  0.363507  1
  Si  Si30  1  0.368186  0.000820  0.189270  1
  Si  Si31  1  0.372578  0.184150  0.001056  1
  Ag  Ag32  1  0.205766  0.815175  0.810649  1
  Ag  Ag33  1  0.203545  0.187049  0.811183  1
  Ag  Ag34  1  0.196653  0.801948  0.183278  1
  O  O35  1  0.001051  0.299121  0.301891  1
  O  O36  1  0.993740  0.499728  0.224912  1
  O  O37  1  0.006285  0.302960  0.695044  1
  O  O38  1  0.017024  0.702843  0.297026  1
  O  O39  1  0.004629  0.790022  0.498986  1
  O  O40  1  0.105306  0.115515  0.653887  1
  O  O41  1  0.100780  0.647192  0.107034  1
  O  O42  1  0.112516  0.659881  0.884469  1
  O  O43  1  0.113375  0.891253  0.655318  1
  O  O44  1  0.103234  0.116962  0.334751  1
  O  O45  1  0.102039  0.343803  0.118163  1
  O  O46  1  0.110085  0.333562  0.877617  1
  O  O47  1  0.105461  0.893948  0.334656  1
  O  O48  1  0.199835  0.006090  0.492092  1
  O  O49  1  0.218514  0.503287  0.990181  1
  O  O50  1  0.272629  0.012693  0.285642  1
  O  O51  1  0.285028  0.280562  0.013373  1
  O  O52  1  0.271550  0.712659  0.008181  1
  O  O53  1  0.279101  0.014463  0.695569  1
  O  O54  1  0.345136  0.109975  0.113383  1
  O  O55  1  0.353503  0.116373  0.886927  1
  O  O56  1  0.341800  0.892471  0.118036  1
  O  O57  1  0.349345  0.886027  0.876548  1
  O  O58  1  0.488497  0.236087  0.009656  1
  O  O59  1  0.499468  0.005933  0.726689  1
  O  O60  1  0.476643  0.003273  0.249248  1
  O  O61  1  0.493697  0.746508  0.008832  1
  O  O62  1  0.639711  0.117085  0.132834  1
  O  O63  1  0.636995  0.116401  0.879918  1
  O  O64  1  0.632580  0.883014  0.131230  1
  O  O65  1  0.627053  0.884919  0.881945  1
  O  O66  1  0.701804  0.995943  0.313408  1
  O  O67  1  0.708586  0.285977  0.000142  1
  O  O68  1  0.720065  0.724992  0.999084  1
  O  O69  1  0.718414  0.992611  0.707311  1
  O  O70  1  0.821687  0.995019  0.505795  1
  O  O71  1  0.757648  0.503728  0.001663  1
  O  O72  1  0.901514  0.118127  0.685871  1
  O  O73  1  0.891409  0.660104  0.124649  1
  O  O74  1  0.901939  0.658558  0.881690  1
  O  O75  1  0.908844  0.877980  0.685835  1
  O  O76  1  0.896388  0.114470  0.321367  1
  O  O77  1  0.888149  0.342487  0.123063  1
  O  O78  1  0.897007  0.344191  0.883322  1
  O  O79  1  0.898476  0.877455  0.321630  1
  O  O80  1  0.990140  0.209789  0.499610  1
  O  O81  1  0.013098  0.499426  0.782961  1
  O  O82  1  0.022124  0.698834  0.697387  1
