# generated using pymatgen
data_Fe3Pb4ClO8
_symmetry_space_group_name_H-M   'P 1'
_cell_length_a   3.97598766
_cell_length_b   3.97677472
_cell_length_c   15.59398648
_cell_angle_alpha   90.00494993
_cell_angle_beta   90.00882779
_cell_angle_gamma   90.00195065
_symmetry_Int_Tables_number   1
_chemical_formula_structural   Fe3Pb4ClO8
_chemical_formula_sum   'Fe3 Pb4 Cl1 O8'
_cell_volume   246.56598493
_cell_formula_units_Z   1
loop_
 _symmetry_equiv_pos_site_id
 _symmetry_equiv_pos_as_xyz
  1  'x, y, z'
loop_
 _atom_site_type_symbol
 _atom_site_label
 _atom_site_symmetry_multiplicity
 _atom_site_fract_x
 _atom_site_fract_y
 _atom_site_fract_z
 _atom_site_occupancy
  Fe  Fe0  1  0.500075  0.500184  0.874507  1
  Fe  Fe1  1  0.499824  0.499843  0.362989  1
  Fe  Fe2  1  0.500329  0.499707  0.618543  1
  Pb  Pb3  1  0.001663  0.998483  0.733690  1
  Pb  Pb4  1  0.999619  0.999873  0.240283  1
  Pb  Pb5  1  0.000432  0.998750  0.502160  1
  Pb  Pb6  1  0.999942  0.000426  0.997551  1
  Cl  Cl7  1  0.499694  0.500194  0.121044  1
  O  O8  1  0.499713  0.000016  0.618720  1
  O  O9  1  0.499514  0.500737  0.753289  1
  O  O10  1  0.999924  0.500433  0.907719  1
  O  O11  1  0.499904  0.500341  0.484299  1
  O  O12  1  0.499696  0.999946  0.330942  1
  O  O13  1  0.000124  0.500679  0.618731  1
  O  O14  1  0.999751  0.500039  0.330888  1
  O  O15  1  0.499796  0.000349  0.907645  1
