# generated using pymatgen
data_Cs2K2B10O17
_symmetry_space_group_name_H-M   'P 1'
_cell_length_a   6.67710032
_cell_length_b   11.44274009
_cell_length_c   11.98101736
_cell_angle_alpha   102.68519116
_cell_angle_beta   106.33765570
_cell_angle_gamma   90.09185653
_symmetry_Int_Tables_number   1
_chemical_formula_structural   Cs2K2B10O17
_chemical_formula_sum   'Cs4 K4 B20 O34'
_cell_volume   855.03087481
_cell_formula_units_Z   2
loop_
 _symmetry_equiv_pos_site_id
 _symmetry_equiv_pos_as_xyz
  1  'x, y, z'
loop_
 _atom_site_type_symbol
 _atom_site_label
 _atom_site_symmetry_multiplicity
 _atom_site_fract_x
 _atom_site_fract_y
 _atom_site_fract_z
 _atom_site_occupancy
  Cs  Cs0  1  0.255180  0.403610  0.888511  1
  Cs  Cs1  1  0.744212  0.595029  0.110057  1
  Cs  Cs2  1  0.366361  0.095502  0.110793  1
  Cs  Cs3  1  0.642181  0.907404  0.890923  1
  K  K4  1  0.193736  0.327935  0.542605  1
  K  K5  1  0.651937  0.173287  0.459591  1
  K  K6  1  0.351565  0.825366  0.543360  1
  K  K7  1  0.813047  0.675884  0.456563  1
  B  B8  1  0.490469  0.836660  0.288023  1
  B  B9  1  0.510413  0.162720  0.711513  1
  B  B10  1  0.442478  0.425212  0.303090  1
  B  B11  1  0.122117  0.764852  0.898084  1
  B  B12  1  0.225331  0.984707  0.334003  1
  B  B13  1  0.892822  0.514756  0.666198  1
  B  B14  1  0.876598  0.234444  0.104072  1
  B  B15  1  0.795932  0.336185  0.289862  1
  B  B16  1  0.205580  0.663110  0.712986  1
  B  B17  1  0.047769  0.870738  0.730977  1
  B  B18  1  0.858446  0.924783  0.299409  1
  B  B19  1  0.954434  0.128806  0.271373  1
  B  B20  1  0.142563  0.073575  0.699106  1
  B  B21  1  0.560302  0.574200  0.700137  1
  B  B22  1  0.224844  0.731845  0.102378  1
  B  B23  1  0.684721  0.370837  0.729760  1
  B  B24  1  0.776078  0.013838  0.664539  1
  B  B25  1  0.108333  0.484724  0.334342  1
  B  B26  1  0.317469  0.628004  0.270490  1
  B  B27  1  0.776027  0.267238  0.898423  1
  O  O28  1  0.057233  0.864410  0.856118  1
  O  O29  1  0.764887  0.317731  0.157569  1
  O  O30  1  0.232315  0.680371  0.844521  1
  O  O31  1  0.434371  0.739730  0.336672  1
  O  O32  1  0.073663  0.747958  -0.000261  1
  O  O33  1  0.428868  0.955711  0.347227  1
  O  O34  1  0.204847  0.631696  0.143999  1
  O  O35  1  0.151636  0.599247  0.325400  1
  O  O36  1  0.174042  0.100329  0.329234  1
  O  O37  1  0.415340  0.658129  0.691167  1
  O  O38  1  0.722047  0.841514  0.309406  1
  O  O39  1  0.924241  0.252170  0.002130  1
  O  O40  1  0.847189  0.399663  0.672663  1
  O  O41  1  0.801376  0.028748  0.263940  1
  O  O42  1  0.537754  0.470255  0.734904  1
  O  O43  1  0.573786  0.043680  0.652975  1
  O  O44  1  0.101694  0.760295  0.664920  1
  O  O45  1  0.083003  0.544228  0.653413  1
  O  O46  1  0.386024  0.818524  0.156587  1
  O  O47  1  0.918912  0.455157  0.347988  1
  O  O48  1  0.929748  0.098669  0.666410  1
  O  O49  1  0.900439  0.238990  0.337565  1
  O  O50  1  0.587930  0.341936  0.313429  1
  O  O51  1  0.613859  0.180917  0.843340  1
  O  O52  1  0.258997  0.399752  0.332114  1
  O  O53  1  0.278593  0.156915  0.688767  1
  O  O54  1  0.827943  0.899194  0.672737  1
  O  O55  1  0.464254  0.528764  0.266764  1
  O  O56  1  0.566669  0.259728  0.663710  1
  O  O57  1  0.743877  0.600444  0.671359  1
  O  O58  1  0.199434  0.972111  0.738677  1
  O  O59  1  0.944513  0.135280  0.145989  1
  O  O60  1  0.070518  0.898328  0.327197  1
  O  O61  1  0.799746  0.366235  0.855794  1
