# generated using pymatgen
data_Pr(FeSb3)5
_symmetry_space_group_name_H-M   'P 1'
_cell_length_a   39.63771242
_cell_length_b   15.17707050
_cell_length_c   15.17706998
_cell_angle_alpha   50.44522425
_cell_angle_beta   29.47606077
_cell_angle_gamma   29.47606152
_symmetry_Int_Tables_number   1
_chemical_formula_structural   Pr(FeSb3)5
_chemical_formula_sum   'Pr4 Fe20 Sb60'
_cell_volume   1914.48069997
_cell_formula_units_Z   4
loop_
 _symmetry_equiv_pos_site_id
 _symmetry_equiv_pos_as_xyz
  1  'x, y, z'
loop_
 _atom_site_type_symbol
 _atom_site_label
 _atom_site_symmetry_multiplicity
 _atom_site_fract_x
 _atom_site_fract_y
 _atom_site_fract_z
 _atom_site_occupancy
  Pr  Pr0  1  0.200257  1.000000  1.000000  1
  Pr  Pr1  1  0.399956  0.000000  0.000000  1
  Pr  Pr2  1  0.600044  1.000000  1.000000  1
  Pr  Pr3  1  0.799743  0.000000  0.000000  1
  Fe  Fe4  1  0.100944  0.000000  0.000000  1
  Fe  Fe5  1  0.000000  0.000000  0.500000  1
  Fe  Fe6  1  0.000000  0.500000  0.000000  1
  Fe  Fe7  1  0.300098  0.000000  0.000000  1
  Fe  Fe8  1  0.201995  0.999864  0.495108  1
  Fe  Fe9  1  0.201858  0.495244  0.000136  1
  Fe  Fe10  1  0.100370  0.499467  0.499804  1
  Fe  Fe11  1  0.500000  0.000000  0.000000  1
  Fe  Fe12  1  0.400163  0.999662  0.499467  1
  Fe  Fe13  1  0.399826  0.499804  0.000338  1
  Fe  Fe14  1  0.302898  0.495108  0.495244  1
  Fe  Fe15  1  0.699902  1.000000  1.000000  1
  Fe  Fe16  1  0.599837  0.000338  0.500533  1
  Fe  Fe17  1  0.600174  0.500196  0.999662  1
  Fe  Fe18  1  0.500000  0.500000  0.500000  1
  Fe  Fe19  1  0.899056  0.000000  0.000000  1
  Fe  Fe20  1  0.798005  0.000136  0.504892  1
  Fe  Fe21  1  0.798142  0.504756  0.999864  1
  Fe  Fe22  1  0.697102  0.504892  0.504756  1
  Fe  Fe23  1  0.899630  0.500533  0.500196  1
  Sb  Sb24  1  0.002091  0.162983  0.500144  1
  Sb  Sb25  1  0.099868  0.337164  0.163261  1
  Sb  Sb26  1  0.034071  0.670111  0.159867  1
  Sb  Sb27  1  0.165105  0.171089  0.334370  1
  Sb  Sb28  1  0.099695  0.497818  0.334920  1
  Sb  Sb29  1  0.062128  0.839939  0.169658  1
  Sb  Sb30  1  0.202466  0.163255  0.497831  1
  Sb  Sb31  1  0.300328  0.334807  0.163319  1
  Sb  Sb32  1  0.136050  0.163713  0.829050  1
  Sb  Sb33  1  0.100345  0.502137  0.665382  1
  Sb  Sb34  1  0.234273  0.665382  0.163245  1
  Sb  Sb35  1  0.034899  0.829050  0.665337  1
  Sb  Sb36  1  0.364865  0.171487  0.334807  1
  Sb  Sb37  1  0.165074  0.337161  0.837017  1
  Sb  Sb38  1  0.299703  0.497831  0.334576  1
  Sb  Sb39  1  0.263130  0.836739  0.173902  1
  Sb  Sb40  1  0.097934  0.670281  0.839939  1
  Sb  Sb41  1  0.402487  0.162898  0.497818  1
  Sb  Sb42  1  0.193938  0.840133  0.510244  1
  Sb  Sb43  1  0.500525  0.334370  0.163281  1
  Sb  Sb44  1  0.336194  0.163281  0.828911  1
  Sb  Sb45  1  0.295818  0.510244  0.670111  1
  Sb  Sb46  1  0.434615  0.665080  0.162898  1
  Sb  Sb47  1  0.231786  0.830342  0.670281  1
  Sb  Sb48  1  0.562968  0.173902  0.337164  1
  Sb  Sb49  1  0.365721  0.334576  0.836745  1
  Sb  Sb50  1  0.497765  0.500144  0.337161  1
  Sb  Sb51  1  0.463648  0.836681  0.171487  1
  Sb  Sb52  1  0.299764  0.665337  0.836287  1
  Sb  Sb53  1  0.602482  0.163245  0.497863  1
  Sb  Sb54  1  0.397518  0.836755  0.502137  1
  Sb  Sb55  1  0.700236  0.334663  0.163713  1
  Sb  Sb56  1  0.536352  0.163319  0.828513  1
  Sb  Sb57  1  0.502235  0.499856  0.662839  1
  Sb  Sb58  1  0.634279  0.665424  0.163255  1
  Sb  Sb59  1  0.437032  0.826098  0.662836  1
  Sb  Sb60  1  0.768214  0.169658  0.329719  1
  Sb  Sb61  1  0.565385  0.334920  0.837102  1
  Sb  Sb62  1  0.704182  0.489756  0.329889  1
  Sb  Sb63  1  0.663806  0.836719  0.171089  1
  Sb  Sb64  1  0.499475  0.665630  0.836719  1
  Sb  Sb65  1  0.806062  0.159867  0.489756  1
  Sb  Sb66  1  0.597513  0.837102  0.502182  1
  Sb  Sb67  1  0.902066  0.329719  0.160061  1
  Sb  Sb68  1  0.736870  0.163261  0.826098  1
  Sb  Sb69  1  0.700297  0.502169  0.665424  1
  Sb  Sb70  1  0.834926  0.662839  0.162983  1
  Sb  Sb71  1  0.635135  0.828513  0.665193  1
  Sb  Sb72  1  0.965101  0.170950  0.334663  1
  Sb  Sb73  1  0.765727  0.334618  0.836755  1
  Sb  Sb74  1  0.899655  0.497863  0.334618  1
  Sb  Sb75  1  0.863950  0.836287  0.170950  1
  Sb  Sb76  1  0.699672  0.665193  0.836681  1
  Sb  Sb77  1  0.797534  0.836745  0.502169  1
  Sb  Sb78  1  0.937872  0.160061  0.830342  1
  Sb  Sb79  1  0.900305  0.502182  0.665080  1
  Sb  Sb80  1  0.834895  0.828911  0.665630  1
  Sb  Sb81  1  0.965929  0.329889  0.840133  1
  Sb  Sb82  1  0.900132  0.662836  0.836739  1
  Sb  Sb83  1  0.997909  0.837017  0.499856  1
