# generated using pymatgen
data_Er17(TeRu2)3
_symmetry_space_group_name_H-M   'P 1'
_cell_length_a   3.92257127
_cell_length_b   16.20323853
_cell_length_c   20.57898591
_cell_angle_alpha   95.46419625
_cell_angle_beta   95.52480652
_cell_angle_gamma   90.01150514
_symmetry_Int_Tables_number   1
_chemical_formula_structural   Er17(TeRu2)3
_chemical_formula_sum   'Er34 Te6 Ru12'
_cell_volume   1295.91667816
_cell_formula_units_Z   2
loop_
 _symmetry_equiv_pos_site_id
 _symmetry_equiv_pos_as_xyz
  1  'x, y, z'
loop_
 _atom_site_type_symbol
 _atom_site_label
 _atom_site_symmetry_multiplicity
 _atom_site_fract_x
 _atom_site_fract_y
 _atom_site_fract_z
 _atom_site_occupancy
  Er  Er0  1  0.727443  0.929844  0.458796  1
  Er  Er1  1  0.356181  0.078515  0.711653  1
  Er  Er2  1  0.732598  0.415759  0.461819  1
  Er  Er3  1  0.868689  0.903275  0.732366  1
  Er  Er4  1  0.814817  0.220760  0.629643  1
  Er  Er5  1  0.869266  0.402010  0.738547  1
  Er  Er6  1  0.182577  0.780107  0.369620  1
  Er  Er7  1  0.474911  0.161858  0.944408  1
  Er  Er8  1  0.557867  0.107044  0.116253  1
  Er  Er9  1  0.130228  0.598354  0.261341  1
  Er  Er10  1  0.555744  0.608789  0.115321  1
  Er  Er11  1  0.907774  0.227582  0.812132  1
  Er  Er12  1  0.526233  0.837992  0.053759  1
  Er  Er13  1  0.089370  0.266773  0.180613  1
  Er  Er14  1  0.363504  0.578828  0.723068  1
  Er  Er15  1  0.636890  0.421662  0.276273  1
  Er  Er16  1  0.640597  0.920046  0.287491  1
  Er  Er17  1  0.472762  0.664189  0.948800  1
  Er  Er18  1  0.695564  0.601705  0.392092  1
  Er  Er19  1  0.443111  0.892600  0.882882  1
  Er  Er20  1  0.699444  0.125605  0.403116  1
  Er  Er21  1  0.299450  0.874724  0.595385  1
  Er  Er22  1  0.175380  0.292083  0.352745  1
  Er  Er23  1  0.526352  0.334758  0.050387  1
  Er  Er24  1  0.000569  0.000427  0.999287  1
  Er  Er25  1  0.090577  0.770660  0.186163  1
  Er  Er26  1  0.824621  0.707290  0.646100  1
  Er  Er27  1  0.131087  0.095115  0.266296  1
  Er  Er28  1  0.912593  0.733008  0.818993  1
  Er  Er29  1  0.441551  0.389497  0.883177  1
  Er  Er30  1  0.270105  0.070961  0.540641  1
  Er  Er31  1  0.304215  0.399376  0.607939  1
  Er  Er32  1  0.998858  0.499347  0.999203  1
  Er  Er33  1  0.266859  0.585294  0.537550  1
  Te  Te34  1  0.745829  0.748887  0.499299  1
  Te  Te35  1  0.072782  0.453331  0.147764  1
  Te  Te36  1  0.257567  0.252468  0.499827  1
  Te  Te37  1  0.079070  0.953526  0.151264  1
  Te  Te38  1  0.921405  0.546251  0.851091  1
  Te  Te39  1  0.926924  0.045195  0.847122  1
  Ru  Ru40  1  0.976028  0.809765  0.951206  1
  Ru  Ru41  1  0.361493  0.274108  0.722992  1
  Ru  Ru42  1  0.022815  0.692054  0.050551  1
  Ru  Ru43  1  0.636695  0.726664  0.276247  1
  Ru  Ru44  1  0.186665  0.995654  0.380272  1
  Ru  Ru45  1  0.811281  0.004956  0.619007  1
  Ru  Ru46  1  0.631872  0.220478  0.268079  1
  Ru  Ru47  1  0.188074  0.476071  0.375266  1
  Ru  Ru48  1  0.022780  0.189920  0.047969  1
  Ru  Ru49  1  0.811584  0.524285  0.623547  1
  Ru  Ru50  1  0.368903  0.777231  0.730846  1
  Ru  Ru51  1  0.974091  0.306288  0.947813  1
