# generated using pymatgen
data_Ca(H8O5)2
_symmetry_space_group_name_H-M   'P 1'
_cell_length_a   6.39473653
_cell_length_b   6.44729420
_cell_length_c   11.20871650
_cell_angle_alpha   86.80898765
_cell_angle_beta   94.33797196
_cell_angle_gamma   95.91223052
_symmetry_Int_Tables_number   1
_chemical_formula_structural   Ca(H8O5)2
_chemical_formula_sum   'Ca2 H32 O20'
_cell_volume   457.81218378
_cell_formula_units_Z   2
loop_
 _symmetry_equiv_pos_site_id
 _symmetry_equiv_pos_as_xyz
  1  'x, y, z'
loop_
 _atom_site_type_symbol
 _atom_site_label
 _atom_site_symmetry_multiplicity
 _atom_site_fract_x
 _atom_site_fract_y
 _atom_site_fract_z
 _atom_site_occupancy
  Ca  Ca0  1  0.016939  -0.000082  0.249234  1
  Ca  Ca1  1  0.007988  0.966014  0.740620  1
  H  H2  1  0.274197  0.365164  0.352058  1
  H  H3  1  0.128347  0.295842  0.455683  1
  H  H4  1  0.725123  0.626788  0.352853  1
  H  H5  1  0.864335  0.710287  0.465924  1
  H  H6  1  0.710375  0.971488  0.389566  1
  H  H7  1  0.584839  0.305684  0.326452  1
  H  H8  1  0.319806  0.736056  0.367353  1
  H  H9  1  0.441630  0.978235  0.387920  1
  H  H10  1  0.693407  0.413075  0.830227  1
  H  H11  1  0.015404  0.283703  0.888426  1
  H  H12  1  0.268700  0.671007  0.872423  1
  H  H13  1  0.023542  0.554904  0.886863  1
  H  H14  1  0.372673  0.272732  0.849184  1
  H  H15  1  0.277933  0.138180  0.959015  1
  H  H16  1  0.638467  0.725942  0.851878  1
  H  H17  1  0.704828  0.883262  0.951887  1
  H  H18  1  0.972611  0.599224  0.649001  1
  H  H19  1  0.709816  0.595686  0.644780  1
  H  H20  1  0.269237  0.379368  0.646460  1
  H  H21  1  0.004984  0.336139  0.624135  1
  H  H22  1  0.379993  0.738156  0.660865  1
  H  H23  1  0.292349  0.870637  0.547251  1
  H  H24  1  0.597910  0.132232  0.660342  1
  H  H25  1  0.692163  0.128937  0.533310  1
  H  H26  1  0.102765  0.692169  0.058159  1
  H  H27  1  0.259021  0.614327  0.164581  1
  H  H28  1  0.846945  0.402151  0.165639  1
  H  H29  1  0.871473  0.310708  0.038920  1
  H  H30  1  0.628543  0.976234  0.136877  1
  H  H31  1  0.607955  0.717180  0.149523  1
  H  H32  1  0.388551  0.262310  0.140166  1
  H  H33  1  0.347638  0.998066  0.125000  1
  O  O34  1  0.526273  0.450387  0.314473  1
  O  O35  1  0.545848  0.472735  0.815992  1
  O  O36  1  0.500348  0.510434  0.685037  1
  O  O37  1  0.480731  0.487179  0.183407  1
  O  O38  1  0.128950  0.303876  0.366820  1
  O  O39  1  0.836486  0.740539  0.378584  1
  O  O40  1  0.633039  0.095019  0.395288  1
  O  O41  1  0.290790  0.876769  0.385243  1
  O  O42  1  0.899631  0.369092  0.900634  1
  O  O43  1  0.123820  0.702860  0.877491  1
  O  O44  1  0.258204  0.160598  0.870738  1
  O  O45  1  0.701690  0.872282  0.864764  1
  O  O46  1  0.854738  0.677346  0.620533  1
  O  O47  1  0.141595  0.283305  0.615894  1
  O  O48  1  0.294985  0.858651  0.636170  1
  O  O49  1  0.733004  0.142336  0.623691  1
  O  O50  1  0.145233  0.710699  0.144125  1
  O  O51  1  0.854399  0.269922  0.128035  1
  O  O52  1  0.697367  0.851532  0.123973  1
  O  O53  1  0.289944  0.132859  0.112809  1
