# generated using pymatgen
data_UCl2O
_symmetry_space_group_name_H-M   'P 1'
_cell_length_a   3.99010048
_cell_length_b   15.28361206
_cell_length_c   17.98446862
_cell_angle_alpha   90.00000000
_cell_angle_beta   90.00000000
_cell_angle_gamma   90.00000000
_symmetry_Int_Tables_number   1
_chemical_formula_structural   UCl2O
_chemical_formula_sum   'U12 Cl24 O12'
_cell_volume   1096.74950826
_cell_formula_units_Z   12
loop_
 _symmetry_equiv_pos_site_id
 _symmetry_equiv_pos_as_xyz
  1  'x, y, z'
loop_
 _atom_site_type_symbol
 _atom_site_label
 _atom_site_symmetry_multiplicity
 _atom_site_fract_x
 _atom_site_fract_y
 _atom_site_fract_z
 _atom_site_occupancy
  U  U0  1  0.000000  0.841056  0.835800  1
  U  U1  1  0.500000  0.663713  0.751432  1
  U  U2  1  0.500000  0.218227  0.526686  1
  U  U3  1  0.000000  0.658944  0.335800  1
  U  U4  1  0.500000  0.163713  0.748568  1
  U  U5  1  0.500000  0.781773  0.473314  1
  U  U6  1  0.500000  0.718227  0.973314  1
  U  U7  1  0.500000  0.281773  0.026686  1
  U  U8  1  0.000000  0.341056  0.664200  1
  U  U9  1  0.500000  0.836287  0.251432  1
  U  U10  1  0.500000  0.336287  0.248568  1
  U  U11  1  0.000000  0.158944  0.164200  1
  Cl  Cl12  1  0.500000  0.571127  0.882747  1
  Cl  Cl13  1  0.500000  0.360818  0.780892  1
  Cl  Cl14  1  0.500000  0.674713  0.596538  1
  Cl  Cl15  1  0.000000  0.621940  0.045211  1
  Cl  Cl16  1  0.500000  0.566121  0.415093  1
  Cl  Cl17  1  0.500000  0.174713  0.903462  1
  Cl  Cl18  1  0.500000  0.433879  0.584907  1
  Cl  Cl19  1  0.000000  0.878060  0.545211  1
  Cl  Cl20  1  0.500000  0.639182  0.219108  1
  Cl  Cl21  1  0.000000  0.969605  0.217127  1
  Cl  Cl22  1  0.500000  0.071127  0.617253  1
  Cl  Cl23  1  0.000000  0.530395  0.717127  1
  Cl  Cl24  1  0.000000  0.378060  0.954789  1
  Cl  Cl25  1  0.000000  0.469605  0.282873  1
  Cl  Cl26  1  0.500000  0.066121  0.084907  1
  Cl  Cl27  1  0.500000  0.933879  0.915093  1
  Cl  Cl28  1  0.500000  0.139182  0.280892  1
  Cl  Cl29  1  0.000000  0.030395  0.782873  1
  Cl  Cl30  1  0.500000  0.860818  0.719108  1
  Cl  Cl31  1  0.500000  0.825287  0.096538  1
  Cl  Cl32  1  0.500000  0.325287  0.403462  1
  Cl  Cl33  1  0.500000  0.428873  0.117253  1
  Cl  Cl34  1  0.500000  0.928873  0.382747  1
  Cl  Cl35  1  0.000000  0.121940  0.454789  1
  O  O36  1  0.000000  0.272318  0.554895  1
  O  O37  1  0.000000  0.727682  0.445105  1
  O  O38  1  0.000000  0.772318  0.945105  1
  O  O39  1  0.000000  0.714101  0.765893  1
  O  O40  1  0.500000  0.260108  0.648487  1
  O  O41  1  0.000000  0.227682  0.054895  1
  O  O42  1  0.000000  0.785899  0.265893  1
  O  O43  1  0.500000  0.760108  0.851513  1
  O  O44  1  0.500000  0.239892  0.148487  1
  O  O45  1  0.500000  0.739892  0.351513  1
  O  O46  1  0.000000  0.285899  0.234107  1
  O  O47  1  0.000000  0.214101  0.734107  1
