# generated using pymatgen
data_Gd5AgS8
_symmetry_space_group_name_H-M   'P 1'
_cell_length_a   7.25055762
_cell_length_b   7.25055783
_cell_length_c   7.25055800
_cell_angle_alpha   109.53376241
_cell_angle_beta   109.53376294
_cell_angle_gamma   109.34620863
_symmetry_Int_Tables_number   1
_chemical_formula_structural   Gd5AgS8
_chemical_formula_sum   'Gd5 Ag1 S8'
_cell_volume   293.42074856
_cell_formula_units_Z   1
loop_
 _symmetry_equiv_pos_site_id
 _symmetry_equiv_pos_as_xyz
  1  'x, y, z'
loop_
 _atom_site_type_symbol
 _atom_site_label
 _atom_site_symmetry_multiplicity
 _atom_site_fract_x
 _atom_site_fract_y
 _atom_site_fract_z
 _atom_site_occupancy
  Gd  Gd0  1  0.110590  0.746337  0.868958  1
  Gd  Gd1  1  0.253663  0.622621  0.364254  1
  Gd  Gd2  1  0.377379  0.241633  0.631042  1
  Gd  Gd3  1  0.758367  0.889409  0.135746  1
  Gd  Gd4  1  0.625000  0.375000  0.250000  1
  Ag  Ag5  1  0.875000  0.125000  0.750000  1
  S  S6  1  -0.003715  0.855249  0.499680  1
  S  S7  1  0.005972  0.365487  0.491501  1
  S  S8  1  0.503395  0.003715  0.358965  1
  S  S9  1  0.144751  0.144431  0.141035  1
  S  S10  1  0.373986  0.514471  0.008499  1
  S  S11  1  0.634513  0.626014  0.640485  1
  S  S12  1  0.485529  -0.005972  0.859515  1
  S  S13  1  0.855569  0.496605  0.000320  1
