# generated using pymatgen
data_AsH2C2NCl2O
_symmetry_space_group_name_H-M   'P 1'
_cell_length_a   7.49498799
_cell_length_b   7.49498799
_cell_length_c   17.35801194
_cell_angle_alpha   90.00000000
_cell_angle_beta   90.00000000
_cell_angle_gamma   43.32822918
_symmetry_Int_Tables_number   1
_chemical_formula_structural   AsH2C2NCl2O
_chemical_formula_sum   'As4 H8 C8 N4 Cl8 O4'
_cell_volume   669.07980089
_cell_formula_units_Z   4
loop_
 _symmetry_equiv_pos_site_id
 _symmetry_equiv_pos_as_xyz
  1  'x, y, z'
loop_
 _atom_site_type_symbol
 _atom_site_label
 _atom_site_symmetry_multiplicity
 _atom_site_fract_x
 _atom_site_fract_y
 _atom_site_fract_z
 _atom_site_occupancy
  As  As0  1  0.627225  0.627225  0.706546  1
  As  As1  1  0.372775  0.372775  0.293454  1
  As  As2  1  0.872775  0.872775  0.206546  1
  As  As3  1  0.127225  0.127225  0.793454  1
  H  H4  1  0.514050  0.159277  0.836717  1
  H  H5  1  0.840723  0.485950  0.163283  1
  H  H6  1  0.340723  -0.014050  0.336717  1
  H  H7  1  0.014050  0.659277  0.663283  1
  H  H8  1  0.485950  0.840723  0.163283  1
  H  H9  1  0.159277  0.514050  0.836717  1
  H  H10  1  0.659277  0.014050  0.663283  1
  H  H11  1  -0.014050  0.340723  0.336717  1
  C  C12  1  0.360514  0.360514  0.860604  1
  C  C13  1  0.639486  0.639486  0.139396  1
  C  C14  1  0.139486  0.139486  0.360604  1
  C  C15  1  0.860514  0.860514  0.639396  1
  C  C16  1  0.465772  0.465772  0.975130  1
  C  C17  1  0.534228  0.534228  0.024870  1
  C  C18  1  0.034228  0.034228  0.475130  1
  C  C19  1  0.965772  0.965772  0.524870  1
  N  N20  1  0.409849  0.409849  0.921692  1
  N  N21  1  0.590151  0.590151  0.078308  1
  N  N22  1  0.090151  0.090151  0.421692  1
  N  N23  1  0.909849  0.909849  0.578308  1
  Cl  Cl24  1  0.746920  0.746920  0.840755  1
  Cl  Cl25  1  0.253080  0.253080  0.159245  1
  Cl  Cl26  1  0.753080  0.753080  0.340755  1
  Cl  Cl27  1  0.246920  0.246920  0.659245  1
  Cl  Cl28  1  0.540917  0.540917  0.592926  1
  Cl  Cl29  1  0.459083  0.459083  0.407074  1
  Cl  Cl30  1  0.959083  0.959083  0.092926  1
  Cl  Cl31  1  0.040917  0.040917  0.907074  1
  O  O32  1  0.808214  0.308214  0.750000  1
  O  O33  1  0.691786  0.191786  0.250000  1
  O  O34  1  0.191786  0.691786  0.250000  1
  O  O35  1  0.308214  0.808214  0.750000  1
