# generated using pymatgen
data_Cs2Co(PO3)4
_symmetry_space_group_name_H-M   'P 1'
_cell_length_a   8.58153894
_cell_length_b   12.32115265
_cell_length_c   12.77255333
_cell_angle_alpha   90.00000000
_cell_angle_beta   107.88317592
_cell_angle_gamma   90.00000000
_symmetry_Int_Tables_number   1
_chemical_formula_structural   Cs2Co(PO3)4
_chemical_formula_sum   'Cs8 Co4 P16 O48'
_cell_volume   1285.24904175
_cell_formula_units_Z   4
loop_
 _symmetry_equiv_pos_site_id
 _symmetry_equiv_pos_as_xyz
  1  'x, y, z'
loop_
 _atom_site_type_symbol
 _atom_site_label
 _atom_site_symmetry_multiplicity
 _atom_site_fract_x
 _atom_site_fract_y
 _atom_site_fract_z
 _atom_site_occupancy
  Cs  Cs0  1  0.274399  0.558918  0.022177  1
  Cs  Cs1  1  0.240776  0.892150  0.830066  1
  Cs  Cs2  1  0.774399  0.941082  0.522177  1
  Cs  Cs3  1  0.225601  0.058918  0.477823  1
  Cs  Cs4  1  0.740776  0.607850  0.330066  1
  Cs  Cs5  1  0.725601  0.441082  0.977823  1
  Cs  Cs6  1  0.259224  0.392150  0.669934  1
  Cs  Cs7  1  0.759224  0.107850  0.169934  1
  Co  Co8  1  0.728302  0.266864  0.687902  1
  Co  Co9  1  0.271698  0.733136  0.312098  1
  Co  Co10  1  0.228302  0.233136  0.187902  1
  Co  Co11  1  0.771698  0.766864  0.812098  1
  P  P12  1  0.485442  0.144035  0.807252  1
  P  P13  1  0.208021  0.957709  0.184164  1
  P  P14  1  0.499538  0.725119  0.572356  1
  P  P15  1  0.791979  0.042291  0.815836  1
  P  P16  1  0.514558  0.855965  0.192748  1
  P  P17  1  0.014558  0.644035  0.692748  1
  P  P18  1  0.999538  0.774881  0.072356  1
  P  P19  1  0.152073  0.733050  0.527620  1
  P  P20  1  0.708021  0.542291  0.684164  1
  P  P21  1  0.291979  0.457709  0.315836  1
  P  P22  1  0.500462  0.274881  0.427644  1
  P  P23  1  0.000462  0.225119  0.927644  1
  P  P24  1  0.347927  0.233050  0.972380  1
  P  P25  1  0.985442  0.355965  0.307252  1
  P  P26  1  0.652073  0.766950  0.027620  1
  P  P27  1  0.847927  0.266950  0.472380  1
  O  O28  1  0.397053  0.386234  0.421216  1
  O  O29  1  0.831569  0.821794  0.087491  1
  O  O30  1  0.927389  0.745724  0.710430  1
  O  O31  1  0.668431  0.321794  0.412509  1
  O  O32  1  0.786604  0.099958  0.710540  1
  O  O33  1  0.171955  0.610822  0.775210  1
  O  O34  1  0.143543  0.071502  0.168965  1
  O  O35  1  0.828045  0.389178  0.224790  1
  O  O36  1  0.213396  0.900042  0.289460  1
  O  O37  1  0.602947  0.613766  0.578784  1
  O  O38  1  0.467224  0.770672  0.457986  1
  O  O39  1  0.612997  0.041906  0.833015  1
  O  O40  1  0.917442  0.300344  0.834035  1
  O  O41  1  0.032776  0.270672  0.042014  1
  O  O42  1  0.962943  0.350691  0.430282  1
  O  O43  1  0.462943  0.149309  0.930282  1
  O  O44  1  0.387003  0.958094  0.166985  1
  O  O45  1  0.532776  0.229328  0.542014  1
  O  O46  1  0.713396  0.599958  0.789460  1
  O  O47  1  0.643134  0.655507  0.072144  1
  O  O48  1  0.286604  0.400042  0.210540  1
  O  O49  1  0.897053  0.113766  0.921216  1
  O  O50  1  0.102947  0.886234  0.078784  1
  O  O51  1  0.328045  0.110822  0.724790  1
  O  O52  1  0.891898  0.286034  0.594742  1
  O  O53  1  0.643543  0.428498  0.668965  1
  O  O54  1  0.168431  0.178206  0.912509  1
  O  O55  1  0.572611  0.245724  0.789570  1
  O  O56  1  0.331569  0.678206  0.587491  1
  O  O57  1  0.671955  0.889178  0.275210  1
  O  O58  1  0.887003  0.541906  0.666985  1
  O  O59  1  0.108102  0.713966  0.405258  1
  O  O60  1  0.072611  0.254276  0.289570  1
  O  O61  1  0.856457  0.928498  0.831035  1
  O  O62  1  0.417442  0.199656  0.334035  1
  O  O63  1  0.082558  0.699656  0.165965  1
  O  O64  1  0.356457  0.571502  0.331035  1
  O  O65  1  0.356866  0.344493  0.927856  1
  O  O66  1  0.427389  0.754276  0.210430  1
  O  O67  1  0.537057  0.850691  0.069718  1
  O  O68  1  0.112997  0.458094  0.333015  1
  O  O69  1  0.608102  0.786034  0.905258  1
  O  O70  1  0.582558  0.800344  0.665965  1
  O  O71  1  0.037057  0.649309  0.569718  1
  O  O72  1  0.143134  0.844493  0.572144  1
  O  O73  1  0.967224  0.729328  0.957986  1
  O  O74  1  0.391898  0.213966  0.094742  1
  O  O75  1  0.856866  0.155507  0.427856  1
