# generated using pymatgen
data_Cs4Th2P5Se17
_symmetry_space_group_name_H-M   'P 1'
_cell_length_a   10.41140913
_cell_length_b   11.05217164
_cell_length_c   33.28272106
_cell_angle_alpha   90.00000000
_cell_angle_beta   90.00000000
_cell_angle_gamma   95.89740236
_symmetry_Int_Tables_number   1
_chemical_formula_structural   Cs4Th2P5Se17
_chemical_formula_sum   'Cs16 Th8 P20 Se68'
_cell_volume   3809.52950369
_cell_formula_units_Z   4
loop_
 _symmetry_equiv_pos_site_id
 _symmetry_equiv_pos_as_xyz
  1  'x, y, z'
loop_
 _atom_site_type_symbol
 _atom_site_label
 _atom_site_symmetry_multiplicity
 _atom_site_fract_x
 _atom_site_fract_y
 _atom_site_fract_z
 _atom_site_occupancy
  Cs  Cs0  1  0.691284  0.196743  0.266127  1
  Cs  Cs1  1  0.802490  0.834006  0.727809  1
  Cs  Cs2  1  0.308716  0.803257  0.733873  1
  Cs  Cs3  1  0.691284  0.696743  0.233873  1
  Cs  Cs4  1  0.197510  0.165994  0.272191  1
  Cs  Cs5  1  0.822101  0.353717  0.945429  1
  Cs  Cs6  1  0.822101  0.853717  0.554571  1
  Cs  Cs7  1  0.177899  0.146283  0.445429  1
  Cs  Cs8  1  0.308716  0.303257  0.766127  1
  Cs  Cs9  1  0.302861  0.267529  0.934903  1
  Cs  Cs10  1  0.197510  0.665994  0.227809  1
  Cs  Cs11  1  0.302861  0.767529  0.565097  1
  Cs  Cs12  1  0.177899  0.646283  0.054571  1
  Cs  Cs13  1  0.697139  0.232471  0.434903  1
  Cs  Cs14  1  0.802490  0.334006  0.772191  1
  Cs  Cs15  1  0.697139  0.732471  0.065097  1
  Th  Th16  1  0.648151  0.709049  0.400414  1
  Th  Th17  1  0.648151  0.209049  0.099586  1
  Th  Th18  1  0.209473  0.659892  0.391266  1
  Th  Th19  1  0.790527  0.840108  0.891266  1
  Th  Th20  1  0.209473  0.159892  0.108734  1
  Th  Th21  1  0.351849  0.790951  0.900414  1
  Th  Th22  1  0.790527  0.340108  0.608734  1
  Th  Th23  1  0.351849  0.290951  0.599586  1
  P  P24  1  0.976770  0.553530  0.471067  1
  P  P25  1  0.382214  0.997256  0.186239  1
  P  P26  1  0.617786  0.502744  0.686239  1
  P  P27  1  0.023230  0.446470  0.528933  1
  P  P28  1  0.382214  0.497256  0.313761  1
  P  P29  1  0.996370  0.862520  0.334585  1
  P  P30  1  0.140489  0.517963  0.864965  1
  P  P31  1  0.996370  0.362520  0.165415  1
  P  P32  1  0.003630  0.137480  0.665415  1
  P  P33  1  0.517759  0.095029  0.863266  1
  P  P34  1  0.023230  0.946470  0.971067  1
  P  P35  1  0.482241  0.904971  0.136734  1
  P  P36  1  0.517759  0.595029  0.636734  1
  P  P37  1  0.859511  0.982037  0.364965  1
  P  P38  1  0.140489  0.017963  0.635035  1
  P  P39  1  0.482241  0.404971  0.363266  1
  P  P40  1  0.976770  0.053530  0.028933  1
  P  P41  1  0.859511  0.482037  0.135035  1
  P  P42  1  0.003630  0.637480  0.834585  1
  P  P43  1  0.617786  0.002744  0.813761  1
  Se  Se44  1  0.313204  0.523345  0.646136  1
  Se  Se45  1  0.983568  0.886402  0.270730  1
  Se  Se46  1  0.064708  0.323697  0.640425  1
  Se  Se47  1  0.194485  0.912049  0.359486  1
  Se  Se48  1  0.935292  0.676303  0.359575  1
  Se  Se49  1  0.173399  0.965736  0.172206  1
  Se  Se50  1  0.561748  0.061624  0.755363  1
  Se  Se51  1  0.433496  0.210819  0.360593  1
  Se  Se52  1  0.890108  0.276261  0.528269  1
  Se  Se53  1  0.438252  0.438376  0.255363  1
  Se  Se54  1  0.566504  0.289181  0.860593  1
  Se  Se55  1  0.031386  0.442461  0.419691  1
  Se  Se56  1  0.566504  0.789181  0.639407  1
  Se  Se57  1  0.230036  0.919705  0.974687  1
  Se  Se58  1  0.930422  0.669487  0.145684  1
  Se  Se59  1  0.463114  0.747416  0.978511  1
  Se  Se60  1  0.890108  0.776261  0.971731  1
  Se  Se61  1  0.064708  0.823697  0.859575  1
  Se  Se62  1  0.769964  0.580295  0.474687  1
  Se  Se63  1  0.016432  0.113598  0.729270  1
  Se  Se64  1  0.433496  0.710819  0.139407  1
  Se  Se65  1  0.839259  0.424314  0.071369  1
  Se  Se66  1  0.160741  0.075686  0.571369  1
  Se  Se67  1  0.069578  0.330513  0.854316  1
  Se  Se68  1  0.769964  0.080295  0.025313  1
  Se  Se69  1  0.323503  0.595463  0.836155  1
  Se  Se70  1  0.536886  0.752584  0.478511  1
  Se  Se71  1  0.016432  0.613598  0.770730  1
  Se  Se72  1  0.426356  0.502123  0.419577  1
  Se  Se73  1  0.676497  0.404537  0.163846  1
  Se  Se74  1  0.463114  0.247416  0.521489  1
  Se  Se75  1  0.576085  0.653911  0.926219  1
  Se  Se76  1  0.826601  0.534264  0.672206  1
  Se  Se77  1  0.826601  0.034264  0.827794  1
  Se  Se78  1  0.194485  0.412049  0.140514  1
  Se  Se79  1  0.983568  0.386402  0.229270  1
  Se  Se80  1  0.438252  0.938376  0.244637  1
  Se  Se81  1  0.573644  0.997877  0.919577  1
  Se  Se82  1  0.935292  0.176303  0.140425  1
  Se  Se83  1  0.805515  0.087951  0.640514  1
  Se  Se84  1  0.434205  0.694854  0.329845  1
  Se  Se85  1  0.423915  0.846089  0.426219  1
  Se  Se86  1  0.839259  0.924314  0.428631  1
  Se  Se87  1  0.805515  0.587951  0.859486  1
  Se  Se88  1  0.561748  0.561624  0.744637  1
  Se  Se89  1  0.109892  0.723739  0.471731  1
  Se  Se90  1  0.230036  0.419705  0.525313  1
  Se  Se91  1  0.173399  0.465736  0.327794  1
  Se  Se92  1  0.536886  0.252584  0.021489  1
  Se  Se93  1  0.434205  0.194854  0.170155  1
  Se  Se94  1  0.160741  0.575686  0.928631  1
  Se  Se95  1  0.968614  0.557539  0.580309  1
  Se  Se96  1  0.323503  0.095463  0.663845  1
  Se  Se97  1  0.565795  0.305146  0.670155  1
  Se  Se98  1  0.565795  0.805146  0.829845  1
  Se  Se99  1  0.686796  0.976655  0.146136  1
  Se  Se100  1  0.423915  0.346089  0.073781  1
  Se  Se101  1  0.426356  0.002123  0.080423  1
  Se  Se102  1  0.686796  0.476655  0.353864  1
  Se  Se103  1  0.573644  0.497877  0.580423  1
  Se  Se104  1  0.676497  0.904537  0.336155  1
  Se  Se105  1  0.313204  0.023345  0.853864  1
  Se  Se106  1  0.930422  0.169487  0.354316  1
  Se  Se107  1  0.576085  0.153911  0.573781  1
  Se  Se108  1  0.968614  0.057539  0.919691  1
  Se  Se109  1  0.031386  0.942461  0.080309  1
  Se  Se110  1  0.109892  0.223739  0.028269  1
  Se  Se111  1  0.069578  0.830513  0.645684  1
