# generated using pymatgen
data_Ce2In3Ru2
_symmetry_space_group_name_H-M   'P 1'
_cell_length_a   4.70903456
_cell_length_b   7.52404518
_cell_length_c   17.71355529
_cell_angle_alpha   90.06157739
_cell_angle_beta   90.01007454
_cell_angle_gamma   90.00078300
_symmetry_Int_Tables_number   1
_chemical_formula_structural   Ce2In3Ru2
_chemical_formula_sum   'Ce8 In12 Ru8'
_cell_volume   627.60840657
_cell_formula_units_Z   4
loop_
 _symmetry_equiv_pos_site_id
 _symmetry_equiv_pos_as_xyz
  1  'x, y, z'
loop_
 _atom_site_type_symbol
 _atom_site_label
 _atom_site_symmetry_multiplicity
 _atom_site_fract_x
 _atom_site_fract_y
 _atom_site_fract_z
 _atom_site_occupancy
  Ce  Ce0  1  0.750184  0.063089  0.146093  1
  Ce  Ce1  1  0.249910  0.562918  0.354184  1
  Ce  Ce2  1  0.250070  0.447410  0.924547  1
  Ce  Ce3  1  0.749820  0.947685  0.574966  1
  Ce  Ce4  1  0.249845  0.937090  0.853634  1
  Ce  Ce5  1  0.749958  0.437456  0.646162  1
  Ce  Ce6  1  0.249884  0.052039  0.425118  1
  Ce  Ce7  1  0.750248  0.553181  0.075382  1
  In  In8  1  0.250310  0.769507  0.193661  1
  In  In9  1  0.749950  0.126225  0.967266  1
  In  In10  1  0.249912  0.626534  0.532514  1
  In  In11  1  0.250214  0.358263  0.185351  1
  In  In12  1  0.749919  0.268986  0.306845  1
  In  In13  1  0.249917  0.141714  0.685189  1
  In  In14  1  0.749955  0.373224  0.468254  1
  In  In15  1  0.749932  0.642050  0.814575  1
  In  In16  1  0.749922  0.230506  0.806274  1
  In  In17  1  0.749925  0.858691  0.314866  1
  In  In18  1  0.250145  0.873060  0.031883  1
  In  In19  1  0.249998  0.730700  0.693349  1
  Ru  Ru20  1  0.249978  0.239151  0.531789  1
  Ru  Ru21  1  0.249895  0.434421  0.788949  1
  Ru  Ru22  1  0.249991  0.260360  0.031525  1
  Ru  Ru23  1  0.249830  0.065701  0.289829  1
  Ru  Ru24  1  0.750108  0.739947  0.968059  1
  Ru  Ru25  1  0.750012  0.934298  0.710530  1
  Ru  Ru26  1  0.750325  0.565559  0.210794  1
  Ru  Ru27  1  0.749846  0.760234  0.468412  1
