# generated using pymatgen
data_MgIn2O4
_symmetry_space_group_name_H-M   'P 1'
_cell_length_a   6.36293121
_cell_length_b   6.43048274
_cell_length_c   31.87195152
_cell_angle_alpha   59.70848172
_cell_angle_beta   59.75670762
_cell_angle_gamma   59.64819273
_symmetry_Int_Tables_number   1
_chemical_formula_structural   MgIn2O4
_chemical_formula_sum   'Mg10 In20 O40'
_cell_volume   915.94299073
_cell_formula_units_Z   10
loop_
 _symmetry_equiv_pos_site_id
 _symmetry_equiv_pos_as_xyz
  1  'x, y, z'
loop_
 _atom_site_type_symbol
 _atom_site_label
 _atom_site_symmetry_multiplicity
 _atom_site_fract_x
 _atom_site_fract_y
 _atom_site_fract_z
 _atom_site_occupancy
  Mg  Mg0  1  0.996350  0.002407  0.999767  1
  Mg  Mg1  1  0.118778  0.626593  0.125607  1
  Mg  Mg2  1  0.124811  0.624908  0.325075  1
  Mg  Mg3  1  0.624624  0.624221  0.225387  1
  Mg  Mg4  1  0.124848  0.624900  0.525070  1
  Mg  Mg5  1  0.624886  0.624833  0.425090  1
  Mg  Mg6  1  0.124860  0.624872  0.725079  1
  Mg  Mg7  1  0.624810  0.624818  0.625111  1
  Mg  Mg8  1  0.125644  0.625827  0.924540  1
  Mg  Mg9  1  0.625052  0.625061  0.824965  1
  In  In10  1  0.257713  0.247642  0.049401  1
  In  In11  1  0.629203  0.627891  0.023003  1
  In  In12  1  0.627797  0.117614  0.125574  1
  In  In13  1  0.255333  0.245503  0.250732  1
  In  In14  1  0.627797  0.626717  0.125574  1
  In  In15  1  0.624930  0.124827  0.325117  1
  In  In16  1  0.994881  0.004617  0.599177  1
  In  In17  1  0.254678  0.245164  0.450999  1
  In  In18  1  0.624930  0.624660  0.325117  1
  In  In19  1  0.254624  0.245208  0.650992  1
  In  In20  1  0.994013  0.004235  0.199504  1
  In  In21  1  0.624853  0.124876  0.525095  1
  In  In22  1  0.624853  0.624796  0.525095  1
  In  In23  1  0.994945  0.004472  0.399222  1
  In  In24  1  0.624836  0.124895  0.725114  1
  In  In25  1  0.254114  0.244658  0.851314  1
  In  In26  1  0.624836  0.624699  0.725114  1
  In  In27  1  0.625706  0.126082  0.924482  1
  In  In28  1  0.625706  0.625802  0.924482  1
  In  In29  1  0.995334  0.004745  0.799035  1
  O  O30  1  0.376262  0.387615  0.078006  1
  O  O31  1  0.378708  0.387986  0.169064  1
  O  O32  1  0.376262  0.846093  0.078006  1
  O  O33  1  0.850644  0.381938  0.077096  1
  O  O34  1  0.399867  0.861810  0.175303  1
  O  O35  1  0.382300  0.391898  0.276317  1
  O  O36  1  0.873080  0.864944  0.079406  1
  O  O37  1  0.868918  0.404290  0.173992  1
  O  O38  1  0.376307  0.387938  0.369563  1
  O  O39  1  0.382300  0.844219  0.276317  1
  O  O40  1  0.848190  0.387944  0.275184  1
  O  O41  1  0.868918  0.856833  0.173992  1
  O  O42  1  0.402205  0.862181  0.374686  1
  O  O43  1  0.382162  0.391896  0.476334  1
  O  O44  1  0.873538  0.862023  0.280483  1
  O  O45  1  0.868227  0.405791  0.373532  1
  O  O46  1  0.376300  0.387951  0.569559  1
  O  O47  1  0.382162  0.844271  0.476334  1
  O  O48  1  0.847884  0.388045  0.475205  1
  O  O49  1  0.868227  0.858321  0.373532  1
  O  O50  1  0.402176  0.862216  0.574679  1
  O  O51  1  0.382156  0.391869  0.676347  1
  O  O52  1  0.873763  0.862173  0.480378  1
  O  O53  1  0.868124  0.405905  0.573528  1
  O  O54  1  0.376102  0.387707  0.769697  1
  O  O55  1  0.382156  0.844237  0.676347  1
  O  O56  1  0.847794  0.388065  0.675215  1
  O  O57  1  0.868124  0.858331  0.573528  1
  O  O58  1  0.402318  0.862253  0.774635  1
  O  O59  1  0.382617  0.392697  0.876183  1
  O  O60  1  0.873736  0.862279  0.680341  1
  O  O61  1  0.868205  0.405880  0.773516  1
  O  O62  1  0.375597  0.388356  0.969538  1
  O  O63  1  0.382617  0.843772  0.876183  1
  O  O64  1  0.847497  0.388680  0.875028  1
  O  O65  1  0.868205  0.858333  0.773516  1
  O  O66  1  0.389822  0.870955  0.973654  1
  O  O67  1  0.874451  0.862568  0.880083  1
  O  O68  1  0.873168  0.395780  0.972928  1
  O  O69  1  0.873168  0.866413  0.972928  1
