# generated using pymatgen
data_Te(HO)6
_symmetry_space_group_name_H-M   'P 1'
_cell_length_a   5.87020641
_cell_length_b   5.72583706
_cell_length_c   5.39025207
_cell_angle_alpha   63.66782936
_cell_angle_beta   60.94994465
_cell_angle_gamma   55.38222599
_symmetry_Int_Tables_number   1
_chemical_formula_structural   Te(HO)6
_chemical_formula_sum   'Te1 H6 O6'
_cell_volume   126.75183222
_cell_formula_units_Z   1
loop_
 _symmetry_equiv_pos_site_id
 _symmetry_equiv_pos_as_xyz
  1  'x, y, z'
loop_
 _atom_site_type_symbol
 _atom_site_label
 _atom_site_symmetry_multiplicity
 _atom_site_fract_x
 _atom_site_fract_y
 _atom_site_fract_z
 _atom_site_occupancy
  Te  Te0  1  0.023847  0.976153  0.976153  1
  H  H1  1  0.144895  0.377572  0.855105  1
  H  H2  1  0.211720  0.788280  0.416408  1
  H  H3  1  0.547958  0.452042  0.235887  1
  H  H4  1  0.764113  0.235887  0.452042  1
  H  H5  1  0.622428  0.855105  0.377572  1
  H  H6  1  0.583592  0.416408  0.788280  1
  O  O7  1  0.273937  0.726063  0.726063  1
  O  O8  1  0.229699  0.212275  0.770301  1
  O  O9  1  0.266697  0.733303  0.235158  1
  O  O10  1  0.736702  0.263298  0.263298  1
  O  O11  1  0.787725  0.770301  0.212275  1
  O  O12  1  0.764842  0.235158  0.733303  1
