# generated using pymatgen
data_KEuPS4
_symmetry_space_group_name_H-M   'P 1'
_cell_length_a   6.54061410
_cell_length_b   6.64549767
_cell_length_c   16.85893933
_cell_angle_alpha   90.00000000
_cell_angle_beta   90.00000000
_cell_angle_gamma   90.00000000
_symmetry_Int_Tables_number   1
_chemical_formula_structural   KEuPS4
_chemical_formula_sum   'K4 Eu4 P4 S16'
_cell_volume   732.78451625
_cell_formula_units_Z   4
loop_
 _symmetry_equiv_pos_site_id
 _symmetry_equiv_pos_as_xyz
  1  'x, y, z'
loop_
 _atom_site_type_symbol
 _atom_site_label
 _atom_site_symmetry_multiplicity
 _atom_site_fract_x
 _atom_site_fract_y
 _atom_site_fract_z
 _atom_site_occupancy
  Eu  Eu0  1  0.291956  0.250000  0.477968  1
  Eu  Eu1  1  0.708044  0.750000  0.522032  1
  Eu  Eu2  1  0.791956  0.750000  0.022032  1
  Eu  Eu3  1  0.208044  0.250000  0.977968  1
  K  K4  1  0.981448  0.750000  0.288280  1
  K  K5  1  0.518552  0.750000  0.788280  1
  K  K6  1  0.018552  0.250000  0.711720  1
  K  K7  1  0.481448  0.250000  0.211720  1
  P  P8  1  0.779145  0.250000  0.401921  1
  P  P9  1  0.279145  0.750000  0.098079  1
  P  P10  1  0.720855  0.250000  0.901921  1
  P  P11  1  0.220855  0.750000  0.598079  1
  S  S12  1  0.034687  0.250000  0.332298  1
  S  S13  1  0.465313  0.250000  0.832298  1
  S  S14  1  0.600428  0.001673  0.378614  1
  S  S15  1  0.399572  0.501673  0.621386  1
  S  S16  1  0.899572  0.001673  0.878614  1
  S  S17  1  0.844242  0.250000  0.521979  1
  S  S18  1  0.344242  0.750000  0.978021  1
  S  S19  1  0.399572  0.998327  0.621386  1
  S  S20  1  0.155758  0.750000  0.478021  1
  S  S21  1  0.600428  0.498327  0.378614  1
  S  S22  1  0.100428  0.998327  0.121386  1
  S  S23  1  0.899572  0.498327  0.878614  1
  S  S24  1  0.655758  0.250000  0.021979  1
  S  S25  1  0.965313  0.750000  0.667702  1
  S  S26  1  0.100428  0.501673  0.121386  1
  S  S27  1  0.534687  0.750000  0.167702  1
