# generated using pymatgen
data_NaH3CN4O
_symmetry_space_group_name_H-M   'P 1'
_cell_length_a   5.87714199
_cell_length_b   5.72283175
_cell_length_c   6.52669403
_cell_angle_alpha   89.99999878
_cell_angle_beta   90.00001701
_cell_angle_gamma   90.00000405
_symmetry_Int_Tables_number   1
_chemical_formula_structural   NaH3CN4O
_chemical_formula_sum   'Na2 H6 C2 N8 O2'
_cell_volume   219.51814026
_cell_formula_units_Z   2
loop_
 _symmetry_equiv_pos_site_id
 _symmetry_equiv_pos_as_xyz
  1  'x, y, z'
loop_
 _atom_site_type_symbol
 _atom_site_label
 _atom_site_symmetry_multiplicity
 _atom_site_fract_x
 _atom_site_fract_y
 _atom_site_fract_z
 _atom_site_occupancy
  Na  Na0  1  0.999999  0.000002  0.500000  1
  Na  Na1  1  0.000000  0.000001  0.000000  1
  H  H2  1  0.500000  0.824196  0.250000  1
  H  H3  1  0.500000  0.175803  0.750000  1
  H  H4  1  0.864191  0.590152  0.250000  1
  H  H5  1  0.864191  0.409848  0.750000  1
  H  H6  1  0.135808  0.409848  0.750000  1
  H  H7  1  0.135809  0.590151  0.250000  1
  C  C8  1  0.500000  0.014723  0.250000  1
  C  C9  1  0.500000  0.985276  0.750000  1
  N  N10  1  0.612114  0.368615  0.250000  1
  N  N11  1  0.612113  0.631384  0.750000  1
  N  N12  1  0.387886  0.631385  0.750000  1
  N  N13  1  0.387887  0.368615  0.250000  1
  N  N14  1  0.688742  0.145527  0.250000  1
  N  N15  1  0.688742  0.854473  0.750000  1
  N  N16  1  0.311258  0.854474  0.750000  1
  N  N17  1  0.311258  0.145527  0.250000  1
  O  O18  1  0.000001  0.693445  0.250000  1
  O  O19  1  1.000000  0.306555  0.750001  1
