# generated using pymatgen
data_InH5NOF4
_symmetry_space_group_name_H-M   'P 1'
_cell_length_a   6.85355588
_cell_length_b   6.33989783
_cell_length_c   5.88776780
_cell_angle_alpha   79.37259039
_cell_angle_beta   88.69673191
_cell_angle_gamma   69.39960285
_symmetry_Int_Tables_number   1
_chemical_formula_structural   InH5NOF4
_chemical_formula_sum   'In2 H10 N2 O2 F8'
_cell_volume   235.11541537
_cell_formula_units_Z   2
loop_
 _symmetry_equiv_pos_site_id
 _symmetry_equiv_pos_as_xyz
  1  'x, y, z'
loop_
 _atom_site_type_symbol
 _atom_site_label
 _atom_site_symmetry_multiplicity
 _atom_site_fract_x
 _atom_site_fract_y
 _atom_site_fract_z
 _atom_site_occupancy
  In  In0  1  0.276988  0.413829  0.565769  1
  In  In1  1  0.723012  0.586171  0.434231  1
  H  H2  1  0.439749  0.135252  0.243574  1
  H  H3  1  0.560251  0.864748  0.756426  1
  H  H4  1  0.282853  0.383213  0.105722  1
  H  H5  1  0.717147  0.616787  0.894278  1
  H  H6  1  0.815344  0.935204  0.040419  1
  H  H7  1  0.184656  0.064796  0.959581  1
  H  H8  1  0.029074  0.811927  0.879789  1
  H  H9  1  0.970926  0.188073  0.120211  1
  H  H10  1  0.866733  0.095489  0.791756  1
  H  H11  1  0.133267  0.904511  0.208244  1
  N  N12  1  0.934092  0.963916  0.933545  1
  N  N13  1  0.065908  0.036084  0.066455  1
  O  O14  1  0.306330  0.268025  0.253132  1
  O  O15  1  0.693670  0.731975  0.746868  1
  F  F16  1  0.215280  0.567538  0.862101  1
  F  F17  1  0.784720  0.432462  0.137899  1
  F  F18  1  0.008905  0.680678  0.376877  1
  F  F19  1  0.991095  0.319322  0.623123  1
  F  F20  1  0.365110  0.079486  0.782714  1
  F  F21  1  0.634890  0.920514  0.217286  1
  F  F22  1  0.616931  0.309854  0.615363  1
  F  F23  1  0.383069  0.690146  0.384637  1
