# generated using pymatgen
data_Ba11(Cd4Bi7)2
_symmetry_space_group_name_H-M   'P 1'
_cell_length_a   5.02523404
_cell_length_b   14.60726400
_cell_length_c   17.20853013
_cell_angle_alpha   91.38140407
_cell_angle_beta   90.00794779
_cell_angle_gamma   99.90640549
_symmetry_Int_Tables_number   1
_chemical_formula_structural   Ba11(Cd4Bi7)2
_chemical_formula_sum   'Ba11 Cd8 Bi14'
_cell_volume   1243.98329931
_cell_formula_units_Z   1
loop_
 _symmetry_equiv_pos_site_id
 _symmetry_equiv_pos_as_xyz
  1  'x, y, z'
loop_
 _atom_site_type_symbol
 _atom_site_label
 _atom_site_symmetry_multiplicity
 _atom_site_fract_x
 _atom_site_fract_y
 _atom_site_fract_z
 _atom_site_occupancy
  Ba  Ba0  1  0.750083  0.493651  0.701869  1
  Ba  Ba1  1  0.385148  0.762730  0.840291  1
  Ba  Ba2  1  0.145000  0.288138  0.534429  1
  Ba  Ba3  1  0.653753  0.309181  0.900679  1
  Ba  Ba4  1  0.990660  0.981005  0.633777  1
  Ba  Ba5  1  0.501355  0.999043  0.999410  1
  Ba  Ba6  1  0.249322  0.506207  0.298554  1
  Ba  Ba7  1  0.342539  0.688344  0.099047  1
  Ba  Ba8  1  0.855076  0.708596  0.465328  1
  Ba  Ba9  1  0.620267  0.234464  0.160551  1
  Ba  Ba10  1  0.006594  0.015739  0.366793  1
  Cd  Cd11  1  0.795257  0.594262  0.959322  1
  Cd  Cd12  1  0.375508  0.743148  0.611787  1
  Cd  Cd13  1  0.200443  0.402294  0.040791  1
  Cd  Cd14  1  0.589903  0.187660  0.685432  1
  Cd  Cd15  1  0.625659  0.252466  0.388544  1
  Cd  Cd16  1  0.938778  0.879085  0.157422  1
  Cd  Cd17  1  0.056004  0.119133  0.841550  1
  Cd  Cd18  1  0.408354  0.810773  0.314681  1
  Bi  Bi19  1  0.558915  0.113818  0.517565  1
  Bi  Bi20  1  0.906006  0.810991  0.987407  1
  Bi  Bi21  1  0.146636  0.297858  0.738786  1
  Bi  Bi22  1  0.096069  0.186114  0.012704  1
  Bi  Bi23  1  0.851625  0.700726  0.260928  1
  Bi  Bi24  1  0.873932  0.739521  0.699494  1
  Bi  Bi25  1  0.254949  0.513369  0.882833  1
  Bi  Bi26  1  0.440726  0.882377  0.483135  1
  Bi  Bi27  1  0.725885  0.457118  0.460521  1
  Bi  Bi28  1  0.489335  0.980052  0.209023  1
  Bi  Bi29  1  0.267998  0.539690  0.539850  1
  Bi  Bi30  1  0.130080  0.259768  0.301173  1
  Bi  Bi31  1  0.505510  0.017266  0.790549  1
  Bi  Bi32  1  0.741314  0.484031  0.116703  1
