# generated using pymatgen
data_Al17(NO7)3
_symmetry_space_group_name_H-M   'P 1'
_cell_length_a   5.70718167
_cell_length_b   16.94287408
_cell_length_c   9.85873993
_cell_angle_alpha   29.91056735
_cell_angle_beta   54.21857859
_cell_angle_gamma   59.47119602
_symmetry_Int_Tables_number   1
_chemical_formula_structural   Al17(NO7)3
_chemical_formula_sum   'Al17 N3 O21'
_cell_volume   385.63702735
_cell_formula_units_Z   1
loop_
 _symmetry_equiv_pos_site_id
 _symmetry_equiv_pos_as_xyz
  1  'x, y, z'
loop_
 _atom_site_type_symbol
 _atom_site_label
 _atom_site_symmetry_multiplicity
 _atom_site_fract_x
 _atom_site_fract_y
 _atom_site_fract_z
 _atom_site_occupancy
  Al  Al0  1  0.003127  0.994477  0.000555  1
  Al  Al1  1  0.246894  0.005950  0.249222  1
  Al  Al2  1  0.001113  0.330656  0.993056  1
  Al  Al3  1  0.108557  0.008884  0.623179  1
  Al  Al4  1  0.249403  0.339921  0.248415  1
  Al  Al5  1  0.993962  0.664116  0.998616  1
  Al  Al6  1  0.631762  0.172888  0.115832  1
  Al  Al7  1  0.621944  0.010028  0.620151  1
  Al  Al8  1  0.135929  0.326993  0.632339  1
  Al  Al9  1  0.257502  0.668682  0.251658  1
  Al  Al10  1  0.641173  0.490432  0.136016  1
  Al  Al11  1  0.631839  0.324391  0.627676  1
  Al  Al12  1  0.126366  0.665494  0.627034  1
  Al  Al13  1  0.631720  0.501963  0.616395  1
  Al  Al14  1  0.611771  0.841644  0.116601  1
  Al  Al15  1  0.626383  0.666581  0.625146  1
  Al  Al16  1  0.627091  0.828414  0.636665  1
  N  N17  1  0.385856  0.666152  0.387871  1
  N  N18  1  0.863727  0.336877  0.857160  1
  N  N19  1  0.866754  0.667265  0.861990  1
  O  O20  1  0.376352  0.159242  0.385207  1
  O  O21  1  0.384774  0.990438  0.878411  1
  O  O22  1  0.366687  0.352204  0.360615  1
  O  O23  1  0.894950  0.152393  0.379398  1
  O  O24  1  0.386124  0.490380  0.380922  1
  O  O25  1  0.368408  0.177711  0.869563  1
  O  O26  1  0.881369  0.982610  0.890047  1
  O  O27  1  0.868353  0.341752  0.371574  1
  O  O28  1  0.399121  0.329204  0.871272  1
  O  O29  1  0.866732  0.489996  0.394509  1
  O  O30  1  0.387026  0.511302  0.853494  1
  O  O31  1  0.870040  0.171126  0.869056  1
  O  O32  1  0.386907  0.830677  0.376373  1
  O  O33  1  0.857608  0.669610  0.380446  1
  O  O34  1  0.391775  0.001087  0.382990  1
  O  O35  1  0.392406  0.673001  0.856198  1
  O  O36  1  0.862268  0.505778  0.872093  1
  O  O37  1  0.858338  0.826087  0.394991  1
  O  O38  1  0.381596  0.847014  0.845895  1
  O  O39  1  0.848177  0.001076  0.381963  1
  O  O40  1  0.873159  0.846692  0.858905  1
