# generated using pymatgen
data_Rb8BaNaAl11Si13O48
_symmetry_space_group_name_H-M   'P 1'
_cell_length_a   12.61196170
_cell_length_b   12.27086139
_cell_length_c   12.24164517
_cell_angle_alpha   90.05717906
_cell_angle_beta   90.38534178
_cell_angle_gamma   90.28059582
_symmetry_Int_Tables_number   1
_chemical_formula_structural   Rb8BaNaAl11Si13O48
_chemical_formula_sum   'Rb8 Ba1 Na1 Al11 Si13 O48'
_cell_volume   1894.44595265
_cell_formula_units_Z   1
loop_
 _symmetry_equiv_pos_site_id
 _symmetry_equiv_pos_as_xyz
  1  'x, y, z'
loop_
 _atom_site_type_symbol
 _atom_site_label
 _atom_site_symmetry_multiplicity
 _atom_site_fract_x
 _atom_site_fract_y
 _atom_site_fract_z
 _atom_site_occupancy
  Rb  Rb0  1  0.016077  0.520264  0.526946  1
  Rb  Rb1  1  0.557440  0.537678  0.973861  1
  Rb  Rb2  1  0.556329  0.973430  0.536153  1
  Rb  Rb3  1  0.725654  0.291971  0.282096  1
  Rb  Rb4  1  0.741788  0.240746  0.761596  1
  Rb  Rb5  1  0.737225  0.763203  0.242507  1
  Rb  Rb6  1  0.252112  0.335530  0.326395  1
  Rb  Rb7  1  0.001668  0.866405  0.886867  1
  Ba  Ba8  1  0.824778  0.102951  0.100110  1
  Na  Na9  1  0.152759  0.162519  0.161176  1
  Al  Al10  1  0.998883  0.619299  0.809075  1
  Al  Al11  1  0.606569  0.193097  0.004945  1
  Al  Al12  1  0.606436  0.009419  0.191693  1
  Al  Al13  1  0.617859  0.812559  0.994358  1
  Al  Al14  1  0.618057  0.991338  0.812765  1
  Al  Al15  1  0.824575  0.367980  0.006862  1
  Al  Al16  1  0.818021  0.635174  0.000667  1
  Al  Al17  1  0.825310  0.008343  0.365074  1
  Al  Al18  1  0.818658  0.997401  0.632810  1
  Al  Al19  1  0.005707  0.191385  0.377478  1
  Al  Al20  1  0.005034  0.376079  0.189908  1
  Si  Si21  1  0.006072  0.368098  0.817276  1
  Si  Si22  1  0.006718  0.820447  0.366874  1
  Si  Si23  1  0.001303  0.810748  0.620856  1
  Si  Si24  1  0.186285  0.378962  0.998923  1
  Si  Si25  1  0.183911  0.626718  0.998838  1
  Si  Si26  1  0.186998  0.999600  0.377367  1
  Si  Si27  1  0.184013  0.995570  0.625306  1
  Si  Si28  1  0.363210  0.186001  0.998833  1
  Si  Si29  1  0.367521  0.815194  0.000115  1
  Si  Si30  1  0.364773  0.002885  0.185547  1
  Si  Si31  1  0.367034  0.996643  0.815533  1
  Si  Si32  1  0.004589  0.178127  0.635096  1
  Si  Si33  1  0.003651  0.634547  0.181729  1
  O  O34  1  0.995544  0.231621  0.514332  1
  O  O35  1  0.021858  0.277901  0.721428  1
  O  O36  1  0.019289  0.713719  0.290065  1
  O  O37  1  0.990220  0.484866  0.756468  1
  O  O38  1  0.017967  0.699043  0.688890  1
  O  O39  1  0.121706  0.110304  0.351439  1
  O  O40  1  0.121074  0.347954  0.109571  1
  O  O41  1  0.113071  0.103620  0.641107  1
  O  O42  1  0.112136  0.644085  0.108471  1
  O  O43  1  0.117451  0.370530  0.887494  1
  O  O44  1  0.118757  0.887991  0.363693  1
  O  O45  1  0.116904  0.640289  0.887502  1
  O  O46  1  0.112041  0.884854  0.636477  1
  O  O47  1  0.238746  0.000201  0.501733  1
  O  O48  1  0.238508  0.502299  0.007631  1
  O  O49  1  0.275730  0.283331  0.994799  1
  O  O50  1  0.275998  0.996708  0.717876  1
  O  O51  1  0.277932  0.718260  0.006420  1
  O  O52  1  0.276863  0.998662  0.282946  1
  O  O53  1  0.330155  0.114413  0.112273  1
  O  O54  1  0.348439  0.105855  0.893582  1
  O  O55  1  0.351022  0.896441  0.107343  1
  O  O56  1  0.338848  0.890645  0.892734  1
  O  O57  1  0.477177  0.015221  0.246744  1
  O  O58  1  0.476700  0.245954  0.008569  1
  O  O59  1  0.481709  0.995381  0.759608  1
  O  O60  1  0.482189  0.759643  0.997676  1
  O  O61  1  0.631948  0.140242  0.136879  1
  O  O62  1  0.629463  0.103111  0.900687  1
  O  O63  1  0.626912  0.903684  0.103544  1
  O  O64  1  0.646430  0.867464  0.869413  1
  O  O65  1  0.699579  0.017693  0.700220  1
  O  O66  1  0.714985  0.281737  0.997468  1
  O  O67  1  0.697743  0.700796  0.026010  1
  O  O68  1  0.716216  0.001554  0.278667  1
  O  O69  1  0.779924  0.498735  0.012165  1
  O  O70  1  0.781055  0.004640  0.496557  1
  O  O71  1  0.893371  0.128357  0.318402  1
  O  O72  1  0.901128  0.109731  0.670309  1
  O  O73  1  0.892537  0.317381  0.126660  1
  O  O74  1  0.908173  0.332729  0.894980  1
  O  O75  1  0.900126  0.673950  0.115992  1
  O  O76  1  0.894271  0.666744  0.885410  1
  O  O77  1  0.908567  0.895372  0.329611  1
  O  O78  1  0.901524  0.881732  0.661504  1
  O  O79  1  0.043778  0.308760  0.308584  1
  O  O80  1  0.994956  0.512104  0.230746  1
  O  O81  1  0.992293  0.771083  0.491387  1
