# generated using pymatgen
data_Na2TiFe(PO4)3
_symmetry_space_group_name_H-M   'P 1'
_cell_length_a   8.86927499
_cell_length_b   8.89124041
_cell_length_c   8.89124013
_cell_angle_alpha   58.99593492
_cell_angle_beta   59.04567667
_cell_angle_gamma   59.04567896
_symmetry_Int_Tables_number   1
_chemical_formula_structural   Na2TiFe(PO4)3
_chemical_formula_sum   'Na4 Ti2 Fe2 P6 O24'
_cell_volume   484.81153426
_cell_formula_units_Z   2
loop_
 _symmetry_equiv_pos_site_id
 _symmetry_equiv_pos_as_xyz
  1  'x, y, z'
loop_
 _atom_site_type_symbol
 _atom_site_label
 _atom_site_symmetry_multiplicity
 _atom_site_fract_x
 _atom_site_fract_y
 _atom_site_fract_z
 _atom_site_occupancy
  Na  Na0  1  0.009306  0.999671  0.992415  1
  Na  Na1  1  0.490694  0.507585  0.500329  1
  Na  Na2  1  0.619934  0.248377  0.881653  1
  Na  Na3  1  0.880066  0.618347  0.251623  1
  Ti  Ti4  1  0.144094  0.142274  0.144801  1
  Ti  Ti5  1  0.355906  0.355199  0.357726  1
  Fe  Fe6  1  0.641799  0.655998  0.650393  1
  Fe  Fe7  1  0.858201  0.849607  0.844002  1
  P  P8  1  0.041514  0.749151  0.456139  1
  P  P9  1  0.458486  0.043861  0.750849  1
  P  P10  1  0.750000  0.457797  0.042203  1
  P  P11  1  0.250000  0.539723  0.960277  1
  P  P12  1  0.535862  0.960355  0.253932  1
  P  P13  1  0.964138  0.246068  0.539645  1
  O  O14  1  0.131999  0.289083  0.500200  1
  O  O15  1  0.286259  0.501500  0.132484  1
  O  O16  1  0.068495  0.921110  0.276283  1
  O  O17  1  0.499357  0.132880  0.287470  1
  O  O18  1  0.011186  0.781532  0.624968  1
  O  O19  1  0.223602  0.579010  0.430765  1
  O  O20  1  0.276398  0.069235  0.920990  1
  O  O21  1  0.431505  0.223717  0.578890  1
  O  O22  1  0.578765  0.431122  0.223338  1
  O  O23  1  0.213741  0.367516  0.998500  1
  O  O24  1  0.077289  0.718290  0.946058  1
  O  O25  1  0.368001  0.999800  0.210917  1
  O  O26  1  0.623987  0.021055  0.785330  1
  O  O27  1  0.921235  0.276662  0.068878  1
  O  O28  1  0.783949  0.624413  0.017261  1
  O  O29  1  0.422711  0.553942  0.781710  1
  O  O30  1  0.562241  0.776326  0.418965  1
  O  O31  1  0.718995  0.941997  0.082609  1
  O  O32  1  0.781005  0.417391  0.558003  1
  O  O33  1  0.000643  0.212530  0.367120  1
  O  O34  1  0.488814  0.875032  0.718468  1
  O  O35  1  0.937759  0.081035  0.723674  1
  O  O36  1  0.716051  0.482739  0.875587  1
  O  O37  1  0.876013  0.714670  0.478945  1
