# generated using pymatgen
data_Al2Cd(Si5O12)2
_symmetry_space_group_name_H-M   'P 1'
_cell_length_a   12.56744877
_cell_length_b   12.46796268
_cell_length_c   12.48803486
_cell_angle_alpha   109.58499983
_cell_angle_beta   110.05851473
_cell_angle_gamma   108.92560240
_symmetry_Int_Tables_number   1
_chemical_formula_structural   Al2Cd(Si5O12)2
_chemical_formula_sum   'Al4 Cd2 Si20 O48'
_cell_volume   1503.30374432
_cell_formula_units_Z   2
loop_
 _symmetry_equiv_pos_site_id
 _symmetry_equiv_pos_as_xyz
  1  'x, y, z'
loop_
 _atom_site_type_symbol
 _atom_site_label
 _atom_site_symmetry_multiplicity
 _atom_site_fract_x
 _atom_site_fract_y
 _atom_site_fract_z
 _atom_site_occupancy
  Al  Al0  1  0.406566  0.553190  0.704130  1
  Al  Al1  1  0.702755  0.852660  0.294390  1
  Al  Al2  1  0.850489  0.303576  0.702327  1
  Al  Al3  1  0.850935  0.434473  0.143193  1
  Cd  Cd4  1  0.660014  0.008125  0.563300  1
  Cd  Cd5  1  0.578226  0.640516  -0.000167  1
  Si  Si6  1  0.141707  0.844960  0.449061  1
  Si  Si7  1  0.153840  0.454514  0.854173  1
  Si  Si8  1  0.305364  0.700461  0.855351  1
  Si  Si9  1  0.299190  0.847787  0.698447  1
  Si  Si10  1  0.155014  0.607289  0.302944  1
  Si  Si11  1  0.153758  0.306671  0.609687  1
  Si  Si12  1  0.409454  0.712528  0.557828  1
  Si  Si13  1  0.300108  0.612555  0.153867  1
  Si  Si14  1  0.288554  0.148230  0.605179  1
  Si  Si15  1  0.450484  0.850955  0.146690  1
  Si  Si16  1  0.444202  0.143213  0.850051  1
  Si  Si17  1  0.547511  0.391992  0.704966  1
  Si  Si18  1  0.549909  0.706721  0.402274  1
  Si  Si19  1  0.690364  0.271536  0.839605  1
  Si  Si20  1  0.690457  0.399958  0.551461  1
  Si  Si21  1  0.691245  0.545602  0.393223  1
  Si  Si22  1  0.608252  0.155903  0.304160  1
  Si  Si23  1  0.601722  0.297096  0.151780  1
  Si  Si24  1  0.839054  0.679769  0.280944  1
  Si  Si25  1  0.853800  0.153536  0.447803  1
  O  O26  1  0.009168  0.380956  0.826704  1
  O  O27  1  0.171155  0.821949  0.576423  1
  O  O28  1  0.179081  0.579277  0.827701  1
  O  O29  1  0.013460  0.504095  0.260742  1
  O  O30  1  0.003604  0.265451  0.514156  1
  O  O31  1  0.257037  0.740338  0.743681  1
  O  O32  1  0.187185  0.357110  0.763359  1
  O  O33  1  0.178834  0.758035  0.353963  1
  O  O34  1  0.270057  0.611933  0.421671  1
  O  O35  1  0.252628  0.417922  0.600613  1
  O  O36  1  0.417204  0.657251  0.852766  1
  O  O37  1  0.404992  0.836645  0.652625  1
  O  O38  1  0.166680  0.174318  0.564651  1
  O  O39  1  0.179038  0.570278  0.177605  1
  O  O40  1  0.456613  0.640178  0.631906  1
  O  O41  1  0.342826  0.170194  0.754507  1
  O  O42  1  0.352774  0.763057  0.180062  1
  O  O43  1  0.237837  0.998014  0.498441  1
  O  O44  1  0.262893  0.512129  0.007484  1
  O  O45  1  0.526071  0.512746  0.787464  1
  O  O46  1  0.520792  0.781156  0.518886  1
  O  O47  1  0.370233  0.994909  0.822806  1
  O  O48  1  0.371691  0.828143  0.000313  1
  O  O49  1  0.421040  0.609824  0.257408  1
  O  O50  1  0.408741  0.253506  0.606207  1
  O  O51  1  0.650397  0.838340  0.409793  1
  O  O52  1  0.651255  0.378126  0.812894  1
  O  O53  1  0.560950  0.804962  0.150729  1
  O  O54  1  0.560446  0.154502  0.814878  1
  O  O55  1  0.618965  0.625855  0.437869  1
  O  O56  1  0.600046  0.430476  0.613621  1
  O  O57  1  0.597245  0.248700  0.423391  1
  O  O58  1  0.589621  0.416689  0.246627  1
  O  O59  1  0.739868  0.505355  0.504527  1
  O  O60  1  0.733262  0.727326  0.216480  1
  O  O61  1  0.724669  0.203343  0.724516  1
  O  O62  1  0.519290  0.002340  0.261976  1
  O  O63  1  0.496368  0.248638  0.000115  1
  O  O64  1  0.552125  0.174589  0.178319  1
  O  O65  1  0.814099  0.410207  0.659318  1
  O  O66  1  0.810051  0.644740  0.388009  1
  O  O67  1  0.816877  0.161156  0.565248  1
  O  O68  1  0.813754  0.562437  0.154765  1
  O  O69  1  0.758524  0.186946  0.353480  1
  O  O70  1  0.746004  0.340006  0.178035  1
  O  O71  1  0.988708  0.805320  0.371482  1
  O  O72  1  0.828068  0.007999  0.368598  1
  O  O73  1  0.814800  0.343716  0.981520  1
