# generated using pymatgen
data_Sr
_symmetry_space_group_name_H-M   'P 1'
_cell_length_a   3.85118375
_cell_length_b   5.44597246
_cell_length_c   5.44754956
_cell_angle_alpha   89.99973093
_cell_angle_beta   90.00115412
_cell_angle_gamma   89.99786824
_symmetry_Int_Tables_number   1
_chemical_formula_structural   Sr
_chemical_formula_sum   Sr2
_cell_volume   114.25385728
_cell_formula_units_Z   2
loop_
 _symmetry_equiv_pos_site_id
 _symmetry_equiv_pos_as_xyz
  1  'x, y, z'
loop_
 _atom_site_type_symbol
 _atom_site_label
 _atom_site_symmetry_multiplicity
 _atom_site_fract_x
 _atom_site_fract_y
 _atom_site_fract_z
 _atom_site_occupancy
  Sr  Sr0  1  0.000000  0.000003  0.999998  1
  Sr  Sr1  1  1.000000  0.499997  0.500002  1
