# generated using pymatgen
data_KHO
_symmetry_space_group_name_H-M   'P 1'
_cell_length_a   5.99113829
_cell_length_b   3.97908657
_cell_length_c   7.89849828
_cell_angle_alpha   90.00000000
_cell_angle_beta   110.75410494
_cell_angle_gamma   90.00000000
_symmetry_Int_Tables_number   1
_chemical_formula_structural   KHO
_chemical_formula_sum   'K4 H4 O4'
_cell_volume   176.07588493
_cell_formula_units_Z   4
loop_
 _symmetry_equiv_pos_site_id
 _symmetry_equiv_pos_as_xyz
  1  'x, y, z'
loop_
 _atom_site_type_symbol
 _atom_site_label
 _atom_site_symmetry_multiplicity
 _atom_site_fract_x
 _atom_site_fract_y
 _atom_site_fract_z
 _atom_site_occupancy
  K  K0  1  0.729069  0.753890  0.437218  1
  K  K1  1  0.229069  0.746110  0.937218  1
  K  K2  1  0.270931  0.246110  0.562782  1
  K  K3  1  0.770931  0.253890  0.062782  1
  H  H4  1  0.193265  0.648746  0.264270  1
  H  H5  1  0.693265  0.851254  0.764270  1
  H  H6  1  0.806735  0.351254  0.735730  1
  H  H7  1  0.306735  0.148746  0.235730  1
  O  O8  1  0.063757  0.765451  0.287102  1
  O  O9  1  0.563757  0.734549  0.787102  1
  O  O10  1  0.936243  0.234549  0.712898  1
  O  O11  1  0.436243  0.265451  0.212898  1
