# generated using pymatgen
data_Sr4Fe6O13
_symmetry_space_group_name_H-M   'P 1'
_cell_length_a   5.46047291
_cell_length_b   11.14360869
_cell_length_c   11.71885115
_cell_angle_alpha   118.38849564
_cell_angle_beta   103.47094376
_cell_angle_gamma   89.99917813
_symmetry_Int_Tables_number   1
_chemical_formula_structural   Sr4Fe6O13
_chemical_formula_sum   'Sr8 Fe12 O26'
_cell_volume   604.94053801
_cell_formula_units_Z   2
loop_
 _symmetry_equiv_pos_site_id
 _symmetry_equiv_pos_as_xyz
  1  'x, y, z'
loop_
 _atom_site_type_symbol
 _atom_site_label
 _atom_site_symmetry_multiplicity
 _atom_site_fract_x
 _atom_site_fract_y
 _atom_site_fract_z
 _atom_site_occupancy
  Sr  Sr0  1  0.353287  0.716435  0.688841  1
  Sr  Sr1  1  0.664456  0.283537  0.311153  1
  Sr  Sr2  1  0.853274  0.972400  0.688846  1
  Sr  Sr3  1  0.164461  0.027574  0.311170  1
  Sr  Sr4  1  0.165137  0.535674  0.326487  1
  Sr  Sr5  1  0.838609  0.464295  0.673490  1
  Sr  Sr6  1  0.665122  0.790834  0.326498  1
  Sr  Sr7  1  0.338587  0.209155  0.673487  1
  Fe  Fe8  1  0.110166  0.163064  0.068327  1
  Fe  Fe9  1  0.041901  0.836959  0.931686  1
  Fe  Fe10  1  0.610194  0.905246  0.068307  1
  Fe  Fe11  1  0.541886  0.094770  0.931702  1
  Fe  Fe12  1  0.463576  0.555601  0.903634  1
  Fe  Fe13  1  0.559929  0.444385  0.096338  1
  Fe  Fe14  1  0.963586  0.348029  0.903633  1
  Fe  Fe15  1  0.059976  0.652005  0.096359  1
  Fe  Fe16  1  0.254688  0.375086  0.503721  1
  Fe  Fe17  1  0.750928  0.624891  0.496271  1
  Fe  Fe18  1  0.754610  0.128625  0.503745  1
  Fe  Fe19  1  0.250928  0.871356  0.496262  1
  O  O20  1  0.128871  0.258614  0.251646  1
  O  O21  1  0.877246  0.741452  0.748353  1
  O  O22  1  0.628878  0.993010  0.251621  1
  O  O23  1  0.377241  0.006938  0.748374  1
  O  O24  1  0.342989  0.469757  0.711157  1
  O  O25  1  0.631828  0.530240  0.288850  1
  O  O26  1  0.842928  0.241451  0.711212  1
  O  O27  1  0.131791  0.758574  0.288796  1
  O  O28  1  0.497619  0.242867  0.480947  1
  O  O29  1  0.016623  0.757096  0.519022  1
  O  O30  1  0.997648  0.238120  0.480984  1
  O  O31  1  0.516674  0.761833  0.519000  1
  O  O32  1  0.503981  0.503211  0.504660  1
  O  O33  1  -0.000706  0.496800  0.495334  1
  O  O34  1  0.003950  0.001443  0.504690  1
  O  O35  1  0.499225  0.998508  0.495329  1
  O  O36  1  0.444610  0.258661  0.072376  1
  O  O37  1  0.372223  0.741346  0.927628  1
  O  O38  1  0.944633  0.813721  0.072342  1
  O  O39  1  0.872240  0.186327  0.927673  1
  O  O40  1  0.923071  0.470071  0.092698  1
  O  O41  1  0.830390  0.530008  0.907313  1
  O  O42  1  0.423095  0.622662  0.092667  1
  O  O43  1  0.330379  0.377333  0.907347  1
  O  O44  1  0.300635  0.000015  0.000009  1
  O  O45  1  0.800635  0.000021  0.000015  1
