# generated using pymatgen
data_Mg9(In13S24)2
_symmetry_space_group_name_H-M   'P 1'
_cell_length_a   7.69252748
_cell_length_b   7.72356087
_cell_length_c   46.11055160
_cell_angle_alpha   59.84049222
_cell_angle_beta   59.91885984
_cell_angle_gamma   59.87339605
_symmetry_Int_Tables_number   1
_chemical_formula_structural   Mg9(In13S24)2
_chemical_formula_sum   'Mg9 In26 S48'
_cell_volume   1931.80616642
_cell_formula_units_Z   1
loop_
 _symmetry_equiv_pos_site_id
 _symmetry_equiv_pos_as_xyz
  1  'x, y, z'
loop_
 _atom_site_type_symbol
 _atom_site_label
 _atom_site_symmetry_multiplicity
 _atom_site_fract_x
 _atom_site_fract_y
 _atom_site_fract_z
 _atom_site_occupancy
  Mg  Mg0  1  0.497437  0.500982  0.166808  1
  Mg  Mg1  1  0.499996  0.500105  0.333302  1
  Mg  Mg2  1  -0.000099  0.500256  0.249979  1
  Mg  Mg3  1  0.500032  0.500251  0.499944  1
  Mg  Mg4  1  0.000360  0.500035  0.416571  1
  Mg  Mg5  1  0.500633  0.500457  0.666418  1
  Mg  Mg6  1  0.000367  0.500312  0.583220  1
  Mg  Mg7  1  0.503737  0.500161  0.832698  1
  Mg  Mg8  1  0.000395  0.500135  0.749883  1
  In  In9  1  0.487602  0.487615  0.006199  1
  In  In10  1  0.127628  0.115554  0.190227  1
  In  In11  1  0.497158  0.015802  0.081722  1
  In  In12  1  0.497098  0.496537  0.081742  1
  In  In13  1  0.131759  0.118105  0.355235  1
  In  In14  1  0.500093  0.000262  0.249997  1
  In  In15  1  0.499681  0.500110  0.249950  1
  In  In16  1  0.015810  0.497082  0.081623  1
  In  In17  1  0.877212  0.879436  0.143974  1
  In  In18  1  0.131777  0.118463  0.521908  1
  In  In19  1  0.499852  0.500168  0.416591  1
  In  In20  1  0.869113  0.882319  0.311135  1
  In  In21  1  0.500349  0.000396  0.583136  1
  In  In22  1  0.132252  0.118147  0.688460  1
  In  In23  1  0.500148  0.000129  0.416558  1
  In  In24  1  0.500422  0.500626  0.583087  1
  In  In25  1  0.869121  0.882362  0.477691  1
  In  In26  1  0.500630  0.000278  0.749624  1
  In  In27  1  0.127212  0.124798  0.853903  1
  In  In28  1  0.500814  0.500710  0.749646  1
  In  In29  1  0.869159  0.882408  0.644420  1
  In  In30  1  0.494100  0.494028  0.917176  1
  In  In31  1  0.871090  0.882218  0.810787  1
  In  In32  1  0.494067  0.008643  0.917167  1
  In  In33  1  0.008547  0.494324  0.917167  1
  In  In34  1  0.873483  0.874544  0.979569  1
  S  S35  1  0.252706  0.253464  0.043361  1
  S  S36  1  0.252665  0.733473  0.043386  1
  S  S37  1  0.251973  0.251811  0.124063  1
  S  S38  1  0.734239  0.252459  0.043481  1
  S  S39  1  0.279025  0.738606  0.123961  1
  S  S40  1  0.257683  0.262954  0.210016  1
  S  S41  1  0.738238  0.279996  0.124069  1
  S  S42  1  0.257447  0.719575  0.209997  1
  S  S43  1  0.741572  0.742699  0.045481  1
  S  S44  1  0.251968  0.260264  0.287925  1
  S  S45  1  0.724079  0.260606  0.209157  1
  S  S46  1  0.738305  0.737535  0.124027  1
  S  S47  1  0.273926  0.739416  0.291235  1
  S  S48  1  0.257537  0.263069  0.376399  1
  S  S49  1  0.742129  0.279090  0.290395  1
  S  S50  1  0.257293  0.720713  0.376439  1
  S  S51  1  0.747019  0.739796  0.212240  1
  S  S52  1  0.252594  0.260183  0.454478  1
  S  S53  1  0.725676  0.260284  0.375612  1
  S  S54  1  0.742032  0.736606  0.290443  1
  S  S55  1  0.257498  0.263229  0.543106  1
  S  S56  1  0.273782  0.739226  0.457974  1
  S  S57  1  0.257351  0.720841  0.543110  1
  S  S58  1  0.742025  0.278929  0.457147  1
  S  S59  1  0.747062  0.739202  0.379051  1
  S  S60  1  0.252599  0.260357  0.621142  1
  S  S61  1  0.725678  0.260217  0.542295  1
  S  S62  1  0.742007  0.736255  0.457157  1
  S  S63  1  0.257221  0.263137  0.709722  1
  S  S64  1  0.273636  0.739233  0.624672  1
  S  S65  1  0.742086  0.278778  0.623827  1
  S  S66  1  0.257144  0.720868  0.709773  1
  S  S67  1  0.747056  0.739199  0.545789  1
  S  S68  1  0.254495  0.261776  0.786961  1
  S  S69  1  0.726328  0.260090  0.708882  1
  S  S70  1  0.741944  0.736414  0.623861  1
  S  S71  1  0.274591  0.738789  0.791255  1
  S  S72  1  0.261740  0.262173  0.874609  1
  S  S73  1  0.741903  0.278616  0.790475  1
  S  S74  1  0.746992  0.738936  0.712513  1
  S  S75  1  0.261473  0.728794  0.874613  1
  S  S76  1  0.259851  0.259343  0.953573  1
  S  S77  1  0.729540  0.261057  0.874710  1
  S  S78  1  0.741698  0.736784  0.790476  1
  S  S79  1  0.276700  0.742300  0.956438  1
  S  S80  1  0.742180  0.276880  0.956531  1
  S  S81  1  0.741303  0.741342  0.879282  1
  S  S82  1  0.741979  0.741881  0.956538  1
