# generated using pymatgen
data_Ag9Te4Br3
_symmetry_space_group_name_H-M   'P 1'
_cell_length_a   7.59231420
_cell_length_b   8.16800061
_cell_length_c   8.37323584
_cell_angle_alpha   90.54682615
_cell_angle_beta   89.40572595
_cell_angle_gamma   122.67685677
_symmetry_Int_Tables_number   1
_chemical_formula_structural   Ag9Te4Br3
_chemical_formula_sum   'Ag9 Te4 Br3'
_cell_volume   437.04623506
_cell_formula_units_Z   1
loop_
 _symmetry_equiv_pos_site_id
 _symmetry_equiv_pos_as_xyz
  1  'x, y, z'
loop_
 _atom_site_type_symbol
 _atom_site_label
 _atom_site_symmetry_multiplicity
 _atom_site_fract_x
 _atom_site_fract_y
 _atom_site_fract_z
 _atom_site_occupancy
  Ag  Ag0  1  0.067313  0.857609  0.086597  1
  Ag  Ag1  1  0.327764  0.017301  0.558414  1
  Ag  Ag2  1  0.178467  0.397475  0.774251  1
  Ag  Ag3  1  0.655081  0.028327  0.352511  1
  Ag  Ag4  1  0.655693  0.646847  0.334441  1
  Ag  Ag5  1  0.631666  0.632152  0.685003  1
  Ag  Ag6  1  0.620782  0.308821  0.842880  1
  Ag  Ag7  1  0.656452  0.996068  0.709511  1
  Ag  Ag8  1  0.003245  0.180958  0.069464  1
  Te  Te9  1  0.018482  0.987754  0.784425  1
  Te  Te10  1  0.024092  0.022982  0.356494  1
  Te  Te11  1  0.315414  0.656374  0.516653  1
  Te  Te12  1  0.727060  0.373771  0.520232  1
  Br  Br13  1  0.005570  0.510989  0.016841  1
  Br  Br14  1  0.492977  0.494960  0.039723  1
  Br  Br15  1  0.511109  0.995145  0.043062  1
