# generated using pymatgen
data_CdH6C(BrN)3
_symmetry_space_group_name_H-M   'P 1'
_cell_length_a   9.17594818
_cell_length_b   9.17594818
_cell_length_c   7.51736344
_cell_angle_alpha   84.19605636
_cell_angle_beta   95.80394364
_cell_angle_gamma   49.28970292
_symmetry_Int_Tables_number   1
_chemical_formula_structural   CdH6C(BrN)3
_chemical_formula_sum   'Cd2 H12 C2 Br6 N6'
_cell_volume   465.46270219
_cell_formula_units_Z   2
loop_
 _symmetry_equiv_pos_site_id
 _symmetry_equiv_pos_as_xyz
  1  'x, y, z'
loop_
 _atom_site_type_symbol
 _atom_site_label
 _atom_site_symmetry_multiplicity
 _atom_site_fract_x
 _atom_site_fract_y
 _atom_site_fract_z
 _atom_site_occupancy
  Cd  Cd0  1  0.951188  0.951188  0.750000  1
  Cd  Cd1  1  0.048812  0.048812  0.250000  1
  H  H2  1  0.743720  0.866043  0.136045  1
  H  H3  1  0.866043  0.743720  0.363955  1
  H  H4  1  0.256280  0.133957  0.863955  1
  H  H5  1  0.133957  0.256280  0.636045  1
  H  H6  1  0.542455  0.644867  0.086212  1
  H  H7  1  0.644867  0.542455  0.413788  1
  H  H8  1  0.457545  0.355133  0.913788  1
  H  H9  1  0.355133  0.457545  0.586212  1
  H  H10  1  0.653051  0.714908  0.974556  1
  H  H11  1  0.714908  0.653051  0.525444  1
  H  H12  1  0.346949  0.285092  0.025444  1
  H  H13  1  0.285092  0.346949  0.474556  1
  C  C14  1  0.693647  0.693647  0.250000  1
  C  C15  1  0.306353  0.306353  0.750000  1
  Br  Br16  1  0.793497  0.793497  0.750000  1
  Br  Br17  1  0.206503  0.206503  0.250000  1
  Br  Br18  1  0.189976  0.726371  0.123430  1
  Br  Br19  1  0.726371  0.189976  0.376570  1
  Br  Br20  1  0.810024  0.273629  0.876570  1
  Br  Br21  1  0.273629  0.810024  0.623430  1
  N  N22  1  0.773936  0.773936  0.250000  1
  N  N23  1  0.226064  0.226064  0.750000  1
  N  N24  1  0.610768  0.698745  0.089902  1
  N  N25  1  0.698745  0.610768  0.410098  1
  N  N26  1  0.389232  0.301255  0.910098  1
  N  N27  1  0.301255  0.389232  0.589902  1
