# generated using pymatgen
data_Ti3H2O7
_symmetry_space_group_name_H-M   'P 1'
_cell_length_a   18.73079046
_cell_length_b   18.73079046
_cell_length_c   9.54280111
_cell_angle_alpha   81.28894996
_cell_angle_beta   98.71105004
_cell_angle_gamma   168.31664016
_symmetry_Int_Tables_number   1
_chemical_formula_structural   Ti3H2O7
_chemical_formula_sum   'Ti6 H4 O14'
_cell_volume   670.08070998
_cell_formula_units_Z   2
loop_
 _symmetry_equiv_pos_site_id
 _symmetry_equiv_pos_as_xyz
  1  'x, y, z'
loop_
 _atom_site_type_symbol
 _atom_site_label
 _atom_site_symmetry_multiplicity
 _atom_site_fract_x
 _atom_site_fract_y
 _atom_site_fract_z
 _atom_site_occupancy
  Ti  Ti0  1  0.764696  0.234539  0.769111  1
  Ti  Ti1  1  0.234539  0.764696  0.230889  1
  Ti  Ti2  1  0.782665  0.220376  0.467357  1
  Ti  Ti3  1  0.220376  0.782665  0.532643  1
  Ti  Ti4  1  0.815227  0.188253  0.142899  1
  Ti  Ti5  1  0.188253  0.815227  0.857101  1
  H  H6  1  0.023257  0.336793  0.402231  1
  H  H7  1  0.336793  0.023257  0.597769  1
  H  H8  1  0.724211  0.284895  0.957040  1
  H  H9  1  0.284895  0.724211  0.042960  1
  O  O10  1  0.788734  0.213858  0.945144  1
  O  O11  1  0.213858  0.788734  0.054856  1
  O  O12  1  0.803340  0.201103  0.650472  1
  O  O13  1  0.201103  0.803340  0.349528  1
  O  O14  1  0.866561  0.222697  0.363917  1
  O  O15  1  0.222697  0.866561  0.636083  1
  O  O16  1  0.860037  0.147456  0.126477  1
  O  O17  1  0.147456  0.860037  0.873523  1
  O  O18  1  0.711379  0.293719  0.856095  1
  O  O19  1  0.293719  0.711379  0.143905  1
  O  O20  1  0.737363  0.274914  0.551651  1
  O  O21  1  0.274914  0.737363  0.448349  1
  O  O22  1  0.750028  0.251960  0.260891  1
  O  O23  1  0.251960  0.750028  0.739109  1
