# generated using pymatgen
data_H5IO6
_symmetry_space_group_name_H-M   'P 1'
_cell_length_a   5.31559148
_cell_length_b   18.98374754
_cell_length_c   5.09544882
_cell_angle_alpha   88.97468530
_cell_angle_beta   110.32214648
_cell_angle_gamma   90.94755987
_symmetry_Int_Tables_number   1
_chemical_formula_structural   H5IO6
_chemical_formula_sum   'H20 I4 O24'
_cell_volume   482.06922215
_cell_formula_units_Z   4
loop_
 _symmetry_equiv_pos_site_id
 _symmetry_equiv_pos_as_xyz
  1  'x, y, z'
loop_
 _atom_site_type_symbol
 _atom_site_label
 _atom_site_symmetry_multiplicity
 _atom_site_fract_x
 _atom_site_fract_y
 _atom_site_fract_z
 _atom_site_occupancy
  H  H0  1  0.159186  0.502540  0.827493  1
  H  H1  1  0.666371  0.993822  0.331641  1
  H  H2  1  0.849289  0.492138  0.174676  1
  H  H3  1  0.345356  0.999189  0.669338  1
  H  H4  1  0.732575  0.606688  0.023209  1
  H  H5  1  0.788215  0.110668  0.457147  1
  H  H6  1  0.351300  0.563333  0.495417  1
  H  H7  1  0.839882  0.932640  0.006885  1
  H  H8  1  0.662180  0.433452  0.495416  1
  H  H9  1  0.182827  0.060535  0.003141  1
  H  H10  1  0.009885  0.711917  0.233709  1
  H  H11  1  0.537318  0.759642  0.696019  1
  H  H12  1  0.772206  0.259539  0.730176  1
  H  H13  1  0.298437  0.235887  0.223089  1
  H  H14  1  0.126063  0.865214  0.537351  1
  H  H15  1  0.379445  0.365208  0.953260  1
  H  H16  1  0.016387  0.723756  0.741005  1
  H  H17  1  0.542764  0.808056  0.117479  1
  H  H18  1  0.979323  0.311799  0.410522  1
  H  H19  1  0.495140  0.179168  0.913963  1
  I  I20  1  0.204403  0.621692  0.035240  1
  I  I21  1  0.668656  0.875853  0.548595  1
  I  I22  1  0.839273  0.376443  0.956760  1
  I  I23  1  0.318073  0.120431  0.459439  1
  O  O24  1  0.201118  0.551079  0.766403  1
  O  O25  1  0.720668  0.945649  0.289479  1
  O  O26  1  0.801200  0.442928  0.223687  1
  O  O27  1  0.306297  0.047748  0.726301  1
  O  O28  1  0.889810  0.572629  0.065199  1
  O  O29  1  0.374502  0.919003  0.576351  1
  O  O30  1  0.137183  0.418830  0.923485  1
  O  O31  1  0.628671  0.075374  0.427250  1
  O  O32  1  0.419298  0.562888  0.335212  1
  O  O33  1  0.921199  0.922909  0.861423  1
  O  O34  1  0.595754  0.430666  0.656163  1
  O  O35  1  0.105542  0.062364  0.156142  1
  O  O36  1  0.184793  0.688819  0.311570  1
  O  O37  1  0.641304  0.799669  0.804767  1
  O  O38  1  0.865615  0.303404  0.703496  1
  O  O39  1  0.382314  0.190785  0.204504  1
  O  O40  1  0.491919  0.663857  0.983769  1
  O  O41  1  0.972620  0.829277  0.510699  1
  O  O42  1  0.530824  0.329279  0.989941  1
  O  O43  1  0.025679  0.161466  0.489026  1
  O  O44  1  0.937919  0.677027  0.752377  1
  O  O45  1  0.446697  0.819682  0.247922  1
  O  O46  1  0.056455  0.316163  0.257512  1
  O  O47  1  0.569585  0.174828  0.759564  1
