# generated using pymatgen
data_ZrH36C16(NO4)4
_symmetry_space_group_name_H-M   'P 1'
_cell_length_a   10.13218549
_cell_length_b   12.02974940
_cell_length_c   12.24069897
_cell_angle_alpha   111.07338358
_cell_angle_beta   90.00000000
_cell_angle_gamma   90.00000000
_symmetry_Int_Tables_number   1
_chemical_formula_structural   ZrH36C16(NO4)4
_chemical_formula_sum   'Zr2 H72 C32 N8 O32'
_cell_volume   1392.20676193
_cell_formula_units_Z   2
loop_
 _symmetry_equiv_pos_site_id
 _symmetry_equiv_pos_as_xyz
  1  'x, y, z'
loop_
 _atom_site_type_symbol
 _atom_site_label
 _atom_site_symmetry_multiplicity
 _atom_site_fract_x
 _atom_site_fract_y
 _atom_site_fract_z
 _atom_site_occupancy
  Zr  Zr0  1  0.201255  0.058291  0.267018  1
  Zr  Zr1  1  0.701255  0.941709  0.732982  1
  H  H2  1  0.074926  0.428076  0.434438  1
  H  H3  1  0.269719  0.350978  0.080538  1
  H  H4  1  0.249758  0.430739  0.425017  1
  H  H5  1  0.594718  0.555549  0.065248  1
  H  H6  1  0.494960  0.319195  0.144879  1
  H  H7  1  0.844774  0.370058  0.640985  1
  H  H8  1  0.642140  0.722940  0.000627  1
  H  H9  1  0.749758  0.569261  0.574983  1
  H  H10  1  0.414709  0.436245  0.205857  1
  H  H11  1  0.738573  0.295318  0.068715  1
  H  H12  1  0.993487  0.442477  0.109139  1
  H  H13  1  0.416422  0.523219  0.376079  1
  H  H14  1  0.142140  0.277060  0.999373  1
  H  H15  1  0.754878  0.623052  0.109278  1
  H  H16  1  0.576895  0.102185  0.022218  1
  H  H17  1  0.166399  0.720523  0.484562  1
  H  H18  1  0.731578  0.288494  0.193978  1
  H  H19  1  0.294329  0.493273  0.693773  1
  H  H20  1  0.960686  0.026441  0.497775  1
  H  H21  1  0.068728  0.365829  0.194717  1
  H  H22  1  0.460686  0.973559  0.502225  1
  H  H23  1  0.091384  0.384183  0.608919  1
  H  H24  1  0.094718  0.444451  0.934752  1
  H  H25  1  0.812843  0.107460  0.551471  1
  H  H26  1  0.504250  0.211152  0.940402  1
  H  H27  1  0.994960  0.680805  0.855121  1
  H  H28  1  0.591384  0.615817  0.391081  1
  H  H29  1  0.231578  0.711506  0.806022  1
  H  H30  1  0.076895  0.897815  0.977782  1
  H  H31  1  0.630414  0.491132  0.798695  1
  H  H32  1  0.666399  0.279477  0.515438  1
  H  H33  1  0.574926  0.571924  0.565562  1
  H  H34  1  0.362865  0.162523  0.851819  1
  H  H35  1  0.239527  0.515768  0.010446  1
  H  H36  1  0.179464  0.284123  0.506373  1
  H  H37  1  0.135855  0.710346  0.353525  1
  H  H38  1  0.930865  0.980490  0.979747  1
  H  H39  1  0.798239  0.659318  0.314822  1
  H  H40  1  0.813119  0.064332  0.138959  1
  H  H41  1  0.568728  0.634171  0.805283  1
  H  H42  1  0.254878  0.376948  0.890722  1
  H  H43  1  0.060697  0.001415  0.758920  1
  H  H44  1  0.358223  0.783534  0.287362  1
  H  H45  1  0.130414  0.508868  0.201305  1
  H  H46  1  0.430865  0.019510  0.020253  1
  H  H47  1  0.858223  0.216466  0.712638  1
  H  H48  1  0.862865  0.837477  0.148181  1
  H  H49  1  0.166402  0.544889  0.543602  1
  H  H50  1  0.013833  0.187674  0.762728  1
  H  H51  1  0.385242  0.381851  0.580205  1
  H  H52  1  0.344774  0.629942  0.359015  1
  H  H53  1  0.769719  0.649022  0.919462  1
  H  H54  1  0.916422  0.476781  0.623921  1
  H  H55  1  0.885242  0.618149  0.419795  1
  H  H56  1  0.238573  0.704682  0.931285  1
  H  H57  1  0.004250  0.788848  0.059598  1
  H  H58  1  0.836217  0.026180  0.266050  1
  H  H59  1  0.298239  0.340682  0.685178  1
  H  H60  1  0.587912  0.038155  0.392942  1
  H  H61  1  0.336217  0.973820  0.733950  1
  H  H62  1  0.666402  0.455111  0.456398  1
  H  H63  1  0.739527  0.484232  0.989554  1
  H  H64  1  0.312843  0.892540  0.448529  1
  H  H65  1  0.560697  0.998585  0.241080  1
  H  H66  1  0.635855  0.289654  0.646475  1
  H  H67  1  0.914709  0.563755  0.794143  1
  H  H68  1  0.313119  0.935668  0.861041  1
  H  H69  1  0.679464  0.715877  0.493627  1
  H  H70  1  0.794329  0.506727  0.306227  1
  H  H71  1  0.087912  0.961845  0.607058  1
  H  H72  1  0.493487  0.557523  0.890861  1
  H  H73  1  0.513833  0.812326  0.237272  1
  C  C74  1  0.847832  0.178676  0.869808  1
  C  C75  1  0.586334  0.575596  0.854855  1
  C  C76  1  0.784310  0.921822  0.477578  1
  C  C77  1  0.022044  0.979083  0.028045  1
  C  C78  1  0.513854  0.038865  0.327709  1
  C  C79  1  0.086334  0.424404  0.145145  1
  C  C80  1  0.977645  0.833304  0.657003  1
  C  C81  1  0.369453  0.972073  0.452926  1
  C  C82  1  0.477645  0.166696  0.342997  1
  C  C83  1  0.522044  0.020917  0.971955  1
  C  C84  1  0.869453  0.027927  0.547074  1
  C  C85  1  0.013854  0.961135  0.672291  1
  C  C86  1  0.910173  0.158788  0.750529  1
  C  C87  1  0.296464  0.400054  0.635292  1
  C  C88  1  0.432026  0.815012  0.720328  1
  C  C89  1  0.932026  0.184988  0.279672  1
  C  C90  1  0.166072  0.450862  0.486141  1
  C  C91  1  0.885744  0.059985  0.204080  1
  C  C92  1  0.039323  0.830617  0.242924  1
  C  C93  1  0.796464  0.599946  0.364708  1
  C  C94  1  0.410173  0.841212  0.249471  1
  C  C95  1  0.385744  0.940015  0.795920  1
  C  C96  1  0.468997  0.145898  0.857033  1
  C  C97  1  0.968997  0.854102  0.142967  1
  C  C98  1  0.284310  0.078178  0.522422  1
  C  C99  1  0.692756  0.570624  0.035237  1
  C  C100  1  0.539323  0.169383  0.757076  1
  C  C101  1  0.192756  0.429376  0.964763  1
  C  C102  1  0.609670  0.916355  0.966772  1
  C  C103  1  0.347832  0.821324  0.130192  1
  C  C104  1  0.666072  0.549138  0.513859  1
  C  C105  1  0.109670  0.083645  0.033228  1
  N  N106  1  0.896798  0.034130  0.668169  1
  N  N107  1  0.176805  0.363457  0.045864  1
  N  N108  1  0.676805  0.636543  0.954136  1
  N  N109  1  0.494841  0.023219  0.853982  1
  N  N110  1  0.677530  0.625464  0.441398  1
  N  N111  1  0.994842  0.976781  0.146018  1
  N  N112  1  0.177530  0.374536  0.558602  1
  N  N113  1  0.396798  0.965870  0.331831  1
  O  O114  1  0.175951  0.699534  0.867403  1
  O  O115  1  0.529062  0.267977  0.745643  1
  O  O116  1  0.926608  0.422105  0.665890  1
  O  O117  1  0.054120  0.749222  0.606400  1
  O  O118  1  0.362934  0.725712  0.707130  1
  O  O119  1  0.110885  0.119055  0.948362  1
  O  O120  1  0.610885  0.880945  0.051638  1
  O  O121  1  0.043732  0.187727  0.333479  1
  O  O122  1  0.904609  0.646946  0.846503  1
  O  O123  1  0.774371  0.891588  0.369508  1
  O  O124  1  0.681949  0.870582  0.874473  1
  O  O125  1  0.780197  0.089888  0.878351  1
  O  O126  1  0.862934  0.274288  0.292870  1
  O  O127  1  0.206268  0.698301  0.405494  1
  O  O128  1  0.675951  0.300466  0.132597  1
  O  O129  1  0.111256  0.917537  0.311249  1
  O  O130  1  0.358575  0.722572  0.049342  1
  O  O131  1  0.220380  0.129402  0.460374  1
  O  O132  1  0.029062  0.732023  0.254357  1
  O  O133  1  0.866041  0.821145  0.703747  1
  O  O134  1  0.274371  0.108412  0.630492  1
  O  O135  1  0.426608  0.577895  0.334110  1
  O  O136  1  0.554120  0.250778  0.393600  1
  O  O137  1  0.366041  0.178855  0.296253  1
  O  O138  1  0.858575  0.277428  0.950658  1
  O  O139  1  0.280197  0.910112  0.121649  1
  O  O140  1  0.543732  0.812273  0.666521  1
  O  O141  1  0.404609  0.353054  0.153497  1
  O  O142  1  0.706268  0.301699  0.594506  1
  O  O143  1  0.611256  0.082463  0.688751  1
  O  O144  1  0.720380  0.870598  0.539626  1
  O  O145  1  0.181949  0.129418  0.125527  1
