# generated using pymatgen
data_NaNb(CuS2)2
_symmetry_space_group_name_H-M   'P 1'
_cell_length_a   5.58289243
_cell_length_b   7.61779335
_cell_length_c   9.60374093
_cell_angle_alpha   90.00000000
_cell_angle_beta   106.89761599
_cell_angle_gamma   90.00000000
_symmetry_Int_Tables_number   1
_chemical_formula_structural   NaNb(CuS2)2
_chemical_formula_sum   'Na2 Nb2 Cu4 S8'
_cell_volume   390.80643464
_cell_formula_units_Z   2
loop_
 _symmetry_equiv_pos_site_id
 _symmetry_equiv_pos_as_xyz
  1  'x, y, z'
loop_
 _atom_site_type_symbol
 _atom_site_label
 _atom_site_symmetry_multiplicity
 _atom_site_fract_x
 _atom_site_fract_y
 _atom_site_fract_z
 _atom_site_occupancy
  Na  Na0  1  0.666499  0.750000  0.660519  1
  Na  Na1  1  0.005980  0.250000  0.339481  1
  S  S2  1  0.240558  0.750000  0.414789  1
  S  S3  1  0.825769  0.250000  0.585211  1
  S  S4  1  0.632139  0.994203  0.209174  1
  S  S5  1  0.422965  0.005797  0.790826  1
  S  S6  1  0.005717  0.250000  0.992264  1
  S  S7  1  0.013454  0.750000  0.007736  1
  S  S8  1  0.422965  0.494203  0.790826  1
  S  S9  1  0.632139  0.505797  0.209174  1
  Cu  Cu10  1  0.760914  0.000000  0.000000  1
  Cu  Cu11  1  0.760914  0.500000  0.000000  1
  Cu  Cu12  1  0.378784  0.750000  0.208538  1
  Cu  Cu13  1  0.170246  0.250000  0.791462  1
  Nb  Nb14  1  0.887151  0.750000  0.221148  1
  Nb  Nb15  1  0.666003  0.250000  0.778852  1
