# generated using pymatgen
data_H7BrO3
_symmetry_space_group_name_H-M   'P 1'
_cell_length_a   6.31658159
_cell_length_b   6.92984199
_cell_length_c   6.51531093
_cell_angle_alpha   54.96473991
_cell_angle_beta   93.84061472
_cell_angle_gamma   92.18641235
_symmetry_Int_Tables_number   1
_chemical_formula_structural   H7BrO3
_chemical_formula_sum   'H14 Br2 O6'
_cell_volume   232.99220673
_cell_formula_units_Z   2
loop_
 _symmetry_equiv_pos_site_id
 _symmetry_equiv_pos_as_xyz
  1  'x, y, z'
loop_
 _atom_site_type_symbol
 _atom_site_label
 _atom_site_symmetry_multiplicity
 _atom_site_fract_x
 _atom_site_fract_y
 _atom_site_fract_z
 _atom_site_occupancy
  H  H0  1  0.472788  0.784257  0.026019  1
  H  H1  1  0.503157  0.040600  0.778957  1
  H  H2  1  0.899975  0.310767  0.325349  1
  H  H3  1  0.049436  0.472476  0.371607  1
  H  H4  1  0.728439  0.558305  0.733850  1
  H  H5  1  0.710995  0.703404  0.855411  1
  H  H6  1  0.998523  0.713861  0.728927  1
  H  H7  1  0.135367  0.857791  0.452118  1
  H  H8  1  0.268308  0.831056  0.709379  1
  H  H9  1  0.747706  0.080462  0.217979  1
  H  H10  1  0.650668  0.990000  0.475393  1
  H  H11  1  0.243823  0.267978  0.026738  1
  H  H12  1  0.453295  0.269773  0.185758  1
  H  H13  1  0.195704  0.343738  0.223959  1
  Br  Br14  1  0.541421  0.460866  0.528301  1
  Br  Br15  1  0.034606  0.971927  0.086307  1
  O  O16  1  0.485573  0.871426  0.843006  1
  O  O17  1  0.048816  0.334147  0.367041  1
  O  O18  1  0.811721  0.614817  0.828318  1
  O  O19  1  0.152190  0.775086  0.640834  1
  O  O20  1  0.670762  0.131840  0.307141  1
  O  O21  1  0.312386  0.353289  0.096645  1
