# generated using pymatgen
data_Sc12I25
_symmetry_space_group_name_H-M   'P 1'
_cell_length_a   20.46096074
_cell_length_b   18.75478972
_cell_length_c   13.09073825
_cell_angle_alpha   44.27469892
_cell_angle_beta   51.27705266
_cell_angle_gamma   70.92412126
_symmetry_Int_Tables_number   1
_chemical_formula_structural   Sc12I25
_chemical_formula_sum   'Sc24 I50'
_cell_volume   2667.52483316
_cell_formula_units_Z   2
loop_
 _symmetry_equiv_pos_site_id
 _symmetry_equiv_pos_as_xyz
  1  'x, y, z'
loop_
 _atom_site_type_symbol
 _atom_site_label
 _atom_site_symmetry_multiplicity
 _atom_site_fract_x
 _atom_site_fract_y
 _atom_site_fract_z
 _atom_site_occupancy
  Sc  Sc0  1  0.039307  0.198509  0.000190  1
  Sc  Sc1  1  0.079610  0.405252  0.000592  1
  Sc  Sc2  1  0.198568  0.000384  -0.000008  1
  Sc  Sc3  1  0.119458  0.596027  0.002031  1
  Sc  Sc4  1  0.241532  0.200019  0.001338  1
  Sc  Sc5  1  0.157915  0.801432  0.000426  1
  Sc  Sc6  1  0.279430  0.400866  0.000423  1
  Sc  Sc7  1  0.406208  0.000351  0.999772  1
  Sc  Sc8  1  0.440454  0.197994  0.000093  1
  Sc  Sc9  1  0.324030  0.594351  0.000305  1
  Sc  Sc10  1  0.593792  0.999649  0.000228  1
  Sc  Sc11  1  0.479657  0.401524  0.000338  1
  Sc  Sc12  1  0.362893  0.799586  0.998498  1
  Sc  Sc13  1  0.637107  0.200414  0.001502  1
  Sc  Sc14  1  0.520343  0.598476  0.999662  1
  Sc  Sc15  1  0.559546  0.802006  -0.000093  1
  Sc  Sc16  1  0.801432  0.999616  0.000008  1
  Sc  Sc17  1  0.675970  0.405649  -0.000305  1
  Sc  Sc18  1  0.720570  0.599134  0.999577  1
  Sc  Sc19  1  0.842085  0.198568  0.999574  1
  Sc  Sc20  1  0.758468  0.799981  -0.001338  1
  Sc  Sc21  1  0.880542  0.403973  0.997969  1
  Sc  Sc22  1  0.920390  0.594748  0.999408  1
  Sc  Sc23  1  0.960693  0.801491  0.999810  1
  I  I24  1  0.092537  0.036804  0.242592  1
  I  I25  1  0.012152  0.635209  0.242963  1
  I  I26  1  0.131725  0.236693  0.243306  1
  I  I27  1  0.055822  0.836840  0.238007  1
  I  I28  1  0.172104  0.435047  0.244726  1
  I  I29  1  0.291967  0.034904  0.245164  1
  I  I30  1  0.332613  0.236673  0.241065  1
  I  I31  1  0.215003  0.637371  0.235918  1
  I  I32  1  0.030832  0.565604  0.750517  1
  I  I33  1  0.148027  0.163153  0.762154  1
  I  I34  1  0.372037  0.434038  0.247005  1
  I  I35  1  0.066163  0.760663  0.762181  1
  I  I36  1  0.186208  0.362479  0.764056  1
  I  I37  1  0.255278  0.839206  0.236308  1
  I  I38  1  0.490961  0.035004  0.244874  1
  I  I39  1  0.107556  0.959656  0.761333  1
  I  I40  1  0.531431  0.236690  0.243577  1
  I  I41  1  0.348130  0.161329  0.762432  1
  I  I42  1  0.412853  0.635773  0.242370  1
  I  I43  1  0.229962  0.565406  0.753072  1
  I  I44  1  0.267048  0.759402  0.764596  1
  I  I45  1  0.570660  0.436120  0.246485  1
  I  I46  1  0.388400  0.364390  0.756805  1
  I  I47  1  0.449864  0.831306  0.251470  1
  I  I48  1  0.691930  0.037154  0.241488  1
  I  I49  1  0.611600  0.635610  0.243195  1
  I  I50  1  0.429340  0.563880  0.753515  1
  I  I51  1  0.308070  0.962846  0.758512  1
  I  I52  1  0.732952  0.240598  0.235404  1
  I  I53  1  0.550136  0.168694  0.748530  1
  I  I54  1  0.587147  0.364227  0.757630  1
  I  I55  1  0.892444  0.040344  0.238667  1
  I  I56  1  0.770038  0.434594  0.246928  1
  I  I57  1  0.651870  0.838671  0.237568  1
  I  I58  1  0.468569  0.763310  0.756423  1
  I  I59  1  0.744722  0.160794  0.763692  1
  I  I60  1  0.509039  0.964996  0.755126  1
  I  I61  1  0.933837  0.239337  0.237819  1
  I  I62  1  0.813792  0.637521  0.235944  1
  I  I63  1  0.627963  0.565962  0.752995  1
  I  I64  1  0.969168  0.434396  0.249483  1
  I  I65  1  0.851973  0.836847  0.237846  1
  I  I66  1  0.667387  0.763327  0.758935  1
  I  I67  1  0.784997  0.362629  0.764082  1
  I  I68  1  0.708033  0.965096  0.754836  1
  I  I69  1  0.944178  0.163160  0.761993  1
  I  I70  1  0.827896  0.564953  0.755274  1
  I  I71  1  0.868275  0.763307  0.756694  1
  I  I72  1  0.987848  0.364791  0.757037  1
  I  I73  1  0.907463  0.963196  0.757408  1
