# generated using pymatgen
data_Re2SnC10(ClO5)2
_symmetry_space_group_name_H-M   'P 1'
_cell_length_a   11.94332871
_cell_length_b   13.90490433
_cell_length_c   16.30027093
_cell_angle_alpha   90.00000000
_cell_angle_beta   108.54598322
_cell_angle_gamma   90.00000000
_symmetry_Int_Tables_number   1
_chemical_formula_structural   Re2SnC10(ClO5)2
_chemical_formula_sum   'Re8 Sn4 C40 Cl8 O40'
_cell_volume   2566.42170430
_cell_formula_units_Z   4
loop_
 _symmetry_equiv_pos_site_id
 _symmetry_equiv_pos_as_xyz
  1  'x, y, z'
loop_
 _atom_site_type_symbol
 _atom_site_label
 _atom_site_symmetry_multiplicity
 _atom_site_fract_x
 _atom_site_fract_y
 _atom_site_fract_z
 _atom_site_occupancy
  Re  Re0  1  0.989720  0.256639  0.682729  1
  Re  Re1  1  0.674910  0.285410  0.282463  1
  Re  Re2  1  0.174910  0.214590  0.782463  1
  Re  Re3  1  0.825090  0.785410  0.217537  1
  Re  Re4  1  0.489720  0.243361  0.182729  1
  Re  Re5  1  0.010280  0.743361  0.317271  1
  Re  Re6  1  0.510280  0.756639  0.817271  1
  Re  Re7  1  0.325090  0.714590  0.717537  1
  Sn  Sn8  1  0.895624  0.246767  0.803329  1
  Sn  Sn9  1  0.104376  0.753233  0.196671  1
  Sn  Sn10  1  0.604376  0.746767  0.696671  1
  Sn  Sn11  1  0.395624  0.253233  0.303329  1
  C  C12  1  0.952896  0.138713  0.182458  1
  C  C13  1  0.018571  0.602781  0.550724  1
  C  C14  1  0.888669  0.903198  0.160158  1
  C  C15  1  0.553313  0.031139  0.537236  1
  C  C16  1  0.684688  0.281104  0.015952  1
  C  C17  1  0.452896  0.361287  0.682458  1
  C  C18  1  0.801226  0.047545  0.984427  1
  C  C19  1  0.315312  0.718896  0.984048  1
  C  C20  1  0.560539  0.932201  0.512931  1
  C  C21  1  0.011527  0.378689  0.185107  1
  C  C22  1  0.815312  0.781104  0.484048  1
  C  C23  1  0.698774  0.547545  0.515573  1
  C  C24  1  0.053313  0.468861  0.037236  1
  C  C25  1  0.795477  0.665552  0.147382  1
  C  C26  1  0.481429  0.102781  0.949276  1
  C  C27  1  0.988473  0.621311  0.814893  1
  C  C28  1  0.184688  0.218896  0.515952  1
  C  C29  1  0.446687  0.968861  0.462764  1
  C  C30  1  0.939461  0.432201  0.987069  1
  C  C31  1  0.439461  0.067799  0.487069  1
  C  C32  1  0.047104  0.861287  0.817542  1
  C  C33  1  0.388669  0.596802  0.660158  1
  C  C34  1  0.547104  0.638713  0.317542  1
  C  C35  1  0.158721  0.998387  0.201105  1
  C  C36  1  0.060539  0.567799  0.012931  1
  C  C37  1  0.204523  0.334448  0.852618  1
  C  C38  1  0.841279  0.001613  0.798895  1
  C  C39  1  0.295477  0.834448  0.647382  1
  C  C40  1  0.611331  0.403198  0.339842  1
  C  C41  1  0.198774  0.952455  0.015573  1
  C  C42  1  0.981429  0.397219  0.449276  1
  C  C43  1  0.301226  0.452455  0.484427  1
  C  C44  1  0.488473  0.878689  0.314893  1
  C  C45  1  0.658721  0.501613  0.701105  1
  C  C46  1  0.946687  0.531139  0.962764  1
  C  C47  1  0.111331  0.096802  0.839842  1
  C  C48  1  0.518571  0.897219  0.050724  1
  C  C49  1  0.511527  0.121311  0.685107  1
  C  C50  1  0.704523  0.165552  0.352618  1
  C  C51  1  0.341279  0.498387  0.298895  1
  Cl  Cl52  1  0.978449  0.415885  0.650063  1
  Cl  Cl53  1  0.887396  0.130892  0.605450  1
  Cl  Cl54  1  0.612604  0.630892  0.894550  1
  Cl  Cl55  1  0.387396  0.369108  0.105450  1
  Cl  Cl56  1  0.112604  0.869108  0.394550  1
  Cl  Cl57  1  0.021551  0.584115  0.349937  1
  Cl  Cl58  1  0.478449  0.084115  0.150063  1
  Cl  Cl59  1  0.521551  0.915885  0.849937  1
  O  O60  1  0.093184  0.871381  0.766556  1
  O  O61  1  0.284675  0.561708  0.263691  1
  O  O62  1  0.122432  0.638277  0.027582  1
  O  O63  1  0.206462  0.878317  0.047506  1
  O  O64  1  0.715325  0.438292  0.736309  1
  O  O65  1  0.628323  0.344957  0.398471  1
  O  O66  1  0.377568  0.138277  0.472418  1
  O  O67  1  0.864449  0.800883  0.554589  1
  O  O68  1  0.877568  0.361723  0.972418  1
  O  O69  1  0.264202  0.903344  0.605672  1
  O  O70  1  0.611275  0.864118  0.075481  1
  O  O71  1  0.215325  0.061708  0.236309  1
  O  O72  1  0.388725  0.135882  0.924519  1
  O  O73  1  0.111275  0.635882  0.575481  1
  O  O74  1  0.735798  0.096656  0.394328  1
  O  O75  1  0.593184  0.628619  0.266556  1
  O  O76  1  0.706462  0.621683  0.547506  1
  O  O77  1  0.727569  0.817603  0.272296  1
  O  O78  1  0.135551  0.199117  0.445411  1
  O  O79  1  0.235798  0.403344  0.894328  1
  O  O80  1  0.089669  0.332895  0.225124  1
  O  O81  1  0.635551  0.300883  0.945411  1
  O  O82  1  0.272431  0.182397  0.727704  1
  O  O83  1  0.764202  0.596656  0.105672  1
  O  O84  1  0.589669  0.167105  0.725124  1
  O  O85  1  0.784675  0.938292  0.763691  1
  O  O86  1  0.364449  0.699117  0.054589  1
  O  O87  1  0.906816  0.128619  0.233444  1
  O  O88  1  0.793538  0.121683  0.952494  1
  O  O89  1  0.888725  0.364118  0.424519  1
  O  O90  1  0.293538  0.378317  0.452494  1
  O  O91  1  0.772431  0.317603  0.227704  1
  O  O92  1  0.371677  0.655043  0.601529  1
  O  O93  1  0.406816  0.371381  0.733444  1
  O  O94  1  0.622432  0.861723  0.527582  1
  O  O95  1  0.871677  0.844957  0.101529  1
  O  O96  1  0.128323  0.155043  0.898471  1
  O  O97  1  0.910331  0.667105  0.774876  1
  O  O98  1  0.227569  0.682397  0.772296  1
  O  O99  1  0.410331  0.832895  0.274876  1
