# generated using pymatgen
data_Zn3B7BrO13
_symmetry_space_group_name_H-M   'P 1'
_cell_length_a   9.45211290
_cell_length_b   9.92551224
_cell_length_c   17.85110524
_cell_angle_alpha   90.00000000
_cell_angle_beta   90.00000000
_cell_angle_gamma   90.00000000
_symmetry_Int_Tables_number   1
_chemical_formula_structural   Zn3B7BrO13
_chemical_formula_sum   'Zn12 B28 Br4 O52'
_cell_volume   1674.73825212
_cell_formula_units_Z   4
loop_
 _symmetry_equiv_pos_site_id
 _symmetry_equiv_pos_as_xyz
  1  'x, y, z'
loop_
 _atom_site_type_symbol
 _atom_site_label
 _atom_site_symmetry_multiplicity
 _atom_site_fract_x
 _atom_site_fract_y
 _atom_site_fract_z
 _atom_site_occupancy
  Zn  Zn0  1  0.687985  0.421111  0.283695  1
  Zn  Zn1  1  0.970783  0.021837  0.541136  1
  Zn  Zn2  1  0.470783  0.978163  0.541136  1
  Zn  Zn3  1  0.029217  0.978163  0.041136  1
  Zn  Zn4  1  0.567773  0.511090  0.583701  1
  Zn  Zn5  1  0.312015  0.578889  0.783695  1
  Zn  Zn6  1  0.187985  0.578889  0.283695  1
  Zn  Zn7  1  0.812015  0.421111  0.783695  1
  Zn  Zn8  1  0.067773  0.488910  0.583701  1
  Zn  Zn9  1  0.932227  0.511090  0.083701  1
  Zn  Zn10  1  0.432227  0.488910  0.083701  1
  Zn  Zn11  1  0.529217  0.021837  0.041136  1
  B  B12  1  0.771760  0.026923  0.725694  1
  B  B13  1  0.472163  0.314805  0.800741  1
  B  B14  1  0.524408  0.057142  0.771280  1
  B  B15  1  0.164805  0.214237  0.549393  1
  B  B16  1  0.301470  0.894285  0.591690  1
  B  B17  1  0.926020  0.511731  0.905536  1
  B  B18  1  0.466335  0.599158  0.220784  1
  B  B19  1  0.664805  0.785763  0.549393  1
  B  B20  1  0.426020  0.488269  0.905536  1
  B  B21  1  0.728240  0.026923  0.225694  1
  B  B22  1  0.975592  0.057142  0.271280  1
  B  B23  1  0.033665  0.599158  0.720784  1
  B  B24  1  0.527837  0.685195  0.300741  1
  B  B25  1  0.198530  0.894285  0.091690  1
  B  B26  1  0.475592  0.942858  0.271280  1
  B  B27  1  0.335195  0.214237  0.049393  1
  B  B28  1  0.835195  0.785763  0.049393  1
  B  B29  1  0.228240  0.973077  0.225694  1
  B  B30  1  0.024408  0.942858  0.771280  1
  B  B31  1  0.027837  0.314805  0.300741  1
  B  B32  1  0.966335  0.400842  0.220784  1
  B  B33  1  0.573980  0.511731  0.405536  1
  B  B34  1  0.533665  0.400842  0.720784  1
  B  B35  1  0.801470  0.105715  0.591690  1
  B  B36  1  0.271760  0.973077  0.725694  1
  B  B37  1  0.972163  0.685195  0.800741  1
  B  B38  1  0.073980  0.488269  0.405536  1
  B  B39  1  0.698530  0.105715  0.091690  1
  Br  Br40  1  0.256321  0.741413  0.029685  1
  Br  Br41  1  0.743679  0.258588  0.529685  1
  Br  Br42  1  0.756321  0.258588  0.029685  1
  Br  Br43  1  0.243679  0.741413  0.529685  1
  O  O44  1  0.937968  0.851978  0.402366  1
  O  O45  1  0.233498  0.916603  0.656146  1
  O  O46  1  0.056544  0.164250  0.971612  1
  O  O47  1  0.586993  0.637705  0.364975  1
  O  O48  1  0.661296  0.000817  0.772369  1
  O  O49  1  0.503799  0.178341  0.802579  1
  O  O50  1  0.179200  0.313049  0.592051  1
  O  O51  1  0.413254  0.985830  0.740237  1
  O  O52  1  0.323039  0.574980  0.214422  1
  O  O53  1  0.437177  0.480265  0.979377  1
  O  O54  1  0.086994  0.362295  0.364975  1
  O  O55  1  0.320800  0.313049  0.092051  1
  O  O56  1  0.852594  0.895872  0.011805  1
  O  O57  1  0.077526  0.605958  0.364278  1
  O  O58  1  0.733498  0.083397  0.656146  1
  O  O59  1  0.577526  0.394042  0.364278  1
  O  O60  1  0.679200  0.686951  0.592051  1
  O  O61  1  0.943456  0.835750  0.471612  1
  O  O62  1  0.086746  0.985830  0.240237  1
  O  O63  1  0.562823  0.519735  0.479377  1
  O  O64  1  0.922474  0.394042  0.864278  1
  O  O65  1  0.913254  0.014170  0.740237  1
  O  O66  1  0.062032  0.148022  0.902366  1
  O  O67  1  0.913007  0.637705  0.864975  1
  O  O68  1  0.586746  0.014170  0.240237  1
  O  O69  1  0.676961  0.425020  0.714422  1
  O  O70  1  0.443456  0.164250  0.471612  1
  O  O71  1  0.422474  0.605958  0.864278  1
  O  O72  1  0.003799  0.821659  0.802579  1
  O  O73  1  0.766502  0.083397  0.156146  1
  O  O74  1  0.996201  0.178341  0.302579  1
  O  O75  1  0.176961  0.574980  0.714422  1
  O  O76  1  0.545763  0.563514  0.161048  1
  O  O77  1  0.413006  0.362295  0.864975  1
  O  O78  1  0.562032  0.851978  0.902366  1
  O  O79  1  0.556544  0.835750  0.971612  1
  O  O80  1  0.838704  0.000817  0.272369  1
  O  O81  1  0.454237  0.436486  0.661048  1
  O  O82  1  0.062823  0.480265  0.479377  1
  O  O83  1  0.437968  0.148022  0.402366  1
  O  O84  1  0.045763  0.436486  0.161048  1
  O  O85  1  0.954237  0.563514  0.661048  1
  O  O86  1  0.266502  0.916603  0.156146  1
  O  O87  1  0.338704  0.999183  0.272369  1
  O  O88  1  0.161296  0.999183  0.772369  1
  O  O89  1  0.147406  0.104128  0.511805  1
  O  O90  1  0.823039  0.425020  0.214422  1
  O  O91  1  0.647406  0.895872  0.511805  1
  O  O92  1  0.820800  0.686951  0.092051  1
  O  O93  1  0.352594  0.104128  0.011805  1
  O  O94  1  0.937177  0.519735  0.979377  1
  O  O95  1  0.496201  0.821659  0.302579  1
